MODEL 1
REMARK VINA RESULT:     -11.3      0.000      0.000
REMARK SMILES O=C(CC1CC[NH+](C[C@@H]2Cc3ccccc32)CC1)NCCCCCCNC(=O)c1ccc(-c2c3nc(c(-c4cc(S(=O)(=O)[O-])ccc4F)c4ccc([nH]4)c(-c4cc(S(=O)(=O)[O-])ccc4F)c4nc(c(-c5cc(S(=O)(=O)[O-])ccc5F)c5ccc2[nH]5)C=C4)C=C3)cc1
REMARK SMILES IDX 22 1 21 2 20 3 19 4 1 5 2 6 3 8 4 9 5 10 18 11 6 12 17 13
REMARK SMILES IDX 7 14 8 16 9 17 10 18 16 19 11 20 15 21 12 22 14 23 13 24
REMARK SMILES IDX 23 25 24 26 25 27 26 28 27 29 28 31 29 32 30 33 91 34 31 35
REMARK SMILES IDX 90 36 32 37 33 38 34 39 84 40 35 41 89 42 83 43 85 44 36 45
REMARK SMILES IDX 88 46 82 47 81 48 37 50 69 51 49 52 68 53 50 54 53 55 67 56
REMARK SMILES IDX 86 57 51 58 52 59 66 61 87 62 54 63 38 64 39 65 47 66 40 67
REMARK SMILES IDX 46 68 48 69 45 70 41 71 42 72 43 73 44 74 70 75 71 76 79 77
REMARK SMILES IDX 72 78 78 79 80 80 77 81 73 82 74 83 75 84 76 85 55 86 56 87
REMARK SMILES IDX 64 88 57 89 63 90 65 91 62 92 58 93 59 94 60 95 61 96
REMARK H PARENT 19 7 7 15 26 30 85 49 53 60
REMARK Flexibility Score: inf
ROOT
ATOM      1  C   UNL A   1      33.511  30.337  27.345  1.00  0.00     0.002 C 
ENDROOT
BRANCH   1   2
ATOM      2  C   UNL A   1      34.143  29.042  26.818  1.00  0.00     0.021 C 
BRANCH   2   3
ATOM      3  C   UNL A   1      33.946  28.812  25.321  1.00  0.00     0.116 C 
BRANCH   3   4
ATOM      4  N   UNL A   1      33.218  27.583  25.079  1.00  0.00    -0.356 N 
ATOM      5  O   UNL A   1      31.295  28.586  24.349  1.00  0.00    -0.275 OA
ATOM      6  C   UNL A   1      31.925  27.570  24.624  1.00  0.00     0.220 C 
ATOM      7  H   UNL A   1      33.669  26.725  25.248  1.00  0.00     0.163 HD
BRANCH   6   8
ATOM      8  C   UNL A   1      31.294  26.194  24.556  1.00  0.00     0.104 C 
BRANCH   8   9
ATOM      9  C   UNL A   1      30.904  25.681  23.152  1.00  0.00     0.009 C 
ATOM     10  C   UNL A   1      30.283  24.279  23.136  1.00  0.00     0.066 C 
ATOM     11  C   UNL A   1      32.135  25.636  22.229  1.00  0.00     0.066 C 
ATOM     12  C   UNL A   1      31.281  23.227  23.614  1.00  0.00     0.262 C 
ATOM     13  C   UNL A   1      33.128  24.538  22.640  1.00  0.00     0.262 C 
ATOM     14  N   UNL A   1      32.508  23.227  22.824  1.00  0.00    -0.334 N 
ATOM     15  H   UNL A   1      32.182  22.992  21.886  1.00  0.00     0.348 HD
BRANCH  14  16
ATOM     16  C   UNL A   1      33.452  22.138  23.152  1.00  0.00     0.270 C 
BRANCH  16  17
ATOM     17  C   UNL A   1      33.148  21.091  24.248  1.00  0.00     0.079 C 
ATOM     18  C   UNL A   1      34.249  20.626  25.276  1.00  0.00     0.050 C 
ATOM     19  C   UNL A   1      33.056  19.639  23.855  1.00  0.00    -0.036 A 
ATOM     20  C   UNL A   1      34.129  19.274  24.634  1.00  0.00    -0.043 A 
ATOM     21  C   UNL A   1      32.385  18.731  23.068  1.00  0.00     0.004 A 
ATOM     22  C   UNL A   1      34.658  18.006  24.598  1.00  0.00     0.004 A 
ATOM     23  C   UNL A   1      32.893  17.429  23.018  1.00  0.00     0.000 A 
ATOM     24  C   UNL A   1      34.034  17.075  23.764  1.00  0.00     0.000 A 
ENDBRANCH  16  17
ENDBRANCH  14  16
ENDBRANCH   8   9
ENDBRANCH   6   8
ENDBRANCH   3   4
ENDBRANCH   2   3
ENDBRANCH   1   2
BRANCH   1  25
ATOM     25  C   UNL A   1      32.049  30.557  26.946  1.00  0.00     0.002 C 
BRANCH  25  26
ATOM     26  C   UNL A   1      31.594  32.018  26.932  1.00  0.00     0.021 C 
BRANCH  26  27
ATOM     27  C   UNL A   1      32.718  33.036  26.762  1.00  0.00     0.116 C 
BRANCH  27  28
ATOM     28  N   UNL A   1      32.535  34.206  27.608  1.00  0.00    -0.352 N 
ATOM     29  C   UNL A   1      33.192  34.555  28.764  1.00  0.00     0.251 C 
ATOM     30  H   UNL A   1      31.842  34.838  27.311  1.00  0.00     0.163 HD
ATOM     31  O   UNL A   1      32.777  35.490  29.442  1.00  0.00    -0.269 OA
BRANCH  29  32
ATOM     32  C   UNL A   1      34.375  33.781  29.199  1.00  0.00     0.039 A 
ATOM     33  C   UNL A   1      35.647  34.210  28.811  1.00  0.00     0.014 A 
ATOM     34  C   UNL A   1      34.232  32.647  30.005  1.00  0.00     0.014 A 
ATOM     35  C   UNL A   1      36.778  33.552  29.299  1.00  0.00     0.010 A 
ATOM     36  C   UNL A   1      35.362  32.037  30.547  1.00  0.00     0.010 A 
ATOM     37  C   UNL A   1      36.646  32.490  30.207  1.00  0.00    -0.014 A 
BRANCH  37  38
ATOM     38  C   UNL A   1      37.837  31.865  30.840  1.00  0.00     0.031 A 
ATOM     39  C   UNL A   1      38.608  30.793  30.121  1.00  0.00     0.074 A 
ATOM     40  C   UNL A   1      38.175  32.208  32.100  1.00  0.00     0.049 A 
ATOM     41  N   UNL A   1      39.611  30.068  30.544  1.00  0.00    -0.248 NA
ATOM     42  C   UNL A   1      38.169  30.478  28.754  1.00  0.00     0.031 C 
ATOM     43  C   UNL A   1      37.475  33.199  32.919  1.00  0.00     0.029 A 
ATOM     44  N   UNL A   1      39.176  31.750  32.919  1.00  0.00    -0.354 N 
ATOM     45  C   UNL A   1      39.924  29.206  29.497  1.00  0.00     0.074 A 
ATOM     46  C   UNL A   1      38.954  29.456  28.450  1.00  0.00     0.031 C 
ATOM     47  C   UNL A   1      38.073  33.280  34.118  1.00  0.00     0.029 A 
ATOM     48  C   UNL A   1      39.165  32.314  34.173  1.00  0.00     0.049 A 
ATOM     49  H   UNL A   1      39.841  31.080  32.636  1.00  0.00     0.167 HD
ATOM     50  C   UNL A   1      40.938  28.310  29.409  1.00  0.00     0.034 A 
ATOM     51  C   UNL A   1      39.928  32.065  35.257  1.00  0.00     0.034 A 
ATOM     52  C   UNL A   1      41.888  28.067  30.470  1.00  0.00     0.049 A 
ATOM     53  C   UNL A   1      41.019  31.032  35.158  1.00  0.00     0.074 A 
ATOM     54  C   UNL A   1      42.984  27.222  30.470  1.00  0.00     0.029 A 
ATOM     55  N   UNL A   1      41.845  28.656  31.729  1.00  0.00    -0.354 N 
ATOM     56  N   UNL A   1      41.343  30.268  34.140  1.00  0.00    -0.248 NA
ATOM     57  C   UNL A   1      41.854  30.834  36.349  1.00  0.00     0.031 C 
ATOM     58  C   UNL A   1      43.554  27.242  31.750  1.00  0.00     0.029 A 
ATOM     59  C   UNL A   1      42.868  28.162  32.525  1.00  0.00     0.049 A 
ATOM     60  H   UNL A   1      41.183  29.328  32.014  1.00  0.00     0.167 HD
ATOM     61  C   UNL A   1      42.431  29.511  34.563  1.00  0.00     0.074 A 
ATOM     62  C   UNL A   1      42.720  29.926  35.922  1.00  0.00     0.031 C 
ATOM     63  C   UNL A   1      43.130  28.562  33.889  1.00  0.00     0.034 A 
BRANCH  50  64
ATOM     64  C   UNL A   1      41.043  27.510  28.130  1.00  0.00     0.023 A 
ATOM     65  C   UNL A   1      40.658  26.158  28.075  1.00  0.00     0.031 A 
ATOM     66  C   UNL A   1      41.580  28.084  26.966  1.00  0.00     0.131 A 
ATOM     67  C   UNL A   1      40.905  25.403  26.919  1.00  0.00     0.055 A 
ATOM     68  C   UNL A   1      41.736  27.351  25.786  1.00  0.00     0.041 A 
ATOM     69  F   UNL A   1      41.986  29.363  26.957  1.00  0.00    -0.206 F 
ATOM     70  C   UNL A   1      41.417  25.997  25.764  1.00  0.00     0.022 A 
BRANCH  67  71
ATOM     71  S   UNL A   1      40.715  23.600  27.009  1.00  0.00     0.124 S 
ATOM     72  O   UNL A   1      41.169  23.323  28.370  1.00  0.00    -0.237 OA
ATOM     73  O   UNL A   1      39.291  23.421  26.761  1.00  0.00    -0.237 OA
ATOM     74  O   UNL A   1      41.602  23.110  25.954  1.00  0.00    -0.744 OA
ENDBRANCH  67  71
ENDBRANCH  50  64
BRANCH  51  75
ATOM     75  C   UNL A   1      39.660  32.783  36.536  1.00  0.00     0.023 A 
ATOM     76  C   UNL A   1      38.690  32.326  37.440  1.00  0.00     0.031 A 
ATOM     77  C   UNL A   1      40.373  33.951  36.866  1.00  0.00     0.131 A 
ATOM     78  C   UNL A   1      38.433  33.051  38.616  1.00  0.00     0.055 A 
ATOM     79  C   UNL A   1      40.150  34.639  38.059  1.00  0.00     0.041 A 
ATOM     80  F   UNL A   1      41.317  34.428  36.039  1.00  0.00    -0.206 F 
ATOM     81  C   UNL A   1      39.167  34.195  38.937  1.00  0.00     0.022 A 
BRANCH  78  82
ATOM     82  S   UNL A   1      37.076  32.512  39.692  1.00  0.00     0.124 S 
ATOM     83  O   UNL A   1      37.446  31.128  39.965  1.00  0.00    -0.237 OA
ATOM     84  O   UNL A   1      37.192  33.441  40.812  1.00  0.00    -0.237 OA
ATOM     85  O   UNL A   1      35.890  32.689  38.858  1.00  0.00    -0.744 OA
ENDBRANCH  78  82
ENDBRANCH  51  75
BRANCH  63  86
ATOM     86  C   UNL A   1      44.297  27.927  34.610  1.00  0.00     0.023 A 
ATOM     87  C   UNL A   1      44.135  26.788  35.419  1.00  0.00     0.031 A 
ATOM     88  C   UNL A   1      45.586  28.473  34.487  1.00  0.00     0.131 A 
ATOM     89  C   UNL A   1      45.235  26.263  36.114  1.00  0.00     0.055 A 
ATOM     90  C   UNL A   1      46.689  27.908  35.132  1.00  0.00     0.041 A 
ATOM     91  F   UNL A   1      45.799  29.564  33.733  1.00  0.00    -0.206 F 
ATOM     92  C   UNL A   1      46.514  26.804  35.960  1.00  0.00     0.022 A 
BRANCH  89  93
ATOM     93  S   UNL A   1      44.958  24.910  37.291  1.00  0.00     0.124 S 
ATOM     94  O   UNL A   1      45.610  23.790  36.620  1.00  0.00    -0.237 OA
ATOM     95  O   UNL A   1      45.617  25.404  38.496  1.00  0.00    -0.237 OA
ATOM     96  O   UNL A   1      43.501  24.821  37.373  1.00  0.00    -0.744 OA
ENDBRANCH  89  93
ENDBRANCH  63  86
ENDBRANCH  37  38
ENDBRANCH  29  32
ENDBRANCH  27  28
ENDBRANCH  26  27
ENDBRANCH  25  26
ENDBRANCH   1  25
TORSDOF 19
ENDMDL
MODEL 2
REMARK VINA RESULT:     -11.3      1.742      2.348
REMARK SMILES O=C(CC1CC[NH+](C[C@@H]2Cc3ccccc32)CC1)NCCCCCCNC(=O)c1ccc(-c2c3nc(c(-c4cc(S(=O)(=O)[O-])ccc4F)c4ccc([nH]4)c(-c4cc(S(=O)(=O)[O-])ccc4F)c4nc(c(-c5cc(S(=O)(=O)[O-])ccc5F)c5ccc2[nH]5)C=C4)C=C3)cc1
REMARK SMILES IDX 22 1 21 2 20 3 19 4 1 5 2 6 3 8 4 9 5 10 18 11 6 12 17 13
REMARK SMILES IDX 7 14 8 16 9 17 10 18 16 19 11 20 15 21 12 22 14 23 13 24
REMARK SMILES IDX 23 25 24 26 25 27 26 28 27 29 28 31 29 32 30 33 91 34 31 35
REMARK SMILES IDX 90 36 32 37 33 38 34 39 84 40 35 41 89 42 83 43 85 44 36 45
REMARK SMILES IDX 88 46 82 47 81 48 37 50 69 51 49 52 68 53 50 54 53 55 67 56
REMARK SMILES IDX 86 57 51 58 52 59 66 61 87 62 54 63 38 64 39 65 47 66 40 67
REMARK SMILES IDX 46 68 48 69 45 70 41 71 42 72 43 73 44 74 70 75 71 76 79 77
REMARK SMILES IDX 72 78 78 79 80 80 77 81 73 82 74 83 75 84 76 85 55 86 56 87
REMARK SMILES IDX 64 88 57 89 63 90 65 91 62 92 58 93 59 94 60 95 61 96
REMARK H PARENT 19 7 7 15 26 30 85 49 53 60
REMARK Flexibility Score: inf
ROOT
ATOM      1  C   UNL A   1      32.232  29.014  25.353  1.00  0.00     0.002 C 
ENDROOT
BRANCH   1   2
ATOM      2  C   UNL A   1      31.020  29.287  24.451  1.00  0.00     0.021 C 
BRANCH   2   3
ATOM      3  C   UNL A   1      30.895  28.333  23.264  1.00  0.00     0.116 C 
BRANCH   3   4
ATOM      4  N   UNL A   1      31.855  27.254  23.366  1.00  0.00    -0.356 N 
ATOM      5  O   UNL A   1      30.311  25.586  23.641  1.00  0.00    -0.275 OA
ATOM      6  C   UNL A   1      31.480  25.951  23.568  1.00  0.00     0.220 C 
ATOM      7  H   UNL A   1      32.813  27.464  23.286  1.00  0.00     0.163 HD
BRANCH   6   8
ATOM      8  C   UNL A   1      32.633  24.988  23.775  1.00  0.00     0.104 C 
BRANCH   8   9
ATOM      9  C   UNL A   1      33.477  25.185  25.053  1.00  0.00     0.009 C 
ATOM     10  C   UNL A   1      34.946  24.765  24.917  1.00  0.00     0.066 C 
ATOM     11  C   UNL A   1      32.887  24.377  26.223  1.00  0.00     0.066 C 
ATOM     12  C   UNL A   1      35.071  23.265  24.659  1.00  0.00     0.262 C 
ATOM     13  C   UNL A   1      33.060  22.863  26.029  1.00  0.00     0.262 C 
ATOM     14  N   UNL A   1      34.429  22.468  25.699  1.00  0.00    -0.334 N 
ATOM     15  H   UNL A   1      34.950  22.718  26.539  1.00  0.00     0.348 HD
BRANCH  14  16
ATOM     16  C   UNL A   1      34.638  21.011  25.575  1.00  0.00     0.270 C 
BRANCH  16  17
ATOM     17  C   UNL A   1      33.795  20.140  24.614  1.00  0.00     0.079 C 
ATOM     18  C   UNL A   1      32.298  19.766  24.934  1.00  0.00     0.050 C 
ATOM     19  C   UNL A   1      34.046  18.653  24.578  1.00  0.00    -0.036 A 
ATOM     20  C   UNL A   1      32.780  18.346  25.020  1.00  0.00    -0.043 A 
ATOM     21  C   UNL A   1      34.987  17.681  24.332  1.00  0.00     0.004 A 
ATOM     22  C   UNL A   1      32.410  17.060  25.334  1.00  0.00     0.004 A 
ATOM     23  C   UNL A   1      34.638  16.361  24.633  1.00  0.00     0.000 A 
ATOM     24  C   UNL A   1      33.364  16.056  25.150  1.00  0.00     0.000 A 
ENDBRANCH  16  17
ENDBRANCH  14  16
ENDBRANCH   8   9
ENDBRANCH   6   8
ENDBRANCH   3   4
ENDBRANCH   2   3
ENDBRANCH   1   2
BRANCH   1  25
ATOM     25  C   UNL A   1      32.163  29.648  26.745  1.00  0.00     0.002 C 
BRANCH  25  26
ATOM     26  C   UNL A   1      31.915  31.158  26.757  1.00  0.00     0.021 C 
BRANCH  26  27
ATOM     27  C   UNL A   1      33.101  31.998  27.223  1.00  0.00     0.116 C 
BRANCH  27  28
ATOM     28  N   UNL A   1      32.726  33.378  27.496  1.00  0.00    -0.352 N 
ATOM     29  C   UNL A   1      33.205  34.236  28.457  1.00  0.00     0.251 C 
ATOM     30  H   UNL A   1      32.030  33.750  26.909  1.00  0.00     0.163 HD
ATOM     31  O   UNL A   1      32.639  35.306  28.655  1.00  0.00    -0.269 OA
BRANCH  29  32
ATOM     32  C   UNL A   1      34.379  33.847  29.269  1.00  0.00     0.039 A 
ATOM     33  C   UNL A   1      34.185  33.056  30.404  1.00  0.00     0.014 A 
ATOM     34  C   UNL A   1      35.668  34.246  28.902  1.00  0.00     0.014 A 
ATOM     35  C   UNL A   1      35.291  32.595  31.123  1.00  0.00     0.010 A 
ATOM     36  C   UNL A   1      36.770  33.727  29.578  1.00  0.00     0.010 A 
ATOM     37  C   UNL A   1      36.593  32.887  30.688  1.00  0.00    -0.014 A 
BRANCH  37  38
ATOM     38  C   UNL A   1      37.781  32.296  31.360  1.00  0.00     0.031 A 
ATOM     39  C   UNL A   1      38.514  31.142  30.735  1.00  0.00     0.074 A 
ATOM     40  C   UNL A   1      38.149  32.750  32.575  1.00  0.00     0.049 A 
ATOM     41  N   UNL A   1      39.508  30.436  31.210  1.00  0.00    -0.248 NA
ATOM     42  C   UNL A   1      38.043  30.708  29.412  1.00  0.00     0.031 C 
ATOM     43  C   UNL A   1      37.486  33.832  33.306  1.00  0.00     0.029 A 
ATOM     44  N   UNL A   1      39.154  32.348  33.419  1.00  0.00    -0.354 N 
ATOM     45  C   UNL A   1      39.782  29.471  30.247  1.00  0.00     0.074 A 
ATOM     46  C   UNL A   1      38.800  29.643  29.196  1.00  0.00     0.031 C 
ATOM     47  C   UNL A   1      38.107  34.014  34.482  1.00  0.00     0.029 A 
ATOM     48  C   UNL A   1      39.177  33.031  34.613  1.00  0.00     0.049 A 
ATOM     49  H   UNL A   1      39.798  31.639  33.191  1.00  0.00     0.167 HD
ATOM     50  C   UNL A   1      40.774  28.546  30.230  1.00  0.00     0.034 A 
ATOM     51  C   UNL A   1      39.954  32.869  35.703  1.00  0.00     0.034 A 
ATOM     52  C   UNL A   1      41.737  28.383  31.294  1.00  0.00     0.049 A 
ATOM     53  C   UNL A   1      41.020  31.804  35.687  1.00  0.00     0.074 A 
ATOM     54  C   UNL A   1      42.813  27.516  31.359  1.00  0.00     0.029 A 
ATOM     55  N   UNL A   1      41.730  29.091  32.491  1.00  0.00    -0.354 N 
ATOM     56  N   UNL A   1      41.308  30.939  34.743  1.00  0.00    -0.248 NA
ATOM     57  C   UNL A   1      41.872  31.701  36.879  1.00  0.00     0.031 C 
ATOM     58  C   UNL A   1      43.407  27.644  32.621  1.00  0.00     0.029 A 
ATOM     59  C   UNL A   1      42.755  28.651  33.315  1.00  0.00     0.049 A 
ATOM     60  H   UNL A   1      41.089  29.803  32.721  1.00  0.00     0.167 HD
ATOM     61  C   UNL A   1      42.386  30.199  35.220  1.00  0.00     0.074 A 
ATOM     62  C   UNL A   1      42.708  30.736  36.528  1.00  0.00     0.031 C 
ATOM     63  C   UNL A   1      43.051  29.174  34.630  1.00  0.00     0.034 A 
BRANCH  50  64
ATOM     64  C   UNL A   1      40.838  27.624  29.032  1.00  0.00     0.023 A 
ATOM     65  C   UNL A   1      41.795  27.804  28.017  1.00  0.00     0.031 A 
ATOM     66  C   UNL A   1      39.906  26.586  28.875  1.00  0.00     0.131 A 
ATOM     67  C   UNL A   1      41.736  27.027  26.850  1.00  0.00     0.055 A 
ATOM     68  C   UNL A   1      39.911  25.752  27.753  1.00  0.00     0.041 A 
ATOM     69  F   UNL A   1      38.954  26.373  29.798  1.00  0.00    -0.206 F 
ATOM     70  C   UNL A   1      40.817  25.984  26.722  1.00  0.00     0.022 A 
BRANCH  67  71
ATOM     71  S   UNL A   1      42.758  27.519  25.434  1.00  0.00     0.124 S 
ATOM     72  O   UNL A   1      41.988  28.635  24.887  1.00  0.00    -0.237 OA
ATOM     73  O   UNL A   1      44.025  27.866  26.065  1.00  0.00    -0.237 OA
ATOM     74  O   UNL A   1      42.782  26.321  24.597  1.00  0.00    -0.744 OA
ENDBRANCH  67  71
ENDBRANCH  50  64
BRANCH  51  75
ATOM     75  C   UNL A   1      39.726  33.712  36.912  1.00  0.00     0.023 A 
ATOM     76  C   UNL A   1      39.165  33.176  38.080  1.00  0.00     0.031 A 
ATOM     77  C   UNL A   1      40.061  35.079  36.906  1.00  0.00     0.131 A 
ATOM     78  C   UNL A   1      38.923  34.009  39.185  1.00  0.00     0.055 A 
ATOM     79  C   UNL A   1      39.866  35.891  38.024  1.00  0.00     0.041 A 
ATOM     80  F   UNL A   1      40.606  35.641  35.815  1.00  0.00    -0.206 F 
ATOM     81  C   UNL A   1      39.284  35.359  39.169  1.00  0.00     0.022 A 
BRANCH  78  82
ATOM     82  S   UNL A   1      38.068  33.316  40.627  1.00  0.00     0.124 S 
ATOM     83  O   UNL A   1      38.394  34.291  41.662  1.00  0.00    -0.237 OA
ATOM     84  O   UNL A   1      36.681  33.298  40.177  1.00  0.00    -0.237 OA
ATOM     85  O   UNL A   1      38.686  32.002  40.791  1.00  0.00    -0.744 OA
ENDBRANCH  78  82
ENDBRANCH  51  75
BRANCH  63  86
ATOM     86  C   UNL A   1      44.216  28.582  35.390  1.00  0.00     0.023 A 
ATOM     87  C   UNL A   1      44.037  27.562  36.341  1.00  0.00     0.031 A 
ATOM     88  C   UNL A   1      45.521  29.050  35.161  1.00  0.00     0.131 A 
ATOM     89  C   UNL A   1      45.138  27.080  37.064  1.00  0.00     0.055 A 
ATOM     90  C   UNL A   1      46.622  28.522  35.839  1.00  0.00     0.041 A 
ATOM     91  F   UNL A   1      45.751  30.027  34.268  1.00  0.00    -0.206 F 
ATOM     92  C   UNL A   1      46.432  27.540  36.805  1.00  0.00     0.022 A 
BRANCH  89  93
ATOM     93  S   UNL A   1      44.849  25.899  38.411  1.00  0.00     0.124 S 
ATOM     94  O   UNL A   1      43.628  26.425  39.015  1.00  0.00    -0.237 OA
ATOM     95  O   UNL A   1      44.713  24.635  37.695  1.00  0.00    -0.237 OA
ATOM     96  O   UNL A   1      46.050  26.019  39.236  1.00  0.00    -0.744 OA
ENDBRANCH  89  93
ENDBRANCH  63  86
ENDBRANCH  37  38
ENDBRANCH  29  32
ENDBRANCH  27  28
ENDBRANCH  26  27
ENDBRANCH  25  26
ENDBRANCH   1  25
TORSDOF 19
ENDMDL
MODEL 3
REMARK VINA RESULT:     -11.2      3.489      8.440
REMARK SMILES O=C(CC1CC[NH+](C[C@@H]2Cc3ccccc32)CC1)NCCCCCCNC(=O)c1ccc(-c2c3nc(c(-c4cc(S(=O)(=O)[O-])ccc4F)c4ccc([nH]4)c(-c4cc(S(=O)(=O)[O-])ccc4F)c4nc(c(-c5cc(S(=O)(=O)[O-])ccc5F)c5ccc2[nH]5)C=C4)C=C3)cc1
REMARK SMILES IDX 22 1 21 2 20 3 19 4 1 5 2 6 3 8 4 9 5 10 18 11 6 12 17 13
REMARK SMILES IDX 7 14 8 16 9 17 10 18 16 19 11 20 15 21 12 22 14 23 13 24
REMARK SMILES IDX 23 25 24 26 25 27 26 28 27 29 28 31 29 32 30 33 91 34 31 35
REMARK SMILES IDX 90 36 32 37 33 38 34 39 84 40 35 41 89 42 83 43 85 44 36 45
REMARK SMILES IDX 88 46 82 47 81 48 37 50 69 51 49 52 68 53 50 54 53 55 67 56
REMARK SMILES IDX 86 57 51 58 52 59 66 61 87 62 54 63 38 64 39 65 47 66 40 67
REMARK SMILES IDX 46 68 48 69 45 70 41 71 42 72 43 73 44 74 70 75 71 76 79 77
REMARK SMILES IDX 72 78 78 79 80 80 77 81 73 82 74 83 75 84 76 85 55 86 56 87
REMARK SMILES IDX 64 88 57 89 63 90 65 91 62 92 58 93 59 94 60 95 61 96
REMARK H PARENT 19 7 7 15 26 30 85 49 53 60
REMARK Flexibility Score: inf
ROOT
ATOM      1  C   UNL A   1      31.344  29.072  24.850  1.00  0.00     0.002 C 
ENDROOT
BRANCH   1   2
ATOM      2  C   UNL A   1      30.454  29.524  23.683  1.00  0.00     0.021 C 
BRANCH   2   3
ATOM      3  C   UNL A   1      29.739  28.383  22.962  1.00  0.00     0.116 C 
BRANCH   3   4
ATOM      4  N   UNL A   1      29.822  27.156  23.727  1.00  0.00    -0.356 N 
ATOM      5  O   UNL A   1      31.348  26.130  22.364  1.00  0.00    -0.275 OA
ATOM      6  C   UNL A   1      30.618  26.106  23.350  1.00  0.00     0.220 C 
ATOM      7  H   UNL A   1      29.287  27.074  24.549  1.00  0.00     0.163 HD
BRANCH   6   8
ATOM      8  C   UNL A   1      30.471  24.864  24.207  1.00  0.00     0.104 C 
BRANCH   8   9
ATOM      9  C   UNL A   1      30.871  25.000  25.693  1.00  0.00     0.009 C 
ATOM     10  C   UNL A   1      32.383  25.058  25.943  1.00  0.00     0.066 C 
ATOM     11  C   UNL A   1      30.326  23.816  26.512  1.00  0.00     0.066 C 
ATOM     12  C   UNL A   1      33.062  23.754  25.530  1.00  0.00     0.262 C 
ATOM     13  C   UNL A   1      31.039  22.498  26.172  1.00  0.00     0.262 C 
ATOM     14  N   UNL A   1      32.497  22.594  26.212  1.00  0.00    -0.334 N 
ATOM     15  H   UNL A   1      32.689  22.786  27.195  1.00  0.00     0.348 HD
BRANCH  14  16
ATOM     16  C   UNL A   1      33.207  21.324  25.956  1.00  0.00     0.270 C 
BRANCH  16  17
ATOM     17  C   UNL A   1      33.541  20.844  24.524  1.00  0.00     0.079 C 
ATOM     18  C   UNL A   1      32.414  20.600  23.450  1.00  0.00     0.050 C 
ATOM     19  C   UNL A   1      33.904  19.396  24.313  1.00  0.00    -0.036 A 
ATOM     20  C   UNL A   1      32.818  19.155  23.505  1.00  0.00    -0.043 A 
ATOM     21  C   UNL A   1      34.796  18.404  24.650  1.00  0.00     0.004 A 
ATOM     22  C   UNL A   1      32.502  17.891  23.067  1.00  0.00     0.004 A 
ATOM     23  C   UNL A   1      34.508  17.108  24.211  1.00  0.00     0.000 A 
ATOM     24  C   UNL A   1      33.357  16.851  23.440  1.00  0.00     0.000 A 
ENDBRANCH  16  17
ENDBRANCH  14  16
ENDBRANCH   8   9
ENDBRANCH   6   8
ENDBRANCH   3   4
ENDBRANCH   2   3
ENDBRANCH   1   2
BRANCH   1  25
ATOM     25  C   UNL A   1      32.850  29.115  24.574  1.00  0.00     0.002 C 
BRANCH  25  26
ATOM     26  C   UNL A   1      33.732  28.608  25.718  1.00  0.00     0.021 C 
BRANCH  26  27
ATOM     27  C   UNL A   1      33.386  29.175  27.092  1.00  0.00     0.116 C 
BRANCH  27  28
ATOM     28  N   UNL A   1      33.668  30.600  27.187  1.00  0.00    -0.352 N 
ATOM     29  C   UNL A   1      34.745  31.238  27.754  1.00  0.00     0.251 C 
ATOM     30  H   UNL A   1      32.991  31.192  26.788  1.00  0.00     0.163 HD
ATOM     31  O   UNL A   1      34.724  32.456  27.902  1.00  0.00    -0.269 OA
BRANCH  29  32
ATOM     32  C   UNL A   1      35.909  30.448  28.214  1.00  0.00     0.039 A 
ATOM     33  C   UNL A   1      37.046  30.385  27.406  1.00  0.00     0.014 A 
ATOM     34  C   UNL A   1      35.885  29.790  29.448  1.00  0.00     0.014 A 
ATOM     35  C   UNL A   1      38.190  29.731  27.871  1.00  0.00     0.010 A 
ATOM     36  C   UNL A   1      37.048  29.200  29.938  1.00  0.00     0.010 A 
ATOM     37  C   UNL A   1      38.216  29.175  29.159  1.00  0.00    -0.014 A 
BRANCH  37  38
ATOM     38  C   UNL A   1      39.463  28.593  29.723  1.00  0.00     0.031 A 
ATOM     39  C   UNL A   1      40.122  29.219  30.920  1.00  0.00     0.074 A 
ATOM     40  C   UNL A   1      40.045  27.547  29.103  1.00  0.00     0.049 A 
ATOM     41  N   UNL A   1      41.256  28.915  31.496  1.00  0.00    -0.248 NA
ATOM     42  C   UNL A   1      39.421  30.358  31.531  1.00  0.00     0.031 C 
ATOM     43  C   UNL A   1      39.528  26.884  27.905  1.00  0.00     0.029 A 
ATOM     44  N   UNL A   1      41.207  26.870  29.380  1.00  0.00    -0.354 N 
ATOM     45  C   UNL A   1      41.411  29.826  32.536  1.00  0.00     0.074 A 
ATOM     46  C   UNL A   1      40.285  30.735  32.461  1.00  0.00     0.031 C 
ATOM     47  C   UNL A   1      40.362  25.892  27.556  1.00  0.00     0.029 A 
ATOM     48  C   UNL A   1      41.497  25.879  28.472  1.00  0.00     0.049 A 
ATOM     49  H   UNL A   1      41.778  27.075  30.156  1.00  0.00     0.167 HD
ATOM     50  C   UNL A   1      42.385  29.883  33.477  1.00  0.00     0.034 A 
ATOM     51  C   UNL A   1      42.569  25.067  28.369  1.00  0.00     0.034 A 
ATOM     52  C   UNL A   1      43.506  28.973  33.527  1.00  0.00     0.049 A 
ATOM     53  C   UNL A   1      43.667  25.176  29.395  1.00  0.00     0.074 A 
ATOM     54  C   UNL A   1      44.522  28.906  34.465  1.00  0.00     0.029 A 
ATOM     55  N   UNL A   1      43.770  27.981  32.589  1.00  0.00    -0.354 N 
ATOM     56  N   UNL A   1      43.769  26.002  30.410  1.00  0.00    -0.248 NA
ATOM     57  C   UNL A   1      44.788  24.236  29.268  1.00  0.00     0.031 C 
ATOM     58  C   UNL A   1      45.438  27.930  34.052  1.00  0.00     0.029 A 
ATOM     59  C   UNL A   1      44.953  27.328  32.902  1.00  0.00     0.049 A 
ATOM     60  H   UNL A   1      43.200  27.773  31.813  1.00  0.00     0.167 HD
ATOM     61  C   UNL A   1      44.958  25.670  31.053  1.00  0.00     0.074 A 
ATOM     62  C   UNL A   1      45.525  24.555  30.322  1.00  0.00     0.031 C 
ATOM     63  C   UNL A   1      45.526  26.234  32.150  1.00  0.00     0.034 A 
BRANCH  50  64
ATOM     64  C   UNL A   1      42.289  30.988  34.506  1.00  0.00     0.023 A 
ATOM     65  C   UNL A   1      42.898  32.239  34.300  1.00  0.00     0.031 A 
ATOM     66  C   UNL A   1      41.625  30.777  35.726  1.00  0.00     0.131 A 
ATOM     67  C   UNL A   1      42.917  33.190  35.331  1.00  0.00     0.055 A 
ATOM     68  C   UNL A   1      41.566  31.764  36.714  1.00  0.00     0.041 A 
ATOM     69  F   UNL A   1      41.039  29.600  35.993  1.00  0.00    -0.206 F 
ATOM     70  C   UNL A   1      42.232  32.971  36.528  1.00  0.00     0.022 A 
BRANCH  67  71
ATOM     71  S   UNL A   1      44.000  34.635  35.152  1.00  0.00     0.124 S 
ATOM     72  O   UNL A   1      43.118  35.583  34.475  1.00  0.00    -0.237 OA
ATOM     73  O   UNL A   1      44.337  34.949  36.535  1.00  0.00    -0.237 OA
ATOM     74  O   UNL A   1      45.106  34.134  34.336  1.00  0.00    -0.744 OA
ENDBRANCH  67  71
ENDBRANCH  50  64
BRANCH  51  75
ATOM     75  C   UNL A   1      42.671  24.108  27.232  1.00  0.00     0.023 A 
ATOM     76  C   UNL A   1      42.080  22.838  27.293  1.00  0.00     0.031 A 
ATOM     77  C   UNL A   1      43.376  24.453  26.064  1.00  0.00     0.131 A 
ATOM     78  C   UNL A   1      42.232  21.944  26.221  1.00  0.00     0.055 A 
ATOM     79  C   UNL A   1      43.482  23.580  24.980  1.00  0.00     0.041 A 
ATOM     80  F   UNL A   1      43.956  25.659  25.951  1.00  0.00    -0.206 F 
ATOM     81  C   UNL A   1      42.917  22.312  25.060  1.00  0.00     0.022 A 
BRANCH  78  82
ATOM     82  S   UNL A   1      41.576  20.261  26.391  1.00  0.00     0.124 S 
ATOM     83  O   UNL A   1      42.231  19.574  25.283  1.00  0.00    -0.237 OA
ATOM     84  O   UNL A   1      42.026  19.894  27.729  1.00  0.00    -0.237 OA
ATOM     85  O   UNL A   1      40.134  20.442  26.248  1.00  0.00    -0.744 OA
ENDBRANCH  78  82
ENDBRANCH  51  75
BRANCH  63  86
ATOM     86  C   UNL A   1      46.821  25.629  32.640  1.00  0.00     0.023 A 
ATOM     87  C   UNL A   1      48.048  25.894  32.006  1.00  0.00     0.031 A 
ATOM     88  C   UNL A   1      46.825  24.772  33.754  1.00  0.00     0.131 A 
ATOM     89  C   UNL A   1      49.219  25.268  32.459  1.00  0.00     0.055 A 
ATOM     90  C   UNL A   1      48.003  24.201  34.239  1.00  0.00     0.041 A 
ATOM     91  F   UNL A   1      45.682  24.478  34.396  1.00  0.00    -0.206 F 
ATOM     92  C   UNL A   1      49.207  24.438  33.584  1.00  0.00     0.022 A 
BRANCH  89  93
ATOM     93  S   UNL A   1      50.749  25.485  31.509  1.00  0.00     0.124 S 
ATOM     94  O   UNL A   1      51.031  26.903  31.712  1.00  0.00    -0.237 OA
ATOM     95  O   UNL A   1      51.660  24.553  32.164  1.00  0.00    -0.237 OA
ATOM     96  O   UNL A   1      50.361  25.120  30.147  1.00  0.00    -0.744 OA
ENDBRANCH  89  93
ENDBRANCH  63  86
ENDBRANCH  37  38
ENDBRANCH  29  32
ENDBRANCH  27  28
ENDBRANCH  26  27
ENDBRANCH  25  26
ENDBRANCH   1  25
TORSDOF 19
ENDMDL
