MODEL 1
REMARK VINA RESULT:     -12.8      0.000      0.000
REMARK SMILES CCCc1cc(S(F)(F)(F)(F)F)cc2c1O[C@@H](C(F)(F)F)C(C(=O)NCCCCCCNC(=O)c1ccc(-c3c4nc(c(-c5cc(S(=O)(=O)[O-])ccc5F)c5ccc([nH]5)c(-c5cc(S(=O)(=O)[O-])ccc5F)c5nc(c(-c6cc(S(=O)(=O)[O-])ccc6F)c6ccc3[nH]6)C=C5)C=C4)cc1)=C2
REMARK SMILES IDX 29 1 28 2 27 3 26 4 25 5 23 6 24 7 22 9 4 10 5 11 15 12 6 13
REMARK SMILES IDX 14 14 16 15 13 16 98 17 17 18 3 19 2 20 1 21 7 22 8 23 9 24
REMARK SMILES IDX 10 25 11 26 12 27 18 28 19 29 20 30 21 31 30 32 31 33 32 34
REMARK SMILES IDX 33 35 34 37 35 38 36 39 97 40 37 41 96 42 38 43 39 44 40 45
REMARK SMILES IDX 90 46 41 47 95 48 89 49 91 50 42 51 94 52 88 53 87 54 43 56
REMARK SMILES IDX 75 57 55 58 74 59 56 60 59 61 73 62 92 63 57 64 58 65 72 67
REMARK SMILES IDX 93 68 60 69 44 70 45 71 53 72 46 73 52 74 54 75 51 76 47 77
REMARK SMILES IDX 48 78 49 79 50 80 76 81 77 82 85 83 78 84 84 85 86 86 83 87
REMARK SMILES IDX 79 88 80 89 81 90 82 91 61 92 62 93 70 94 63 95 69 96 71 97
REMARK SMILES IDX 68 98 64 99 65 100 66 101 67 102
REMARK H PARENT 25 8 32 36 91 55 59 66
REMARK Flexibility Score: inf
ROOT
ATOM      1  C   UNL A   1      31.223  28.936  23.292  1.00  0.00     0.002 C 
ENDROOT
BRANCH   1   2
ATOM      2  C   UNL A   1      30.374  27.686  23.463  1.00  0.00     0.002 C 
BRANCH   2   3
ATOM      3  C   UNL A   1      30.953  26.561  22.620  1.00  0.00     0.021 C 
BRANCH   3   4
ATOM      4  C   UNL A   1      30.712  25.231  23.314  1.00  0.00     0.116 C 
BRANCH   4   5
ATOM      5  N   UNL A   1      29.970  25.458  24.563  1.00  0.00    -0.352 N 
ATOM      6  C   UNL A   1      30.364  24.752  25.791  1.00  0.00     0.251 C 
ATOM      7  O   UNL A   1      29.723  24.948  26.870  1.00  0.00    -0.270 OA
ATOM      8  H   UNL A   1      29.210  26.082  24.577  1.00  0.00     0.163 HD
BRANCH   6   9
ATOM      9  C   UNL A   1      31.538  23.787  25.768  1.00  0.00     0.067 C 
ATOM     10  C   UNL A   1      34.904  21.365  25.270  1.00  0.00    -0.004 A 
ATOM     11  C   UNL A   1      34.752  20.017  25.000  1.00  0.00     0.032 A 
ATOM     12  C   UNL A   1      33.781  22.149  25.376  1.00  0.00     0.131 A 
ATOM     13  C   UNL A   1      33.507  19.469  24.837  1.00  0.00     0.108 A 
ATOM     14  C   UNL A   1      32.508  21.626  25.235  1.00  0.00     0.019 A 
ATOM     15  O   UNL A   1      33.952  23.502  25.531  1.00  0.00    -0.475 OA
ATOM     16  C   UNL A   1      32.390  20.269  24.961  1.00  0.00     0.036 A 
ATOM     17  C   UNL A   1      31.386  22.545  25.327  1.00  0.00     0.025 C 
ATOM     18  C   UNL A   1      32.914  24.224  26.251  1.00  0.00     0.314 C 
BRANCH  10  19
ATOM     19  C   UNL A   1      36.285  21.978  25.444  1.00  0.00     0.039 C 
BRANCH  19  20
ATOM     20  C   UNL A   1      37.086  21.796  24.166  1.00  0.00     0.001 C 
ATOM     21  C   UNL A   1      36.648  22.829  23.142  1.00  0.00     0.004 C 
ENDBRANCH  19  20
ENDBRANCH  10  19
BRANCH  13  22
ATOM     22  S   UNL A   1      33.329  17.707  24.461  1.00  0.00     0.310 S 
ATOM     23  F   UNL A   1      31.778  17.864  24.170  1.00  0.00    -0.094 F 
ATOM     24  F   UNL A   1      32.951  17.454  25.970  1.00  0.00    -0.094 F 
ATOM     25  F   UNL A   1      33.172  16.194  24.140  1.00  0.00    -0.094 F 
ATOM     26  F   UNL A   1      33.571  17.999  22.928  1.00  0.00    -0.094 F 
ATOM     27  F   UNL A   1      33.380  19.260  24.750  1.00  0.00    -0.094 F 
ENDBRANCH  13  22
BRANCH  18  28
ATOM     28  C   UNL A   1      33.078  25.714  25.998  1.00  0.00     0.429 C 
ATOM     29  F   UNL A   1      34.235  26.125  26.507  1.00  0.00    -0.167 F 
ATOM     30  F   UNL A   1      33.062  25.945  24.688  1.00  0.00    -0.167 F 
ATOM     31  F   UNL A   1      32.079  26.375  26.576  1.00  0.00    -0.167 F 
ENDBRANCH  18  28
ENDBRANCH   6   9
ENDBRANCH   4   5
ENDBRANCH   3   4
ENDBRANCH   2   3
ENDBRANCH   1   2
BRANCH   1  32
ATOM     32  C   UNL A   1      32.692  28.576  23.445  1.00  0.00     0.021 C 
BRANCH  32  33
ATOM     33  C   UNL A   1      33.269  29.305  24.648  1.00  0.00     0.116 C 
BRANCH  33  34
ATOM     34  N   UNL A   1      32.259  30.222  25.196  1.00  0.00    -0.352 N 
ATOM     35  C   UNL A   1      32.483  30.871  26.496  1.00  0.00     0.251 C 
ATOM     36  H   UNL A   1      31.432  30.401  24.693  1.00  0.00     0.163 HD
ATOM     37  O   UNL A   1      31.610  31.664  26.970  1.00  0.00    -0.269 OA
BRANCH  35  38
ATOM     38  C   UNL A   1      33.759  30.594  27.273  1.00  0.00     0.039 A 
ATOM     39  C   UNL A   1      34.065  29.293  27.638  1.00  0.00     0.014 A 
ATOM     40  C   UNL A   1      34.561  31.605  27.591  1.00  0.00     0.014 A 
ATOM     41  C   UNL A   1      35.103  29.194  28.594  1.00  0.00     0.010 A 
ATOM     42  C   UNL A   1      35.637  31.409  28.422  1.00  0.00     0.010 A 
ATOM     43  C   UNL A   1      35.963  30.159  28.869  1.00  0.00    -0.014 A 
BRANCH  43  44
ATOM     44  C   UNL A   1      37.246  29.893  29.639  1.00  0.00     0.031 A 
ATOM     45  C   UNL A   1      37.362  30.427  30.923  1.00  0.00     0.074 A 
ATOM     46  C   UNL A   1      38.227  29.134  29.025  1.00  0.00     0.049 A 
ATOM     47  N   UNL A   1      38.379  30.286  31.774  1.00  0.00    -0.248 NA
ATOM     48  C   UNL A   1      36.334  31.262  31.565  1.00  0.00     0.031 C 
ATOM     49  C   UNL A   1      38.114  28.584  27.733  1.00  0.00     0.029 A 
ATOM     50  N   UNL A   1      39.459  28.779  29.527  1.00  0.00    -0.354 N 
ATOM     51  C   UNL A   1      38.118  30.929  32.915  1.00  0.00     0.074 A 
ATOM     52  C   UNL A   1      36.802  31.570  32.794  1.00  0.00     0.031 C 
ATOM     53  C   UNL A   1      39.266  27.917  27.456  1.00  0.00     0.029 A 
ATOM     54  C   UNL A   1      40.117  28.038  28.571  1.00  0.00     0.049 A 
ATOM     55  H   UNL A   1      39.809  29.014  30.417  1.00  0.00     0.167 HD
ATOM     56  C   UNL A   1      38.925  31.001  34.052  1.00  0.00     0.034 A 
ATOM     57  C   UNL A   1      41.389  27.492  28.646  1.00  0.00     0.034 A 
ATOM     58  C   UNL A   1      40.179  30.419  34.143  1.00  0.00     0.049 A 
ATOM     59  C   UNL A   1      42.220  27.616  29.761  1.00  0.00     0.074 A 
ATOM     60  C   UNL A   1      41.002  30.478  35.284  1.00  0.00     0.029 A 
ATOM     61  N   UNL A   1      40.847  29.699  33.176  1.00  0.00    -0.354 N 
ATOM     62  N   UNL A   1      41.943  28.224  30.916  1.00  0.00    -0.248 NA
ATOM     63  C   UNL A   1      43.582  27.069  29.840  1.00  0.00     0.031 C 
ATOM     64  C   UNL A   1      42.155  29.811  35.006  1.00  0.00     0.029 A 
ATOM     65  C   UNL A   1      42.070  29.325  33.688  1.00  0.00     0.049 A 
ATOM     66  H   UNL A   1      40.509  29.489  32.276  1.00  0.00     0.167 HD
ATOM     67  C   UNL A   1      42.979  28.118  31.751  1.00  0.00     0.074 A 
ATOM     68  C   UNL A   1      44.050  27.380  31.068  1.00  0.00     0.031 C 
ATOM     69  C   UNL A   1      43.072  28.603  33.057  1.00  0.00     0.034 A 
BRANCH  56  70
ATOM     70  C   UNL A   1      38.399  31.764  35.257  1.00  0.00     0.023 A 
ATOM     71  C   UNL A   1      38.152  31.133  36.464  1.00  0.00     0.031 A 
ATOM     72  C   UNL A   1      38.316  33.083  35.139  1.00  0.00     0.131 A 
ATOM     73  C   UNL A   1      37.537  31.965  37.430  1.00  0.00     0.055 A 
ATOM     74  C   UNL A   1      37.832  33.849  36.173  1.00  0.00     0.041 A 
ATOM     75  F   UNL A   1      38.704  33.671  34.010  1.00  0.00    -0.206 F 
ATOM     76  C   UNL A   1      37.511  33.284  37.376  1.00  0.00     0.022 A 
BRANCH  73  77
ATOM     77  S   UNL A   1      36.727  31.165  38.838  1.00  0.00     0.124 S 
ATOM     78  O   UNL A   1      36.454  29.697  38.502  1.00  0.00    -0.237 OA
ATOM     79  O   UNL A   1      37.639  31.248  40.064  1.00  0.00    -0.237 OA
ATOM     80  O   UNL A   1      35.249  31.957  39.171  1.00  0.00    -0.744 OA
ENDBRANCH  73  77
ENDBRANCH  56  70
BRANCH  57  81
ATOM     81  C   UNL A   1      41.908  26.717  27.446  1.00  0.00     0.023 A 
ATOM     82  C   UNL A   1      41.767  25.339  27.400  1.00  0.00     0.031 A 
ATOM     83  C   UNL A   1      42.614  27.367  26.529  1.00  0.00     0.131 A 
ATOM     84  C   UNL A   1      42.654  24.702  26.501  1.00  0.00     0.055 A 
ATOM     85  C   UNL A   1      43.351  26.679  25.596  1.00  0.00     0.041 A 
ATOM     86  F   UNL A   1      42.607  28.697  26.514  1.00  0.00    -0.206 F 
ATOM     87  C   UNL A   1      43.305  25.315  25.530  1.00  0.00     0.022 A 
BRANCH  84  88
ATOM     88  S   UNL A   1      42.916  22.921  26.698  1.00  0.00     0.124 S 
ATOM     89  O   UNL A   1      44.417  22.629  26.749  1.00  0.00    -0.237 OA
ATOM     90  O   UNL A   1      42.259  22.449  27.997  1.00  0.00    -0.237 OA
ATOM     91  O   UNL A   1      42.218  22.094  25.373  1.00  0.00    -0.744 OA
ENDBRANCH  84  88
ENDBRANCH  57  81
BRANCH  69  92
ATOM     92  C   UNL A   1      44.347  28.322  33.833  1.00  0.00     0.023 A 
ATOM     93  C   UNL A   1      44.439  27.169  34.594  1.00  0.00     0.031 A 
ATOM     94  C   UNL A   1      45.354  29.186  33.768  1.00  0.00     0.131 A 
ATOM     95  C   UNL A   1      45.534  27.157  35.490  1.00  0.00     0.055 A 
ATOM     96  C   UNL A   1      46.455  29.038  34.576  1.00  0.00     0.041 A 
ATOM     97  F   UNL A   1      45.295  30.204  32.914  1.00  0.00    -0.206 F 
ATOM     98  C   UNL A   1      46.584  27.953  35.398  1.00  0.00     0.022 A 
BRANCH  95  99
ATOM     99  S   UNL A   1      45.494  25.971  36.856  1.00  0.00     0.124 S 
ATOM    100  O   UNL A   1      45.939  26.664  38.145  1.00  0.00    -0.237 OA
ATOM    101  O   UNL A   1      44.069  25.439  37.028  1.00  0.00    -0.237 OA
ATOM    102  O   UNL A   1      46.551  24.670  36.514  1.00  0.00    -0.744 OA
ENDBRANCH  95  99
ENDBRANCH  69  92
ENDBRANCH  43  44
ENDBRANCH  35  38
ENDBRANCH  33  34
ENDBRANCH  32  33
ENDBRANCH   1  32
TORSDOF 20
ENDMDL
MODEL 2
REMARK VINA RESULT:     -12.4      1.580      7.307
REMARK SMILES CCCc1cc(S(F)(F)(F)(F)F)cc2c1O[C@@H](C(F)(F)F)C(C(=O)NCCCCCCNC(=O)c1ccc(-c3c4nc(c(-c5cc(S(=O)(=O)[O-])ccc5F)c5ccc([nH]5)c(-c5cc(S(=O)(=O)[O-])ccc5F)c5nc(c(-c6cc(S(=O)(=O)[O-])ccc6F)c6ccc3[nH]6)C=C5)C=C4)cc1)=C2
REMARK SMILES IDX 29 1 28 2 27 3 26 4 25 5 23 6 24 7 22 9 4 10 5 11 15 12 6 13
REMARK SMILES IDX 14 14 16 15 13 16 98 17 17 18 3 19 2 20 1 21 7 22 8 23 9 24
REMARK SMILES IDX 10 25 11 26 12 27 18 28 19 29 20 30 21 31 30 32 31 33 32 34
REMARK SMILES IDX 33 35 34 37 35 38 36 39 97 40 37 41 96 42 38 43 39 44 40 45
REMARK SMILES IDX 90 46 41 47 95 48 89 49 91 50 42 51 94 52 88 53 87 54 43 56
REMARK SMILES IDX 75 57 55 58 74 59 56 60 59 61 73 62 92 63 57 64 58 65 72 67
REMARK SMILES IDX 93 68 60 69 44 70 45 71 53 72 46 73 52 74 54 75 51 76 47 77
REMARK SMILES IDX 48 78 49 79 50 80 76 81 77 82 85 83 78 84 84 85 86 86 83 87
REMARK SMILES IDX 79 88 80 89 81 90 82 91 61 92 62 93 70 94 63 95 69 96 71 97
REMARK SMILES IDX 68 98 64 99 65 100 66 101 67 102
REMARK H PARENT 25 8 32 36 91 55 59 66
REMARK Flexibility Score: inf
ROOT
ATOM      1  C   UNL A   1      31.127  28.822  23.940  1.00  0.00     0.002 C 
ENDROOT
BRANCH   1   2
ATOM      2  C   UNL A   1      30.593  27.913  22.845  1.00  0.00     0.002 C 
BRANCH   2   3
ATOM      3  C   UNL A   1      31.573  26.775  22.609  1.00  0.00     0.021 C 
BRANCH   3   4
ATOM      4  C   UNL A   1      30.969  25.473  23.109  1.00  0.00     0.116 C 
BRANCH   4   5
ATOM      5  N   UNL A   1      30.198  25.730  24.334  1.00  0.00    -0.352 N 
ATOM      6  C   UNL A   1      30.502  24.985  25.564  1.00  0.00     0.251 C 
ATOM      7  O   UNL A   1      29.835  25.207  26.623  1.00  0.00    -0.270 OA
ATOM      8  H   UNL A   1      29.477  26.400  24.330  1.00  0.00     0.163 HD
BRANCH   6   9
ATOM      9  C   UNL A   1      31.614  23.949  25.569  1.00  0.00     0.067 C 
ATOM     10  C   UNL A   1      34.849  21.338  25.163  1.00  0.00    -0.004 A 
ATOM     11  C   UNL A   1      34.629  20.012  24.836  1.00  0.00     0.032 A 
ATOM     12  C   UNL A   1      33.771  22.187  25.238  1.00  0.00     0.131 A 
ATOM     13  C   UNL A   1      33.364  19.549  24.588  1.00  0.00     0.108 A 
ATOM     14  C   UNL A   1      32.478  21.750  25.010  1.00  0.00     0.019 A 
ATOM     15  O   UNL A   1      34.016  23.521  25.450  1.00  0.00    -0.475 OA
ATOM     16  C   UNL A   1      32.293  20.413  24.681  1.00  0.00     0.036 A 
ATOM     17  C   UNL A   1      31.411  22.734  25.076  1.00  0.00     0.025 C 
ATOM     18  C   UNL A   1      32.985  24.283  26.140  1.00  0.00     0.314 C 
BRANCH  10  19
ATOM     19  C   UNL A   1      36.252  21.856  25.432  1.00  0.00     0.039 C 
BRANCH  19  20
ATOM     20  C   UNL A   1      37.083  21.756  24.164  1.00  0.00     0.001 C 
ATOM     21  C   UNL A   1      36.748  22.919  23.245  1.00  0.00     0.004 C 
ENDBRANCH  19  20
ENDBRANCH  10  19
BRANCH  13  22
ATOM     22  S   UNL A   1      33.100  17.815  24.139  1.00  0.00     0.310 S 
ATOM     23  F   UNL A   1      34.607  17.643  23.677  1.00  0.00    -0.094 F 
ATOM     24  F   UNL A   1      32.773  18.276  22.669  1.00  0.00    -0.094 F 
ATOM     25  F   UNL A   1      32.876  16.326  23.751  1.00  0.00    -0.094 F 
ATOM     26  F   UNL A   1      33.566  17.361  25.579  1.00  0.00    -0.094 F 
ATOM     27  F   UNL A   1      33.441  19.311  24.517  1.00  0.00    -0.094 F 
ENDBRANCH  13  22
BRANCH  18  28
ATOM     28  C   UNL A   1      33.254  25.767  25.950  1.00  0.00     0.429 C 
ATOM     29  F   UNL A   1      32.254  26.469  26.473  1.00  0.00    -0.167 F 
ATOM     30  F   UNL A   1      34.391  26.093  26.559  1.00  0.00    -0.167 F 
ATOM     31  F   UNL A   1      33.355  26.036  24.651  1.00  0.00    -0.167 F 
ENDBRANCH  18  28
ENDBRANCH   6   9
ENDBRANCH   4   5
ENDBRANCH   3   4
ENDBRANCH   2   3
ENDBRANCH   1   2
BRANCH   1  32
ATOM     32  C   UNL A   1      32.646  28.834  23.894  1.00  0.00     0.021 C 
BRANCH  32  33
ATOM     33  C   UNL A   1      33.187  29.454  25.173  1.00  0.00     0.116 C 
BRANCH  33  34
ATOM     34  N   UNL A   1      32.270  30.506  25.634  1.00  0.00    -0.352 N 
ATOM     35  C   UNL A   1      32.623  31.331  26.798  1.00  0.00     0.251 C 
ATOM     36  H   UNL A   1      31.419  30.658  25.163  1.00  0.00     0.163 HD
ATOM     37  O   UNL A   1      31.830  32.241  27.196  1.00  0.00    -0.269 OA
BRANCH  35  38
ATOM     38  C   UNL A   1      33.936  31.095  27.526  1.00  0.00     0.039 A 
ATOM     39  C   UNL A   1      34.772  32.169  27.786  1.00  0.00     0.014 A 
ATOM     40  C   UNL A   1      34.261  29.863  27.901  1.00  0.00     0.014 A 
ATOM     41  C   UNL A   1      36.073  31.797  28.195  1.00  0.00     0.010 A 
ATOM     42  C   UNL A   1      35.505  29.595  28.420  1.00  0.00     0.010 A 
ATOM     43  C   UNL A   1      36.403  30.600  28.649  1.00  0.00    -0.014 A 
BRANCH  43  44
ATOM     44  C   UNL A   1      37.710  30.354  29.384  1.00  0.00     0.031 A 
ATOM     45  C   UNL A   1      38.670  29.553  28.764  1.00  0.00     0.074 A 
ATOM     46  C   UNL A   1      37.876  30.940  30.628  1.00  0.00     0.049 A 
ATOM     47  N   UNL A   1      39.886  29.242  29.216  1.00  0.00    -0.248 NA
ATOM     48  C   UNL A   1      38.482  28.902  27.458  1.00  0.00     0.031 C 
ATOM     49  C   UNL A   1      36.916  31.756  31.256  1.00  0.00     0.029 A 
ATOM     50  N   UNL A   1      38.964  30.846  31.467  1.00  0.00    -0.354 N 
ATOM     51  C   UNL A   1      40.522  28.467  28.335  1.00  0.00     0.074 A 
ATOM     52  C   UNL A   1      39.627  28.234  27.194  1.00  0.00     0.031 C 
ATOM     53  C   UNL A   1      37.412  32.140  32.462  1.00  0.00     0.029 A 
ATOM     54  C   UNL A   1      38.692  31.570  32.606  1.00  0.00     0.049 A 
ATOM     55  H   UNL A   1      39.793  30.347  31.284  1.00  0.00     0.167 HD
ATOM     56  C   UNL A   1      41.815  27.950  28.437  1.00  0.00     0.034 A 
ATOM     57  C   UNL A   1      39.499  31.736  33.720  1.00  0.00     0.034 A 
ATOM     58  C   UNL A   1      42.639  28.151  29.532  1.00  0.00     0.049 A 
ATOM     59  C   UNL A   1      40.770  31.169  33.847  1.00  0.00     0.074 A 
ATOM     60  C   UNL A   1      43.947  27.642  29.647  1.00  0.00     0.029 A 
ATOM     61  N   UNL A   1      42.356  28.856  30.682  1.00  0.00    -0.354 N 
ATOM     62  N   UNL A   1      41.420  30.428  32.949  1.00  0.00    -0.248 NA
ATOM     63  C   UNL A   1      41.621  31.310  35.036  1.00  0.00     0.031 C 
ATOM     64  C   UNL A   1      44.443  28.026  30.854  1.00  0.00     0.029 A 
ATOM     65  C   UNL A   1      43.453  28.781  31.512  1.00  0.00     0.049 A 
ATOM     66  H   UNL A   1      41.516  29.329  30.877  1.00  0.00     0.167 HD
ATOM     67  C   UNL A   1      42.620  30.083  33.421  1.00  0.00     0.074 A 
ATOM     68  C   UNL A   1      42.763  30.639  34.774  1.00  0.00     0.031 C 
ATOM     69  C   UNL A   1      43.603  29.329  32.776  1.00  0.00     0.034 A 
BRANCH  56  70
ATOM     70  C   UNL A   1      42.347  27.119  27.281  1.00  0.00     0.023 A 
ATOM     71  C   UNL A   1      42.144  25.751  27.216  1.00  0.00     0.031 A 
ATOM     72  C   UNL A   1      42.896  27.782  26.271  1.00  0.00     0.131 A 
ATOM     73  C   UNL A   1      42.825  25.120  26.148  1.00  0.00     0.055 A 
ATOM     74  C   UNL A   1      43.421  27.108  25.194  1.00  0.00     0.041 A 
ATOM     75  F   UNL A   1      42.941  29.112  26.301  1.00  0.00    -0.206 F 
ATOM     76  C   UNL A   1      43.310  25.749  25.093  1.00  0.00     0.022 A 
BRANCH  73  77
ATOM     77  S   UNL A   1      43.048  23.325  26.233  1.00  0.00     0.124 S 
ATOM     78  O   UNL A   1      42.002  22.726  27.176  1.00  0.00    -0.237 OA
ATOM     79  O   UNL A   1      42.880  22.725  24.836  1.00  0.00    -0.237 OA
ATOM     80  O   UNL A   1      44.614  22.973  26.822  1.00  0.00    -0.744 OA
ENDBRANCH  73  77
ENDBRANCH  56  70
BRANCH  57  81
ATOM     81  C   UNL A   1      38.972  32.580  34.869  1.00  0.00     0.023 A 
ATOM     82  C   UNL A   1      39.342  33.911  34.975  1.00  0.00     0.031 A 
ATOM     83  C   UNL A   1      38.276  31.981  35.828  1.00  0.00     0.131 A 
ATOM     84  C   UNL A   1      39.176  34.450  36.272  1.00  0.00     0.055 A 
ATOM     85  C   UNL A   1      38.035  32.619  37.020  1.00  0.00     0.041 A 
ATOM     86  F   UNL A   1      37.808  30.751  35.631  1.00  0.00    -0.206 F 
ATOM     87  C   UNL A   1      38.424  33.914  37.216  1.00  0.00     0.022 A 
BRANCH  84  88
ATOM     88  S   UNL A   1      40.057  35.982  36.666  1.00  0.00     0.124 S 
ATOM     89  O   UNL A   1      41.518  35.662  36.989  1.00  0.00    -0.237 OA
ATOM     90  O   UNL A   1      39.994  36.929  35.465  1.00  0.00    -0.237 OA
ATOM     91  O   UNL A   1      39.324  36.729  38.019  1.00  0.00    -0.744 OA
ENDBRANCH  84  88
ENDBRANCH  57  81
BRANCH  69  92
ATOM     92  C   UNL A   1      44.917  29.098  33.504  1.00  0.00     0.023 A 
ATOM     93  C   UNL A   1      45.061  27.978  34.306  1.00  0.00     0.031 A 
ATOM     94  C   UNL A   1      45.905  29.974  33.359  1.00  0.00     0.131 A 
ATOM     95  C   UNL A   1      46.196  28.020  35.150  1.00  0.00     0.055 A 
ATOM     96  C   UNL A   1      47.044  29.875  34.121  1.00  0.00     0.041 A 
ATOM     97  F   UNL A   1      45.791  30.955  32.468  1.00  0.00    -0.206 F 
ATOM     98  C   UNL A   1      47.228  28.826  34.979  1.00  0.00     0.022 A 
BRANCH  95  99
ATOM     99  S   UNL A   1      46.237  26.889  36.563  1.00  0.00     0.124 S 
ATOM    100  O   UNL A   1      45.529  25.584  36.192  1.00  0.00    -0.237 OA
ATOM    101  O   UNL A   1      47.692  26.592  36.936  1.00  0.00    -0.237 OA
ATOM    102  O   UNL A   1      45.444  27.610  37.895  1.00  0.00    -0.744 OA
ENDBRANCH  95  99
ENDBRANCH  69  92
ENDBRANCH  43  44
ENDBRANCH  35  38
ENDBRANCH  33  34
ENDBRANCH  32  33
ENDBRANCH   1  32
TORSDOF 20
ENDMDL
MODEL 3
REMARK VINA RESULT:     -12.0      2.074      2.495
REMARK SMILES CCCc1cc(S(F)(F)(F)(F)F)cc2c1O[C@@H](C(F)(F)F)C(C(=O)NCCCCCCNC(=O)c1ccc(-c3c4nc(c(-c5cc(S(=O)(=O)[O-])ccc5F)c5ccc([nH]5)c(-c5cc(S(=O)(=O)[O-])ccc5F)c5nc(c(-c6cc(S(=O)(=O)[O-])ccc6F)c6ccc3[nH]6)C=C5)C=C4)cc1)=C2
REMARK SMILES IDX 29 1 28 2 27 3 26 4 25 5 23 6 24 7 22 9 4 10 5 11 15 12 6 13
REMARK SMILES IDX 14 14 16 15 13 16 98 17 17 18 3 19 2 20 1 21 7 22 8 23 9 24
REMARK SMILES IDX 10 25 11 26 12 27 18 28 19 29 20 30 21 31 30 32 31 33 32 34
REMARK SMILES IDX 33 35 34 37 35 38 36 39 97 40 37 41 96 42 38 43 39 44 40 45
REMARK SMILES IDX 90 46 41 47 95 48 89 49 91 50 42 51 94 52 88 53 87 54 43 56
REMARK SMILES IDX 75 57 55 58 74 59 56 60 59 61 73 62 92 63 57 64 58 65 72 67
REMARK SMILES IDX 93 68 60 69 44 70 45 71 53 72 46 73 52 74 54 75 51 76 47 77
REMARK SMILES IDX 48 78 49 79 50 80 76 81 77 82 85 83 78 84 84 85 86 86 83 87
REMARK SMILES IDX 79 88 80 89 81 90 82 91 61 92 62 93 70 94 63 95 69 96 71 97
REMARK SMILES IDX 68 98 64 99 65 100 66 101 67 102
REMARK H PARENT 25 8 32 36 91 55 59 66
REMARK Flexibility Score: inf
ROOT
ATOM      1  C   UNL A   1      31.352  28.557  23.656  1.00  0.00     0.002 C 
ENDROOT
BRANCH   1   2
ATOM      2  C   UNL A   1      31.006  27.653  22.484  1.00  0.00     0.002 C 
BRANCH   2   3
ATOM      3  C   UNL A   1      31.844  26.387  22.556  1.00  0.00     0.021 C 
BRANCH   3   4
ATOM      4  C   UNL A   1      30.964  25.219  22.968  1.00  0.00     0.116 C 
BRANCH   4   5
ATOM      5  N   UNL A   1      30.255  25.554  24.211  1.00  0.00    -0.352 N 
ATOM      6  C   UNL A   1      30.629  24.897  25.472  1.00  0.00     0.251 C 
ATOM      7  O   UNL A   1      30.016  25.187  26.547  1.00  0.00    -0.270 OA
ATOM      8  H   UNL A   1      29.529  26.219  24.201  1.00  0.00     0.163 HD
BRANCH   6   9
ATOM      9  C   UNL A   1      31.749  23.870  25.489  1.00  0.00     0.067 C 
ATOM     10  C   UNL A   1      34.998  21.272  25.106  1.00  0.00    -0.004 A 
ATOM     11  C   UNL A   1      34.783  19.936  24.821  1.00  0.00     0.032 A 
ATOM     12  C   UNL A   1      33.915  22.115  25.173  1.00  0.00     0.131 A 
ATOM     13  C   UNL A   1      33.518  19.456  24.605  1.00  0.00     0.108 A 
ATOM     14  C   UNL A   1      32.622  21.662  24.979  1.00  0.00     0.019 A 
ATOM     15  O   UNL A   1      34.153  23.456  25.344  1.00  0.00    -0.475 OA
ATOM     16  C   UNL A   1      32.442  20.314  24.690  1.00  0.00     0.036 A 
ATOM     17  C   UNL A   1      31.549  22.640  25.033  1.00  0.00     0.025 C 
ATOM     18  C   UNL A   1      33.127  24.230  26.028  1.00  0.00     0.314 C 
BRANCH  10  19
ATOM     19  C   UNL A   1      36.401  21.808  25.338  1.00  0.00     0.039 C 
BRANCH  19  20
ATOM     20  C   UNL A   1      37.420  20.762  24.917  1.00  0.00     0.001 C 
ATOM     21  C   UNL A   1      38.767  21.088  25.540  1.00  0.00     0.004 C 
ENDBRANCH  19  20
ENDBRANCH  10  19
BRANCH  13  22
ATOM     22  S   UNL A   1      33.260  17.708  24.210  1.00  0.00     0.310 S 
ATOM     23  F   UNL A   1      34.820  17.437  24.121  1.00  0.00    -0.094 F 
ATOM     24  F   UNL A   1      33.306  18.078  22.680  1.00  0.00    -0.094 F 
ATOM     25  F   UNL A   1      33.042  16.207  23.869  1.00  0.00    -0.094 F 
ATOM     26  F   UNL A   1      33.358  17.337  25.743  1.00  0.00    -0.094 F 
ATOM     27  F   UNL A   1      33.595  19.211  24.568  1.00  0.00    -0.094 F 
ENDBRANCH  13  22
BRANCH  18  28
ATOM     28  C   UNL A   1      33.381  25.709  25.792  1.00  0.00     0.429 C 
ATOM     29  F   UNL A   1      33.533  25.931  24.490  1.00  0.00    -0.167 F 
ATOM     30  F   UNL A   1      32.348  26.415  26.245  1.00  0.00    -0.167 F 
ATOM     31  F   UNL A   1      34.485  26.078  26.436  1.00  0.00    -0.167 F 
ENDBRANCH  18  28
ENDBRANCH   6   9
ENDBRANCH   4   5
ENDBRANCH   3   4
ENDBRANCH   2   3
ENDBRANCH   1   2
BRANCH   1  32
ATOM     32  C   UNL A   1      32.836  28.887  23.621  1.00  0.00     0.021 C 
BRANCH  32  33
ATOM     33  C   UNL A   1      33.285  29.348  24.999  1.00  0.00     0.116 C 
BRANCH  33  34
ATOM     34  N   UNL A   1      32.366  30.385  25.492  1.00  0.00    -0.352 N 
ATOM     35  C   UNL A   1      32.714  31.166  26.687  1.00  0.00     0.251 C 
ATOM     36  H   UNL A   1      31.518  30.554  25.023  1.00  0.00     0.163 HD
ATOM     37  O   UNL A   1      31.919  32.062  27.114  1.00  0.00    -0.269 OA
BRANCH  35  38
ATOM     38  C   UNL A   1      34.023  30.903  27.413  1.00  0.00     0.039 A 
ATOM     39  C   UNL A   1      34.860  31.966  27.713  1.00  0.00     0.014 A 
ATOM     40  C   UNL A   1      34.343  29.659  27.749  1.00  0.00     0.014 A 
ATOM     41  C   UNL A   1      36.159  31.577  28.115  1.00  0.00     0.010 A 
ATOM     42  C   UNL A   1      35.584  29.370  28.265  1.00  0.00     0.010 A 
ATOM     43  C   UNL A   1      36.483  30.364  28.530  1.00  0.00    -0.014 A 
BRANCH  43  44
ATOM     44  C   UNL A   1      37.786  30.091  29.264  1.00  0.00     0.031 A 
ATOM     45  C   UNL A   1      37.964  30.670  30.521  1.00  0.00     0.074 A 
ATOM     46  C   UNL A   1      38.723  29.282  28.644  1.00  0.00     0.049 A 
ATOM     47  N   UNL A   1      39.008  30.534  31.339  1.00  0.00    -0.248 NA
ATOM     48  C   UNL A   1      36.984  31.557  31.166  1.00  0.00     0.031 C 
ATOM     49  C   UNL A   1      38.547  28.687  27.380  1.00  0.00     0.029 A 
ATOM     50  N   UNL A   1      39.963  28.913  29.115  1.00  0.00    -0.354 N 
ATOM     51  C   UNL A   1      38.807  31.226  32.463  1.00  0.00     0.074 A 
ATOM     52  C   UNL A   1      37.505  31.898  32.365  1.00  0.00     0.031 C 
ATOM     53  C   UNL A   1      39.669  27.978  27.087  1.00  0.00     0.029 A 
ATOM     54  C   UNL A   1      40.565  28.118  28.165  1.00  0.00     0.049 A 
ATOM     55  H   UNL A   1      40.352  29.172  29.982  1.00  0.00     0.167 HD
ATOM     56  C   UNL A   1      39.658  31.319  33.566  1.00  0.00     0.034 A 
ATOM     57  C   UNL A   1      41.823  27.540  28.215  1.00  0.00     0.034 A 
ATOM     58  C   UNL A   1      40.899  30.705  33.634  1.00  0.00     0.049 A 
ATOM     59  C   UNL A   1      42.699  27.682  29.294  1.00  0.00     0.074 A 
ATOM     60  C   UNL A   1      41.765  30.784  34.741  1.00  0.00     0.029 A 
ATOM     61  N   UNL A   1      41.510  29.931  32.673  1.00  0.00    -0.354 N 
ATOM     62  N   UNL A   1      42.482  28.341  30.433  1.00  0.00    -0.248 NA
ATOM     63  C   UNL A   1      44.047  27.101  29.344  1.00  0.00     0.031 C 
ATOM     64  C   UNL A   1      42.888  30.075  34.448  1.00  0.00     0.029 A 
ATOM     65  C   UNL A   1      42.741  29.542  33.154  1.00  0.00     0.049 A 
ATOM     66  H   UNL A   1      41.133  29.696  31.794  1.00  0.00     0.167 HD
ATOM     67  C   UNL A   1      43.544  28.238  31.233  1.00  0.00     0.074 A 
ATOM     68  C   UNL A   1      44.570  27.444  30.541  1.00  0.00     0.031 C 
ATOM     69  C   UNL A   1      43.699  28.769  32.515  1.00  0.00     0.034 A 
BRANCH  56  70
ATOM     70  C   UNL A   1      39.198  32.141  34.758  1.00  0.00     0.023 A 
ATOM     71  C   UNL A   1      39.554  33.471  34.905  1.00  0.00     0.031 A 
ATOM     72  C   UNL A   1      38.329  31.567  35.581  1.00  0.00     0.131 A 
ATOM     73  C   UNL A   1      39.155  34.040  36.138  1.00  0.00     0.055 A 
ATOM     74  C   UNL A   1      37.876  32.231  36.696  1.00  0.00     0.041 A 
ATOM     75  F   UNL A   1      37.893  30.335  35.326  1.00  0.00    -0.206 F 
ATOM     76  C   UNL A   1      38.235  33.528  36.936  1.00  0.00     0.022 A 
BRANCH  73  77
ATOM     77  S   UNL A   1      39.962  35.575  36.659  1.00  0.00     0.124 S 
ATOM     78  O   UNL A   1      39.626  36.689  35.666  1.00  0.00    -0.237 OA
ATOM     79  O   UNL A   1      39.463  35.964  38.052  1.00  0.00    -0.237 OA
ATOM     80  O   UNL A   1      41.655  35.341  36.703  1.00  0.00    -0.744 OA
ENDBRANCH  73  77
ENDBRANCH  56  70
BRANCH  57  81
ATOM     81  C   UNL A   1      42.277  26.705  27.028  1.00  0.00     0.023 A 
ATOM     82  C   UNL A   1      42.105  25.330  27.045  1.00  0.00     0.031 A 
ATOM     83  C   UNL A   1      42.958  27.302  26.058  1.00  0.00     0.131 A 
ATOM     84  C   UNL A   1      42.941  24.637  26.138  1.00  0.00     0.055 A 
ATOM     85  C   UNL A   1      43.641  26.560  25.125  1.00  0.00     0.041 A 
ATOM     86  F   UNL A   1      42.978  28.630  25.988  1.00  0.00    -0.206 F 
ATOM     87  C   UNL A   1      43.564  25.196  25.117  1.00  0.00     0.022 A 
BRANCH  84  88
ATOM     88  S   UNL A   1      43.173  22.860  26.397  1.00  0.00     0.124 S 
ATOM     89  O   UNL A   1      42.225  22.083  25.480  1.00  0.00    -0.237 OA
ATOM     90  O   UNL A   1      44.621  22.482  26.074  1.00  0.00    -0.237 OA
ATOM     91  O   UNL A   1      42.833  22.473  28.028  1.00  0.00    -0.744 OA
ENDBRANCH  84  88
ENDBRANCH  57  81
BRANCH  69  92
ATOM     92  C   UNL A   1      44.994  28.482  33.255  1.00  0.00     0.023 A 
ATOM     93  C   UNL A   1      46.057  29.362  33.133  1.00  0.00     0.031 A 
ATOM     94  C   UNL A   1      45.086  27.392  34.008  1.00  0.00     0.131 A 
ATOM     95  C   UNL A   1      47.283  28.851  33.618  1.00  0.00     0.055 A 
ATOM     96  C   UNL A   1      46.288  27.025  34.564  1.00  0.00     0.041 A 
ATOM     97  F   UNL A   1      44.005  26.648  34.226  1.00  0.00    -0.206 F 
ATOM     98  C   UNL A   1      47.395  27.817  34.433  1.00  0.00     0.022 A 
BRANCH  95  99
ATOM     99  S   UNL A   1      48.807  29.671  33.086  1.00  0.00     0.124 S 
ATOM    100  O   UNL A   1      49.984  28.705  33.236  1.00  0.00    -0.237 OA
ATOM    101  O   UNL A   1      48.675  30.091  31.620  1.00  0.00    -0.237 OA
ATOM    102  O   UNL A   1      49.078  31.055  34.053  1.00  0.00    -0.744 OA
ENDBRANCH  95  99
ENDBRANCH  69  92
ENDBRANCH  43  44
ENDBRANCH  35  38
ENDBRANCH  33  34
ENDBRANCH  32  33
ENDBRANCH   1  32
TORSDOF 20
ENDMDL
