MODEL 1
REMARK VINA RESULT:     -14.7      0.000      0.000
REMARK SMILES COc1ccc(-c2[nH]nc3nc(-c4ccc(C(F)(F)F)cc4)cc(C(=O)NCCCCCCNC(=O)c4ccc(-c5c6nc(c(-c7cc(S(=O)(=O)[O-])ccc7F)c7ccc([nH]7)c(-c7cc(S(=O)(=O)[O-])ccc7F)c7nc(c(-c8cc(S(=O)(=O)[O-])ccc8F)c8ccc5[nH]8)C=C7)C=C6)cc4)c23)cc1
REMARK SMILES IDX 31 1 30 2 29 3 28 4 27 5 25 6 26 7 24 9 7 10 8 11 100 12
REMARK SMILES IDX 9 13 10 15 11 16 23 17 12 18 6 19 3 20 4 21 102 22 5 23
REMARK SMILES IDX 101 24 2 25 1 26 13 27 14 28 22 29 15 30 21 31 16 32 17 33
REMARK SMILES IDX 18 34 19 35 20 36 32 37 33 38 34 39 35 40 36 42 37 43 38 44
REMARK SMILES IDX 99 45 39 46 98 47 40 48 41 49 42 50 92 51 43 52 97 53 91 54
REMARK SMILES IDX 93 55 44 56 96 57 90 58 89 59 45 61 77 62 57 63 76 64 58 65
REMARK SMILES IDX 61 66 75 67 94 68 59 69 60 70 74 72 95 73 62 74 46 75 47 76
REMARK SMILES IDX 55 77 48 78 54 79 56 80 53 81 49 82 50 83 51 84 52 85 78 86
REMARK SMILES IDX 79 87 87 88 80 89 86 90 88 91 85 92 81 93 82 94 83 95 84 96
REMARK SMILES IDX 63 97 64 98 72 99 65 100 71 101 73 102 70 103 66 104 67 105
REMARK SMILES IDX 68 106 69 107
REMARK H PARENT 27 8 8 14 34 41 93 60 61 71
REMARK Flexibility Score: inf
ROOT
ATOM      1  C   UNL A   1      35.283  22.260  24.677  1.00  0.00     0.002 C 
ENDROOT
BRANCH   1   2
ATOM      2  C   UNL A   1      35.199  23.538  25.532  1.00  0.00     0.002 C 
BRANCH   2   3
ATOM      3  C   UNL A   1      34.514  24.737  24.862  1.00  0.00     0.021 C 
BRANCH   3   4
ATOM      4  C   UNL A   1      34.785  24.814  23.363  1.00  0.00     0.116 C 
BRANCH   4   5
ATOM      5  N   UNL A   1      33.578  25.105  22.626  1.00  0.00    -0.352 N 
ATOM      6  C   UNL A   1      32.252  24.806  22.754  1.00  0.00     0.252 C 
ATOM      7  O   UNL A   1      31.523  25.502  22.051  1.00  0.00    -0.269 OA
ATOM      8  H   UNL A   1      33.755  25.656  21.830  1.00  0.00     0.163 HD
BRANCH   6   9
ATOM      9  C   UNL A   1      31.682  23.828  23.711  1.00  0.00     0.055 A 
ATOM     10  C   UNL A   1      30.310  25.301  25.257  1.00  0.00     0.075 A 
ATOM     11  N   UNL A   1      29.751  25.009  26.479  1.00  0.00    -0.275 N 
ATOM     12  C   UNL A   1      30.945  24.128  24.874  1.00  0.00     0.059 A 
ATOM     13  N   UNL A   1      29.963  23.761  26.922  1.00  0.00    -0.154 NA
ATOM     14  H   UNL A   1      29.233  25.669  26.992  1.00  0.00     0.190 HD
ATOM     15  C   UNL A   1      30.656  23.193  25.936  1.00  0.00     0.182 A 
ATOM     16  N   UNL A   1      31.078  21.902  25.919  1.00  0.00    -0.226 NA
ATOM     17  C   UNL A   1      31.908  22.448  23.662  1.00  0.00     0.043 A 
ATOM     18  C   UNL A   1      31.694  21.574  24.756  1.00  0.00     0.074 A 
BRANCH  10  19
ATOM     19  C   UNL A   1      30.083  26.606  24.644  1.00  0.00     0.001 A 
ATOM     20  C   UNL A   1      29.746  29.073  23.328  1.00  0.00     0.118 A 
ATOM     21  C   UNL A   1      30.858  28.848  24.142  1.00  0.00     0.047 A 
ATOM     22  C   UNL A   1      28.793  28.064  23.181  1.00  0.00     0.047 A 
ATOM     23  C   UNL A   1      31.025  27.630  24.805  1.00  0.00     0.014 A 
ATOM     24  C   UNL A   1      28.955  26.841  23.846  1.00  0.00     0.014 A 
BRANCH  20  25
ATOM     25  O   UNL A   1      29.732  30.287  22.696  1.00  0.00    -0.497 OA
ATOM     26  C   UNL A   1      28.752  30.452  21.679  1.00  0.00     0.278 C 
ENDBRANCH  20  25
ENDBRANCH  10  19
BRANCH  18  27
ATOM     27  C   UNL A   1      32.289  20.226  24.678  1.00  0.00     0.000 A 
ATOM     28  C   UNL A   1      32.761  19.554  25.811  1.00  0.00     0.011 A 
ATOM     29  C   UNL A   1      32.327  19.547  23.442  1.00  0.00     0.011 A 
ATOM     30  C   UNL A   1      33.220  18.233  25.719  1.00  0.00     0.014 A 
ATOM     31  C   UNL A   1      32.788  18.232  23.347  1.00  0.00     0.014 A 
ATOM     32  C   UNL A   1      33.235  17.556  24.488  1.00  0.00     0.056 A 
BRANCH  32  33
ATOM     33  C   UNL A   1      33.726  16.130  24.403  1.00  0.00     0.416 C 
ATOM     34  F   UNL A   1      34.696  15.859  25.320  1.00  0.00    -0.166 F 
ATOM     35  F   UNL A   1      32.737  15.221  24.617  1.00  0.00    -0.166 F 
ATOM     36  F   UNL A   1      34.264  15.816  23.191  1.00  0.00    -0.166 F 
ENDBRANCH  32  33
ENDBRANCH  18  27
ENDBRANCH   6   9
ENDBRANCH   4   5
ENDBRANCH   3   4
ENDBRANCH   2   3
ENDBRANCH   1   2
BRANCH   1  37
ATOM     37  C   UNL A   1      36.094  21.091  25.265  1.00  0.00     0.021 C 
BRANCH  37  38
ATOM     38  C   UNL A   1      37.395  20.840  24.531  1.00  0.00     0.116 C 
BRANCH  38  39
ATOM     39  N   UNL A   1      38.176  19.764  25.144  1.00  0.00    -0.352 N 
ATOM     40  C   UNL A   1      39.420  19.834  25.755  1.00  0.00     0.251 C 
ATOM     41  H   UNL A   1      37.765  18.870  25.119  1.00  0.00     0.163 HD
ATOM     42  O   UNL A   1      40.115  18.837  25.861  1.00  0.00    -0.269 OA
BRANCH  40  43
ATOM     43  C   UNL A   1      39.866  21.142  26.271  1.00  0.00     0.039 A 
ATOM     44  C   UNL A   1      39.083  22.298  26.221  1.00  0.00     0.014 A 
ATOM     45  C   UNL A   1      41.125  21.172  26.854  1.00  0.00     0.014 A 
ATOM     46  C   UNL A   1      39.598  23.462  26.790  1.00  0.00     0.010 A 
ATOM     47  C   UNL A   1      41.461  22.192  27.686  1.00  0.00     0.010 A 
ATOM     48  C   UNL A   1      40.798  23.388  27.515  1.00  0.00    -0.014 A 
BRANCH  48  49
ATOM     49  C   UNL A   1      41.436  24.525  28.145  1.00  0.00     0.031 A 
ATOM     50  C   UNL A   1      40.559  25.700  28.295  1.00  0.00     0.074 A 
ATOM     51  C   UNL A   1      42.637  24.435  28.760  1.00  0.00     0.049 A 
ATOM     52  N   UNL A   1      40.582  26.765  27.573  1.00  0.00    -0.248 NA
ATOM     53  C   UNL A   1      39.410  25.625  29.207  1.00  0.00     0.031 C 
ATOM     54  C   UNL A   1      43.494  23.262  28.976  1.00  0.00     0.029 A 
ATOM     55  N   UNL A   1      43.307  25.410  29.421  1.00  0.00    -0.354 N 
ATOM     56  C   UNL A   1      39.604  27.603  28.085  1.00  0.00     0.074 A 
ATOM     57  C   UNL A   1      38.784  26.772  28.927  1.00  0.00     0.031 C 
ATOM     58  C   UNL A   1      44.451  23.558  29.887  1.00  0.00     0.029 A 
ATOM     59  C   UNL A   1      44.376  24.975  30.199  1.00  0.00     0.049 A 
ATOM     60  H   UNL A   1      43.056  26.360  29.356  1.00  0.00     0.167 HD
ATOM     61  C   UNL A   1      39.697  28.952  27.924  1.00  0.00     0.034 A 
ATOM     62  C   UNL A   1      45.126  25.736  31.043  1.00  0.00     0.034 A 
ATOM     63  C   UNL A   1      40.775  29.278  27.009  1.00  0.00     0.049 A 
ATOM     64  C   UNL A   1      44.989  27.137  30.555  1.00  0.00     0.074 A 
ATOM     65  C   UNL A   1      41.022  29.006  25.677  1.00  0.00     0.029 A 
ATOM     66  N   UNL A   1      42.001  29.601  27.556  1.00  0.00    -0.354 N 
ATOM     67  N   UNL A   1      45.425  27.520  29.382  1.00  0.00    -0.248 NA
ATOM     68  C   UNL A   1      43.911  27.954  31.099  1.00  0.00     0.031 C 
ATOM     69  C   UNL A   1      42.409  28.676  25.626  1.00  0.00     0.029 A 
ATOM     70  C   UNL A   1      42.958  28.862  26.899  1.00  0.00     0.049 A 
ATOM     71  H   UNL A   1      42.161  30.245  28.284  1.00  0.00     0.167 HD
ATOM     72  C   UNL A   1      44.412  28.310  28.855  1.00  0.00     0.074 A 
ATOM     73  C   UNL A   1      43.548  28.620  29.996  1.00  0.00     0.031 C 
ATOM     74  C   UNL A   1      44.194  28.390  27.506  1.00  0.00     0.034 A 
BRANCH  61  75
ATOM     75  C   UNL A   1      39.074  30.005  28.804  1.00  0.00     0.023 A 
ATOM     76  C   UNL A   1      37.744  30.366  28.514  1.00  0.00     0.031 A 
ATOM     77  C   UNL A   1      39.755  30.843  29.712  1.00  0.00     0.131 A 
ATOM     78  C   UNL A   1      37.189  31.552  29.018  1.00  0.00     0.055 A 
ATOM     79  C   UNL A   1      39.175  31.988  30.267  1.00  0.00     0.041 A 
ATOM     80  F   UNL A   1      41.038  30.663  30.042  1.00  0.00    -0.206 F 
ATOM     81  C   UNL A   1      37.897  32.368  29.895  1.00  0.00     0.022 A 
BRANCH  78  82
ATOM     82  S   UNL A   1      35.591  32.093  28.361  1.00  0.00     0.124 S 
ATOM     83  O   UNL A   1      35.964  33.297  27.627  1.00  0.00    -0.237 OA
ATOM     84  O   UNL A   1      35.194  30.943  27.554  1.00  0.00    -0.237 OA
ATOM     85  O   UNL A   1      34.791  32.318  29.563  1.00  0.00    -0.744 OA
ENDBRANCH  78  82
ENDBRANCH  61  75
BRANCH  62  86
ATOM     86  C   UNL A   1      45.596  25.356  32.410  1.00  0.00     0.023 A 
ATOM     87  C   UNL A   1      44.759  24.785  33.396  1.00  0.00     0.031 A 
ATOM     88  C   UNL A   1      46.985  25.337  32.684  1.00  0.00     0.131 A 
ATOM     89  C   UNL A   1      45.316  24.235  34.581  1.00  0.00     0.055 A 
ATOM     90  C   UNL A   1      47.528  24.791  33.850  1.00  0.00     0.041 A 
ATOM     91  F   UNL A   1      47.878  25.778  31.783  1.00  0.00    -0.206 F 
ATOM     92  C   UNL A   1      46.695  24.228  34.801  1.00  0.00     0.022 A 
BRANCH  89  93
ATOM     93  S   UNL A   1      44.258  23.432  35.835  1.00  0.00     0.124 S 
ATOM     94  O   UNL A   1      43.045  23.141  35.079  1.00  0.00    -0.237 OA
ATOM     95  O   UNL A   1      45.062  22.284  36.239  1.00  0.00    -0.237 OA
ATOM     96  O   UNL A   1      44.106  24.461  36.865  1.00  0.00    -0.744 OA
ENDBRANCH  89  93
ENDBRANCH  62  86
BRANCH  74  97
ATOM     97  C   UNL A   1      45.216  27.763  26.568  1.00  0.00     0.023 A 
ATOM     98  C   UNL A   1      45.291  26.383  26.255  1.00  0.00     0.031 A 
ATOM     99  C   UNL A   1      46.058  28.632  25.851  1.00  0.00     0.131 A 
ATOM    100  C   UNL A   1      46.190  25.925  25.269  1.00  0.00     0.055 A 
ATOM    101  C   UNL A   1      46.926  28.179  24.858  1.00  0.00     0.041 A 
ATOM    102  F   UNL A   1      46.019  29.955  26.078  1.00  0.00    -0.206 F 
ATOM    103  C   UNL A   1      46.999  26.822  24.566  1.00  0.00     0.022 A 
BRANCH 100 104
ATOM    104  S   UNL A   1      46.340  24.146  24.894  1.00  0.00     0.124 S 
ATOM    105  O   UNL A   1      44.958  23.717  24.716  1.00  0.00    -0.237 OA
ATOM    106  O   UNL A   1      47.170  24.142  23.691  1.00  0.00    -0.237 OA
ATOM    107  O   UNL A   1      46.997  23.602  26.084  1.00  0.00    -0.744 OA
ENDBRANCH 100 104
ENDBRANCH  74  97
ENDBRANCH  48  49
ENDBRANCH  40  43
ENDBRANCH  38  39
ENDBRANCH  37  38
ENDBRANCH   1  37
TORSDOF 20
ENDMDL
MODEL 2
REMARK VINA RESULT:     -14.5      4.073      8.518
REMARK SMILES COc1ccc(-c2[nH]nc3nc(-c4ccc(C(F)(F)F)cc4)cc(C(=O)NCCCCCCNC(=O)c4ccc(-c5c6nc(c(-c7cc(S(=O)(=O)[O-])ccc7F)c7ccc([nH]7)c(-c7cc(S(=O)(=O)[O-])ccc7F)c7nc(c(-c8cc(S(=O)(=O)[O-])ccc8F)c8ccc5[nH]8)C=C7)C=C6)cc4)c23)cc1
REMARK SMILES IDX 31 1 30 2 29 3 28 4 27 5 25 6 26 7 24 9 7 10 8 11 100 12
REMARK SMILES IDX 9 13 10 15 11 16 23 17 12 18 6 19 3 20 4 21 102 22 5 23
REMARK SMILES IDX 101 24 2 25 1 26 13 27 14 28 22 29 15 30 21 31 16 32 17 33
REMARK SMILES IDX 18 34 19 35 20 36 32 37 33 38 34 39 35 40 36 42 37 43 38 44
REMARK SMILES IDX 99 45 39 46 98 47 40 48 41 49 42 50 92 51 43 52 97 53 91 54
REMARK SMILES IDX 93 55 44 56 96 57 90 58 89 59 45 61 77 62 57 63 76 64 58 65
REMARK SMILES IDX 61 66 75 67 94 68 59 69 60 70 74 72 95 73 62 74 46 75 47 76
REMARK SMILES IDX 55 77 48 78 54 79 56 80 53 81 49 82 50 83 51 84 52 85 78 86
REMARK SMILES IDX 79 87 87 88 80 89 86 90 88 91 85 92 81 93 82 94 83 95 84 96
REMARK SMILES IDX 63 97 64 98 72 99 65 100 71 101 73 102 70 103 66 104 67 105
REMARK SMILES IDX 68 106 69 107
REMARK H PARENT 27 8 8 14 34 41 93 60 61 71
REMARK Flexibility Score: inf
ROOT
ATOM      1  C   UNL A   1      33.948  27.799  25.371  1.00  0.00     0.002 C 
ENDROOT
BRANCH   1   2
ATOM      2  C   UNL A   1      33.844  26.264  25.430  1.00  0.00     0.002 C 
BRANCH   2   3
ATOM      3  C   UNL A   1      33.064  25.700  26.627  1.00  0.00     0.021 C 
BRANCH   3   4
ATOM      4  C   UNL A   1      33.182  24.184  26.751  1.00  0.00     0.116 C 
BRANCH   4   5
ATOM      5  N   UNL A   1      31.902  23.541  26.564  1.00  0.00    -0.352 N 
ATOM      6  C   UNL A   1      30.982  23.456  25.559  1.00  0.00     0.252 C 
ATOM      7  O   UNL A   1      30.157  22.561  25.724  1.00  0.00    -0.269 OA
ATOM      8  H   UNL A   1      31.623  23.039  27.363  1.00  0.00     0.163 HD
BRANCH   6   9
ATOM      9  C   UNL A   1      30.995  24.263  24.316  1.00  0.00     0.055 A 
ATOM     10  C   UNL A   1      32.582  22.957  22.826  1.00  0.00     0.075 A 
ATOM     11  N   UNL A   1      33.184  23.331  21.647  1.00  0.00    -0.275 N 
ATOM     12  C   UNL A   1      31.828  24.062  23.197  1.00  0.00     0.059 A 
ATOM     13  N   UNL A   1      32.893  24.569  21.221  1.00  0.00    -0.154 NA
ATOM     14  H   UNL A   1      33.788  22.732  21.152  1.00  0.00     0.190 HD
ATOM     15  C   UNL A   1      32.032  25.017  22.134  1.00  0.00     0.182 A 
ATOM     16  N   UNL A   1      31.428  26.234  22.108  1.00  0.00    -0.226 NA
ATOM     17  C   UNL A   1      30.255  25.435  24.124  1.00  0.00     0.043 A 
ATOM     18  C   UNL A   1      30.541  26.394  23.121  1.00  0.00     0.074 A 
BRANCH  10  19
ATOM     19  C   UNL A   1      32.770  21.607  23.346  1.00  0.00     0.001 A 
ATOM     20  C   UNL A   1      33.249  18.975  24.224  1.00  0.00     0.118 A 
ATOM     21  C   UNL A   1      32.334  19.226  23.201  1.00  0.00     0.047 A 
ATOM     22  C   UNL A   1      33.919  20.045  24.819  1.00  0.00     0.047 A 
ATOM     23  C   UNL A   1      32.085  20.531  22.769  1.00  0.00     0.014 A 
ATOM     24  C   UNL A   1      33.671  21.356  24.390  1.00  0.00     0.014 A 
BRANCH  20  25
ATOM     25  O   UNL A   1      33.438  17.651  24.515  1.00  0.00    -0.497 OA
ATOM     26  C   UNL A   1      34.759  17.154  24.345  1.00  0.00     0.278 C 
ENDBRANCH  20  25
ENDBRANCH  10  19
BRANCH  18  27
ATOM     27  C   UNL A   1      29.912  27.722  23.249  1.00  0.00     0.000 A 
ATOM     28  C   UNL A   1      30.653  28.872  23.545  1.00  0.00     0.011 A 
ATOM     29  C   UNL A   1      28.532  27.871  22.997  1.00  0.00     0.011 A 
ATOM     30  C   UNL A   1      30.043  30.133  23.552  1.00  0.00     0.014 A 
ATOM     31  C   UNL A   1      27.920  29.127  23.008  1.00  0.00     0.014 A 
ATOM     32  C   UNL A   1      28.673  30.276  23.279  1.00  0.00     0.056 A 
BRANCH  32  33
ATOM     33  C   UNL A   1      28.028  31.642  23.283  1.00  0.00     0.416 C 
ATOM     34  F   UNL A   1      26.894  31.680  24.036  1.00  0.00    -0.166 F 
ATOM     35  F   UNL A   1      28.847  32.607  23.781  1.00  0.00    -0.166 F 
ATOM     36  F   UNL A   1      27.662  32.070  22.041  1.00  0.00    -0.166 F 
ENDBRANCH  32  33
ENDBRANCH  18  27
ENDBRANCH   6   9
ENDBRANCH   4   5
ENDBRANCH   3   4
ENDBRANCH   2   3
ENDBRANCH   1   2
BRANCH   1  37
ATOM     37  C   UNL A   1      33.249  28.580  26.499  1.00  0.00     0.021 C 
BRANCH  37  38
ATOM     38  C   UNL A   1      34.219  29.264  27.439  1.00  0.00     0.116 C 
BRANCH  38  39
ATOM     39  N   UNL A   1      34.309  30.704  27.189  1.00  0.00    -0.352 N 
ATOM     40  C   UNL A   1      35.242  31.611  27.668  1.00  0.00     0.251 C 
ATOM     41  H   UNL A   1      33.612  31.079  26.603  1.00  0.00     0.163 HD
ATOM     42  O   UNL A   1      34.983  32.803  27.712  1.00  0.00    -0.269 OA
BRANCH  40  43
ATOM     43  C   UNL A   1      36.549  31.091  28.113  1.00  0.00     0.039 A 
ATOM     44  C   UNL A   1      37.334  31.713  29.087  1.00  0.00     0.014 A 
ATOM     45  C   UNL A   1      36.968  29.905  27.526  1.00  0.00     0.014 A 
ATOM     46  C   UNL A   1      38.527  31.093  29.460  1.00  0.00     0.010 A 
ATOM     47  C   UNL A   1      37.930  29.157  28.126  1.00  0.00     0.010 A 
ATOM     48  C   UNL A   1      38.810  29.813  28.958  1.00  0.00    -0.014 A 
BRANCH  48  49
ATOM     49  C   UNL A   1      40.016  29.072  29.264  1.00  0.00     0.031 A 
ATOM     50  C   UNL A   1      40.225  28.829  30.703  1.00  0.00     0.074 A 
ATOM     51  C   UNL A   1      40.745  28.447  28.312  1.00  0.00     0.049 A 
ATOM     52  N   UNL A   1      41.053  29.452  31.467  1.00  0.00    -0.248 NA
ATOM     53  C   UNL A   1      39.298  27.948  31.423  1.00  0.00     0.031 C 
ATOM     54  C   UNL A   1      40.496  28.325  26.869  1.00  0.00     0.029 A 
ATOM     55  N   UNL A   1      41.856  27.689  28.479  1.00  0.00    -0.354 N 
ATOM     56  C   UNL A   1      40.924  28.882  32.724  1.00  0.00     0.074 A 
ATOM     57  C   UNL A   1      39.696  28.133  32.685  1.00  0.00     0.031 C 
ATOM     58  C   UNL A   1      41.306  27.375  26.345  1.00  0.00     0.029 A 
ATOM     59  C   UNL A   1      42.236  26.937  27.373  1.00  0.00     0.049 A 
ATOM     60  H   UNL A   1      42.360  27.673  29.325  1.00  0.00     0.167 HD
ATOM     61  C   UNL A   1      41.959  28.918  33.607  1.00  0.00     0.034 A 
ATOM     62  C   UNL A   1      43.237  26.015  27.324  1.00  0.00     0.034 A 
ATOM     63  C   UNL A   1      43.015  29.781  33.113  1.00  0.00     0.049 A 
ATOM     64  C   UNL A   1      44.174  26.376  28.426  1.00  0.00     0.074 A 
ATOM     65  C   UNL A   1      43.097  31.128  32.817  1.00  0.00     0.029 A 
ATOM     66  N   UNL A   1      44.061  29.188  32.435  1.00  0.00    -0.354 N 
ATOM     67  N   UNL A   1      44.840  27.502  28.442  1.00  0.00    -0.248 NA
ATOM     68  C   UNL A   1      43.957  25.778  29.737  1.00  0.00     0.031 C 
ATOM     69  C   UNL A   1      43.838  31.187  31.598  1.00  0.00     0.029 A 
ATOM     70  C   UNL A   1      44.256  29.893  31.270  1.00  0.00     0.049 A 
ATOM     71  H   UNL A   1      44.575  28.402  32.732  1.00  0.00     0.167 HD
ATOM     72  C   UNL A   1      44.733  27.972  29.744  1.00  0.00     0.074 A 
ATOM     73  C   UNL A   1      44.260  26.822  30.519  1.00  0.00     0.031 C 
ATOM     74  C   UNL A   1      44.740  29.311  30.027  1.00  0.00     0.034 A 
BRANCH  61  75
ATOM     75  C   UNL A   1      42.204  27.957  34.743  1.00  0.00     0.023 A 
ATOM     76  C   UNL A   1      42.969  26.811  34.449  1.00  0.00     0.031 A 
ATOM     77  C   UNL A   1      41.541  27.953  35.989  1.00  0.00     0.131 A 
ATOM     78  C   UNL A   1      42.965  25.699  35.305  1.00  0.00     0.055 A 
ATOM     79  C   UNL A   1      41.596  26.868  36.870  1.00  0.00     0.041 A 
ATOM     80  F   UNL A   1      40.734  28.942  36.384  1.00  0.00    -0.206 F 
ATOM     81  C   UNL A   1      42.282  25.720  36.517  1.00  0.00     0.022 A 
BRANCH  78  82
ATOM     82  S   UNL A   1      43.724  24.166  34.714  1.00  0.00     0.124 S 
ATOM     83  O   UNL A   1      42.555  23.323  34.490  1.00  0.00    -0.237 OA
ATOM     84  O   UNL A   1      44.429  24.621  33.519  1.00  0.00    -0.237 OA
ATOM     85  O   UNL A   1      44.580  23.762  35.827  1.00  0.00    -0.744 OA
ENDBRANCH  78  82
ENDBRANCH  61  75
BRANCH  62  86
ATOM     86  C   UNL A   1      43.191  24.680  26.652  1.00  0.00     0.023 A 
ATOM     87  C   UNL A   1      42.287  23.654  27.009  1.00  0.00     0.031 A 
ATOM     88  C   UNL A   1      43.913  24.487  25.449  1.00  0.00     0.131 A 
ATOM     89  C   UNL A   1      42.139  22.508  26.183  1.00  0.00     0.055 A 
ATOM     90  C   UNL A   1      43.760  23.358  24.639  1.00  0.00     0.041 A 
ATOM     91  F   UNL A   1      44.737  25.433  24.972  1.00  0.00    -0.206 F 
ATOM     92  C   UNL A   1      42.864  22.367  24.998  1.00  0.00     0.022 A 
BRANCH  89  93
ATOM     93  S   UNL A   1      40.928  21.203  26.591  1.00  0.00     0.124 S 
ATOM     94  O   UNL A   1      39.755  21.618  25.830  1.00  0.00    -0.237 OA
ATOM     95  O   UNL A   1      41.602  19.993  26.135  1.00  0.00    -0.237 OA
ATOM     96  O   UNL A   1      40.785  21.309  28.044  1.00  0.00    -0.744 OA
ENDBRANCH  89  93
ENDBRANCH  62  86
BRANCH  74  97
ATOM     97  C   UNL A   1      45.082  30.285  28.907  1.00  0.00     0.023 A 
ATOM     98  C   UNL A   1      46.394  30.685  28.552  1.00  0.00     0.031 A 
ATOM     99  C   UNL A   1      44.032  30.711  28.075  1.00  0.00     0.131 A 
ATOM    100  C   UNL A   1      46.609  31.487  27.411  1.00  0.00     0.055 A 
ATOM    101  C   UNL A   1      44.250  31.480  26.933  1.00  0.00     0.041 A 
ATOM    102  F   UNL A   1      42.766  30.345  28.338  1.00  0.00    -0.206 F 
ATOM    103  C   UNL A   1      45.540  31.877  26.598  1.00  0.00     0.022 A 
BRANCH 100 104
ATOM    104  S   UNL A   1      48.284  32.058  26.971  1.00  0.00     0.124 S 
ATOM    105  O   UNL A   1      48.925  30.861  26.441  1.00  0.00    -0.237 OA
ATOM    106  O   UNL A   1      48.016  33.121  26.004  1.00  0.00    -0.237 OA
ATOM    107  O   UNL A   1      48.830  32.525  28.248  1.00  0.00    -0.744 OA
ENDBRANCH 100 104
ENDBRANCH  74  97
ENDBRANCH  48  49
ENDBRANCH  40  43
ENDBRANCH  38  39
ENDBRANCH  37  38
ENDBRANCH   1  37
TORSDOF 20
ENDMDL
MODEL 3
REMARK VINA RESULT:     -14.4      4.259      9.441
REMARK SMILES COc1ccc(-c2[nH]nc3nc(-c4ccc(C(F)(F)F)cc4)cc(C(=O)NCCCCCCNC(=O)c4ccc(-c5c6nc(c(-c7cc(S(=O)(=O)[O-])ccc7F)c7ccc([nH]7)c(-c7cc(S(=O)(=O)[O-])ccc7F)c7nc(c(-c8cc(S(=O)(=O)[O-])ccc8F)c8ccc5[nH]8)C=C7)C=C6)cc4)c23)cc1
REMARK SMILES IDX 31 1 30 2 29 3 28 4 27 5 25 6 26 7 24 9 7 10 8 11 100 12
REMARK SMILES IDX 9 13 10 15 11 16 23 17 12 18 6 19 3 20 4 21 102 22 5 23
REMARK SMILES IDX 101 24 2 25 1 26 13 27 14 28 22 29 15 30 21 31 16 32 17 33
REMARK SMILES IDX 18 34 19 35 20 36 32 37 33 38 34 39 35 40 36 42 37 43 38 44
REMARK SMILES IDX 99 45 39 46 98 47 40 48 41 49 42 50 92 51 43 52 97 53 91 54
REMARK SMILES IDX 93 55 44 56 96 57 90 58 89 59 45 61 77 62 57 63 76 64 58 65
REMARK SMILES IDX 61 66 75 67 94 68 59 69 60 70 74 72 95 73 62 74 46 75 47 76
REMARK SMILES IDX 55 77 48 78 54 79 56 80 53 81 49 82 50 83 51 84 52 85 78 86
REMARK SMILES IDX 79 87 87 88 80 89 86 90 88 91 85 92 81 93 82 94 83 95 84 96
REMARK SMILES IDX 63 97 64 98 72 99 65 100 71 101 73 102 70 103 66 104 67 105
REMARK SMILES IDX 68 106 69 107
REMARK H PARENT 27 8 8 14 34 41 93 60 61 71
REMARK Flexibility Score: inf
ROOT
ATOM      1  C   UNL A   1      34.078  28.474  25.525  1.00  0.00     0.002 C 
ENDROOT
BRANCH   1   2
ATOM      2  C   UNL A   1      33.602  27.026  25.298  1.00  0.00     0.002 C 
BRANCH   2   3
ATOM      3  C   UNL A   1      32.861  26.382  26.479  1.00  0.00     0.021 C 
BRANCH   3   4
ATOM      4  C   UNL A   1      33.148  24.890  26.616  1.00  0.00     0.116 C 
BRANCH   4   5
ATOM      5  N   UNL A   1      31.947  24.107  26.444  1.00  0.00    -0.352 N 
ATOM      6  C   UNL A   1      31.084  23.843  25.419  1.00  0.00     0.252 C 
ATOM      7  O   UNL A   1      30.345  22.886  25.635  1.00  0.00    -0.269 OA
ATOM      8  H   UNL A   1      31.684  23.648  27.274  1.00  0.00     0.163 HD
BRANCH   6   9
ATOM      9  C   UNL A   1      31.071  24.537  24.110  1.00  0.00     0.055 A 
ATOM     10  C   UNL A   1      32.714  23.170  22.741  1.00  0.00     0.075 A 
ATOM     11  N   UNL A   1      33.307  23.462  21.535  1.00  0.00    -0.275 N 
ATOM     12  C   UNL A   1      31.916  24.272  23.014  1.00  0.00     0.059 A 
ATOM     13  N   UNL A   1      32.970  24.645  21.003  1.00  0.00    -0.154 NA
ATOM     14  H   UNL A   1      33.935  22.846  21.095  1.00  0.00     0.190 HD
ATOM     15  C   UNL A   1      32.088  25.138  21.872  1.00  0.00     0.182 A 
ATOM     16  N   UNL A   1      31.437  26.324  21.739  1.00  0.00    -0.226 NA
ATOM     17  C   UNL A   1      30.288  25.659  23.816  1.00  0.00     0.043 A 
ATOM     18  C   UNL A   1      30.541  26.537  22.733  1.00  0.00     0.074 A 
BRANCH  10  19
ATOM     19  C   UNL A   1      32.952  21.878  23.378  1.00  0.00     0.001 A 
ATOM     20  C   UNL A   1      33.509  19.344  24.470  1.00  0.00     0.118 A 
ATOM     21  C   UNL A   1      32.472  19.507  23.551  1.00  0.00     0.047 A 
ATOM     22  C   UNL A   1      34.263  20.453  24.854  1.00  0.00     0.047 A 
ATOM     23  C   UNL A   1      32.184  20.765  23.014  1.00  0.00     0.014 A 
ATOM     24  C   UNL A   1      33.977  21.717  24.320  1.00  0.00     0.014 A 
BRANCH  20  25
ATOM     25  O   UNL A   1      33.718  18.054  24.878  1.00  0.00    -0.497 OA
ATOM     26  C   UNL A   1      34.536  17.254  24.033  1.00  0.00     0.278 C 
ENDBRANCH  20  25
ENDBRANCH  10  19
BRANCH  18  27
ATOM     27  C   UNL A   1      29.860  27.846  22.744  1.00  0.00     0.000 A 
ATOM     28  C   UNL A   1      28.524  27.986  23.135  1.00  0.00     0.011 A 
ATOM     29  C   UNL A   1      30.581  29.014  22.422  1.00  0.00     0.011 A 
ATOM     30  C   UNL A   1      27.939  29.256  23.238  1.00  0.00     0.014 A 
ATOM     31  C   UNL A   1      30.000  30.281  22.519  1.00  0.00     0.014 A 
ATOM     32  C   UNL A   1      28.671  30.416  22.936  1.00  0.00     0.056 A 
BRANCH  32  33
ATOM     33  C   UNL A   1      28.031  31.779  23.057  1.00  0.00     0.416 C 
ATOM     34  F   UNL A   1      26.930  31.767  23.858  1.00  0.00    -0.166 F 
ATOM     35  F   UNL A   1      28.873  32.709  23.583  1.00  0.00    -0.166 F 
ATOM     36  F   UNL A   1      27.614  32.288  21.863  1.00  0.00    -0.166 F 
ENDBRANCH  32  33
ENDBRANCH  18  27
ENDBRANCH   6   9
ENDBRANCH   4   5
ENDBRANCH   3   4
ENDBRANCH   2   3
ENDBRANCH   1   2
BRANCH   1  37
ATOM     37  C   UNL A   1      34.144  28.955  26.985  1.00  0.00     0.021 C 
BRANCH  37  38
ATOM     38  C   UNL A   1      35.544  29.328  27.427  1.00  0.00     0.116 C 
BRANCH  38  39
ATOM     39  N   UNL A   1      35.600  29.680  28.847  1.00  0.00    -0.352 N 
ATOM     40  C   UNL A   1      36.579  29.371  29.780  1.00  0.00     0.251 C 
ATOM     41  H   UNL A   1      34.840  30.206  29.186  1.00  0.00     0.163 HD
ATOM     42  O   UNL A   1      36.322  29.375  30.973  1.00  0.00    -0.269 OA
BRANCH  40  43
ATOM     43  C   UNL A   1      37.930  29.044  29.285  1.00  0.00     0.039 A 
ATOM     44  C   UNL A   1      38.489  29.614  28.139  1.00  0.00     0.014 A 
ATOM     45  C   UNL A   1      38.657  28.139  30.045  1.00  0.00     0.014 A 
ATOM     46  C   UNL A   1      39.797  29.262  27.804  1.00  0.00     0.010 A 
ATOM     47  C   UNL A   1      40.007  28.070  29.907  1.00  0.00     0.010 A 
ATOM     48  C   UNL A   1      40.538  28.478  28.703  1.00  0.00    -0.014 A 
BRANCH  48  49
ATOM     49  C   UNL A   1      41.898  28.043  28.466  1.00  0.00     0.031 A 
ATOM     50  C   UNL A   1      42.006  26.818  27.653  1.00  0.00     0.074 A 
ATOM     51  C   UNL A   1      42.968  28.820  28.749  1.00  0.00     0.049 A 
ATOM     52  N   UNL A   1      42.269  25.636  28.089  1.00  0.00    -0.248 NA
ATOM     53  C   UNL A   1      41.593  26.855  26.245  1.00  0.00     0.031 C 
ATOM     54  C   UNL A   1      43.020  30.193  29.267  1.00  0.00     0.029 A 
ATOM     55  N   UNL A   1      44.277  28.543  28.530  1.00  0.00    -0.354 N 
ATOM     56  C   UNL A   1      42.289  24.808  26.977  1.00  0.00     0.074 A 
ATOM     57  C   UNL A   1      41.658  25.559  25.924  1.00  0.00     0.031 C 
ATOM     58  C   UNL A   1      44.271  30.690  29.120  1.00  0.00     0.029 A 
ATOM     59  C   UNL A   1      45.142  29.626  28.650  1.00  0.00     0.049 A 
ATOM     60  H   UNL A   1      44.594  27.639  28.302  1.00  0.00     0.167 HD
ATOM     61  C   UNL A   1      43.020  23.659  26.985  1.00  0.00     0.034 A 
ATOM     62  C   UNL A   1      46.474  29.634  28.366  1.00  0.00     0.034 A 
ATOM     63  C   UNL A   1      43.520  23.389  28.320  1.00  0.00     0.049 A 
ATOM     64  C   UNL A   1      46.921  28.217  28.478  1.00  0.00     0.074 A 
ATOM     65  C   UNL A   1      42.920  23.128  29.538  1.00  0.00     0.029 A 
ATOM     66  N   UNL A   1      44.802  23.803  28.619  1.00  0.00    -0.354 N 
ATOM     67  N   UNL A   1      46.886  27.555  29.606  1.00  0.00    -0.248 NA
ATOM     68  C   UNL A   1      46.876  27.385  27.282  1.00  0.00     0.031 C 
ATOM     69  C   UNL A   1      43.677  23.884  30.483  1.00  0.00     0.029 A 
ATOM     70  C   UNL A   1      44.754  24.479  29.817  1.00  0.00     0.049 A 
ATOM     71  H   UNL A   1      45.607  23.643  28.073  1.00  0.00     0.167 HD
ATOM     72  C   UNL A   1      46.372  26.306  29.281  1.00  0.00     0.074 A 
ATOM     73  C   UNL A   1      46.474  26.228  27.823  1.00  0.00     0.031 C 
ATOM     74  C   UNL A   1      45.635  25.579  30.177  1.00  0.00     0.034 A 
BRANCH  61  75
ATOM     75  C   UNL A   1      43.577  22.941  25.783  1.00  0.00     0.023 A 
ATOM     76  C   UNL A   1      43.455  21.538  25.770  1.00  0.00     0.031 A 
ATOM     77  C   UNL A   1      44.426  23.494  24.801  1.00  0.00     0.131 A 
ATOM     78  C   UNL A   1      44.226  20.751  24.902  1.00  0.00     0.055 A 
ATOM     79  C   UNL A   1      45.142  22.709  23.891  1.00  0.00     0.041 A 
ATOM     80  F   UNL A   1      44.687  24.803  24.721  1.00  0.00    -0.206 F 
ATOM     81  C   UNL A   1      45.072  21.329  23.959  1.00  0.00     0.022 A 
BRANCH  78  82
ATOM     82  S   UNL A   1      44.234  18.959  25.155  1.00  0.00     0.124 S 
ATOM     83  O   UNL A   1      45.593  18.733  25.634  1.00  0.00    -0.237 OA
ATOM     84  O   UNL A   1      43.167  18.790  26.136  1.00  0.00    -0.237 OA
ATOM     85  O   UNL A   1      43.947  18.430  23.823  1.00  0.00    -0.744 OA
ENDBRANCH  78  82
ENDBRANCH  61  75
BRANCH  62  86
ATOM     86  C   UNL A   1      47.229  30.709  27.651  1.00  0.00     0.023 A 
ATOM     87  C   UNL A   1      46.613  31.821  27.033  1.00  0.00     0.031 A 
ATOM     88  C   UNL A   1      48.638  30.768  27.781  1.00  0.00     0.131 A 
ATOM     89  C   UNL A   1      47.395  32.916  26.579  1.00  0.00     0.055 A 
ATOM     90  C   UNL A   1      49.402  31.850  27.337  1.00  0.00     0.041 A 
ATOM     91  F   UNL A   1      49.319  29.806  28.425  1.00  0.00    -0.206 F 
ATOM     92  C   UNL A   1      48.783  32.934  26.742  1.00  0.00     0.022 A 
BRANCH  89  93
ATOM     93  S   UNL A   1      46.613  34.391  25.839  1.00  0.00     0.124 S 
ATOM     94  O   UNL A   1      45.455  33.821  25.160  1.00  0.00    -0.237 OA
ATOM     95  O   UNL A   1      46.337  35.221  27.006  1.00  0.00    -0.237 OA
ATOM     96  O   UNL A   1      47.648  34.918  24.949  1.00  0.00    -0.744 OA
ENDBRANCH  89  93
ENDBRANCH  62  86
BRANCH  74  97
ATOM     97  C   UNL A   1      45.561  26.066  31.618  1.00  0.00     0.023 A 
ATOM     98  C   UNL A   1      44.457  26.744  32.190  1.00  0.00     0.031 A 
ATOM     99  C   UNL A   1      46.606  25.692  32.483  1.00  0.00     0.131 A 
ATOM    100  C   UNL A   1      44.437  27.031  33.572  1.00  0.00     0.055 A 
ATOM    101  C   UNL A   1      46.569  25.953  33.852  1.00  0.00     0.041 A 
ATOM    102  F   UNL A   1      47.670  25.022  32.011  1.00  0.00    -0.206 F 
ATOM    103  C   UNL A   1      45.486  26.628  34.402  1.00  0.00     0.022 A 
BRANCH 100 104
ATOM    104  S   UNL A   1      43.049  27.954  34.315  1.00  0.00     0.124 S 
ATOM    105  O   UNL A   1      43.562  29.314  34.422  1.00  0.00    -0.237 OA
ATOM    106  O   UNL A   1      41.975  27.751  33.345  1.00  0.00    -0.237 OA
ATOM    107  O   UNL A   1      42.841  27.280  35.598  1.00  0.00    -0.744 OA
ENDBRANCH 100 104
ENDBRANCH  74  97
ENDBRANCH  48  49
ENDBRANCH  40  43
ENDBRANCH  38  39
ENDBRANCH  37  38
ENDBRANCH   1  37
TORSDOF 20
ENDMDL
