MODEL 1
REMARK VINA RESULT:     -11.4      0.000      0.000
REMARK SMILES O=C(Cc1ccccc1F)NC[C@@H]1CC[C@@H](C(=O)NCCCCCCNC(=O)c2ccc(-c3c4nc(c(-c5cc(S(=O)(=O)[O-])ccc5F)c5ccc([nH]5)c(-c5cc(S(=O)(=O)[O-])ccc5F)c5nc(c(-c6cc(S(=O)(=O)[O-])ccc6F)c6ccc3[nH]6)C=C5)C=C4)cc2)O1
REMARK SMILES IDX 22 1 21 2 20 3 19 4 17 5 18 6 16 8 13 9 14 10 92 11 15 12
REMARK SMILES IDX 12 13 11 14 1 15 2 16 3 18 4 19 5 20 9 21 6 22 8 23 10 24
REMARK SMILES IDX 7 25 23 26 24 27 25 28 26 29 27 30 28 32 29 33 30 34 91 35
REMARK SMILES IDX 31 36 90 37 32 38 33 39 34 40 84 41 35 42 89 43 83 44 85 45
REMARK SMILES IDX 36 46 88 47 82 48 81 49 37 51 69 52 49 53 68 54 50 55 53 56
REMARK SMILES IDX 67 57 86 58 51 59 52 60 66 62 87 63 54 64 38 65 39 66 47 67
REMARK SMILES IDX 40 68 46 69 48 70 45 71 41 72 42 73 43 74 44 75 70 76 71 77
REMARK SMILES IDX 79 78 72 79 78 80 80 81 77 82 73 83 74 84 75 85 76 86 55 87
REMARK SMILES IDX 56 88 64 89 57 90 63 91 65 92 62 93 58 94 59 95 60 96 61 97
REMARK H PARENT 19 7 11 17 26 31 85 50 53 61
REMARK Flexibility Score: inf
ROOT
ATOM      1  C   UNL A   1      34.568  21.409  24.722  1.00  0.00     0.002 C 
ENDROOT
BRANCH   1   2
ATOM      2  C   UNL A   1      33.395  21.020  25.626  1.00  0.00     0.021 C 
BRANCH   2   3
ATOM      3  C   UNL A   1      32.022  21.504  25.175  1.00  0.00     0.116 C 
BRANCH   3   4
ATOM      4  N   UNL A   1      31.157  21.891  26.271  1.00  0.00    -0.354 N 
ATOM      5  C   UNL A   1      30.550  23.087  26.523  1.00  0.00     0.249 C 
ATOM      6  O   UNL A   1      29.765  23.146  27.476  1.00  0.00    -0.272 OA
ATOM      7  H   UNL A   1      30.980  21.185  26.933  1.00  0.00     0.163 HD
BRANCH   5   8
ATOM      8  C   UNL A   1      30.815  24.322  25.648  1.00  0.00     0.207 C 
ATOM      9  C   UNL A   1      30.200  25.218  23.578  1.00  0.00     0.138 C 
ATOM     10  C   UNL A   1      29.936  26.276  24.641  1.00  0.00     0.037 C 
ATOM     11  O   UNL A   1      30.711  24.049  24.245  1.00  0.00    -0.363 OA
ATOM     12  C   UNL A   1      29.921  25.513  25.944  1.00  0.00     0.045 C 
BRANCH   9  13
ATOM     13  C   UNL A   1      31.209  25.697  22.526  1.00  0.00     0.147 C 
BRANCH  13  14
ATOM     14  N   UNL A   1      32.021  26.792  23.030  1.00  0.00    -0.353 N 
ATOM     15  O   UNL A   1      33.969  26.106  22.033  1.00  0.00    -0.275 OA
ATOM     16  C   UNL A   1      33.366  26.906  22.745  1.00  0.00     0.224 C 
ATOM     17  H   UNL A   1      31.596  27.477  23.595  1.00  0.00     0.163 HD
BRANCH  16  18
ATOM     18  C   UNL A   1      34.052  28.085  23.409  1.00  0.00     0.138 C 
BRANCH  18  19
ATOM     19  C   UNL A   1      33.435  28.461  24.730  1.00  0.00    -0.003 A 
ATOM     20  C   UNL A   1      32.682  29.637  24.867  1.00  0.00     0.007 A 
ATOM     21  C   UNL A   1      33.611  27.649  25.854  1.00  0.00     0.126 A 
ATOM     22  C   UNL A   1      32.125  29.983  26.101  1.00  0.00     0.001 A 
ATOM     23  C   UNL A   1      33.050  27.985  27.084  1.00  0.00     0.039 A 
ATOM     24  F   UNL A   1      34.315  26.513  25.759  1.00  0.00    -0.207 F 
ATOM     25  C   UNL A   1      32.308  29.157  27.209  1.00  0.00     0.003 A 
ENDBRANCH  18  19
ENDBRANCH  16  18
ENDBRANCH  13  14
ENDBRANCH   9  13
ENDBRANCH   5   8
ENDBRANCH   3   4
ENDBRANCH   2   3
ENDBRANCH   1   2
BRANCH   1  26
ATOM     26  C   UNL A   1      34.681  22.892  24.357  1.00  0.00     0.002 C 
BRANCH  26  27
ATOM     27  C   UNL A   1      36.035  23.555  24.622  1.00  0.00     0.021 C 
BRANCH  27  28
ATOM     28  C   UNL A   1      36.585  23.395  26.036  1.00  0.00     0.116 C 
BRANCH  28  29
ATOM     29  N   UNL A   1      37.709  22.482  26.094  1.00  0.00    -0.352 N 
ATOM     30  C   UNL A   1      39.034  22.737  26.355  1.00  0.00     0.251 C 
ATOM     31  H   UNL A   1      37.492  21.537  25.922  1.00  0.00     0.163 HD
ATOM     32  O   UNL A   1      39.861  21.847  26.180  1.00  0.00    -0.269 OA
BRANCH  30  33
ATOM     33  C   UNL A   1      39.470  24.075  26.822  1.00  0.00     0.039 A 
ATOM     34  C   UNL A   1      39.296  24.402  28.170  1.00  0.00     0.014 A 
ATOM     35  C   UNL A   1      40.006  25.020  25.941  1.00  0.00     0.014 A 
ATOM     36  C   UNL A   1      39.698  25.656  28.641  1.00  0.00     0.010 A 
ATOM     37  C   UNL A   1      40.468  26.244  26.425  1.00  0.00     0.010 A 
ATOM     38  C   UNL A   1      40.310  26.579  27.778  1.00  0.00    -0.014 A 
BRANCH  38  39
ATOM     39  C   UNL A   1      40.760  27.907  28.273  1.00  0.00     0.031 A 
ATOM     40  C   UNL A   1      42.223  28.265  28.252  1.00  0.00     0.074 A 
ATOM     41  C   UNL A   1      39.858  28.781  28.762  1.00  0.00     0.049 A 
ATOM     42  N   UNL A   1      42.813  29.349  28.683  1.00  0.00    -0.248 NA
ATOM     43  C   UNL A   1      43.145  27.263  27.695  1.00  0.00     0.031 C 
ATOM     44  C   UNL A   1      38.416  28.541  28.856  1.00  0.00     0.029 A 
ATOM     45  N   UNL A   1      40.016  30.048  29.268  1.00  0.00    -0.354 N 
ATOM     46  C   UNL A   1      44.172  29.159  28.457  1.00  0.00     0.074 A 
ATOM     47  C   UNL A   1      44.324  27.832  27.901  1.00  0.00     0.031 C 
ATOM     48  C   UNL A   1      37.820  29.639  29.349  1.00  0.00     0.029 A 
ATOM     49  C   UNL A   1      38.835  30.643  29.649  1.00  0.00     0.049 A 
ATOM     50  H   UNL A   1      40.892  30.490  29.350  1.00  0.00     0.167 HD
ATOM     51  C   UNL A   1      45.196  30.021  28.672  1.00  0.00     0.034 A 
ATOM     52  C   UNL A   1      38.596  31.857  30.186  1.00  0.00     0.034 A 
ATOM     53  C   UNL A   1      45.030  31.351  29.195  1.00  0.00     0.049 A 
ATOM     54  C   UNL A   1      39.753  32.786  30.441  1.00  0.00     0.074 A 
ATOM     55  C   UNL A   1      45.997  32.322  29.395  1.00  0.00     0.029 A 
ATOM     56  N   UNL A   1      43.823  31.902  29.602  1.00  0.00    -0.354 N 
ATOM     57  N   UNL A   1      41.030  32.591  30.210  1.00  0.00    -0.248 NA
ATOM     58  C   UNL A   1      39.441  34.095  31.031  1.00  0.00     0.031 C 
ATOM     59  C   UNL A   1      45.385  33.436  29.977  1.00  0.00     0.029 A 
ATOM     60  C   UNL A   1      44.026  33.187  30.079  1.00  0.00     0.049 A 
ATOM     61  H   UNL A   1      42.952  31.447  29.557  1.00  0.00     0.167 HD
ATOM     62  C   UNL A   1      41.671  33.759  30.610  1.00  0.00     0.074 A 
ATOM     63  C   UNL A   1      40.641  34.656  31.094  1.00  0.00     0.031 C 
ATOM     64  C   UNL A   1      42.992  34.062  30.573  1.00  0.00     0.034 A 
BRANCH  51  65
ATOM     65  C   UNL A   1      46.590  29.549  28.346  1.00  0.00     0.023 A 
ATOM     66  C   UNL A   1      47.374  28.868  29.292  1.00  0.00     0.031 A 
ATOM     67  C   UNL A   1      47.129  29.760  27.065  1.00  0.00     0.131 A 
ATOM     68  C   UNL A   1      48.673  28.459  28.958  1.00  0.00     0.055 A 
ATOM     69  C   UNL A   1      48.397  29.293  26.718  1.00  0.00     0.041 A 
ATOM     70  F   UNL A   1      46.428  30.420  26.129  1.00  0.00    -0.206 F 
ATOM     71  C   UNL A   1      49.181  28.645  27.669  1.00  0.00     0.022 A 
BRANCH  68  72
ATOM     72  S   UNL A   1      49.722  27.749  30.253  1.00  0.00     0.124 S 
ATOM     73  O   UNL A   1      49.791  28.850  31.210  1.00  0.00    -0.237 OA
ATOM     74  O   UNL A   1      48.957  26.582  30.678  1.00  0.00    -0.237 OA
ATOM     75  O   UNL A   1      50.973  27.454  29.559  1.00  0.00    -0.744 OA
ENDBRANCH  68  72
ENDBRANCH  51  65
BRANCH  52  76
ATOM     76  C   UNL A   1      37.203  32.258  30.523  1.00  0.00     0.023 A 
ATOM     77  C   UNL A   1      36.346  32.784  29.544  1.00  0.00     0.031 A 
ATOM     78  C   UNL A   1      36.704  32.104  31.829  1.00  0.00     0.131 A 
ATOM     79  C   UNL A   1      35.037  33.158  29.891  1.00  0.00     0.055 A 
ATOM     80  C   UNL A   1      35.392  32.443  32.160  1.00  0.00     0.041 A 
ATOM     81  F   UNL A   1      37.482  31.595  32.796  1.00  0.00    -0.206 F 
ATOM     82  C   UNL A   1      34.550  32.978  31.189  1.00  0.00     0.022 A 
BRANCH  79  83
ATOM     83  S   UNL A   1      33.977  33.903  28.621  1.00  0.00     0.124 S 
ATOM     84  O   UNL A   1      34.898  34.830  27.975  1.00  0.00    -0.237 OA
ATOM     85  O   UNL A   1      33.578  32.740  27.836  1.00  0.00    -0.237 OA
ATOM     86  O   UNL A   1      32.904  34.523  29.397  1.00  0.00    -0.744 OA
ENDBRANCH  79  83
ENDBRANCH  52  76
BRANCH  64  87
ATOM     87  C   UNL A   1      43.409  35.427  31.050  1.00  0.00     0.023 A 
ATOM     88  C   UNL A   1      43.523  36.508  30.162  1.00  0.00     0.031 A 
ATOM     89  C   UNL A   1      43.621  35.660  32.420  1.00  0.00     0.131 A 
ATOM     90  C   UNL A   1      43.859  37.778  30.654  1.00  0.00     0.055 A 
ATOM     91  C   UNL A   1      43.915  36.933  32.908  1.00  0.00     0.041 A 
ATOM     92  F   UNL A   1      43.518  34.657  33.308  1.00  0.00    -0.206 F 
ATOM     93  C   UNL A   1      44.038  38.000  32.022  1.00  0.00     0.022 A 
BRANCH  90  94
ATOM     94  S   UNL A   1      44.073  39.141  29.478  1.00  0.00     0.124 S 
ATOM     95  O   UNL A   1      44.532  40.219  30.347  1.00  0.00    -0.237 OA
ATOM     96  O   UNL A   1      45.064  38.607  28.548  1.00  0.00    -0.237 OA
ATOM     97  O   UNL A   1      42.736  39.322  28.916  1.00  0.00    -0.744 OA
ENDBRANCH  90  94
ENDBRANCH  64  87
ENDBRANCH  38  39
ENDBRANCH  30  33
ENDBRANCH  28  29
ENDBRANCH  27  28
ENDBRANCH  26  27
ENDBRANCH   1  26
TORSDOF 20
ENDMDL
MODEL 2
REMARK VINA RESULT:     -11.0      1.310      7.772
REMARK SMILES O=C(Cc1ccccc1F)NC[C@@H]1CC[C@@H](C(=O)NCCCCCCNC(=O)c2ccc(-c3c4nc(c(-c5cc(S(=O)(=O)[O-])ccc5F)c5ccc([nH]5)c(-c5cc(S(=O)(=O)[O-])ccc5F)c5nc(c(-c6cc(S(=O)(=O)[O-])ccc6F)c6ccc3[nH]6)C=C5)C=C4)cc2)O1
REMARK SMILES IDX 22 1 21 2 20 3 19 4 17 5 18 6 16 8 13 9 14 10 92 11 15 12
REMARK SMILES IDX 12 13 11 14 1 15 2 16 3 18 4 19 5 20 9 21 6 22 8 23 10 24
REMARK SMILES IDX 7 25 23 26 24 27 25 28 26 29 27 30 28 32 29 33 30 34 91 35
REMARK SMILES IDX 31 36 90 37 32 38 33 39 34 40 84 41 35 42 89 43 83 44 85 45
REMARK SMILES IDX 36 46 88 47 82 48 81 49 37 51 69 52 49 53 68 54 50 55 53 56
REMARK SMILES IDX 67 57 86 58 51 59 52 60 66 62 87 63 54 64 38 65 39 66 47 67
REMARK SMILES IDX 40 68 46 69 48 70 45 71 41 72 42 73 43 74 44 75 70 76 71 77
REMARK SMILES IDX 79 78 72 79 78 80 80 81 77 82 73 83 74 84 75 85 76 86 55 87
REMARK SMILES IDX 56 88 64 89 57 90 63 91 65 92 62 93 58 94 59 95 60 96 61 97
REMARK H PARENT 19 7 11 17 26 31 85 50 53 61
REMARK Flexibility Score: inf
ROOT
ATOM      1  C   UNL A   1      34.624  21.507  24.535  1.00  0.00     0.002 C 
ENDROOT
BRANCH   1   2
ATOM      2  C   UNL A   1      33.476  20.968  25.391  1.00  0.00     0.021 C 
BRANCH   2   3
ATOM      3  C   UNL A   1      32.086  21.483  25.036  1.00  0.00     0.116 C 
BRANCH   3   4
ATOM      4  N   UNL A   1      31.293  21.851  26.191  1.00  0.00    -0.354 N 
ATOM      5  C   UNL A   1      30.698  23.040  26.499  1.00  0.00     0.249 C 
ATOM      6  O   UNL A   1      29.978  23.083  27.502  1.00  0.00    -0.272 OA
ATOM      7  H   UNL A   1      31.163  21.136  26.854  1.00  0.00     0.163 HD
BRANCH   5   8
ATOM      8  C   UNL A   1      30.899  24.288  25.623  1.00  0.00     0.207 C 
ATOM      9  C   UNL A   1      30.239  25.150  23.553  1.00  0.00     0.138 C 
ATOM     10  C   UNL A   1      29.919  26.193  24.616  1.00  0.00     0.037 C 
ATOM     11  O   UNL A   1      30.810  24.010  24.221  1.00  0.00    -0.363 OA
ATOM     12  C   UNL A   1      29.943  25.430  25.918  1.00  0.00     0.045 C 
BRANCH   9  13
ATOM     13  C   UNL A   1      31.223  25.682  22.502  1.00  0.00     0.147 C 
BRANCH  13  14
ATOM     14  N   UNL A   1      32.000  26.795  23.019  1.00  0.00    -0.353 N 
ATOM     15  O   UNL A   1      33.965  26.190  22.003  1.00  0.00    -0.275 OA
ATOM     16  C   UNL A   1      33.339  26.958  22.730  1.00  0.00     0.224 C 
ATOM     17  H   UNL A   1      31.556  27.457  23.597  1.00  0.00     0.163 HD
BRANCH  16  18
ATOM     18  C   UNL A   1      33.990  28.150  23.409  1.00  0.00     0.138 C 
BRANCH  18  19
ATOM     19  C   UNL A   1      33.355  28.496  24.730  1.00  0.00    -0.003 A 
ATOM     20  C   UNL A   1      32.533  29.625  24.862  1.00  0.00     0.007 A 
ATOM     21  C   UNL A   1      33.583  27.703  25.858  1.00  0.00     0.126 A 
ATOM     22  C   UNL A   1      31.961  29.945  26.096  1.00  0.00     0.001 A 
ATOM     23  C   UNL A   1      33.007  28.012  27.088  1.00  0.00     0.039 A 
ATOM     24  F   UNL A   1      34.353  26.610  25.766  1.00  0.00    -0.207 F 
ATOM     25  C   UNL A   1      32.196  29.138  27.208  1.00  0.00     0.003 A 
ENDBRANCH  18  19
ENDBRANCH  16  18
ENDBRANCH  13  14
ENDBRANCH   9  13
ENDBRANCH   5   8
ENDBRANCH   3   4
ENDBRANCH   2   3
ENDBRANCH   1   2
BRANCH   1  26
ATOM     26  C   UNL A   1      34.670  23.024  24.335  1.00  0.00     0.002 C 
BRANCH  26  27
ATOM     27  C   UNL A   1      36.043  23.687  24.481  1.00  0.00     0.021 C 
BRANCH  27  28
ATOM     28  C   UNL A   1      36.626  23.698  25.891  1.00  0.00     0.116 C 
BRANCH  28  29
ATOM     29  N   UNL A   1      37.667  22.704  26.068  1.00  0.00    -0.352 N 
ATOM     30  C   UNL A   1      38.974  22.863  26.461  1.00  0.00     0.251 C 
ATOM     31  H   UNL A   1      37.397  21.776  25.878  1.00  0.00     0.163 HD
ATOM     32  O   UNL A   1      39.745  21.911  26.376  1.00  0.00    -0.269 OA
BRANCH  30  33
ATOM     33  C   UNL A   1      39.460  24.170  26.964  1.00  0.00     0.039 A 
ATOM     34  C   UNL A   1      40.130  25.019  26.079  1.00  0.00     0.014 A 
ATOM     35  C   UNL A   1      39.299  24.547  28.301  1.00  0.00     0.014 A 
ATOM     36  C   UNL A   1      40.599  26.260  26.522  1.00  0.00     0.010 A 
ATOM     37  C   UNL A   1      39.707  25.812  28.725  1.00  0.00     0.010 A 
ATOM     38  C   UNL A   1      40.370  26.677  27.843  1.00  0.00    -0.014 A 
BRANCH  38  39
ATOM     39  C   UNL A   1      40.846  28.004  28.319  1.00  0.00     0.031 A 
ATOM     40  C   UNL A   1      39.860  29.023  28.826  1.00  0.00     0.074 A 
ATOM     41  C   UNL A   1      42.160  28.300  28.273  1.00  0.00     0.049 A 
ATOM     42  N   UNL A   1      40.075  30.246  29.237  1.00  0.00    -0.248 NA
ATOM     43  C   UNL A   1      38.445  28.623  28.854  1.00  0.00     0.031 C 
ATOM     44  C   UNL A   1      43.210  27.405  27.782  1.00  0.00     0.029 A 
ATOM     45  N   UNL A   1      42.840  29.432  28.649  1.00  0.00    -0.354 N 
ATOM     46  C   UNL A   1      38.826  30.763  29.564  1.00  0.00     0.074 A 
ATOM     47  C   UNL A   1      37.852  29.739  29.253  1.00  0.00     0.031 C 
ATOM     48  C   UNL A   1      44.402  28.007  27.923  1.00  0.00     0.029 A 
ATOM     49  C   UNL A   1      44.202  29.345  28.471  1.00  0.00     0.049 A 
ATOM     50  H   UNL A   1      42.396  30.232  29.013  1.00  0.00     0.167 HD
ATOM     51  C   UNL A   1      38.523  31.971  30.098  1.00  0.00     0.034 A 
ATOM     52  C   UNL A   1      45.180  30.241  28.716  1.00  0.00     0.034 A 
ATOM     53  C   UNL A   1      39.502  32.970  30.434  1.00  0.00     0.049 A 
ATOM     54  C   UNL A   1      44.814  31.587  29.282  1.00  0.00     0.074 A 
ATOM     55  C   UNL A   1      39.301  34.203  31.032  1.00  0.00     0.029 A 
ATOM     56  N   UNL A   1      40.866  32.856  30.206  1.00  0.00    -0.354 N 
ATOM     57  N   UNL A   1      43.628  32.053  29.594  1.00  0.00    -0.248 NA
ATOM     58  C   UNL A   1      45.915  32.530  29.526  1.00  0.00     0.031 C 
ATOM     59  C   UNL A   1      40.534  34.857  31.111  1.00  0.00     0.029 A 
ATOM     60  C   UNL A   1      41.514  34.007  30.623  1.00  0.00     0.049 A 
ATOM     61  H   UNL A   1      41.308  32.073  29.807  1.00  0.00     0.167 HD
ATOM     62  C   UNL A   1      43.842  33.336  30.088  1.00  0.00     0.074 A 
ATOM     63  C   UNL A   1      45.270  33.571  30.036  1.00  0.00     0.031 C 
ATOM     64  C   UNL A   1      42.936  34.234  30.549  1.00  0.00     0.034 A 
BRANCH  51  65
ATOM     65  C   UNL A   1      37.069  32.284  30.345  1.00  0.00     0.023 A 
ATOM     66  C   UNL A   1      36.233  32.748  29.316  1.00  0.00     0.031 A 
ATOM     67  C   UNL A   1      36.508  32.087  31.619  1.00  0.00     0.131 A 
ATOM     68  C   UNL A   1      34.889  33.044  29.589  1.00  0.00     0.055 A 
ATOM     69  C   UNL A   1      35.155  32.322  31.868  1.00  0.00     0.041 A 
ATOM     70  F   UNL A   1      37.267  31.662  32.641  1.00  0.00    -0.206 F 
ATOM     71  C   UNL A   1      34.338  32.810  30.851  1.00  0.00     0.022 A 
BRANCH  68  72
ATOM     72  S   UNL A   1      33.887  33.812  28.289  1.00  0.00     0.124 S 
ATOM     73  O   UNL A   1      33.021  34.692  29.070  1.00  0.00    -0.237 OA
ATOM     74  O   UNL A   1      34.890  34.473  27.463  1.00  0.00    -0.237 OA
ATOM     75  O   UNL A   1      33.212  32.679  27.661  1.00  0.00    -0.744 OA
ENDBRANCH  68  72
ENDBRANCH  51  65
BRANCH  52  76
ATOM     76  C   UNL A   1      46.596  29.894  28.418  1.00  0.00     0.023 A 
ATOM     77  C   UNL A   1      47.392  29.233  29.366  1.00  0.00     0.031 A 
ATOM     78  C   UNL A   1      47.168  30.205  27.171  1.00  0.00     0.131 A 
ATOM     79  C   UNL A   1      48.727  28.921  29.060  1.00  0.00     0.055 A 
ATOM     80  C   UNL A   1      48.484  29.860  26.858  1.00  0.00     0.041 A 
ATOM     81  F   UNL A   1      46.443  30.826  26.229  1.00  0.00    -0.206 F 
ATOM     82  C   UNL A   1      49.273  29.218  27.808  1.00  0.00     0.022 A 
BRANCH  79  83
ATOM     83  S   UNL A   1      49.753  28.133  30.331  1.00  0.00     0.124 S 
ATOM     84  O   UNL A   1      48.795  27.239  30.971  1.00  0.00    -0.237 OA
ATOM     85  O   UNL A   1      50.794  27.495  29.532  1.00  0.00    -0.237 OA
ATOM     86  O   UNL A   1      50.204  29.258  31.149  1.00  0.00    -0.744 OA
ENDBRANCH  79  83
ENDBRANCH  52  76
BRANCH  64  87
ATOM     87  C   UNL A   1      43.455  35.552  31.055  1.00  0.00     0.023 A 
ATOM     88  C   UNL A   1      43.809  35.730  32.402  1.00  0.00     0.031 A 
ATOM     89  C   UNL A   1      43.666  36.616  30.161  1.00  0.00     0.131 A 
ATOM     90  C   UNL A   1      44.343  36.958  32.823  1.00  0.00     0.055 A 
ATOM     91  C   UNL A   1      44.235  37.819  30.577  1.00  0.00     0.041 A 
ATOM     92  F   UNL A   1      43.347  36.491  28.862  1.00  0.00    -0.206 F 
ATOM     93  C   UNL A   1      44.575  37.996  31.915  1.00  0.00     0.022 A 
BRANCH  90  94
ATOM     94  S   UNL A   1      44.723  37.187  34.580  1.00  0.00     0.124 S 
ATOM     95  O   UNL A   1      45.829  36.256  34.774  1.00  0.00    -0.237 OA
ATOM     96  O   UNL A   1      45.064  38.605  34.649  1.00  0.00    -0.237 OA
ATOM     97  O   UNL A   1      43.476  36.820  35.251  1.00  0.00    -0.744 OA
ENDBRANCH  90  94
ENDBRANCH  64  87
ENDBRANCH  38  39
ENDBRANCH  30  33
ENDBRANCH  28  29
ENDBRANCH  27  28
ENDBRANCH  26  27
ENDBRANCH   1  26
TORSDOF 20
ENDMDL
MODEL 3
REMARK VINA RESULT:     -10.8      2.289      7.630
REMARK SMILES O=C(Cc1ccccc1F)NC[C@@H]1CC[C@@H](C(=O)NCCCCCCNC(=O)c2ccc(-c3c4nc(c(-c5cc(S(=O)(=O)[O-])ccc5F)c5ccc([nH]5)c(-c5cc(S(=O)(=O)[O-])ccc5F)c5nc(c(-c6cc(S(=O)(=O)[O-])ccc6F)c6ccc3[nH]6)C=C5)C=C4)cc2)O1
REMARK SMILES IDX 22 1 21 2 20 3 19 4 17 5 18 6 16 8 13 9 14 10 92 11 15 12
REMARK SMILES IDX 12 13 11 14 1 15 2 16 3 18 4 19 5 20 9 21 6 22 8 23 10 24
REMARK SMILES IDX 7 25 23 26 24 27 25 28 26 29 27 30 28 32 29 33 30 34 91 35
REMARK SMILES IDX 31 36 90 37 32 38 33 39 34 40 84 41 35 42 89 43 83 44 85 45
REMARK SMILES IDX 36 46 88 47 82 48 81 49 37 51 69 52 49 53 68 54 50 55 53 56
REMARK SMILES IDX 67 57 86 58 51 59 52 60 66 62 87 63 54 64 38 65 39 66 47 67
REMARK SMILES IDX 40 68 46 69 48 70 45 71 41 72 42 73 43 74 44 75 70 76 71 77
REMARK SMILES IDX 79 78 72 79 78 80 80 81 77 82 73 83 74 84 75 85 76 86 55 87
REMARK SMILES IDX 56 88 64 89 57 90 63 91 65 92 62 93 58 94 59 95 60 96 61 97
REMARK H PARENT 19 7 11 17 26 31 85 50 53 61
REMARK Flexibility Score: inf
ROOT
ATOM      1  C   UNL A   1      34.319  20.874  24.773  1.00  0.00     0.002 C 
ENDROOT
BRANCH   1   2
ATOM      2  C   UNL A   1      33.160  20.828  25.772  1.00  0.00     0.021 C 
BRANCH   2   3
ATOM      3  C   UNL A   1      31.838  21.406  25.280  1.00  0.00     0.116 C 
BRANCH   3   4
ATOM      4  N   UNL A   1      31.007  21.935  26.343  1.00  0.00    -0.354 N 
ATOM      5  C   UNL A   1      30.513  23.194  26.521  1.00  0.00     0.249 C 
ATOM      6  O   UNL A   1      29.733  23.381  27.460  1.00  0.00    -0.272 OA
ATOM      7  H   UNL A   1      30.761  21.287  27.042  1.00  0.00     0.163 HD
BRANCH   5   8
ATOM      8  C   UNL A   1      30.897  24.347  25.579  1.00  0.00     0.207 C 
ATOM      9  C   UNL A   1      30.330  25.216  23.484  1.00  0.00     0.138 C 
ATOM     10  C   UNL A   1      30.228  26.345  24.501  1.00  0.00     0.037 C 
ATOM     11  O   UNL A   1      30.717  24.025  24.195  1.00  0.00    -0.363 OA
ATOM     12  C   UNL A   1      30.162  25.650  25.839  1.00  0.00     0.045 C 
BRANCH   9  13
ATOM     13  C   UNL A   1      31.356  25.520  22.385  1.00  0.00     0.147 C 
BRANCH  13  14
ATOM     14  N   UNL A   1      32.107  26.729  22.680  1.00  0.00    -0.353 N 
ATOM     15  O   UNL A   1      33.857  25.663  23.708  1.00  0.00    -0.275 OA
ATOM     16  C   UNL A   1      33.318  26.704  23.340  1.00  0.00     0.224 C 
ATOM     17  H   UNL A   1      31.738  27.597  22.399  1.00  0.00     0.163 HD
BRANCH  16  18
ATOM     18  C   UNL A   1      33.918  28.072  23.605  1.00  0.00     0.138 C 
BRANCH  18  19
ATOM     19  C   UNL A   1      33.454  28.681  24.901  1.00  0.00    -0.003 A 
ATOM     20  C   UNL A   1      34.178  28.493  26.088  1.00  0.00     0.007 A 
ATOM     21  C   UNL A   1      32.280  29.439  24.951  1.00  0.00     0.126 A 
ATOM     22  C   UNL A   1      33.729  29.052  27.288  1.00  0.00     0.001 A 
ATOM     23  C   UNL A   1      31.834  30.006  26.143  1.00  0.00     0.039 A 
ATOM     24  F   UNL A   1      31.568  29.649  23.835  1.00  0.00    -0.207 F 
ATOM     25  C   UNL A   1      32.559  29.809  27.315  1.00  0.00     0.003 A 
ENDBRANCH  18  19
ENDBRANCH  16  18
ENDBRANCH  13  14
ENDBRANCH   9  13
ENDBRANCH   5   8
ENDBRANCH   3   4
ENDBRANCH   2   3
ENDBRANCH   1   2
BRANCH   1  26
ATOM     26  C   UNL A   1      34.601  22.231  24.121  1.00  0.00     0.002 C 
BRANCH  26  27
ATOM     27  C   UNL A   1      35.993  22.822  24.360  1.00  0.00     0.021 C 
BRANCH  27  28
ATOM     28  C   UNL A   1      36.538  22.683  25.779  1.00  0.00     0.116 C 
BRANCH  28  29
ATOM     29  N   UNL A   1      37.455  21.569  25.914  1.00  0.00    -0.352 N 
ATOM     30  C   UNL A   1      38.801  21.570  26.190  1.00  0.00     0.251 C 
ATOM     31  H   UNL A   1      37.054  20.678  25.790  1.00  0.00     0.163 HD
ATOM     32  O   UNL A   1      39.435  20.523  26.085  1.00  0.00    -0.269 OA
BRANCH  30  33
ATOM     33  C   UNL A   1      39.491  22.819  26.590  1.00  0.00     0.039 A 
ATOM     34  C   UNL A   1      39.183  24.000  25.909  1.00  0.00     0.014 A 
ATOM     35  C   UNL A   1      40.464  22.830  27.595  1.00  0.00     0.014 A 
ATOM     36  C   UNL A   1      39.816  25.196  26.264  1.00  0.00     0.010 A 
ATOM     37  C   UNL A   1      41.044  24.034  27.993  1.00  0.00     0.010 A 
ATOM     38  C   UNL A   1      40.734  25.228  27.325  1.00  0.00    -0.014 A 
BRANCH  38  39
ATOM     39  C   UNL A   1      41.397  26.498  27.725  1.00  0.00     0.031 A 
ATOM     40  C   UNL A   1      40.630  27.543  28.491  1.00  0.00     0.074 A 
ATOM     41  C   UNL A   1      42.680  26.722  27.378  1.00  0.00     0.049 A 
ATOM     42  N   UNL A   1      41.017  28.728  28.886  1.00  0.00    -0.248 NA
ATOM     43  C   UNL A   1      39.237  27.222  28.841  1.00  0.00     0.031 C 
ATOM     44  C   UNL A   1      43.522  25.797  26.617  1.00  0.00     0.029 A 
ATOM     45  N   UNL A   1      43.505  27.792  27.625  1.00  0.00    -0.354 N 
ATOM     46  C   UNL A   1      39.919  29.296  29.521  1.00  0.00     0.074 A 
ATOM     47  C   UNL A   1      38.832  28.347  29.412  1.00  0.00     0.031 C 
ATOM     48  C   UNL A   1      44.752  26.323  26.492  1.00  0.00     0.029 A 
ATOM     49  C   UNL A   1      44.777  27.638  27.124  1.00  0.00     0.049 A 
ATOM     50  H   UNL A   1      43.214  28.595  28.114  1.00  0.00     0.167 HD
ATOM     51  C   UNL A   1      39.832  30.489  30.158  1.00  0.00     0.034 A 
ATOM     52  C   UNL A   1      45.843  28.464  27.162  1.00  0.00     0.034 A 
ATOM     53  C   UNL A   1      40.928  31.412  30.290  1.00  0.00     0.049 A 
ATOM     54  C   UNL A   1      45.713  29.796  27.851  1.00  0.00     0.074 A 
ATOM     55  C   UNL A   1      40.957  32.620  30.966  1.00  0.00     0.029 A 
ATOM     56  N   UNL A   1      42.189  31.234  29.738  1.00  0.00    -0.354 N 
ATOM     57  N   UNL A   1      44.668  30.310  28.455  1.00  0.00    -0.248 NA
ATOM     58  C   UNL A   1      46.901  30.661  27.861  1.00  0.00     0.031 C 
ATOM     59  C   UNL A   1      42.215  33.199  30.773  1.00  0.00     0.029 A 
ATOM     60  C   UNL A   1      42.993  32.323  30.032  1.00  0.00     0.049 A 
ATOM     61  H   UNL A   1      42.471  30.449  29.216  1.00  0.00     0.167 HD
ATOM     62  C   UNL A   1      45.078  31.551  28.932  1.00  0.00     0.074 A 
ATOM     63  C   UNL A   1      46.466  31.708  28.550  1.00  0.00     0.031 C 
ATOM     64  C   UNL A   1      44.369  32.472  29.630  1.00  0.00     0.034 A 
BRANCH  51  65
ATOM     65  C   UNL A   1      38.502  30.869  30.757  1.00  0.00     0.023 A 
ATOM     66  C   UNL A   1      37.586  31.674  30.060  1.00  0.00     0.031 A 
ATOM     67  C   UNL A   1      38.136  30.397  32.030  1.00  0.00     0.131 A 
ATOM     68  C   UNL A   1      36.365  32.020  30.656  1.00  0.00     0.055 A 
ATOM     69  C   UNL A   1      36.893  30.692  32.592  1.00  0.00     0.041 A 
ATOM     70  F   UNL A   1      38.982  29.640  32.746  1.00  0.00    -0.206 F 
ATOM     71  C   UNL A   1      36.002  31.514  31.908  1.00  0.00     0.022 A 
BRANCH  68  72
ATOM     72  S   UNL A   1      35.287  33.205  29.808  1.00  0.00     0.124 S 
ATOM     73  O   UNL A   1      36.243  33.919  28.967  1.00  0.00    -0.237 OA
ATOM     74  O   UNL A   1      34.347  32.336  29.110  1.00  0.00    -0.237 OA
ATOM     75  O   UNL A   1      34.716  33.991  30.899  1.00  0.00    -0.744 OA
ENDBRANCH  68  72
ENDBRANCH  51  65
BRANCH  52  76
ATOM     76  C   UNL A   1      47.122  28.053  26.521  1.00  0.00     0.023 A 
ATOM     77  C   UNL A   1      47.258  28.039  25.125  1.00  0.00     0.031 A 
ATOM     78  C   UNL A   1      48.233  27.683  27.300  1.00  0.00     0.131 A 
ATOM     79  C   UNL A   1      48.475  27.643  24.546  1.00  0.00     0.055 A 
ATOM     80  C   UNL A   1      49.452  27.326  26.722  1.00  0.00     0.041 A 
ATOM     81  F   UNL A   1      48.155  27.692  28.640  1.00  0.00    -0.206 F 
ATOM     82  C   UNL A   1      49.577  27.300  25.336  1.00  0.00     0.022 A 
BRANCH  79  83
ATOM     83  S   UNL A   1      48.598  27.565  22.738  1.00  0.00     0.124 S 
ATOM     84  O   UNL A   1      47.407  28.299  22.329  1.00  0.00    -0.237 OA
ATOM     85  O   UNL A   1      49.877  28.224  22.490  1.00  0.00    -0.237 OA
ATOM     86  O   UNL A   1      48.578  26.131  22.458  1.00  0.00    -0.744 OA
ENDBRANCH  79  83
ENDBRANCH  52  76
BRANCH  64  87
ATOM     87  C   UNL A   1      45.081  33.730  30.048  1.00  0.00     0.023 A 
ATOM     88  C   UNL A   1      45.040  34.890  29.258  1.00  0.00     0.031 A 
ATOM     89  C   UNL A   1      45.745  33.786  31.286  1.00  0.00     0.131 A 
ATOM     90  C   UNL A   1      45.670  36.060  29.709  1.00  0.00     0.055 A 
ATOM     91  C   UNL A   1      46.334  34.963  31.748  1.00  0.00     0.041 A 
ATOM     92  F   UNL A   1      45.806  32.703  32.078  1.00  0.00    -0.206 F 
ATOM     93  C   UNL A   1      46.300  36.108  30.956  1.00  0.00     0.022 A 
BRANCH  90  94
ATOM     94  S   UNL A   1      45.666  37.522  28.638  1.00  0.00     0.124 S 
ATOM     95  O   UNL A   1      46.916  38.174  29.012  1.00  0.00    -0.237 OA
ATOM     96  O   UNL A   1      45.628  36.937  27.301  1.00  0.00    -0.237 OA
ATOM     97  O   UNL A   1      44.451  38.234  29.033  1.00  0.00    -0.744 OA
ENDBRANCH  90  94
ENDBRANCH  64  87
ENDBRANCH  38  39
ENDBRANCH  30  33
ENDBRANCH  28  29
ENDBRANCH  27  28
ENDBRANCH  26  27
ENDBRANCH   1  26
TORSDOF 20
ENDMDL
