MODEL 1
REMARK VINA RESULT:     -13.3      0.000      0.000
REMARK SMILES CC1=C(C(=O)Nc2ccccc2)[C@@H](c2ccc(C(=O)NCCCCCCNC(=O)c3ccc(-c4c5nc(c(-c6cc(S(=O)(=O)[O-])ccc6F)c6ccc([nH]6)c(-c6cc(S(=O)(=O)[O-])ccc6F)c6nc(c(-c7cc(S(=O)(=O)[O-])ccc7F)c7ccc4[nH]7)C=C6)C=C5)cc3)cc2)n2ncnc2N1
REMARK SMILES IDX 23 1 22 2 21 3 20 4 18 5 19 6 17 8 14 9 15 10 94 11 16 12
REMARK SMILES IDX 93 13 13 14 1 15 2 16 3 17 100 18 99 19 95 21 98 22 96 23
REMARK SMILES IDX 97 24 4 25 5 26 6 27 7 29 8 30 12 31 9 32 11 33 10 34 24 35
REMARK SMILES IDX 25 36 26 37 27 38 28 39 29 41 30 42 31 43 92 44 32 45 91 46
REMARK SMILES IDX 33 47 34 48 35 49 85 50 36 51 90 52 84 53 86 54 37 55 89 56
REMARK SMILES IDX 83 57 82 58 38 60 70 61 50 62 69 63 51 64 54 65 68 66 87 67
REMARK SMILES IDX 52 68 53 69 67 71 88 72 55 73 39 74 40 75 48 76 41 77 47 78
REMARK SMILES IDX 49 79 46 80 42 81 43 82 44 83 45 84 71 85 72 86 80 87 73 88
REMARK SMILES IDX 79 89 81 90 78 91 74 92 75 93 76 94 77 95 56 96 57 97 65 98
REMARK SMILES IDX 58 99 64 100 66 101 63 102 59 103 60 104 61 105 62 106
REMARK H PARENT 20 7 100 20 6 28 27 40 86 59 54 70
REMARK Flexibility Score: inf
ROOT
ATOM      1  C   UNL A   1      36.223  22.635  23.718  1.00  0.00     0.002 C 
ENDROOT
BRANCH   1   2
ATOM      2  C   UNL A   1      35.893  21.354  24.495  1.00  0.00     0.021 C 
BRANCH   2   3
ATOM      3  C   UNL A   1      34.416  21.260  24.886  1.00  0.00     0.116 C 
BRANCH   3   4
ATOM      4  N   UNL A   1      34.284  21.259  26.332  1.00  0.00    -0.352 N 
ATOM      5  C   UNL A   1      33.717  22.144  27.211  1.00  0.00     0.251 C 
ATOM      6  O   UNL A   1      33.758  21.869  28.411  1.00  0.00    -0.269 OA
ATOM      7  H   UNL A   1      34.681  20.469  26.766  1.00  0.00     0.163 HD
BRANCH   5   8
ATOM      8  C   UNL A   1      32.990  23.368  26.774  1.00  0.00     0.039 A 
ATOM      9  C   UNL A   1      31.820  25.837  26.085  1.00  0.00    -0.019 A 
ATOM     10  C   UNL A   1      33.155  25.580  25.760  1.00  0.00     0.007 A 
ATOM     11  C   UNL A   1      31.062  24.818  26.682  1.00  0.00     0.007 A 
ATOM     12  C   UNL A   1      33.737  24.360  26.118  1.00  0.00     0.014 A 
ATOM     13  C   UNL A   1      31.629  23.581  26.974  1.00  0.00     0.014 A 
BRANCH   9  14
ATOM     14  C   UNL A   1      31.141  27.169  25.800  1.00  0.00     0.179 C 
ATOM     15  C   UNL A   1      29.925  28.905  22.496  1.00  0.00     0.065 C 
ATOM     16  C   UNL A   1      30.715  28.462  23.699  1.00  0.00     0.026 C 
ATOM     17  C   UNL A   1      30.548  27.300  24.385  1.00  0.00     0.065 C 
ATOM     18  N   UNL A   1      31.596  29.435  24.164  1.00  0.00    -0.328 N 
ATOM     19  C   UNL A   1      32.223  29.376  25.348  1.00  0.00     0.226 A 
ATOM     20  H   UNL A   1      31.771  30.214  23.587  1.00  0.00     0.169 HD
ATOM     21  N   UNL A   1      32.023  28.290  26.151  1.00  0.00    -0.219 N 
ATOM     22  N   UNL A   1      33.003  30.235  25.952  1.00  0.00    -0.200 NA
ATOM     23  N   UNL A   1      32.621  28.459  27.352  1.00  0.00    -0.157 NA
ATOM     24  C   UNL A   1      33.219  29.640  27.167  1.00  0.00     0.248 A 
BRANCH  17  25
ATOM     25  C   UNL A   1      29.613  26.171  24.078  1.00  0.00     0.255 C 
ATOM     26  O   UNL A   1      28.409  26.347  24.293  1.00  0.00    -0.269 OA
ATOM     27  N   UNL A   1      29.978  24.962  23.566  1.00  0.00    -0.322 N 
ATOM     28  H   UNL A   1      29.259  24.289  23.567  1.00  0.00     0.170 HD
BRANCH  27  29
ATOM     29  C   UNL A   1      31.189  24.509  23.038  1.00  0.00     0.041 A 
ATOM     30  C   UNL A   1      31.487  23.161  23.280  1.00  0.00     0.026 A 
ATOM     31  C   UNL A   1      32.020  25.273  22.223  1.00  0.00     0.026 A 
ATOM     32  C   UNL A   1      32.515  22.537  22.577  1.00  0.00     0.002 A 
ATOM     33  C   UNL A   1      33.089  24.654  21.563  1.00  0.00     0.002 A 
ATOM     34  C   UNL A   1      33.306  23.281  21.706  1.00  0.00     0.000 A 
ENDBRANCH  27  29
ENDBRANCH  17  25
ENDBRANCH   9  14
ENDBRANCH   5   8
ENDBRANCH   3   4
ENDBRANCH   2   3
ENDBRANCH   1   2
BRANCH   1  35
ATOM     35  C   UNL A   1      36.985  23.701  24.522  1.00  0.00     0.002 C 
BRANCH  35  36
ATOM     36  C   UNL A   1      37.521  23.242  25.885  1.00  0.00     0.021 C 
BRANCH  36  37
ATOM     37  C   UNL A   1      38.286  24.331  26.624  1.00  0.00     0.116 C 
BRANCH  37  38
ATOM     38  N   UNL A   1      39.625  24.505  26.072  1.00  0.00    -0.352 N 
ATOM     39  C   UNL A   1      40.434  25.614  26.127  1.00  0.00     0.251 C 
ATOM     40  H   UNL A   1      39.998  23.727  25.598  1.00  0.00     0.163 HD
ATOM     41  O   UNL A   1      41.328  25.756  25.287  1.00  0.00    -0.269 OA
BRANCH  39  42
ATOM     42  C   UNL A   1      40.228  26.622  27.183  1.00  0.00     0.039 A 
ATOM     43  C   UNL A   1      39.885  26.228  28.478  1.00  0.00     0.014 A 
ATOM     44  C   UNL A   1      40.353  27.978  26.868  1.00  0.00     0.014 A 
ATOM     45  C   UNL A   1      39.738  27.203  29.463  1.00  0.00     0.010 A 
ATOM     46  C   UNL A   1      40.307  28.934  27.862  1.00  0.00     0.010 A 
ATOM     47  C   UNL A   1      39.971  28.556  29.155  1.00  0.00    -0.014 A 
BRANCH  47  48
ATOM     48  C   UNL A   1      40.060  29.548  30.228  1.00  0.00     0.031 A 
ATOM     49  C   UNL A   1      38.774  30.256  30.459  1.00  0.00     0.074 A 
ATOM     50  C   UNL A   1      41.111  29.710  31.063  1.00  0.00     0.049 A 
ATOM     51  N   UNL A   1      38.475  31.455  30.087  1.00  0.00    -0.248 NA
ATOM     52  C   UNL A   1      37.621  29.491  30.960  1.00  0.00     0.031 C 
ATOM     53  C   UNL A   1      42.334  28.911  31.150  1.00  0.00     0.029 A 
ATOM     54  N   UNL A   1      41.272  30.606  32.081  1.00  0.00    -0.354 N 
ATOM     55  C   UNL A   1      37.189  31.694  30.558  1.00  0.00     0.074 A 
ATOM     56  C   UNL A   1      36.646  30.399  30.861  1.00  0.00     0.031 C 
ATOM     57  C   UNL A   1      43.004  29.221  32.286  1.00  0.00     0.029 A 
ATOM     58  C   UNL A   1      42.348  30.347  32.934  1.00  0.00     0.049 A 
ATOM     59  H   UNL A   1      40.672  31.376  32.207  1.00  0.00     0.167 HD
ATOM     60  C   UNL A   1      36.807  32.957  30.897  1.00  0.00     0.034 A 
ATOM     61  C   UNL A   1      42.683  31.009  34.081  1.00  0.00     0.034 A 
ATOM     62  C   UNL A   1      37.747  33.927  30.365  1.00  0.00     0.049 A 
ATOM     63  C   UNL A   1      42.073  32.358  33.978  1.00  0.00     0.074 A 
ATOM     64  C   UNL A   1      38.206  34.232  29.097  1.00  0.00     0.029 A 
ATOM     65  N   UNL A   1      38.679  34.463  31.231  1.00  0.00    -0.354 N 
ATOM     66  N   UNL A   1      42.443  33.239  33.090  1.00  0.00    -0.248 NA
ATOM     67  C   UNL A   1      40.730  32.538  34.507  1.00  0.00     0.031 C 
ATOM     68  C   UNL A   1      39.605  34.462  29.260  1.00  0.00     0.029 A 
ATOM     69  C   UNL A   1      39.907  34.402  30.622  1.00  0.00     0.049 A 
ATOM     70  H   UNL A   1      38.495  34.827  32.127  1.00  0.00     0.167 HD
ATOM     71  C   UNL A   1      41.262  33.784  32.617  1.00  0.00     0.074 A 
ATOM     72  C   UNL A   1      40.246  33.384  33.592  1.00  0.00     0.031 C 
ATOM     73  C   UNL A   1      41.163  34.257  31.338  1.00  0.00     0.034 A 
BRANCH  60  74
ATOM     74  C   UNL A   1      35.864  33.306  32.034  1.00  0.00     0.023 A 
ATOM     75  C   UNL A   1      34.759  34.118  31.704  1.00  0.00     0.031 A 
ATOM     76  C   UNL A   1      36.118  33.165  33.416  1.00  0.00     0.131 A 
ATOM     77  C   UNL A   1      34.087  34.864  32.685  1.00  0.00     0.055 A 
ATOM     78  C   UNL A   1      35.400  33.859  34.396  1.00  0.00     0.041 A 
ATOM     79  F   UNL A   1      37.110  32.415  33.904  1.00  0.00    -0.206 F 
ATOM     80  C   UNL A   1      34.406  34.748  34.032  1.00  0.00     0.022 A 
BRANCH  77  81
ATOM     81  S   UNL A   1      32.926  36.138  32.131  1.00  0.00     0.124 S 
ATOM     82  O   UNL A   1      31.646  35.495  32.408  1.00  0.00    -0.237 OA
ATOM     83  O   UNL A   1      33.285  37.262  32.988  1.00  0.00    -0.237 OA
ATOM     84  O   UNL A   1      33.254  36.300  30.717  1.00  0.00    -0.744 OA
ENDBRANCH  77  81
ENDBRANCH  60  74
BRANCH  61  85
ATOM     85  C   UNL A   1      43.222  30.458  35.364  1.00  0.00     0.023 A 
ATOM     86  C   UNL A   1      43.233  29.075  35.683  1.00  0.00     0.031 A 
ATOM     87  C   UNL A   1      43.998  31.295  36.195  1.00  0.00     0.131 A 
ATOM     88  C   UNL A   1      44.000  28.594  36.777  1.00  0.00     0.055 A 
ATOM     89  C   UNL A   1      44.758  30.814  37.266  1.00  0.00     0.041 A 
ATOM     90  F   UNL A   1      44.120  32.607  35.937  1.00  0.00    -0.206 F 
ATOM     91  C   UNL A   1      44.772  29.460  37.555  1.00  0.00     0.022 A 
BRANCH  88  92
ATOM     92  S   UNL A   1      44.087  26.809  37.170  1.00  0.00     0.124 S 
ATOM     93  O   UNL A   1      42.955  26.632  38.072  1.00  0.00    -0.237 OA
ATOM     94  O   UNL A   1      43.974  26.189  35.854  1.00  0.00    -0.237 OA
ATOM     95  O   UNL A   1      45.399  26.659  37.801  1.00  0.00    -0.744 OA
ENDBRANCH  88  92
ENDBRANCH  61  85
BRANCH  73  96
ATOM     96  C   UNL A   1      42.436  34.487  30.543  1.00  0.00     0.023 A 
ATOM     97  C   UNL A   1      43.254  35.640  30.607  1.00  0.00     0.031 A 
ATOM     98  C   UNL A   1      42.891  33.411  29.759  1.00  0.00     0.131 A 
ATOM     99  C   UNL A   1      44.471  35.680  29.893  1.00  0.00     0.055 A 
ATOM    100  C   UNL A   1      44.106  33.444  29.079  1.00  0.00     0.041 A 
ATOM    101  F   UNL A   1      42.169  32.282  29.668  1.00  0.00    -0.206 F 
ATOM    102  C   UNL A   1      44.899  34.582  29.139  1.00  0.00     0.022 A 
BRANCH  99 103
ATOM    103  S   UNL A   1      45.518  37.173  29.903  1.00  0.00     0.124 S 
ATOM    104  O   UNL A   1      44.572  38.255  30.149  1.00  0.00    -0.237 OA
ATOM    105  O   UNL A   1      46.463  36.891  30.981  1.00  0.00    -0.237 OA
ATOM    106  O   UNL A   1      46.113  37.180  28.564  1.00  0.00    -0.744 OA
ENDBRANCH  99 103
ENDBRANCH  73  96
ENDBRANCH  47  48
ENDBRANCH  39  42
ENDBRANCH  37  38
ENDBRANCH  36  37
ENDBRANCH  35  36
ENDBRANCH   1  35
TORSDOF 19
ENDMDL
MODEL 2
REMARK VINA RESULT:     -12.7      2.081      6.980
REMARK SMILES CC1=C(C(=O)Nc2ccccc2)[C@@H](c2ccc(C(=O)NCCCCCCNC(=O)c3ccc(-c4c5nc(c(-c6cc(S(=O)(=O)[O-])ccc6F)c6ccc([nH]6)c(-c6cc(S(=O)(=O)[O-])ccc6F)c6nc(c(-c7cc(S(=O)(=O)[O-])ccc7F)c7ccc4[nH]7)C=C6)C=C5)cc3)cc2)n2ncnc2N1
REMARK SMILES IDX 23 1 22 2 21 3 20 4 18 5 19 6 17 8 14 9 15 10 94 11 16 12
REMARK SMILES IDX 93 13 13 14 1 15 2 16 3 17 100 18 99 19 95 21 98 22 96 23
REMARK SMILES IDX 97 24 4 25 5 26 6 27 7 29 8 30 12 31 9 32 11 33 10 34 24 35
REMARK SMILES IDX 25 36 26 37 27 38 28 39 29 41 30 42 31 43 92 44 32 45 91 46
REMARK SMILES IDX 33 47 34 48 35 49 85 50 36 51 90 52 84 53 86 54 37 55 89 56
REMARK SMILES IDX 83 57 82 58 38 60 70 61 50 62 69 63 51 64 54 65 68 66 87 67
REMARK SMILES IDX 52 68 53 69 67 71 88 72 55 73 39 74 40 75 48 76 41 77 47 78
REMARK SMILES IDX 49 79 46 80 42 81 43 82 44 83 45 84 71 85 72 86 80 87 73 88
REMARK SMILES IDX 79 89 81 90 78 91 74 92 75 93 76 94 77 95 56 96 57 97 65 98
REMARK SMILES IDX 58 99 64 100 66 101 63 102 59 103 60 104 61 105 62 106
REMARK H PARENT 20 7 100 20 6 28 27 40 86 59 54 70
REMARK Flexibility Score: inf
ROOT
ATOM      1  C   UNL A   1      36.422  22.928  24.163  1.00  0.00     0.002 C 
ENDROOT
BRANCH   1   2
ATOM      2  C   UNL A   1      36.038  21.485  24.516  1.00  0.00     0.021 C 
BRANCH   2   3
ATOM      3  C   UNL A   1      34.540  21.314  24.777  1.00  0.00     0.116 C 
BRANCH   3   4
ATOM      4  N   UNL A   1      34.293  21.212  26.204  1.00  0.00    -0.352 N 
ATOM      5  C   UNL A   1      33.648  22.032  27.094  1.00  0.00     0.251 C 
ATOM      6  O   UNL A   1      33.596  21.674  28.271  1.00  0.00    -0.269 OA
ATOM      7  H   UNL A   1      34.662  20.396  26.613  1.00  0.00     0.163 HD
BRANCH   5   8
ATOM      8  C   UNL A   1      32.947  23.280  26.685  1.00  0.00     0.039 A 
ATOM      9  C   UNL A   1      31.823  25.787  26.058  1.00  0.00    -0.019 A 
ATOM     10  C   UNL A   1      33.162  25.524  25.754  1.00  0.00     0.007 A 
ATOM     11  C   UNL A   1      31.040  24.757  26.603  1.00  0.00     0.007 A 
ATOM     12  C   UNL A   1      33.720  24.284  26.080  1.00  0.00     0.014 A 
ATOM     13  C   UNL A   1      31.585  23.504  26.863  1.00  0.00     0.014 A 
BRANCH   9  14
ATOM     14  C   UNL A   1      31.168  27.137  25.806  1.00  0.00     0.179 C 
ATOM     15  C   UNL A   1      29.902  28.937  22.555  1.00  0.00     0.065 C 
ATOM     16  C   UNL A   1      30.714  28.462  23.731  1.00  0.00     0.026 C 
ATOM     17  C   UNL A   1      30.539  27.297  24.410  1.00  0.00     0.065 C 
ATOM     18  N   UNL A   1      31.630  29.410  24.182  1.00  0.00    -0.328 N 
ATOM     19  C   UNL A   1      32.288  29.324  25.348  1.00  0.00     0.226 A 
ATOM     20  H   UNL A   1      31.806  30.192  23.609  1.00  0.00     0.169 HD
ATOM     21  N   UNL A   1      32.085  28.234  26.144  1.00  0.00    -0.219 N 
ATOM     22  N   UNL A   1      33.104  30.158  25.938  1.00  0.00    -0.200 NA
ATOM     23  N   UNL A   1      32.718  28.376  27.330  1.00  0.00    -0.157 NA
ATOM     24  C   UNL A   1      33.339  29.545  27.142  1.00  0.00     0.248 A 
BRANCH  17  25
ATOM     25  C   UNL A   1      29.571  26.194  24.117  1.00  0.00     0.255 C 
ATOM     26  O   UNL A   1      28.383  26.378  24.405  1.00  0.00    -0.269 OA
ATOM     27  N   UNL A   1      29.887  24.998  23.544  1.00  0.00    -0.322 N 
ATOM     28  H   UNL A   1      29.159  24.336  23.562  1.00  0.00     0.170 HD
BRANCH  27  29
ATOM     29  C   UNL A   1      31.059  24.546  22.934  1.00  0.00     0.041 A 
ATOM     30  C   UNL A   1      31.764  25.503  22.192  1.00  0.00     0.026 A 
ATOM     31  C   UNL A   1      31.593  23.273  23.116  1.00  0.00     0.026 A 
ATOM     32  C   UNL A   1      33.068  25.244  21.778  1.00  0.00     0.002 A 
ATOM     33  C   UNL A   1      32.882  22.997  22.648  1.00  0.00     0.002 A 
ATOM     34  C   UNL A   1      33.633  23.995  22.021  1.00  0.00     0.000 A 
ENDBRANCH  27  29
ENDBRANCH  17  25
ENDBRANCH   9  14
ENDBRANCH   5   8
ENDBRANCH   3   4
ENDBRANCH   2   3
ENDBRANCH   1   2
BRANCH   1  35
ATOM     35  C   UNL A   1      37.329  23.626  25.189  1.00  0.00     0.002 C 
BRANCH  35  36
ATOM     36  C   UNL A   1      38.267  22.701  25.977  1.00  0.00     0.021 C 
BRANCH  36  37
ATOM     37  C   UNL A   1      39.184  23.454  26.931  1.00  0.00     0.116 C 
BRANCH  37  38
ATOM     38  N   UNL A   1      40.505  22.840  26.993  1.00  0.00    -0.352 N 
ATOM     39  C   UNL A   1      41.733  23.454  26.991  1.00  0.00     0.251 C 
ATOM     40  H   UNL A   1      40.518  21.857  27.040  1.00  0.00     0.163 HD
ATOM     41  O   UNL A   1      42.729  22.819  26.633  1.00  0.00    -0.269 OA
BRANCH  39  42
ATOM     42  C   UNL A   1      41.851  24.862  27.414  1.00  0.00     0.039 A 
ATOM     43  C   UNL A   1      41.374  25.888  26.596  1.00  0.00     0.014 A 
ATOM     44  C   UNL A   1      42.471  25.161  28.631  1.00  0.00     0.014 A 
ATOM     45  C   UNL A   1      41.464  27.204  27.043  1.00  0.00     0.010 A 
ATOM     46  C   UNL A   1      42.470  26.451  29.119  1.00  0.00     0.010 A 
ATOM     47  C   UNL A   1      41.995  27.481  28.317  1.00  0.00    -0.014 A 
BRANCH  47  48
ATOM     48  C   UNL A   1      41.867  28.822  28.890  1.00  0.00     0.031 A 
ATOM     49  C   UNL A   1      42.960  29.732  28.462  1.00  0.00     0.074 A 
ATOM     50  C   UNL A   1      40.802  29.282  29.584  1.00  0.00     0.049 A 
ATOM     51  N   UNL A   1      43.980  30.099  29.163  1.00  0.00    -0.248 NA
ATOM     52  C   UNL A   1      43.059  30.107  27.042  1.00  0.00     0.031 C 
ATOM     53  C   UNL A   1      39.530  28.607  29.850  1.00  0.00     0.029 A 
ATOM     54  N   UNL A   1      40.606  30.510  30.148  1.00  0.00    -0.354 N 
ATOM     55  C   UNL A   1      44.701  30.978  28.364  1.00  0.00     0.074 A 
ATOM     56  C   UNL A   1      44.228  30.753  27.025  1.00  0.00     0.031 C 
ATOM     57  C   UNL A   1      38.631  29.498  30.333  1.00  0.00     0.029 A 
ATOM     58  C   UNL A   1      39.297  30.772  30.560  1.00  0.00     0.049 A 
ATOM     59  H   UNL A   1      41.334  31.165  30.255  1.00  0.00     0.167 HD
ATOM     60  C   UNL A   1      45.423  31.985  28.930  1.00  0.00     0.034 A 
ATOM     61  C   UNL A   1      38.795  31.940  31.058  1.00  0.00     0.034 A 
ATOM     62  C   UNL A   1      45.588  31.748  30.352  1.00  0.00     0.049 A 
ATOM     63  C   UNL A   1      39.952  32.693  31.603  1.00  0.00     0.074 A 
ATOM     64  C   UNL A   1      46.129  30.720  31.103  1.00  0.00     0.029 A 
ATOM     65  N   UNL A   1      44.778  32.450  31.221  1.00  0.00    -0.354 N 
ATOM     66  N   UNL A   1      40.642  32.285  32.633  1.00  0.00    -0.248 NA
ATOM     67  C   UNL A   1      40.650  33.607  30.713  1.00  0.00     0.031 C 
ATOM     68  C   UNL A   1      45.231  30.558  32.201  1.00  0.00     0.029 A 
ATOM     69  C   UNL A   1      44.262  31.561  32.130  1.00  0.00     0.049 A 
ATOM     70  H   UNL A   1      44.603  33.419  31.195  1.00  0.00     0.167 HD
ATOM     71  C   UNL A   1      41.964  32.506  32.283  1.00  0.00     0.074 A 
ATOM     72  C   UNL A   1      41.904  33.409  31.133  1.00  0.00     0.031 C 
ATOM     73  C   UNL A   1      42.967  31.714  32.770  1.00  0.00     0.034 A 
BRANCH  60  74
ATOM     74  C   UNL A   1      45.613  33.366  28.327  1.00  0.00     0.023 A 
ATOM     75  C   UNL A   1      44.444  34.127  28.127  1.00  0.00     0.031 A 
ATOM     76  C   UNL A   1      46.769  33.852  27.680  1.00  0.00     0.131 A 
ATOM     77  C   UNL A   1      44.414  35.185  27.205  1.00  0.00     0.055 A 
ATOM     78  C   UNL A   1      46.750  34.950  26.812  1.00  0.00     0.041 A 
ATOM     79  F   UNL A   1      47.966  33.266  27.780  1.00  0.00    -0.206 F 
ATOM     80  C   UNL A   1      45.560  35.598  26.536  1.00  0.00     0.022 A 
BRANCH  77  81
ATOM     81  S   UNL A   1      42.801  35.869  26.754  1.00  0.00     0.124 S 
ATOM     82  O   UNL A   1      42.511  35.131  25.529  1.00  0.00    -0.237 OA
ATOM     83  O   UNL A   1      41.994  35.529  27.920  1.00  0.00    -0.237 OA
ATOM     84  O   UNL A   1      43.076  37.293  26.578  1.00  0.00    -0.744 OA
ENDBRANCH  77  81
ENDBRANCH  60  74
BRANCH  61  85
ATOM     85  C   UNL A   1      37.458  32.569  30.819  1.00  0.00     0.023 A 
ATOM     86  C   UNL A   1      36.594  33.000  31.860  1.00  0.00     0.031 A 
ATOM     87  C   UNL A   1      37.131  33.007  29.518  1.00  0.00     0.131 A 
ATOM     88  C   UNL A   1      35.480  33.832  31.573  1.00  0.00     0.055 A 
ATOM     89  C   UNL A   1      36.037  33.834  29.243  1.00  0.00     0.041 A 
ATOM     90  F   UNL A   1      37.923  32.722  28.472  1.00  0.00    -0.206 F 
ATOM     91  C   UNL A   1      35.212  34.259  30.271  1.00  0.00     0.022 A 
BRANCH  88  92
ATOM     92  S   UNL A   1      34.390  34.457  32.903  1.00  0.00     0.124 S 
ATOM     93  O   UNL A   1      34.269  33.299  33.779  1.00  0.00    -0.237 OA
ATOM     94  O   UNL A   1      35.143  35.592  33.424  1.00  0.00    -0.237 OA
ATOM     95  O   UNL A   1      33.159  34.819  32.196  1.00  0.00    -0.744 OA
ENDBRANCH  88  92
ENDBRANCH  61  85
BRANCH  73  96
ATOM     96  C   UNL A   1      42.671  30.801  33.947  1.00  0.00     0.023 A 
ATOM     97  C   UNL A   1      42.279  29.444  33.862  1.00  0.00     0.031 A 
ATOM     98  C   UNL A   1      42.916  31.327  35.229  1.00  0.00     0.131 A 
ATOM     99  C   UNL A   1      42.140  28.676  35.039  1.00  0.00     0.055 A 
ATOM    100  C   UNL A   1      42.805  30.558  36.385  1.00  0.00     0.041 A 
ATOM    101  F   UNL A   1      43.306  32.604  35.377  1.00  0.00    -0.206 F 
ATOM    102  C   UNL A   1      42.411  29.231  36.295  1.00  0.00     0.022 A 
BRANCH  99 103
ATOM    103  S   UNL A   1      41.575  26.944  34.971  1.00  0.00     0.124 S 
ATOM    104  O   UNL A   1      41.251  26.633  36.358  1.00  0.00    -0.237 OA
ATOM    105  O   UNL A   1      40.444  27.014  34.049  1.00  0.00    -0.237 OA
ATOM    106  O   UNL A   1      42.740  26.227  34.444  1.00  0.00    -0.744 OA
ENDBRANCH  99 103
ENDBRANCH  73  96
ENDBRANCH  47  48
ENDBRANCH  39  42
ENDBRANCH  37  38
ENDBRANCH  36  37
ENDBRANCH  35  36
ENDBRANCH   1  35
TORSDOF 19
ENDMDL
MODEL 3
REMARK VINA RESULT:     -12.7      3.547      8.477
REMARK SMILES CC1=C(C(=O)Nc2ccccc2)[C@@H](c2ccc(C(=O)NCCCCCCNC(=O)c3ccc(-c4c5nc(c(-c6cc(S(=O)(=O)[O-])ccc6F)c6ccc([nH]6)c(-c6cc(S(=O)(=O)[O-])ccc6F)c6nc(c(-c7cc(S(=O)(=O)[O-])ccc7F)c7ccc4[nH]7)C=C6)C=C5)cc3)cc2)n2ncnc2N1
REMARK SMILES IDX 23 1 22 2 21 3 20 4 18 5 19 6 17 8 14 9 15 10 94 11 16 12
REMARK SMILES IDX 93 13 13 14 1 15 2 16 3 17 100 18 99 19 95 21 98 22 96 23
REMARK SMILES IDX 97 24 4 25 5 26 6 27 7 29 8 30 12 31 9 32 11 33 10 34 24 35
REMARK SMILES IDX 25 36 26 37 27 38 28 39 29 41 30 42 31 43 92 44 32 45 91 46
REMARK SMILES IDX 33 47 34 48 35 49 85 50 36 51 90 52 84 53 86 54 37 55 89 56
REMARK SMILES IDX 83 57 82 58 38 60 70 61 50 62 69 63 51 64 54 65 68 66 87 67
REMARK SMILES IDX 52 68 53 69 67 71 88 72 55 73 39 74 40 75 48 76 41 77 47 78
REMARK SMILES IDX 49 79 46 80 42 81 43 82 44 83 45 84 71 85 72 86 80 87 73 88
REMARK SMILES IDX 79 89 81 90 78 91 74 92 75 93 76 94 77 95 56 96 57 97 65 98
REMARK SMILES IDX 58 99 64 100 66 101 63 102 59 103 60 104 61 105 62 106
REMARK H PARENT 20 7 100 20 6 28 27 40 86 59 54 70
REMARK Flexibility Score: inf
ROOT
ATOM      1  C   UNL A   1      39.309  22.808  26.487  1.00  0.00     0.002 C 
ENDROOT
BRANCH   1   2
ATOM      2  C   UNL A   1      38.138  22.100  25.794  1.00  0.00     0.021 C 
BRANCH   2   3
ATOM      3  C   UNL A   1      36.812  22.849  25.952  1.00  0.00     0.116 C 
BRANCH   3   4
ATOM      4  N   UNL A   1      35.728  21.902  26.149  1.00  0.00    -0.352 N 
ATOM      5  C   UNL A   1      34.380  22.063  26.341  1.00  0.00     0.251 C 
ATOM      6  O   UNL A   1      33.695  21.050  26.481  1.00  0.00    -0.269 OA
ATOM      7  H   UNL A   1      36.018  20.961  26.145  1.00  0.00     0.163 HD
BRANCH   5   8
ATOM      8  C   UNL A   1      33.710  23.392  26.305  1.00  0.00     0.039 A 
ATOM      9  C   UNL A   1      32.206  25.769  26.136  1.00  0.00    -0.019 A 
ATOM     10  C   UNL A   1      31.719  24.683  26.870  1.00  0.00     0.007 A 
ATOM     11  C   UNL A   1      33.483  25.677  25.561  1.00  0.00     0.007 A 
ATOM     12  C   UNL A   1      32.461  23.500  26.938  1.00  0.00     0.014 A 
ATOM     13  C   UNL A   1      34.245  24.520  25.689  1.00  0.00     0.014 A 
BRANCH   9  14
ATOM     14  C   UNL A   1      31.422  27.060  25.951  1.00  0.00     0.179 C 
ATOM     15  C   UNL A   1      29.767  28.767  22.827  1.00  0.00     0.065 C 
ATOM     16  C   UNL A   1      30.703  28.355  23.933  1.00  0.00     0.026 C 
ATOM     17  C   UNL A   1      30.678  27.175  24.607  1.00  0.00     0.065 C 
ATOM     18  N   UNL A   1      31.566  29.374  24.326  1.00  0.00    -0.328 N 
ATOM     19  C   UNL A   1      32.315  29.337  25.438  1.00  0.00     0.226 A 
ATOM     20  H   UNL A   1      31.632  30.172  23.751  1.00  0.00     0.169 HD
ATOM     21  N   UNL A   1      32.265  28.229  26.234  1.00  0.00    -0.219 N 
ATOM     22  N   UNL A   1      33.100  30.234  25.977  1.00  0.00    -0.200 NA
ATOM     23  N   UNL A   1      32.973  28.417  27.371  1.00  0.00    -0.157 NA
ATOM     24  C   UNL A   1      33.476  29.636  27.151  1.00  0.00     0.248 A 
BRANCH  17  25
ATOM     25  C   UNL A   1      29.787  25.995  24.374  1.00  0.00     0.255 C 
ATOM     26  O   UNL A   1      28.606  26.087  24.724  1.00  0.00    -0.269 OA
ATOM     27  N   UNL A   1      30.168  24.823  23.791  1.00  0.00    -0.322 N 
ATOM     28  H   UNL A   1      29.497  24.105  23.852  1.00  0.00     0.170 HD
BRANCH  27  29
ATOM     29  C   UNL A   1      31.338  24.460  23.121  1.00  0.00     0.041 A 
ATOM     30  C   UNL A   1      31.761  23.139  23.315  1.00  0.00     0.026 A 
ATOM     31  C   UNL A   1      32.009  25.283  22.220  1.00  0.00     0.026 A 
ATOM     32  C   UNL A   1      32.742  22.591  22.492  1.00  0.00     0.002 A 
ATOM     33  C   UNL A   1      33.035  24.745  21.434  1.00  0.00     0.002 A 
ATOM     34  C   UNL A   1      33.368  23.391  21.539  1.00  0.00     0.000 A 
ENDBRANCH  27  29
ENDBRANCH  17  25
ENDBRANCH   9  14
ENDBRANCH   5   8
ENDBRANCH   3   4
ENDBRANCH   2   3
ENDBRANCH   1   2
BRANCH   1  35
ATOM     35  C   UNL A   1      40.328  21.871  27.154  1.00  0.00     0.002 C 
BRANCH  35  36
ATOM     36  C   UNL A   1      40.730  20.640  26.330  1.00  0.00     0.021 C 
BRANCH  36  37
ATOM     37  C   UNL A   1      41.853  19.834  26.969  1.00  0.00     0.116 C 
BRANCH  37  38
ATOM     38  N   UNL A   1      42.947  19.612  26.031  1.00  0.00    -0.352 N 
ATOM     39  C   UNL A   1      43.651  20.541  25.305  1.00  0.00     0.251 C 
ATOM     40  H   UNL A   1      43.215  18.674  25.899  1.00  0.00     0.163 HD
ATOM     41  O   UNL A   1      44.238  20.191  24.277  1.00  0.00    -0.269 OA
BRANCH  39  42
ATOM     42  C   UNL A   1      43.701  21.944  25.758  1.00  0.00     0.039 A 
ATOM     43  C   UNL A   1      43.086  22.950  25.010  1.00  0.00     0.014 A 
ATOM     44  C   UNL A   1      44.394  22.260  26.930  1.00  0.00     0.014 A 
ATOM     45  C   UNL A   1      43.116  24.258  25.486  1.00  0.00     0.010 A 
ATOM     46  C   UNL A   1      44.338  23.536  27.453  1.00  0.00     0.010 A 
ATOM     47  C   UNL A   1      43.726  24.545  26.721  1.00  0.00    -0.014 A 
BRANCH  47  48
ATOM     48  C   UNL A   1      43.548  25.859  27.341  1.00  0.00     0.031 A 
ATOM     49  C   UNL A   1      44.607  26.825  26.947  1.00  0.00     0.074 A 
ATOM     50  C   UNL A   1      42.466  26.254  28.048  1.00  0.00     0.049 A 
ATOM     51  N   UNL A   1      45.612  27.204  27.663  1.00  0.00    -0.248 NA
ATOM     52  C   UNL A   1      44.693  27.252  25.541  1.00  0.00     0.031 C 
ATOM     53  C   UNL A   1      41.220  25.524  28.287  1.00  0.00     0.029 A 
ATOM     54  N   UNL A   1      42.224  27.454  28.655  1.00  0.00    -0.354 N 
ATOM     55  C   UNL A   1      46.300  28.136  26.896  1.00  0.00     0.074 A 
ATOM     56  C   UNL A   1      45.836  27.941  25.550  1.00  0.00     0.031 C 
ATOM     57  C   UNL A   1      40.287  26.363  28.799  1.00  0.00     0.029 A 
ATOM     58  C   UNL A   1      40.906  27.652  29.073  1.00  0.00     0.049 A 
ATOM     59  H   UNL A   1      42.926  28.131  28.786  1.00  0.00     0.167 HD
ATOM     60  C   UNL A   1      46.983  29.150  27.499  1.00  0.00     0.034 A 
ATOM     61  C   UNL A   1      40.360  28.783  29.610  1.00  0.00     0.034 A 
ATOM     62  C   UNL A   1      47.156  28.868  28.912  1.00  0.00     0.049 A 
ATOM     63  C   UNL A   1      41.488  29.559  30.184  1.00  0.00     0.074 A 
ATOM     64  C   UNL A   1      47.734  27.835  29.628  1.00  0.00     0.029 A 
ATOM     65  N   UNL A   1      46.320  29.509  29.804  1.00  0.00    -0.354 N 
ATOM     66  N   UNL A   1      42.192  29.140  31.200  1.00  0.00    -0.248 NA
ATOM     67  C   UNL A   1      42.151  30.529  29.328  1.00  0.00     0.031 C 
ATOM     68  C   UNL A   1      46.842  27.602  30.718  1.00  0.00     0.029 A 
ATOM     69  C   UNL A   1      45.836  28.570  30.680  1.00  0.00     0.049 A 
ATOM     70  H   UNL A   1      46.109  30.471  29.811  1.00  0.00     0.167 HD
ATOM     71  C   UNL A   1      43.505  29.422  30.862  1.00  0.00     0.074 A 
ATOM     72  C   UNL A   1      43.412  30.363  29.743  1.00  0.00     0.031 C 
ATOM     73  C   UNL A   1      44.536  28.652  31.322  1.00  0.00     0.034 A 
BRANCH  60  74
ATOM     74  C   UNL A   1      47.122  30.557  26.946  1.00  0.00     0.023 A 
ATOM     75  C   UNL A   1      48.412  31.124  26.997  1.00  0.00     0.031 A 
ATOM     76  C   UNL A   1      46.075  31.461  26.666  1.00  0.00     0.131 A 
ATOM     77  C   UNL A   1      48.597  32.515  26.947  1.00  0.00     0.055 A 
ATOM     78  C   UNL A   1      46.273  32.841  26.549  1.00  0.00     0.041 A 
ATOM     79  F   UNL A   1      44.796  31.089  26.560  1.00  0.00    -0.206 F 
ATOM     80  C   UNL A   1      47.532  33.382  26.732  1.00  0.00     0.022 A 
BRANCH  77  81
ATOM     81  S   UNL A   1      50.230  33.167  27.373  1.00  0.00     0.124 S 
ATOM     82  O   UNL A   1      50.241  34.417  26.621  1.00  0.00    -0.237 OA
ATOM     83  O   UNL A   1      50.136  33.286  28.824  1.00  0.00    -0.237 OA
ATOM     84  O   UNL A   1      51.141  32.134  26.888  1.00  0.00    -0.744 OA
ENDBRANCH  77  81
ENDBRANCH  60  74
BRANCH  61  85
ATOM     85  C   UNL A   1      39.001  29.370  29.391  1.00  0.00     0.023 A 
ATOM     86  C   UNL A   1      38.234  29.982  30.416  1.00  0.00     0.031 A 
ATOM     87  C   UNL A   1      38.550  29.576  28.069  1.00  0.00     0.131 A 
ATOM     88  C   UNL A   1      37.089  30.759  30.093  1.00  0.00     0.055 A 
ATOM     89  C   UNL A   1      37.427  30.348  27.757  1.00  0.00     0.041 A 
ATOM     90  F   UNL A   1      39.243  29.105  27.020  1.00  0.00    -0.206 F 
ATOM     91  C   UNL A   1      36.698  30.953  28.767  1.00  0.00     0.022 A 
BRANCH  88  92
ATOM     92  S   UNL A   1      36.122  31.615  31.389  1.00  0.00     0.124 S 
ATOM     93  O   UNL A   1      37.005  32.712  31.766  1.00  0.00    -0.237 OA
ATOM     94  O   UNL A   1      34.898  31.978  30.684  1.00  0.00    -0.237 OA
ATOM     95  O   UNL A   1      35.946  30.590  32.420  1.00  0.00    -0.744 OA
ENDBRANCH  88  92
ENDBRANCH  61  85
BRANCH  73  96
ATOM     96  C   UNL A   1      44.274  27.688  32.466  1.00  0.00     0.023 A 
ATOM     97  C   UNL A   1      44.304  26.276  32.380  1.00  0.00     0.031 A 
ATOM     98  C   UNL A   1      44.092  28.256  33.740  1.00  0.00     0.131 A 
ATOM     99  C   UNL A   1      44.148  25.495  33.546  1.00  0.00     0.055 A 
ATOM    100  C   UNL A   1      43.967  27.483  34.891  1.00  0.00     0.041 A 
ATOM    101  F   UNL A   1      44.069  29.591  33.892  1.00  0.00    -0.206 F 
ATOM    102  C   UNL A   1      43.989  26.099  34.798  1.00  0.00     0.022 A 
BRANCH  99 103
ATOM    103  S   UNL A   1      44.119  23.674  33.462  1.00  0.00     0.124 S 
ATOM    104  O   UNL A   1      42.978  23.310  34.294  1.00  0.00    -0.237 OA
ATOM    105  O   UNL A   1      43.973  23.424  32.030  1.00  0.00    -0.237 OA
ATOM    106  O   UNL A   1      45.420  23.288  34.013  1.00  0.00    -0.744 OA
ENDBRANCH  99 103
ENDBRANCH  73  96
ENDBRANCH  47  48
ENDBRANCH  39  42
ENDBRANCH  37  38
ENDBRANCH  36  37
ENDBRANCH  35  36
ENDBRANCH   1  35
TORSDOF 19
ENDMDL
