MODEL 1
REMARK VINA RESULT:     -11.1      0.000      0.000
REMARK SMILES O=C(NCCCCCCNC(=O)c1ccc(-c2c3nc(c(-c4cc(S(=O)(=O)[O-])ccc4F)c4ccc([nH]4)c(-c4cc(S(=O)(=O)[O-])ccc4F)c4nc(c(-c5cc(S(=O)(=O)[O-])ccc5F)c5ccc2[nH]5)C=C4)C=C3)cc1)C(=O)N1CC[N@@H+]2CCC[C@H]2C1
REMARK SMILES IDX 7 1 6 2 5 3 4 4 3 5 1 6 2 7 76 9 77 10 78 11 79 12 86 13
REMARK SMILES IDX 80 14 85 15 81 16 84 17 82 18 83 20 8 21 9 22 10 23 11 24
REMARK SMILES IDX 12 26 13 27 14 28 75 29 15 30 74 31 16 32 17 33 18 34 68 35
REMARK SMILES IDX 19 36 73 37 67 38 69 39 20 40 72 41 66 42 65 43 21 45 53 46
REMARK SMILES IDX 33 47 52 48 34 49 37 50 51 51 70 52 35 53 36 54 50 56 71 57
REMARK SMILES IDX 38 58 22 59 23 60 31 61 24 62 30 63 32 64 29 65 25 66 26 67
REMARK SMILES IDX 27 68 28 69 54 70 55 71 63 72 56 73 62 74 64 75 61 76 57 77
REMARK SMILES IDX 58 78 59 79 60 80 39 81 40 82 48 83 41 84 47 85 49 86 46 87
REMARK SMILES IDX 42 88 43 89 44 90 45 91
REMARK H PARENT 3 8 81 19 10 25 69 44 37 55
REMARK Flexibility Score: inf
ROOT
ATOM      1  C   UNL A   1      31.103  28.853  24.793  1.00  0.00     0.002 C 
ENDROOT
BRANCH   1   2
ATOM      2  C   UNL A   1      30.263  29.397  23.633  1.00  0.00     0.002 C 
BRANCH   2   3
ATOM      3  C   UNL A   1      29.968  28.431  22.492  1.00  0.00     0.021 C 
BRANCH   3   4
ATOM      4  C   UNL A   1      30.655  27.083  22.565  1.00  0.00     0.116 C 
BRANCH   4   5
ATOM      5  N   UNL A   1      31.512  26.693  21.478  1.00  0.00    -0.348 N 
ATOM      6  O   UNL A   1      33.278  25.448  20.754  1.00  0.00    -0.264 OA
ATOM      7  C   UNL A   1      32.762  26.112  21.645  1.00  0.00     0.309 C 
ATOM      8  H   UNL A   1      31.193  26.847  20.560  1.00  0.00     0.163 HD
BRANCH   7   9
ATOM      9  C   UNL A   1      33.556  26.441  22.926  1.00  0.00     0.312 C 
ATOM     10  O   UNL A   1      33.974  27.594  23.026  1.00  0.00    -0.263 OA
BRANCH   9  11
ATOM     11  N   UNL A   1      33.690  25.491  23.940  1.00  0.00    -0.323 N 
ATOM     12  C   UNL A   1      34.417  24.207  23.884  1.00  0.00     0.181 C 
ATOM     13  C   UNL A   1      32.872  25.666  25.149  1.00  0.00     0.185 C 
ATOM     14  C   UNL A   1      33.522  22.971  24.252  1.00  0.00     0.284 C 
ATOM     15  C   UNL A   1      31.868  24.514  25.176  1.00  0.00     0.204 C 
ATOM     16  N   UNL A   1      32.576  23.234  25.339  1.00  0.00    -0.330 N 
ATOM     17  C   UNL A   1      30.865  24.471  26.311  1.00  0.00     0.073 C 
ATOM     18  C   UNL A   1      31.503  22.257  25.499  1.00  0.00     0.262 C 
ATOM     19  H   UNL A   1      33.196  23.211  26.149  1.00  0.00     0.348 HD
ATOM     20  C   UNL A   1      30.585  22.973  26.493  1.00  0.00     0.068 C 
ENDBRANCH   9  11
ENDBRANCH   7   9
ENDBRANCH   4   5
ENDBRANCH   3   4
ENDBRANCH   2   3
ENDBRANCH   1   2
BRANCH   1  21
ATOM     21  C   UNL A   1      32.194  29.770  25.354  1.00  0.00     0.021 C 
BRANCH  21  22
ATOM     22  C   UNL A   1      31.950  30.329  26.752  1.00  0.00     0.116 C 
BRANCH  22  23
ATOM     23  N   UNL A   1      31.929  31.780  26.780  1.00  0.00    -0.352 N 
ATOM     24  C   UNL A   1      32.794  32.659  27.381  1.00  0.00     0.251 C 
ATOM     25  H   UNL A   1      31.181  32.197  26.294  1.00  0.00     0.163 HD
ATOM     26  O   UNL A   1      32.503  33.854  27.424  1.00  0.00    -0.269 OA
BRANCH  24  27
ATOM     27  C   UNL A   1      34.049  32.178  28.001  1.00  0.00     0.039 A 
ATOM     28  C   UNL A   1      35.092  33.085  28.199  1.00  0.00     0.014 A 
ATOM     29  C   UNL A   1      34.209  30.839  28.374  1.00  0.00     0.014 A 
ATOM     30  C   UNL A   1      36.269  32.667  28.826  1.00  0.00     0.010 A 
ATOM     31  C   UNL A   1      35.353  30.442  29.067  1.00  0.00     0.010 A 
ATOM     32  C   UNL A   1      36.395  31.351  29.301  1.00  0.00    -0.014 A 
BRANCH  32  33
ATOM     33  C   UNL A   1      37.611  30.915  30.041  1.00  0.00     0.031 A 
ATOM     34  C   UNL A   1      38.539  29.895  29.439  1.00  0.00     0.074 A 
ATOM     35  C   UNL A   1      37.852  31.402  31.276  1.00  0.00     0.049 A 
ATOM     36  N   UNL A   1      39.603  29.335  29.958  1.00  0.00    -0.248 NA
ATOM     37  C   UNL A   1      38.213  29.423  28.085  1.00  0.00     0.031 C 
ATOM     38  C   UNL A   1      37.009  32.372  31.979  1.00  0.00     0.029 A 
ATOM     39  N   UNL A   1      38.868  31.147  32.163  1.00  0.00    -0.354 N 
ATOM     40  C   UNL A   1      40.072  28.446  28.997  1.00  0.00     0.074 A 
ATOM     41  C   UNL A   1      39.137  28.492  27.893  1.00  0.00     0.031 C 
ATOM     42  C   UNL A   1      37.554  32.644  33.175  1.00  0.00     0.029 A 
ATOM     43  C   UNL A   1      38.754  31.833  33.351  1.00  0.00     0.049 A 
ATOM     44  H   UNL A   1      39.611  30.530  31.967  1.00  0.00     0.167 HD
ATOM     45  C   UNL A   1      41.193  27.683  29.021  1.00  0.00     0.034 A 
ATOM     46  C   UNL A   1      39.516  31.799  34.464  1.00  0.00     0.034 A 
ATOM     47  C   UNL A   1      42.119  27.650  30.128  1.00  0.00     0.049 A 
ATOM     48  C   UNL A   1      40.732  30.905  34.484  1.00  0.00     0.074 A 
ATOM     49  C   UNL A   1      43.300  26.939  30.242  1.00  0.00     0.029 A 
ATOM     50  N   UNL A   1      41.966  28.354  31.316  1.00  0.00    -0.354 N 
ATOM     51  N   UNL A   1      41.181  30.100  33.549  1.00  0.00    -0.248 NA
ATOM     52  C   UNL A   1      41.550  30.926  35.704  1.00  0.00     0.031 C 
ATOM     53  C   UNL A   1      43.821  27.151  31.522  1.00  0.00     0.029 A 
ATOM     54  C   UNL A   1      43.014  28.067  32.178  1.00  0.00     0.049 A 
ATOM     55  H   UNL A   1      41.222  28.966  31.517  1.00  0.00     0.167 HD
ATOM     56  C   UNL A   1      42.355  29.547  34.057  1.00  0.00     0.074 A 
ATOM     57  C   UNL A   1      42.550  30.123  35.371  1.00  0.00     0.031 C 
ATOM     58  C   UNL A   1      43.196  28.645  33.489  1.00  0.00     0.034 A 
BRANCH  45  59
ATOM     59  C   UNL A   1      41.467  26.808  27.820  1.00  0.00     0.023 A 
ATOM     60  C   UNL A   1      41.105  25.450  27.799  1.00  0.00     0.031 A 
ATOM     61  C   UNL A   1      42.108  27.332  26.684  1.00  0.00     0.131 A 
ATOM     62  C   UNL A   1      41.446  24.649  26.700  1.00  0.00     0.055 A 
ATOM     63  C   UNL A   1      42.368  26.550  25.557  1.00  0.00     0.041 A 
ATOM     64  F   UNL A   1      42.500  28.617  26.651  1.00  0.00    -0.206 F 
ATOM     65  C   UNL A   1      42.049  25.196  25.566  1.00  0.00     0.022 A 
BRANCH  62  66
ATOM     66  S   UNL A   1      41.216  22.855  26.833  1.00  0.00     0.124 S 
ATOM     67  O   UNL A   1      41.875  22.568  28.105  1.00  0.00    -0.237 OA
ATOM     68  O   UNL A   1      39.765  22.720  26.821  1.00  0.00    -0.237 OA
ATOM     69  O   UNL A   1      41.903  22.333  25.653  1.00  0.00    -0.744 OA
ENDBRANCH  62  66
ENDBRANCH  45  59
BRANCH  46  70
ATOM     70  C   UNL A   1      39.146  32.607  35.662  1.00  0.00     0.023 A 
ATOM     71  C   UNL A   1      39.598  33.928  35.817  1.00  0.00     0.031 A 
ATOM     72  C   UNL A   1      38.382  32.049  36.704  1.00  0.00     0.131 A 
ATOM     73  C   UNL A   1      39.337  34.623  37.009  1.00  0.00     0.055 A 
ATOM     74  C   UNL A   1      38.068  32.769  37.858  1.00  0.00     0.041 A 
ATOM     75  F   UNL A   1      37.921  30.791  36.611  1.00  0.00    -0.206 F 
ATOM     76  C   UNL A   1      38.562  34.058  38.023  1.00  0.00     0.022 A 
BRANCH  73  77
ATOM     77  S   UNL A   1      40.124  36.238  37.261  1.00  0.00     0.124 S 
ATOM     78  O   UNL A   1      40.021  36.828  35.932  1.00  0.00    -0.237 OA
ATOM     79  O   UNL A   1      39.278  36.828  38.293  1.00  0.00    -0.237 OA
ATOM     80  O   UNL A   1      41.478  35.892  37.688  1.00  0.00    -0.744 OA
ENDBRANCH  73  77
ENDBRANCH  46  70
BRANCH  58  81
ATOM     81  C   UNL A   1      44.434  28.270  34.268  1.00  0.00     0.023 A 
ATOM     82  C   UNL A   1      44.485  27.119  35.074  1.00  0.00     0.031 A 
ATOM     83  C   UNL A   1      45.579  29.084  34.210  1.00  0.00     0.131 A 
ATOM     84  C   UNL A   1      45.632  26.846  35.834  1.00  0.00     0.055 A 
ATOM     85  C   UNL A   1      46.742  28.772  34.914  1.00  0.00     0.041 A 
ATOM     86  F   UNL A   1      45.588  30.199  33.461  1.00  0.00    -0.206 F 
ATOM     87  C   UNL A   1      46.769  27.655  35.744  1.00  0.00     0.022 A 
BRANCH  84  88
ATOM     88  S   UNL A   1      45.586  25.478  37.022  1.00  0.00     0.124 S 
ATOM     89  O   UNL A   1      45.986  26.138  38.261  1.00  0.00    -0.237 OA
ATOM     90  O   UNL A   1      44.193  25.049  36.952  1.00  0.00    -0.237 OA
ATOM     91  O   UNL A   1      46.556  24.525  36.487  1.00  0.00    -0.744 OA
ENDBRANCH  84  88
ENDBRANCH  58  81
ENDBRANCH  32  33
ENDBRANCH  24  27
ENDBRANCH  22  23
ENDBRANCH  21  22
ENDBRANCH   1  21
TORSDOF 17
ENDMDL
MODEL 2
REMARK VINA RESULT:     -11.1      2.080      3.033
REMARK SMILES O=C(NCCCCCCNC(=O)c1ccc(-c2c3nc(c(-c4cc(S(=O)(=O)[O-])ccc4F)c4ccc([nH]4)c(-c4cc(S(=O)(=O)[O-])ccc4F)c4nc(c(-c5cc(S(=O)(=O)[O-])ccc5F)c5ccc2[nH]5)C=C4)C=C3)cc1)C(=O)N1CC[N@@H+]2CCC[C@H]2C1
REMARK SMILES IDX 7 1 6 2 5 3 4 4 3 5 1 6 2 7 76 9 77 10 78 11 79 12 86 13
REMARK SMILES IDX 80 14 85 15 81 16 84 17 82 18 83 20 8 21 9 22 10 23 11 24
REMARK SMILES IDX 12 26 13 27 14 28 75 29 15 30 74 31 16 32 17 33 18 34 68 35
REMARK SMILES IDX 19 36 73 37 67 38 69 39 20 40 72 41 66 42 65 43 21 45 53 46
REMARK SMILES IDX 33 47 52 48 34 49 37 50 51 51 70 52 35 53 36 54 50 56 71 57
REMARK SMILES IDX 38 58 22 59 23 60 31 61 24 62 30 63 32 64 29 65 25 66 26 67
REMARK SMILES IDX 27 68 28 69 54 70 55 71 63 72 56 73 62 74 64 75 61 76 57 77
REMARK SMILES IDX 58 78 59 79 60 80 39 81 40 82 48 83 41 84 47 85 49 86 46 87
REMARK SMILES IDX 42 88 43 89 44 90 45 91
REMARK H PARENT 3 8 81 19 10 25 69 44 37 55
REMARK Flexibility Score: inf
ROOT
ATOM      1  C   UNL A   1      31.724  30.038  26.366  1.00  0.00     0.002 C 
ENDROOT
BRANCH   1   2
ATOM      2  C   UNL A   1      33.087  29.414  26.048  1.00  0.00     0.002 C 
BRANCH   2   3
ATOM      3  C   UNL A   1      33.488  28.195  26.870  1.00  0.00     0.021 C 
BRANCH   3   4
ATOM      4  C   UNL A   1      33.150  26.846  26.268  1.00  0.00     0.116 C 
BRANCH   4   5
ATOM      5  N   UNL A   1      31.981  26.159  26.746  1.00  0.00    -0.348 N 
ATOM      6  O   UNL A   1      30.914  24.180  27.121  1.00  0.00    -0.264 OA
ATOM      7  C   UNL A   1      31.662  24.848  26.416  1.00  0.00     0.309 C 
ATOM      8  H   UNL A   1      31.369  26.647  27.343  1.00  0.00     0.163 HD
BRANCH   7   9
ATOM      9  C   UNL A   1      32.152  24.294  25.063  1.00  0.00     0.312 C 
ATOM     10  O   UNL A   1      32.776  23.234  25.102  1.00  0.00    -0.263 OA
BRANCH   9  11
ATOM     11  N   UNL A   1      31.808  24.933  23.871  1.00  0.00    -0.323 N 
ATOM     12  C   UNL A   1      32.717  25.506  22.857  1.00  0.00     0.181 C 
ATOM     13  C   UNL A   1      30.390  25.256  23.657  1.00  0.00     0.185 C 
ATOM     14  C   UNL A   1      32.431  27.019  22.553  1.00  0.00     0.284 C 
ATOM     15  C   UNL A   1      30.275  26.781  23.678  1.00  0.00     0.204 C 
ATOM     16  N   UNL A   1      31.006  27.356  22.537  1.00  0.00    -0.330 N 
ATOM     17  C   UNL A   1      28.898  27.393  23.517  1.00  0.00     0.073 C 
ATOM     18  C   UNL A   1      30.687  28.779  22.597  1.00  0.00     0.262 C 
ATOM     19  H   UNL A   1      30.723  26.970  21.636  1.00  0.00     0.348 HD
ATOM     20  C   UNL A   1      29.177  28.743  22.843  1.00  0.00     0.068 C 
ENDBRANCH   9  11
ENDBRANCH   7   9
ENDBRANCH   4   5
ENDBRANCH   3   4
ENDBRANCH   2   3
ENDBRANCH   1   2
BRANCH   1  21
ATOM     21  C   UNL A   1      31.674  31.562  26.516  1.00  0.00     0.021 C 
BRANCH  21  22
ATOM     22  C   UNL A   1      32.875  32.211  27.195  1.00  0.00     0.116 C 
BRANCH  22  23
ATOM     23  N   UNL A   1      32.646  33.606  27.527  1.00  0.00    -0.352 N 
ATOM     24  C   UNL A   1      33.236  34.389  28.486  1.00  0.00     0.251 C 
ATOM     25  H   UNL A   1      31.963  34.058  26.980  1.00  0.00     0.163 HD
ATOM     26  O   UNL A   1      32.778  35.508  28.713  1.00  0.00    -0.269 OA
BRANCH  24  27
ATOM     27  C   UNL A   1      34.391  33.887  29.263  1.00  0.00     0.039 A 
ATOM     28  C   UNL A   1      34.163  32.963  30.285  1.00  0.00     0.014 A 
ATOM     29  C   UNL A   1      35.692  34.329  29.002  1.00  0.00     0.014 A 
ATOM     30  C   UNL A   1      35.241  32.436  31.001  1.00  0.00     0.010 A 
ATOM     31  C   UNL A   1      36.772  33.747  29.665  1.00  0.00     0.010 A 
ATOM     32  C   UNL A   1      36.559  32.794  30.673  1.00  0.00    -0.014 A 
BRANCH  32  33
ATOM     33  C   UNL A   1      37.720  32.181  31.374  1.00  0.00     0.031 A 
ATOM     34  C   UNL A   1      38.491  31.061  30.728  1.00  0.00     0.074 A 
ATOM     35  C   UNL A   1      38.049  32.601  32.613  1.00  0.00     0.049 A 
ATOM     36  N   UNL A   1      39.481  30.353  31.210  1.00  0.00    -0.248 NA
ATOM     37  C   UNL A   1      38.078  30.671  29.373  1.00  0.00     0.031 C 
ATOM     38  C   UNL A   1      37.358  33.657  33.357  1.00  0.00     0.029 A 
ATOM     39  N   UNL A   1      39.040  32.191  33.470  1.00  0.00    -0.354 N 
ATOM     40  C   UNL A   1      39.807  29.433  30.219  1.00  0.00     0.074 A 
ATOM     41  C   UNL A   1      38.865  29.631  29.139  1.00  0.00     0.031 C 
ATOM     42  C   UNL A   1      37.958  33.824  34.545  1.00  0.00     0.029 A 
ATOM     43  C   UNL A   1      39.041  32.856  34.675  1.00  0.00     0.049 A 
ATOM     44  H   UNL A   1      39.689  31.486  33.244  1.00  0.00     0.167 HD
ATOM     45  C   UNL A   1      40.817  28.527  30.200  1.00  0.00     0.034 A 
ATOM     46  C   UNL A   1      39.815  32.694  35.769  1.00  0.00     0.034 A 
ATOM     47  C   UNL A   1      41.752  28.344  31.284  1.00  0.00     0.049 A 
ATOM     48  C   UNL A   1      40.901  31.646  35.742  1.00  0.00     0.074 A 
ATOM     49  C   UNL A   1      42.830  27.479  31.355  1.00  0.00     0.029 A 
ATOM     50  N   UNL A   1      41.719  29.032  32.491  1.00  0.00    -0.354 N 
ATOM     51  N   UNL A   1      41.220  30.812  34.779  1.00  0.00    -0.248 NA
ATOM     52  C   UNL A   1      41.739  31.527  36.942  1.00  0.00     0.031 C 
ATOM     53  C   UNL A   1      43.401  27.589  32.627  1.00  0.00     0.029 A 
ATOM     54  C   UNL A   1      42.737  28.588  33.321  1.00  0.00     0.049 A 
ATOM     55  H   UNL A   1      41.067  29.733  32.722  1.00  0.00     0.167 HD
ATOM     56  C   UNL A   1      42.319  30.095  35.248  1.00  0.00     0.074 A 
ATOM     57  C   UNL A   1      42.616  30.608  36.568  1.00  0.00     0.031 C 
ATOM     58  C   UNL A   1      43.020  29.104  34.641  1.00  0.00     0.034 A 
BRANCH  45  59
ATOM     59  C   UNL A   1      40.948  27.653  28.974  1.00  0.00     0.023 A 
ATOM     60  C   UNL A   1      41.933  27.891  28.001  1.00  0.00     0.031 A 
ATOM     61  C   UNL A   1      40.071  26.573  28.769  1.00  0.00     0.131 A 
ATOM     62  C   UNL A   1      41.975  27.109  26.838  1.00  0.00     0.055 A 
ATOM     63  C   UNL A   1      40.172  25.744  27.650  1.00  0.00     0.041 A 
ATOM     64  F   UNL A   1      39.094  26.307  29.652  1.00  0.00    -0.206 F 
ATOM     65  C   UNL A   1      41.120  26.018  26.669  1.00  0.00     0.022 A 
BRANCH  62  66
ATOM     66  S   UNL A   1      43.069  27.625  25.487  1.00  0.00     0.124 S 
ATOM     67  O   UNL A   1      43.529  26.337  24.974  1.00  0.00    -0.237 OA
ATOM     68  O   UNL A   1      42.169  28.374  24.619  1.00  0.00    -0.237 OA
ATOM     69  O   UNL A   1      44.094  28.420  26.161  1.00  0.00    -0.744 OA
ENDBRANCH  62  66
ENDBRANCH  45  59
BRANCH  46  70
ATOM     70  C   UNL A   1      39.581  33.514  36.994  1.00  0.00     0.023 A 
ATOM     71  C   UNL A   1      40.330  34.675  37.245  1.00  0.00     0.031 A 
ATOM     72  C   UNL A   1      38.642  33.115  37.963  1.00  0.00     0.131 A 
ATOM     73  C   UNL A   1      40.173  35.360  38.461  1.00  0.00     0.055 A 
ATOM     74  C   UNL A   1      38.444  33.838  39.141  1.00  0.00     0.041 A 
ATOM     75  F   UNL A   1      37.897  32.014  37.776  1.00  0.00    -0.206 F 
ATOM     76  C   UNL A   1      39.225  34.958  39.403  1.00  0.00     0.022 A 
BRANCH  73  77
ATOM     77  S   UNL A   1      41.312  36.719  38.844  1.00  0.00     0.124 S 
ATOM     78  O   UNL A   1      42.011  36.886  37.575  1.00  0.00    -0.237 OA
ATOM     79  O   UNL A   1      40.392  37.788  39.216  1.00  0.00    -0.237 OA
ATOM     80  O   UNL A   1      42.122  36.185  39.937  1.00  0.00    -0.744 OA
ENDBRANCH  73  77
ENDBRANCH  46  70
BRANCH  58  81
ATOM     81  C   UNL A   1      44.212  28.548  35.382  1.00  0.00     0.023 A 
ATOM     82  C   UNL A   1      44.110  27.419  36.215  1.00  0.00     0.031 A 
ATOM     83  C   UNL A   1      45.470  29.164  35.260  1.00  0.00     0.131 A 
ATOM     84  C   UNL A   1      45.229  26.980  36.938  1.00  0.00     0.055 A 
ATOM     85  C   UNL A   1      46.596  28.681  35.927  1.00  0.00     0.041 A 
ATOM     86  F   UNL A   1      45.628  30.248  34.482  1.00  0.00    -0.206 F 
ATOM     87  C   UNL A   1      46.476  27.591  36.785  1.00  0.00     0.022 A 
BRANCH  84  88
ATOM     88  S   UNL A   1      45.012  25.660  38.162  1.00  0.00     0.124 S 
ATOM     89  O   UNL A   1      44.926  26.414  39.409  1.00  0.00    -0.237 OA
ATOM     90  O   UNL A   1      43.776  25.022  37.718  1.00  0.00    -0.237 OA
ATOM     91  O   UNL A   1      46.217  24.849  38.011  1.00  0.00    -0.744 OA
ENDBRANCH  84  88
ENDBRANCH  58  81
ENDBRANCH  32  33
ENDBRANCH  24  27
ENDBRANCH  22  23
ENDBRANCH  21  22
ENDBRANCH   1  21
TORSDOF 17
ENDMDL
MODEL 3
REMARK VINA RESULT:     -11.1      2.712      8.403
REMARK SMILES O=C(NCCCCCCNC(=O)c1ccc(-c2c3nc(c(-c4cc(S(=O)(=O)[O-])ccc4F)c4ccc([nH]4)c(-c4cc(S(=O)(=O)[O-])ccc4F)c4nc(c(-c5cc(S(=O)(=O)[O-])ccc5F)c5ccc2[nH]5)C=C4)C=C3)cc1)C(=O)N1CC[N@@H+]2CCC[C@H]2C1
REMARK SMILES IDX 7 1 6 2 5 3 4 4 3 5 1 6 2 7 76 9 77 10 78 11 79 12 86 13
REMARK SMILES IDX 80 14 85 15 81 16 84 17 82 18 83 20 8 21 9 22 10 23 11 24
REMARK SMILES IDX 12 26 13 27 14 28 75 29 15 30 74 31 16 32 17 33 18 34 68 35
REMARK SMILES IDX 19 36 73 37 67 38 69 39 20 40 72 41 66 42 65 43 21 45 53 46
REMARK SMILES IDX 33 47 52 48 34 49 37 50 51 51 70 52 35 53 36 54 50 56 71 57
REMARK SMILES IDX 38 58 22 59 23 60 31 61 24 62 30 63 32 64 29 65 25 66 26 67
REMARK SMILES IDX 27 68 28 69 54 70 55 71 63 72 56 73 62 74 64 75 61 76 57 77
REMARK SMILES IDX 58 78 59 79 60 80 39 81 40 82 48 83 41 84 47 85 49 86 46 87
REMARK SMILES IDX 42 88 43 89 44 90 45 91
REMARK H PARENT 3 8 81 19 10 25 69 44 37 55
REMARK Flexibility Score: inf
ROOT
ATOM      1  C   UNL A   1      31.604  28.087  26.043  1.00  0.00     0.002 C 
ENDROOT
BRANCH   1   2
ATOM      2  C   UNL A   1      30.915  26.886  25.389  1.00  0.00     0.002 C 
BRANCH   2   3
ATOM      3  C   UNL A   1      30.071  27.173  24.152  1.00  0.00     0.021 C 
BRANCH   3   4
ATOM      4  C   UNL A   1      30.783  27.066  22.820  1.00  0.00     0.116 C 
BRANCH   4   5
ATOM      5  N   UNL A   1      32.078  27.677  22.686  1.00  0.00    -0.348 N 
ATOM      6  O   UNL A   1      34.116  27.694  21.667  1.00  0.00    -0.264 OA
ATOM      7  C   UNL A   1      33.178  27.047  22.119  1.00  0.00     0.309 C 
ATOM      8  H   UNL A   1      32.191  28.597  23.016  1.00  0.00     0.163 HD
BRANCH   7   9
ATOM      9  C   UNL A   1      33.263  25.510  22.201  1.00  0.00     0.312 C 
ATOM     10  O   UNL A   1      33.317  24.909  21.128  1.00  0.00    -0.263 OA
BRANCH   9  11
ATOM     11  N   UNL A   1      33.371  24.872  23.438  1.00  0.00    -0.323 N 
ATOM     12  C   UNL A   1      34.385  25.101  24.487  1.00  0.00     0.181 C 
ATOM     13  C   UNL A   1      32.510  23.705  23.678  1.00  0.00     0.185 C 
ATOM     14  C   UNL A   1      35.153  23.796  24.901  1.00  0.00     0.284 C 
ATOM     15  C   UNL A   1      33.429  22.486  23.768  1.00  0.00     0.204 C 
ATOM     16  N   UNL A   1      34.304  22.603  24.946  1.00  0.00    -0.330 N 
ATOM     17  C   UNL A   1      32.791  21.127  23.977  1.00  0.00     0.073 C 
ATOM     18  C   UNL A   1      35.005  21.324  24.990  1.00  0.00     0.262 C 
ATOM     19  H   UNL A   1      33.796  22.756  25.818  1.00  0.00     0.348 HD
ATOM     20  C   UNL A   1      33.860  20.339  24.747  1.00  0.00     0.068 C 
ENDBRANCH   9  11
ENDBRANCH   7   9
ENDBRANCH   4   5
ENDBRANCH   3   4
ENDBRANCH   2   3
ENDBRANCH   1   2
BRANCH   1  21
ATOM     21  C   UNL A   1      33.064  27.905  26.471  1.00  0.00     0.021 C 
BRANCH  21  22
ATOM     22  C   UNL A   1      34.031  29.005  26.048  1.00  0.00     0.116 C 
BRANCH  22  23
ATOM     23  N   UNL A   1      33.675  30.304  26.590  1.00  0.00    -0.352 N 
ATOM     24  C   UNL A   1      34.278  31.038  27.580  1.00  0.00     0.251 C 
ATOM     25  H   UNL A   1      32.881  30.721  26.185  1.00  0.00     0.163 HD
ATOM     26  O   UNL A   1      33.718  32.047  28.006  1.00  0.00    -0.269 OA
BRANCH  24  27
ATOM     27  C   UNL A   1      35.572  30.608  28.155  1.00  0.00     0.039 A 
ATOM     28  C   UNL A   1      35.566  29.758  29.264  1.00  0.00     0.014 A 
ATOM     29  C   UNL A   1      36.788  31.046  27.621  1.00  0.00     0.014 A 
ATOM     30  C   UNL A   1      36.773  29.298  29.796  1.00  0.00     0.010 A 
ATOM     31  C   UNL A   1      37.989  30.527  28.105  1.00  0.00     0.010 A 
ATOM     32  C   UNL A   1      37.995  29.647  29.198  1.00  0.00    -0.014 A 
BRANCH  32  33
ATOM     33  C   UNL A   1      39.284  29.102  29.706  1.00  0.00     0.031 A 
ATOM     34  C   UNL A   1      40.008  29.791  30.830  1.00  0.00     0.074 A 
ATOM     35  C   UNL A   1      39.823  28.012  29.122  1.00  0.00     0.049 A 
ATOM     36  N   UNL A   1      41.173  29.513  31.358  1.00  0.00    -0.248 NA
ATOM     37  C   UNL A   1      39.347  30.964  31.421  1.00  0.00     0.031 C 
ATOM     38  C   UNL A   1      39.232  27.274  28.003  1.00  0.00     0.029 A 
ATOM     39  N   UNL A   1      40.991  27.338  29.378  1.00  0.00    -0.354 N 
ATOM     40  C   UNL A   1      41.385  30.474  32.340  1.00  0.00     0.074 A 
ATOM     41  C   UNL A   1      40.259  31.382  32.286  1.00  0.00     0.031 C 
ATOM     42  C   UNL A   1      40.028  26.241  27.687  1.00  0.00     0.029 A 
ATOM     43  C   UNL A   1      41.211  26.269  28.539  1.00  0.00     0.049 A 
ATOM     44  H   UNL A   1      41.614  27.595  30.097  1.00  0.00     0.167 HD
ATOM     45  C   UNL A   1      42.410  30.574  33.224  1.00  0.00     0.034 A 
ATOM     46  C   UNL A   1      42.256  25.419  28.451  1.00  0.00     0.034 A 
ATOM     47  C   UNL A   1      43.524  29.658  33.268  1.00  0.00     0.049 A 
ATOM     48  C   UNL A   1      43.406  25.581  29.414  1.00  0.00     0.074 A 
ATOM     49  C   UNL A   1      44.597  29.649  34.142  1.00  0.00     0.029 A 
ATOM     50  N   UNL A   1      43.715  28.592  32.399  1.00  0.00    -0.354 N 
ATOM     51  N   UNL A   1      43.571  26.473  30.363  1.00  0.00    -0.248 NA
ATOM     52  C   UNL A   1      44.506  24.612  29.303  1.00  0.00     0.031 C 
ATOM     53  C   UNL A   1      45.472  28.629  33.756  1.00  0.00     0.029 A 
ATOM     54  C   UNL A   1      44.903  27.941  32.697  1.00  0.00     0.049 A 
ATOM     55  H   UNL A   1      43.098  28.337  31.676  1.00  0.00     0.167 HD
ATOM     56  C   UNL A   1      44.776  26.150  30.984  1.00  0.00     0.074 A 
ATOM     57  C   UNL A   1      45.284  24.972  30.313  1.00  0.00     0.031 C 
ATOM     58  C   UNL A   1      45.404  26.769  32.016  1.00  0.00     0.034 A 
BRANCH  45  59
ATOM     59  C   UNL A   1      42.378  31.726  34.201  1.00  0.00     0.023 A 
ATOM     60  C   UNL A   1      41.677  31.644  35.416  1.00  0.00     0.031 A 
ATOM     61  C   UNL A   1      43.051  32.927  33.913  1.00  0.00     0.131 A 
ATOM     62  C   UNL A   1      41.604  32.760  36.262  1.00  0.00     0.055 A 
ATOM     63  C   UNL A   1      43.046  34.006  34.799  1.00  0.00     0.041 A 
ATOM     64  F   UNL A   1      43.720  33.077  32.758  1.00  0.00    -0.206 F 
ATOM     65  C   UNL A   1      42.307  33.931  35.976  1.00  0.00     0.022 A 
BRANCH  62  66
ATOM     66  S   UNL A   1      40.462  32.705  37.670  1.00  0.00     0.124 S 
ATOM     67  O   UNL A   1      41.296  32.090  38.700  1.00  0.00    -0.237 OA
ATOM     68  O   UNL A   1      40.137  34.112  37.868  1.00  0.00    -0.237 OA
ATOM     69  O   UNL A   1      39.364  31.871  37.188  1.00  0.00    -0.744 OA
ENDBRANCH  62  66
ENDBRANCH  45  59
BRANCH  46  70
ATOM     70  C   UNL A   1      42.286  24.358  27.402  1.00  0.00     0.023 A 
ATOM     71  C   UNL A   1      41.692  23.104  27.618  1.00  0.00     0.031 A 
ATOM     72  C   UNL A   1      42.963  24.563  26.185  1.00  0.00     0.131 A 
ATOM     73  C   UNL A   1      41.839  22.085  26.664  1.00  0.00     0.055 A 
ATOM     74  C   UNL A   1      43.049  23.567  25.211  1.00  0.00     0.041 A 
ATOM     75  F   UNL A   1      43.549  25.742  25.922  1.00  0.00    -0.206 F 
ATOM     76  C   UNL A   1      42.500  22.313  25.456  1.00  0.00     0.022 A 
BRANCH  73  77
ATOM     77  S   UNL A   1      41.253  20.418  27.077  1.00  0.00     0.124 S 
ATOM     78  O   UNL A   1      42.467  19.628  26.907  1.00  0.00    -0.237 OA
ATOM     79  O   UNL A   1      40.787  20.594  28.448  1.00  0.00    -0.237 OA
ATOM     80  O   UNL A   1      40.205  20.173  26.089  1.00  0.00    -0.744 OA
ENDBRANCH  73  77
ENDBRANCH  46  70
BRANCH  58  81
ATOM     81  C   UNL A   1      46.686  26.148  32.516  1.00  0.00     0.023 A 
ATOM     82  C   UNL A   1      47.926  26.408  31.906  1.00  0.00     0.031 A 
ATOM     83  C   UNL A   1      46.664  25.272  33.616  1.00  0.00     0.131 A 
ATOM     84  C   UNL A   1      49.081  25.755  32.361  1.00  0.00     0.055 A 
ATOM     85  C   UNL A   1      47.826  24.679  34.109  1.00  0.00     0.041 A 
ATOM     86  F   UNL A   1      45.509  24.982  34.237  1.00  0.00    -0.206 F 
ATOM     87  C   UNL A   1      49.043  24.907  33.472  1.00  0.00     0.022 A 
BRANCH  84  88
ATOM     88  S   UNL A   1      50.619  25.947  31.421  1.00  0.00     0.124 S 
ATOM     89  O   UNL A   1      50.350  27.153  30.644  1.00  0.00    -0.237 OA
ATOM     90  O   UNL A   1      51.617  26.081  32.477  1.00  0.00    -0.237 OA
ATOM     91  O   UNL A   1      50.702  24.714  30.642  1.00  0.00    -0.744 OA
ENDBRANCH  84  88
ENDBRANCH  58  81
ENDBRANCH  32  33
ENDBRANCH  24  27
ENDBRANCH  22  23
ENDBRANCH  21  22
ENDBRANCH   1  21
TORSDOF 17
ENDMDL
