MODEL 1
REMARK VINA RESULT:     -10.4      0.000      0.000
REMARK SMILES CCC(CC)(NC(=O)C[C@@H]1CCC[NH2+]C1)C(=O)NCCCCCCNC(=O)c1ccc(-c2c3nc(c(-c4cc(S(=O)(=O)[O-])ccc4F)c4ccc([nH]4)c(-c4cc(S(=O)(=O)[O-])ccc4F)c4nc(c(-c5cc(S(=O)(=O)[O-])ccc5F)c5ccc2[nH]5)C=C4)C=C3)cc1
REMARK SMILES IDX 21 1 20 2 19 3 18 4 16 5 17 6 3 8 2 9 1 10 4 11 5 12 6 13
REMARK SMILES IDX 7 14 8 16 9 17 10 18 11 19 15 20 12 21 14 22 13 23 22 26
REMARK SMILES IDX 23 27 24 28 25 29 26 30 27 32 28 33 29 34 90 35 30 36 89 37
REMARK SMILES IDX 31 38 32 39 33 40 83 41 34 42 88 43 82 44 84 45 35 46 87 47
REMARK SMILES IDX 81 48 80 49 36 51 68 52 48 53 67 54 49 55 52 56 66 57 85 58
REMARK SMILES IDX 50 59 51 60 65 62 86 63 53 64 37 65 38 66 46 67 39 68 45 69
REMARK SMILES IDX 47 70 44 71 40 72 41 73 42 74 43 75 69 76 70 77 78 78 71 79
REMARK SMILES IDX 77 80 79 81 76 82 72 83 73 84 74 85 75 86 54 87 55 88 63 89
REMARK SMILES IDX 56 90 62 91 64 92 61 93 57 94 58 95 59 96 60 97
REMARK H PARENT 18 7 6 15 14 24 14 25 25 31 84 50 52 61
REMARK Flexibility Score: inf
ROOT
ATOM      1  C   UNL A   1      33.939  22.895  22.818  1.00  0.00     0.002 C 
ENDROOT
BRANCH   1   2
ATOM      2  C   UNL A   1      32.470  23.321  22.829  1.00  0.00     0.021 C 
BRANCH   2   3
ATOM      3  C   UNL A   1      32.189  24.819  22.951  1.00  0.00     0.116 C 
BRANCH   3   4
ATOM      4  N   UNL A   1      31.194  25.178  23.952  1.00  0.00    -0.354 N 
ATOM      5  C   UNL A   1      31.052  26.284  24.750  1.00  0.00     0.245 C 
ATOM      6  O   UNL A   1      30.065  26.299  25.490  1.00  0.00    -0.272 OA
ATOM      7  H   UNL A   1      30.492  24.500  24.078  1.00  0.00     0.163 HD
BRANCH   5   8
ATOM      8  C   UNL A   1      32.053  27.483  24.674  1.00  0.00     0.118 C 
BRANCH   8   9
ATOM      9  C   UNL A   1      33.554  27.081  24.769  1.00  0.00     0.035 C 
ATOM     10  C   UNL A   1      34.015  26.285  25.981  1.00  0.00     0.007 C 
ENDBRANCH   8   9
BRANCH   8  11
ATOM     11  C   UNL A   1      31.702  28.405  25.892  1.00  0.00     0.035 C 
ATOM     12  C   UNL A   1      32.267  29.820  25.881  1.00  0.00     0.007 C 
ENDBRANCH   8  11
BRANCH   8  13
ATOM     13  N   UNL A   1      31.898  28.174  23.356  1.00  0.00    -0.342 N 
ATOM     14  C   UNL A   1      30.675  28.492  22.781  1.00  0.00     0.221 C 
ATOM     15  H   UNL A   1      32.715  28.418  22.863  1.00  0.00     0.164 HD
ATOM     16  O   UNL A   1      30.424  28.042  21.664  1.00  0.00    -0.275 OA
BRANCH  14  17
ATOM     17  C   UNL A   1      29.805  29.569  23.424  1.00  0.00     0.109 C 
BRANCH  17  18
ATOM     18  C   UNL A   1      28.412  29.977  22.899  1.00  0.00     0.054 C 
ATOM     19  C   UNL A   1      28.410  30.226  21.372  1.00  0.00     0.016 C 
ATOM     20  C   UNL A   1      27.654  31.077  23.634  1.00  0.00     0.264 C 
ATOM     21  C   UNL A   1      28.099  31.664  20.965  1.00  0.00     0.062 C 
ATOM     22  N   UNL A   1      28.107  32.433  23.367  1.00  0.00    -0.346 N 
ATOM     23  C   UNL A   1      28.540  32.688  21.997  1.00  0.00     0.260 C 
ATOM     24  H   UNL A   1      27.338  33.069  23.577  1.00  0.00     0.346 HD
ATOM     25  H   UNL A   1      28.929  32.576  23.953  1.00  0.00     0.346 HD
ENDBRANCH  17  18
ENDBRANCH  14  17
ENDBRANCH   8  13
ENDBRANCH   5   8
ENDBRANCH   3   4
ENDBRANCH   2   3
ENDBRANCH   1   2
BRANCH   1  26
ATOM     26  C   UNL A   1      34.761  23.288  24.046  1.00  0.00     0.002 C 
BRANCH  26  27
ATOM     27  C   UNL A   1      36.242  22.914  24.006  1.00  0.00     0.021 C 
BRANCH  27  28
ATOM     28  C   UNL A   1      37.094  23.489  25.130  1.00  0.00     0.116 C 
BRANCH  28  29
ATOM     29  N   UNL A   1      38.137  22.578  25.566  1.00  0.00    -0.352 N 
ATOM     30  C   UNL A   1      39.296  22.866  26.254  1.00  0.00     0.251 C 
ATOM     31  H   UNL A   1      37.999  21.630  25.340  1.00  0.00     0.163 HD
ATOM     32  O   UNL A   1      40.146  22.007  26.417  1.00  0.00    -0.269 OA
BRANCH  30  33
ATOM     33  C   UNL A   1      39.512  24.245  26.753  1.00  0.00     0.039 A 
ATOM     34  C   UNL A   1      39.142  24.553  28.063  1.00  0.00     0.014 A 
ATOM     35  C   UNL A   1      40.120  25.211  25.946  1.00  0.00     0.014 A 
ATOM     36  C   UNL A   1      39.455  25.808  28.592  1.00  0.00     0.010 A 
ATOM     37  C   UNL A   1      40.490  26.436  26.495  1.00  0.00     0.010 A 
ATOM     38  C   UNL A   1      40.170  26.744  27.826  1.00  0.00    -0.014 A 
BRANCH  38  39
ATOM     39  C   UNL A   1      40.604  28.044  28.404  1.00  0.00     0.031 A 
ATOM     40  C   UNL A   1      42.059  28.296  28.687  1.00  0.00     0.074 A 
ATOM     41  C   UNL A   1      39.681  28.962  28.748  1.00  0.00     0.049 A 
ATOM     42  N   UNL A   1      42.624  29.321  29.271  1.00  0.00    -0.248 NA
ATOM     43  C   UNL A   1      42.995  27.235  28.288  1.00  0.00     0.031 C 
ATOM     44  C   UNL A   1      38.234  28.813  28.574  1.00  0.00     0.029 A 
ATOM     45  N   UNL A   1      39.817  30.195  29.337  1.00  0.00    -0.354 N 
ATOM     46  C   UNL A   1      43.983  29.028  29.316  1.00  0.00     0.074 A 
ATOM     47  C   UNL A   1      44.140  27.698  28.764  1.00  0.00     0.031 C 
ATOM     48  C   UNL A   1      37.619  29.911  29.041  1.00  0.00     0.029 A 
ATOM     49  C   UNL A   1      38.619  30.826  29.582  1.00  0.00     0.049 A 
ATOM     50  H   UNL A   1      40.690  30.591  29.562  1.00  0.00     0.167 HD
ATOM     51  C   UNL A   1      45.007  29.804  29.754  1.00  0.00     0.034 A 
ATOM     52  C   UNL A   1      38.353  31.997  30.192  1.00  0.00     0.034 A 
ATOM     53  C   UNL A   1      44.831  31.128  30.302  1.00  0.00     0.049 A 
ATOM     54  C   UNL A   1      39.498  32.836  30.696  1.00  0.00     0.074 A 
ATOM     55  C   UNL A   1      45.799  32.027  30.717  1.00  0.00     0.029 A 
ATOM     56  N   UNL A   1      43.603  31.740  30.525  1.00  0.00    -0.354 N 
ATOM     57  N   UNL A   1      40.785  32.574  30.675  1.00  0.00    -0.248 NA
ATOM     58  C   UNL A   1      39.157  34.133  31.294  1.00  0.00     0.031 C 
ATOM     59  C   UNL A   1      45.156  33.150  31.251  1.00  0.00     0.029 A 
ATOM     60  C   UNL A   1      43.788  32.987  31.106  1.00  0.00     0.049 A 
ATOM     61  H   UNL A   1      42.729  31.345  30.304  1.00  0.00     0.167 HD
ATOM     62  C   UNL A   1      41.407  33.680  31.244  1.00  0.00     0.074 A 
ATOM     63  C   UNL A   1      40.356  34.620  31.580  1.00  0.00     0.031 C 
ATOM     64  C   UNL A   1      42.729  33.901  31.463  1.00  0.00     0.034 A 
BRANCH  51  65
ATOM     65  C   UNL A   1      46.397  29.218  29.674  1.00  0.00     0.023 A 
ATOM     66  C   UNL A   1      47.148  29.268  28.485  1.00  0.00     0.031 A 
ATOM     67  C   UNL A   1      46.959  28.553  30.777  1.00  0.00     0.131 A 
ATOM     68  C   UNL A   1      48.370  28.583  28.398  1.00  0.00     0.055 A 
ATOM     69  C   UNL A   1      48.218  27.949  30.710  1.00  0.00     0.041 A 
ATOM     70  F   UNL A   1      46.285  28.455  31.934  1.00  0.00    -0.206 F 
ATOM     71  C   UNL A   1      48.922  27.944  29.510  1.00  0.00     0.022 A 
BRANCH  68  72
ATOM     72  S   UNL A   1      49.136  28.394  26.765  1.00  0.00     0.124 S 
ATOM     73  O   UNL A   1      49.252  26.940  26.660  1.00  0.00    -0.237 OA
ATOM     74  O   UNL A   1      48.159  29.021  25.883  1.00  0.00    -0.237 OA
ATOM     75  O   UNL A   1      50.406  29.104  26.898  1.00  0.00    -0.744 OA
ENDBRANCH  68  72
ENDBRANCH  51  65
BRANCH  52  76
ATOM     76  C   UNL A   1      36.942  32.432  30.388  1.00  0.00     0.023 A 
ATOM     77  C   UNL A   1      36.250  33.133  29.389  1.00  0.00     0.031 A 
ATOM     78  C   UNL A   1      36.267  32.157  31.591  1.00  0.00     0.131 A 
ATOM     79  C   UNL A   1      34.935  33.566  29.623  1.00  0.00     0.055 A 
ATOM     80  C   UNL A   1      34.944  32.550  31.802  1.00  0.00     0.041 A 
ATOM     81  F   UNL A   1      36.881  31.478  32.574  1.00  0.00    -0.206 F 
ATOM     82  C   UNL A   1      34.274  33.267  30.817  1.00  0.00     0.022 A 
BRANCH  79  83
ATOM     83  S   UNL A   1      34.110  34.571  28.357  1.00  0.00     0.124 S 
ATOM     84  O   UNL A   1      32.846  33.861  28.193  1.00  0.00    -0.237 OA
ATOM     85  O   UNL A   1      34.035  35.874  29.008  1.00  0.00    -0.237 OA
ATOM     86  O   UNL A   1      35.021  34.498  27.217  1.00  0.00    -0.744 OA
ENDBRANCH  79  83
ENDBRANCH  52  76
BRANCH  64  87
ATOM     87  C   UNL A   1      43.105  35.225  32.080  1.00  0.00     0.023 A 
ATOM     88  C   UNL A   1      43.505  36.319  31.292  1.00  0.00     0.031 A 
ATOM     89  C   UNL A   1      43.070  35.392  33.476  1.00  0.00     0.131 A 
ATOM     90  C   UNL A   1      43.899  37.517  31.908  1.00  0.00     0.055 A 
ATOM     91  C   UNL A   1      43.412  36.603  34.080  1.00  0.00     0.041 A 
ATOM     92  F   UNL A   1      42.699  34.379  34.275  1.00  0.00    -0.206 F 
ATOM     93  C   UNL A   1      43.840  37.670  33.295  1.00  0.00     0.022 A 
BRANCH  90  94
ATOM     94  S   UNL A   1      44.565  38.851  30.875  1.00  0.00     0.124 S 
ATOM     95  O   UNL A   1      45.089  39.776  31.875  1.00  0.00    -0.237 OA
ATOM     96  O   UNL A   1      45.561  38.153  30.068  1.00  0.00    -0.237 OA
ATOM     97  O   UNL A   1      43.397  39.331  30.138  1.00  0.00    -0.744 OA
ENDBRANCH  90  94
ENDBRANCH  64  87
ENDBRANCH  38  39
ENDBRANCH  30  33
ENDBRANCH  28  29
ENDBRANCH  27  28
ENDBRANCH  26  27
ENDBRANCH   1  26
TORSDOF 21
ENDMDL
MODEL 2
REMARK VINA RESULT:     -10.3      4.978      9.891
REMARK SMILES CCC(CC)(NC(=O)C[C@@H]1CCC[NH2+]C1)C(=O)NCCCCCCNC(=O)c1ccc(-c2c3nc(c(-c4cc(S(=O)(=O)[O-])ccc4F)c4ccc([nH]4)c(-c4cc(S(=O)(=O)[O-])ccc4F)c4nc(c(-c5cc(S(=O)(=O)[O-])ccc5F)c5ccc2[nH]5)C=C4)C=C3)cc1
REMARK SMILES IDX 21 1 20 2 19 3 18 4 16 5 17 6 3 8 2 9 1 10 4 11 5 12 6 13
REMARK SMILES IDX 7 14 8 16 9 17 10 18 11 19 15 20 12 21 14 22 13 23 22 26
REMARK SMILES IDX 23 27 24 28 25 29 26 30 27 32 28 33 29 34 90 35 30 36 89 37
REMARK SMILES IDX 31 38 32 39 33 40 83 41 34 42 88 43 82 44 84 45 35 46 87 47
REMARK SMILES IDX 81 48 80 49 36 51 68 52 48 53 67 54 49 55 52 56 66 57 85 58
REMARK SMILES IDX 50 59 51 60 65 62 86 63 53 64 37 65 38 66 46 67 39 68 45 69
REMARK SMILES IDX 47 70 44 71 40 72 41 73 42 74 43 75 69 76 70 77 78 78 71 79
REMARK SMILES IDX 77 80 79 81 76 82 72 83 73 84 74 85 75 86 54 87 55 88 63 89
REMARK SMILES IDX 56 90 62 91 64 92 61 93 57 94 58 95 59 96 60 97
REMARK H PARENT 18 7 6 15 14 24 14 25 25 31 84 50 52 61
REMARK Flexibility Score: inf
ROOT
ATOM      1  C   UNL A   1      34.784  29.773  28.025  1.00  0.00     0.002 C 
ENDROOT
BRANCH   1   2
ATOM      2  C   UNL A   1      34.789  29.008  26.701  1.00  0.00     0.021 C 
BRANCH   2   3
ATOM      3  C   UNL A   1      33.708  29.380  25.686  1.00  0.00     0.116 C 
BRANCH   3   4
ATOM      4  N   UNL A   1      33.809  28.700  24.403  1.00  0.00    -0.354 N 
ATOM      5  C   UNL A   1      32.915  27.938  23.695  1.00  0.00     0.245 C 
ATOM      6  O   UNL A   1      33.304  27.517  22.602  1.00  0.00    -0.272 OA
ATOM      7  H   UNL A   1      34.682  28.807  23.961  1.00  0.00     0.163 HD
BRANCH   5   8
ATOM      8  C   UNL A   1      31.466  27.677  24.218  1.00  0.00     0.118 C 
BRANCH   8   9
ATOM      9  C   UNL A   1      30.716  26.517  23.500  1.00  0.00     0.035 C 
ATOM     10  C   UNL A   1      29.263  26.257  23.870  1.00  0.00     0.007 C 
ENDBRANCH   8   9
BRANCH   8  11
ATOM     11  C   UNL A   1      30.680  29.011  23.971  1.00  0.00     0.035 C 
ATOM     12  C   UNL A   1      30.322  29.353  22.531  1.00  0.00     0.007 C 
ENDBRANCH   8  11
BRANCH   8  13
ATOM     13  N   UNL A   1      31.523  27.293  25.664  1.00  0.00    -0.342 N 
ATOM     14  C   UNL A   1      31.912  26.043  26.123  1.00  0.00     0.221 C 
ATOM     15  H   UNL A   1      31.268  27.970  26.332  1.00  0.00     0.164 HD
ATOM     16  O   UNL A   1      31.119  25.407  26.817  1.00  0.00    -0.275 OA
BRANCH  14  17
ATOM     17  C   UNL A   1      33.368  25.611  25.973  1.00  0.00     0.109 C 
BRANCH  17  18
ATOM     18  C   UNL A   1      33.862  24.606  24.909  1.00  0.00     0.054 C 
ATOM     19  C   UNL A   1      32.977  23.340  24.843  1.00  0.00     0.016 C 
ATOM     20  C   UNL A   1      35.343  24.241  24.891  1.00  0.00     0.264 C 
ATOM     21  C   UNL A   1      33.688  22.047  25.235  1.00  0.00     0.062 C 
ATOM     22  N   UNL A   1      35.767  23.302  25.917  1.00  0.00    -0.346 N 
ATOM     23  C   UNL A   1      34.802  22.259  26.247  1.00  0.00     0.260 C 
ATOM     24  H   UNL A   1      36.622  22.849  25.595  1.00  0.00     0.346 HD
ATOM     25  H   UNL A   1      35.890  23.851  26.768  1.00  0.00     0.346 HD
ENDBRANCH  17  18
ENDBRANCH  14  17
ENDBRANCH   8  13
ENDBRANCH   5   8
ENDBRANCH   3   4
ENDBRANCH   2   3
ENDBRANCH   1   2
BRANCH   1  26
ATOM     26  C   UNL A   1      35.034  31.279  27.930  1.00  0.00     0.002 C 
BRANCH  26  27
ATOM     27  C   UNL A   1      33.791  32.166  27.983  1.00  0.00     0.021 C 
BRANCH  27  28
ATOM     28  C   UNL A   1      34.030  33.645  27.706  1.00  0.00     0.116 C 
BRANCH  28  29
ATOM     29  N   UNL A   1      33.273  34.511  28.590  1.00  0.00    -0.352 N 
ATOM     30  C   UNL A   1      33.437  34.711  29.945  1.00  0.00     0.251 C 
ATOM     31  H   UNL A   1      32.546  35.023  28.168  1.00  0.00     0.163 HD
ATOM     32  O   UNL A   1      32.621  35.363  30.574  1.00  0.00    -0.269 OA
BRANCH  30  33
ATOM     33  C   UNL A   1      34.595  34.086  30.628  1.00  0.00     0.039 A 
ATOM     34  C   UNL A   1      34.368  33.016  31.495  1.00  0.00     0.014 A 
ATOM     35  C   UNL A   1      35.897  34.525  30.373  1.00  0.00     0.014 A 
ATOM     36  C   UNL A   1      35.455  32.332  32.046  1.00  0.00     0.010 A 
ATOM     37  C   UNL A   1      36.978  33.802  30.870  1.00  0.00     0.010 A 
ATOM     38  C   UNL A   1      36.769  32.692  31.704  1.00  0.00    -0.014 A 
BRANCH  38  39
ATOM     39  C   UNL A   1      37.936  31.913  32.195  1.00  0.00     0.031 A 
ATOM     40  C   UNL A   1      38.582  32.266  33.505  1.00  0.00     0.074 A 
ATOM     41  C   UNL A   1      38.462  30.942  31.424  1.00  0.00     0.049 A 
ATOM     42  N   UNL A   1      39.659  31.771  34.059  1.00  0.00    -0.248 NA
ATOM     43  C   UNL A   1      37.948  33.346  34.276  1.00  0.00     0.031 C 
ATOM     44  C   UNL A   1      37.958  30.541  30.108  1.00  0.00     0.029 A 
ATOM     45  N   UNL A   1      39.550  30.128  31.622  1.00  0.00    -0.354 N 
ATOM     46  C   UNL A   1      39.837  32.481  35.242  1.00  0.00     0.074 A 
ATOM     47  C   UNL A   1      38.796  33.487  35.283  1.00  0.00     0.031 C 
ATOM     48  C   UNL A   1      38.732  29.558  29.621  1.00  0.00     0.029 A 
ATOM     49  C   UNL A   1      39.807  29.283  30.568  1.00  0.00     0.049 A 
ATOM     50  H   UNL A   1      40.095  30.147  32.442  1.00  0.00     0.167 HD
ATOM     51  C   UNL A   1      40.766  32.296  36.214  1.00  0.00     0.034 A 
ATOM     52  C   UNL A   1      40.808  28.401  30.374  1.00  0.00     0.034 A 
ATOM     53  C   UNL A   1      41.797  31.288  36.155  1.00  0.00     0.049 A 
ATOM     54  C   UNL A   1      41.846  28.225  31.451  1.00  0.00     0.074 A 
ATOM     55  C   UNL A   1      42.750  30.970  37.109  1.00  0.00     0.029 A 
ATOM     56  N   UNL A   1      42.022  30.441  35.076  1.00  0.00    -0.354 N 
ATOM     57  N   UNL A   1      41.966  28.861  32.594  1.00  0.00    -0.248 NA
ATOM     58  C   UNL A   1      42.876  27.206  31.218  1.00  0.00     0.031 C 
ATOM     59  C   UNL A   1      43.588  29.980  36.580  1.00  0.00     0.029 A 
ATOM     60  C   UNL A   1      43.118  29.628  35.325  1.00  0.00     0.049 A 
ATOM     61  H   UNL A   1      41.480  30.421  34.254  1.00  0.00     0.167 HD
ATOM     62  C   UNL A   1      43.076  28.307  33.222  1.00  0.00     0.074 A 
ATOM     63  C   UNL A   1      43.580  27.273  32.339  1.00  0.00     0.031 C 
ATOM     64  C   UNL A   1      43.627  28.621  34.423  1.00  0.00     0.034 A 
BRANCH  51  65
ATOM     65  C   UNL A   1      40.710  33.226  37.404  1.00  0.00     0.023 A 
ATOM     66  C   UNL A   1      39.895  32.948  38.516  1.00  0.00     0.031 A 
ATOM     67  C   UNL A   1      41.435  34.430  37.407  1.00  0.00     0.131 A 
ATOM     68  C   UNL A   1      39.749  33.901  39.535  1.00  0.00     0.055 A 
ATOM     69  C   UNL A   1      41.353  35.336  38.468  1.00  0.00     0.041 A 
ATOM     70  F   UNL A   1      42.216  34.762  36.367  1.00  0.00    -0.206 F 
ATOM     71  C   UNL A   1      40.491  35.083  39.531  1.00  0.00     0.022 A 
BRANCH  68  72
ATOM     72  S   UNL A   1      38.444  33.649  40.770  1.00  0.00     0.124 S 
ATOM     73  O   UNL A   1      39.070  32.676  41.664  1.00  0.00    -0.237 OA
ATOM     74  O   UNL A   1      38.261  34.990  41.313  1.00  0.00    -0.237 OA
ATOM     75  O   UNL A   1      37.325  33.133  39.986  1.00  0.00    -0.744 OA
ENDBRANCH  68  72
ENDBRANCH  51  65
BRANCH  52  76
ATOM     76  C   UNL A   1      40.893  27.639  29.097  1.00  0.00     0.023 A 
ATOM     77  C   UNL A   1      41.865  27.940  28.131  1.00  0.00     0.031 A 
ATOM     78  C   UNL A   1      39.987  26.599  28.821  1.00  0.00     0.131 A 
ATOM     79  C   UNL A   1      41.890  27.231  26.920  1.00  0.00     0.055 A 
ATOM     80  C   UNL A   1      40.043  25.866  27.634  1.00  0.00     0.041 A 
ATOM     81  F   UNL A   1      39.044  26.264  29.718  1.00  0.00    -0.206 F 
ATOM     82  C   UNL A   1      40.994  26.189  26.671  1.00  0.00     0.022 A 
BRANCH  79  83
ATOM     83  S   UNL A   1      43.084  27.723  25.646  1.00  0.00     0.124 S 
ATOM     84  O   UNL A   1      43.724  26.451  25.333  1.00  0.00    -0.237 OA
ATOM     85  O   UNL A   1      42.214  28.275  24.614  1.00  0.00    -0.237 OA
ATOM     86  O   UNL A   1      43.930  28.698  26.331  1.00  0.00    -0.744 OA
ENDBRANCH  79  83
ENDBRANCH  52  76
BRANCH  64  87
ATOM     87  C   UNL A   1      44.827  27.816  34.853  1.00  0.00     0.023 A 
ATOM     88  C   UNL A   1      44.692  26.627  35.592  1.00  0.00     0.031 A 
ATOM     89  C   UNL A   1      46.125  28.250  34.527  1.00  0.00     0.131 A 
ATOM     90  C   UNL A   1      45.836  25.936  36.020  1.00  0.00     0.055 A 
ATOM     91  C   UNL A   1      47.258  27.529  34.910  1.00  0.00     0.041 A 
ATOM     92  F   UNL A   1      46.312  29.380  33.826  1.00  0.00    -0.206 F 
ATOM     93  C   UNL A   1      47.117  26.371  35.670  1.00  0.00     0.022 A 
BRANCH  90  94
ATOM     94  S   UNL A   1      45.631  24.500  37.108  1.00  0.00     0.124 S 
ATOM     95  O   UNL A   1      44.522  24.919  37.958  1.00  0.00    -0.237 OA
ATOM     96  O   UNL A   1      45.340  23.428  36.161  1.00  0.00    -0.237 OA
ATOM     97  O   UNL A   1      46.924  24.393  37.783  1.00  0.00    -0.744 OA
ENDBRANCH  90  94
ENDBRANCH  64  87
ENDBRANCH  38  39
ENDBRANCH  30  33
ENDBRANCH  28  29
ENDBRANCH  27  28
ENDBRANCH  26  27
ENDBRANCH   1  26
TORSDOF 21
ENDMDL
MODEL 3
REMARK VINA RESULT:     -10.2      3.613      5.284
REMARK SMILES CCC(CC)(NC(=O)C[C@@H]1CCC[NH2+]C1)C(=O)NCCCCCCNC(=O)c1ccc(-c2c3nc(c(-c4cc(S(=O)(=O)[O-])ccc4F)c4ccc([nH]4)c(-c4cc(S(=O)(=O)[O-])ccc4F)c4nc(c(-c5cc(S(=O)(=O)[O-])ccc5F)c5ccc2[nH]5)C=C4)C=C3)cc1
REMARK SMILES IDX 21 1 20 2 19 3 18 4 16 5 17 6 3 8 2 9 1 10 4 11 5 12 6 13
REMARK SMILES IDX 7 14 8 16 9 17 10 18 11 19 15 20 12 21 14 22 13 23 22 26
REMARK SMILES IDX 23 27 24 28 25 29 26 30 27 32 28 33 29 34 90 35 30 36 89 37
REMARK SMILES IDX 31 38 32 39 33 40 83 41 34 42 88 43 82 44 84 45 35 46 87 47
REMARK SMILES IDX 81 48 80 49 36 51 68 52 48 53 67 54 49 55 52 56 66 57 85 58
REMARK SMILES IDX 50 59 51 60 65 62 86 63 53 64 37 65 38 66 46 67 39 68 45 69
REMARK SMILES IDX 47 70 44 71 40 72 41 73 42 74 43 75 69 76 70 77 78 78 71 79
REMARK SMILES IDX 77 80 79 81 76 82 72 83 73 84 74 85 75 86 54 87 55 88 63 89
REMARK SMILES IDX 56 90 62 91 64 92 61 93 57 94 58 95 59 96 60 97
REMARK H PARENT 18 7 6 15 14 24 14 25 25 31 84 50 52 61
REMARK Flexibility Score: inf
ROOT
ATOM      1  C   UNL A   1      38.582  23.785  26.710  1.00  0.00     0.002 C 
ENDROOT
BRANCH   1   2
ATOM      2  C   UNL A   1      37.527  23.562  25.626  1.00  0.00     0.021 C 
BRANCH   2   3
ATOM      3  C   UNL A   1      36.558  22.398  25.837  1.00  0.00     0.116 C 
BRANCH   3   4
ATOM      4  N   UNL A   1      35.356  22.728  26.589  1.00  0.00    -0.354 N 
ATOM      5  C   UNL A   1      34.043  22.854  26.212  1.00  0.00     0.245 C 
ATOM      6  O   UNL A   1      33.241  23.122  27.111  1.00  0.00    -0.272 OA
ATOM      7  H   UNL A   1      35.514  22.890  27.546  1.00  0.00     0.163 HD
BRANCH   5   8
ATOM      8  C   UNL A   1      33.587  22.607  24.737  1.00  0.00     0.118 C 
BRANCH   8   9
ATOM      9  C   UNL A   1      32.105  22.982  24.445  1.00  0.00     0.035 C 
ATOM     10  C   UNL A   1      31.479  22.500  23.145  1.00  0.00     0.007 C 
ENDBRANCH   8   9
BRANCH   8  11
ATOM     11  C   UNL A   1      33.774  21.071  24.488  1.00  0.00     0.035 C 
ATOM     12  C   UNL A   1      33.144  20.119  25.497  1.00  0.00     0.007 C 
ENDBRANCH   8  11
BRANCH   8  13
ATOM     13  N   UNL A   1      34.411  23.451  23.816  1.00  0.00    -0.342 N 
ATOM     14  C   UNL A   1      34.135  24.779  23.521  1.00  0.00     0.221 C 
ATOM     15  H   UNL A   1      35.198  23.039  23.391  1.00  0.00     0.164 HD
ATOM     16  O   UNL A   1      33.960  25.088  22.342  1.00  0.00    -0.275 OA
BRANCH  14  17
ATOM     17  C   UNL A   1      34.304  25.837  24.607  1.00  0.00     0.109 C 
BRANCH  17  18
ATOM     18  C   UNL A   1      33.138  26.402  25.447  1.00  0.00     0.054 C 
ATOM     19  C   UNL A   1      31.909  26.760  24.579  1.00  0.00     0.016 C 
ATOM     20  C   UNL A   1      33.440  27.509  26.453  1.00  0.00     0.264 C 
ATOM     21  C   UNL A   1      31.557  28.245  24.560  1.00  0.00     0.062 C 
ATOM     22  N   UNL A   1      33.620  28.836  25.885  1.00  0.00    -0.346 N 
ATOM     23  C   UNL A   1      32.763  29.150  24.746  1.00  0.00     0.260 C 
ATOM     24  H   UNL A   1      33.433  29.520  26.618  1.00  0.00     0.346 HD
ATOM     25  H   UNL A   1      34.577  28.864  25.533  1.00  0.00     0.346 HD
ENDBRANCH  17  18
ENDBRANCH  14  17
ENDBRANCH   8  13
ENDBRANCH   5   8
ENDBRANCH   3   4
ENDBRANCH   2   3
ENDBRANCH   1   2
BRANCH   1  26
ATOM     26  C   UNL A   1      39.899  23.029  26.530  1.00  0.00     0.002 C 
BRANCH  26  27
ATOM     27  C   UNL A   1      39.776  21.552  26.158  1.00  0.00     0.021 C 
BRANCH  27  28
ATOM     28  C   UNL A   1      40.584  20.591  27.020  1.00  0.00     0.116 C 
BRANCH  28  29
ATOM     29  N   UNL A   1      41.531  19.806  26.249  1.00  0.00    -0.352 N 
ATOM     30  C   UNL A   1      42.718  20.211  25.677  1.00  0.00     0.251 C 
ATOM     31  H   UNL A   1      41.294  18.860  26.116  1.00  0.00     0.163 HD
ATOM     32  O   UNL A   1      43.330  19.464  24.933  1.00  0.00    -0.269 OA
BRANCH  30  33
ATOM     33  C   UNL A   1      43.215  21.582  25.948  1.00  0.00     0.039 A 
ATOM     34  C   UNL A   1      43.182  22.526  24.921  1.00  0.00     0.014 A 
ATOM     35  C   UNL A   1      43.664  21.940  27.223  1.00  0.00     0.014 A 
ATOM     36  C   UNL A   1      43.523  23.853  25.193  1.00  0.00     0.010 A 
ATOM     37  C   UNL A   1      43.939  23.275  27.507  1.00  0.00     0.010 A 
ATOM     38  C   UNL A   1      43.863  24.248  26.498  1.00  0.00    -0.014 A 
BRANCH  38  39
ATOM     39  C   UNL A   1      44.127  25.672  26.829  1.00  0.00     0.031 A 
ATOM     40  C   UNL A   1      45.511  26.239  26.680  1.00  0.00     0.074 A 
ATOM     41  C   UNL A   1      43.140  26.433  27.342  1.00  0.00     0.049 A 
ATOM     42  N   UNL A   1      45.963  27.423  27.003  1.00  0.00    -0.248 NA
ATOM     43  C   UNL A   1      46.529  25.336  26.123  1.00  0.00     0.031 C 
ATOM     44  C   UNL A   1      41.767  25.983  27.585  1.00  0.00     0.029 A 
ATOM     45  N   UNL A   1      43.141  27.736  27.771  1.00  0.00    -0.354 N 
ATOM     46  C   UNL A   1      47.319  27.408  26.695  1.00  0.00     0.074 A 
ATOM     47  C   UNL A   1      47.624  26.072  26.227  1.00  0.00     0.031 C 
ATOM     48  C   UNL A   1      41.060  26.993  28.116  1.00  0.00     0.029 A 
ATOM     49  C   UNL A   1      41.935  28.149  28.287  1.00  0.00     0.049 A 
ATOM     50  H   UNL A   1      43.931  28.321  27.716  1.00  0.00     0.167 HD
ATOM     51  C   UNL A   1      48.220  28.421  26.771  1.00  0.00     0.034 A 
ATOM     52  C   UNL A   1      41.576  29.319  28.853  1.00  0.00     0.034 A 
ATOM     53  C   UNL A   1      47.897  29.747  27.241  1.00  0.00     0.049 A 
ATOM     54  C   UNL A   1      42.594  30.424  28.955  1.00  0.00     0.074 A 
ATOM     55  C   UNL A   1      48.713  30.865  27.302  1.00  0.00     0.029 A 
ATOM     56  N   UNL A   1      46.661  30.134  27.745  1.00  0.00    -0.354 N 
ATOM     57  N   UNL A   1      43.859  30.416  28.601  1.00  0.00    -0.248 NA
ATOM     58  C   UNL A   1      42.135  31.699  29.520  1.00  0.00     0.031 C 
ATOM     59  C   UNL A   1      47.991  31.904  27.902  1.00  0.00     0.029 A 
ATOM     60  C   UNL A   1      46.702  31.460  28.153  1.00  0.00     0.049 A 
ATOM     61  H   UNL A   1      45.870  29.550  27.805  1.00  0.00     0.167 HD
ATOM     62  C   UNL A   1      44.341  31.689  28.887  1.00  0.00     0.074 A 
ATOM     63  C   UNL A   1      43.227  32.444  29.426  1.00  0.00     0.031 C 
ATOM     64  C   UNL A   1      45.591  32.191  28.715  1.00  0.00     0.034 A 
BRANCH  51  65
ATOM     65  C   UNL A   1      49.640  28.110  26.357  1.00  0.00     0.023 A 
ATOM     66  C   UNL A   1      50.042  28.169  25.010  1.00  0.00     0.031 A 
ATOM     67  C   UNL A   1      50.589  27.697  27.307  1.00  0.00     0.131 A 
ATOM     68  C   UNL A   1      51.321  27.729  24.640  1.00  0.00     0.055 A 
ATOM     69  C   UNL A   1      51.891  27.346  26.942  1.00  0.00     0.041 A 
ATOM     70  F   UNL A   1      50.262  27.603  28.606  1.00  0.00    -0.206 F 
ATOM     71  C   UNL A   1      52.258  27.341  25.600  1.00  0.00     0.022 A 
BRANCH  68  72
ATOM     72  S   UNL A   1      51.679  27.508  22.876  1.00  0.00     0.124 S 
ATOM     73  O   UNL A   1      50.409  26.981  22.381  1.00  0.00    -0.237 OA
ATOM     74  O   UNL A   1      52.018  28.860  22.451  1.00  0.00    -0.237 OA
ATOM     75  O   UNL A   1      52.785  26.553  22.868  1.00  0.00    -0.744 OA
ENDBRANCH  68  72
ENDBRANCH  51  65
BRANCH  52  76
ATOM     76  C   UNL A   1      40.200  29.493  29.396  1.00  0.00     0.023 A 
ATOM     77  C   UNL A   1      39.948  29.448  30.775  1.00  0.00     0.031 A 
ATOM     78  C   UNL A   1      39.110  29.699  28.531  1.00  0.00     0.131 A 
ATOM     79  C   UNL A   1      38.633  29.574  31.249  1.00  0.00     0.055 A 
ATOM     80  C   UNL A   1      37.809  29.867  29.009  1.00  0.00     0.041 A 
ATOM     81  F   UNL A   1      39.299  29.761  27.202  1.00  0.00    -0.206 F 
ATOM     82  C   UNL A   1      37.565  29.796  30.377  1.00  0.00     0.022 A 
BRANCH  79  83
ATOM     83  S   UNL A   1      38.328  29.394  33.029  1.00  0.00     0.124 S 
ATOM     84  O   UNL A   1      37.829  30.720  33.378  1.00  0.00    -0.237 OA
ATOM     85  O   UNL A   1      37.351  28.312  33.060  1.00  0.00    -0.237 OA
ATOM     86  O   UNL A   1      39.644  29.059  33.568  1.00  0.00    -0.744 OA
ENDBRANCH  79  83
ENDBRANCH  52  76
BRANCH  64  87
ATOM     87  C   UNL A   1      45.805  33.633  29.099  1.00  0.00     0.023 A 
ATOM     88  C   UNL A   1      45.570  34.681  28.191  1.00  0.00     0.031 A 
ATOM     89  C   UNL A   1      46.259  33.964  30.389  1.00  0.00     0.131 A 
ATOM     90  C   UNL A   1      45.834  36.006  28.569  1.00  0.00     0.055 A 
ATOM     91  C   UNL A   1      46.468  35.288  30.777  1.00  0.00     0.041 A 
ATOM     92  F   UNL A   1      46.501  33.003  31.294  1.00  0.00    -0.206 F 
ATOM     93  C   UNL A   1      46.266  36.317  29.861  1.00  0.00     0.022 A 
BRANCH  90  94
ATOM     94  S   UNL A   1      45.679  37.316  27.325  1.00  0.00     0.124 S 
ATOM     95  O   UNL A   1      46.055  38.503  28.085  1.00  0.00    -0.237 OA
ATOM     96  O   UNL A   1      46.626  36.888  26.300  1.00  0.00    -0.237 OA
ATOM     97  O   UNL A   1      44.272  37.252  26.932  1.00  0.00    -0.744 OA
ENDBRANCH  90  94
ENDBRANCH  64  87
ENDBRANCH  38  39
ENDBRANCH  30  33
ENDBRANCH  28  29
ENDBRANCH  27  28
ENDBRANCH  26  27
ENDBRANCH   1  26
TORSDOF 21
ENDMDL
