MODEL 1
REMARK VINA RESULT:     -11.4      0.000      0.000
REMARK SMILES C[C@H](C(=O)NCCCCCCNC(=O)c1ccc(-c2c3nc(c(-c4cc(S(=O)(=O)[O-])ccc4F)c4ccc([nH]4)c(-c4cc(S(=O)(=O)[O-])ccc4F)c4nc(c(-c5cc(S(=O)(=O)[O-])ccc5F)c5ccc2[nH]5)C=C4)C=C3)cc1)c1ccc(C[C@H]2CCC[C@@H]2O)cc1
REMARK SMILES IDX 8 1 7 2 6 3 5 4 3 5 4 6 2 8 1 9 78 10 79 11 90 12 80 13
REMARK SMILES IDX 89 14 81 15 82 16 83 17 84 18 87 19 85 20 86 21 88 22 9 24
REMARK SMILES IDX 10 25 11 26 12 27 13 28 14 30 15 31 16 32 77 33 17 34 76 35
REMARK SMILES IDX 18 36 19 37 20 38 70 39 21 40 75 41 69 42 71 43 22 44 74 45
REMARK SMILES IDX 68 46 67 47 23 49 55 50 35 51 54 52 36 53 39 54 53 55 72 56
REMARK SMILES IDX 37 57 38 58 52 60 73 61 40 62 24 63 25 64 33 65 26 66 32 67
REMARK SMILES IDX 34 68 31 69 27 70 28 71 29 72 30 73 56 74 57 75 65 76 58 77
REMARK SMILES IDX 64 78 66 79 63 80 59 81 60 82 61 83 62 84 41 85 42 86 50 87
REMARK SMILES IDX 43 88 49 89 51 90 48 91 44 92 45 93 46 94 47 95
REMARK H PARENT 5 7 88 23 12 29 71 48 39 59
REMARK Flexibility Score: inf
ROOT
ATOM      1  C   UNL A   1      35.306  24.121  23.782  1.00  0.00     0.002 C 
ENDROOT
BRANCH   1   2
ATOM      2  C   UNL A   1      35.040  24.584  25.212  1.00  0.00     0.021 C 
BRANCH   2   3
ATOM      3  C   UNL A   1      34.243  25.866  25.415  1.00  0.00     0.116 C 
BRANCH   3   4
ATOM      4  N   UNL A   1      33.485  26.318  24.268  1.00  0.00    -0.356 N 
ATOM      5  C   UNL A   1      32.235  25.994  23.835  1.00  0.00     0.227 C 
ATOM      6  O   UNL A   1      31.804  26.718  22.922  1.00  0.00    -0.274 OA
ATOM      7  H   UNL A   1      33.955  26.974  23.704  1.00  0.00     0.163 HD
BRANCH   5   8
ATOM      8  C   UNL A   1      31.351  24.813  24.315  1.00  0.00     0.105 C 
ATOM      9  C   UNL A   1      29.932  25.095  23.775  1.00  0.00     0.023 C 
BRANCH   8  10
ATOM     10  C   UNL A   1      31.816  23.380  24.081  1.00  0.00    -0.036 A 
ATOM     11  C   UNL A   1      32.134  22.945  22.783  1.00  0.00     0.005 A 
ATOM     12  C   UNL A   1      31.911  22.440  25.117  1.00  0.00     0.005 A 
ATOM     13  C   UNL A   1      32.278  21.578  22.502  1.00  0.00     0.004 A 
ATOM     14  C   UNL A   1      32.138  21.090  24.846  1.00  0.00     0.004 A 
ATOM     15  C   UNL A   1      32.207  20.631  23.529  1.00  0.00    -0.048 A 
BRANCH  15  16
ATOM     16  C   UNL A   1      32.163  19.147  23.239  1.00  0.00     0.041 C 
BRANCH  16  17
ATOM     17  C   UNL A   1      33.059  18.246  24.122  1.00  0.00     0.022 C 
ATOM     18  C   UNL A   1      32.565  17.939  25.550  1.00  0.00     0.007 C 
ATOM     19  C   UNL A   1      33.378  16.864  23.545  1.00  0.00     0.117 C 
ATOM     20  C   UNL A   1      33.031  16.516  25.876  1.00  0.00     0.003 C 
ATOM     21  C   UNL A   1      33.959  16.123  24.744  1.00  0.00     0.032 C 
BRANCH  19  22
ATOM     22  O   UNL A   1      34.302  16.903  22.476  1.00  0.00    -0.393 OA
ATOM     23  H   UNL A   1      35.007  16.256  22.634  1.00  0.00     0.210 HD
ENDBRANCH  19  22
ENDBRANCH  16  17
ENDBRANCH  15  16
ENDBRANCH   8  10
ENDBRANCH   5   8
ENDBRANCH   3   4
ENDBRANCH   2   3
ENDBRANCH   1   2
BRANCH   1  24
ATOM     24  C   UNL A   1      36.010  22.775  23.584  1.00  0.00     0.002 C 
BRANCH  24  25
ATOM     25  C   UNL A   1      35.664  21.639  24.551  1.00  0.00     0.021 C 
BRANCH  25  26
ATOM     26  C   UNL A   1      36.557  21.483  25.776  1.00  0.00     0.116 C 
BRANCH  26  27
ATOM     27  N   UNL A   1      37.558  20.441  25.637  1.00  0.00    -0.352 N 
ATOM     28  C   UNL A   1      38.923  20.513  25.808  1.00  0.00     0.251 C 
ATOM     29  H   UNL A   1      37.212  19.554  25.385  1.00  0.00     0.163 HD
ATOM     30  O   UNL A   1      39.620  19.543  25.546  1.00  0.00    -0.269 OA
BRANCH  28  31
ATOM     31  C   UNL A   1      39.547  21.775  26.277  1.00  0.00     0.039 A 
ATOM     32  C   UNL A   1      40.575  21.707  27.221  1.00  0.00     0.014 A 
ATOM     33  C   UNL A   1      39.120  23.015  25.796  1.00  0.00     0.014 A 
ATOM     34  C   UNL A   1      41.222  22.877  27.635  1.00  0.00     0.010 A 
ATOM     35  C   UNL A   1      39.807  24.171  26.160  1.00  0.00     0.010 A 
ATOM     36  C   UNL A   1      40.865  24.116  27.083  1.00  0.00    -0.014 A 
BRANCH  36  37
ATOM     37  C   UNL A   1      41.556  25.376  27.470  1.00  0.00     0.031 A 
ATOM     38  C   UNL A   1      40.821  26.408  28.279  1.00  0.00     0.074 A 
ATOM     39  C   UNL A   1      42.800  25.635  27.023  1.00  0.00     0.049 A 
ATOM     40  N   UNL A   1      41.165  27.635  28.577  1.00  0.00    -0.248 NA
ATOM     41  C   UNL A   1      39.499  26.012  28.786  1.00  0.00     0.031 C 
ATOM     42  C   UNL A   1      43.613  24.725  26.215  1.00  0.00     0.029 A 
ATOM     43  N   UNL A   1      43.590  26.750  27.163  1.00  0.00    -0.354 N 
ATOM     44  C   UNL A   1      40.093  28.167  29.285  1.00  0.00     0.074 A 
ATOM     45  C   UNL A   1      39.064  27.147  29.311  1.00  0.00     0.031 C 
ATOM     46  C   UNL A   1      44.787  25.314  25.937  1.00  0.00     0.029 A 
ATOM     47  C   UNL A   1      44.791  26.664  26.495  1.00  0.00     0.049 A 
ATOM     48  H   UNL A   1      43.324  27.536  27.691  1.00  0.00     0.167 HD
ATOM     49  C   UNL A   1      39.983  29.386  29.873  1.00  0.00     0.034 A 
ATOM     50  C   UNL A   1      45.770  27.576  26.324  1.00  0.00     0.034 A 
ATOM     51  C   UNL A   1      41.025  30.383  29.841  1.00  0.00     0.049 A 
ATOM     52  C   UNL A   1      45.618  28.940  26.949  1.00  0.00     0.074 A 
ATOM     53  C   UNL A   1      41.043  31.632  30.440  1.00  0.00     0.029 A 
ATOM     54  N   UNL A   1      42.233  30.254  29.165  1.00  0.00    -0.354 N 
ATOM     55  N   UNL A   1      44.609  29.426  27.636  1.00  0.00    -0.248 NA
ATOM     56  C   UNL A   1      46.737  29.877  26.782  1.00  0.00     0.031 C 
ATOM     57  C   UNL A   1      42.220  32.284  30.061  1.00  0.00     0.029 A 
ATOM     58  C   UNL A   1      42.985  31.411  29.304  1.00  0.00     0.049 A 
ATOM     59  H   UNL A   1      42.513  29.456  28.660  1.00  0.00     0.167 HD
ATOM     60  C   UNL A   1      44.991  30.709  28.018  1.00  0.00     0.074 A 
ATOM     61  C   UNL A   1      46.318  30.925  27.479  1.00  0.00     0.031 C 
ATOM     62  C   UNL A   1      44.309  31.618  28.762  1.00  0.00     0.034 A 
BRANCH  49  63
ATOM     63  C   UNL A   1      38.672  29.708  30.556  1.00  0.00     0.023 A 
ATOM     64  C   UNL A   1      37.653  30.423  29.903  1.00  0.00     0.031 A 
ATOM     65  C   UNL A   1      38.464  29.355  31.901  1.00  0.00     0.131 A 
ATOM     66  C   UNL A   1      36.529  30.858  30.622  1.00  0.00     0.055 A 
ATOM     67  C   UNL A   1      37.294  29.700  32.582  1.00  0.00     0.041 A 
ATOM     68  F   UNL A   1      39.405  28.691  32.589  1.00  0.00    -0.206 F 
ATOM     69  C   UNL A   1      36.329  30.477  31.950  1.00  0.00     0.022 A 
BRANCH  66  70
ATOM     70  S   UNL A   1      35.444  32.095  29.857  1.00  0.00     0.124 S 
ATOM     71  O   UNL A   1      34.928  31.358  28.705  1.00  0.00    -0.237 OA
ATOM     72  O   UNL A   1      34.487  32.374  30.920  1.00  0.00    -0.237 OA
ATOM     73  O   UNL A   1      36.354  33.191  29.528  1.00  0.00    -0.744 OA
ENDBRANCH  66  70
ENDBRANCH  49  63
BRANCH  50  74
ATOM     74  C   UNL A   1      46.968  27.235  25.506  1.00  0.00     0.023 A 
ATOM     75  C   UNL A   1      47.090  27.670  24.177  1.00  0.00     0.031 A 
ATOM     76  C   UNL A   1      48.012  26.459  26.044  1.00  0.00     0.131 A 
ATOM     77  C   UNL A   1      48.216  27.304  23.422  1.00  0.00     0.055 A 
ATOM     78  C   UNL A   1      49.152  26.140  25.306  1.00  0.00     0.041 A 
ATOM     79  F   UNL A   1      47.946  26.020  27.312  1.00  0.00    -0.206 F 
ATOM     80  C   UNL A   1      49.255  26.556  23.982  1.00  0.00     0.022 A 
BRANCH  77  81
ATOM     81  S   UNL A   1      48.279  27.770  21.670  1.00  0.00     0.124 S 
ATOM     82  O   UNL A   1      49.381  28.726  21.656  1.00  0.00    -0.237 OA
ATOM     83  O   UNL A   1      48.534  26.487  21.023  1.00  0.00    -0.237 OA
ATOM     84  O   UNL A   1      46.955  28.339  21.421  1.00  0.00    -0.744 OA
ENDBRANCH  77  81
ENDBRANCH  50  74
BRANCH  62  85
ATOM     85  C   UNL A   1      45.013  32.909  29.105  1.00  0.00     0.023 A 
ATOM     86  C   UNL A   1      44.903  34.061  28.308  1.00  0.00     0.031 A 
ATOM     87  C   UNL A   1      45.785  32.989  30.280  1.00  0.00     0.131 A 
ATOM     88  C   UNL A   1      45.581  35.234  28.679  1.00  0.00     0.055 A 
ATOM     89  C   UNL A   1      46.408  34.173  30.673  1.00  0.00     0.041 A 
ATOM     90  F   UNL A   1      45.927  31.917  31.075  1.00  0.00    -0.206 F 
ATOM     91  C   UNL A   1      46.315  35.302  29.867  1.00  0.00     0.022 A 
BRANCH  88  92
ATOM     92  S   UNL A   1      45.546  36.660  27.558  1.00  0.00     0.124 S 
ATOM     93  O   UNL A   1      46.225  36.134  26.378  1.00  0.00    -0.237 OA
ATOM     94  O   UNL A   1      44.116  36.909  27.413  1.00  0.00    -0.237 OA
ATOM     95  O   UNL A   1      46.283  37.690  28.289  1.00  0.00    -0.744 OA
ENDBRANCH  88  92
ENDBRANCH  62  85
ENDBRANCH  36  37
ENDBRANCH  28  31
ENDBRANCH  26  27
ENDBRANCH  25  26
ENDBRANCH  24  25
ENDBRANCH   1  24
TORSDOF 20
ENDMDL
MODEL 2
REMARK VINA RESULT:     -11.0      5.123     10.302
REMARK SMILES C[C@H](C(=O)NCCCCCCNC(=O)c1ccc(-c2c3nc(c(-c4cc(S(=O)(=O)[O-])ccc4F)c4ccc([nH]4)c(-c4cc(S(=O)(=O)[O-])ccc4F)c4nc(c(-c5cc(S(=O)(=O)[O-])ccc5F)c5ccc2[nH]5)C=C4)C=C3)cc1)c1ccc(C[C@H]2CCC[C@@H]2O)cc1
REMARK SMILES IDX 8 1 7 2 6 3 5 4 3 5 4 6 2 8 1 9 78 10 79 11 90 12 80 13
REMARK SMILES IDX 89 14 81 15 82 16 83 17 84 18 87 19 85 20 86 21 88 22 9 24
REMARK SMILES IDX 10 25 11 26 12 27 13 28 14 30 15 31 16 32 77 33 17 34 76 35
REMARK SMILES IDX 18 36 19 37 20 38 70 39 21 40 75 41 69 42 71 43 22 44 74 45
REMARK SMILES IDX 68 46 67 47 23 49 55 50 35 51 54 52 36 53 39 54 53 55 72 56
REMARK SMILES IDX 37 57 38 58 52 60 73 61 40 62 24 63 25 64 33 65 26 66 32 67
REMARK SMILES IDX 34 68 31 69 27 70 28 71 29 72 30 73 56 74 57 75 65 76 58 77
REMARK SMILES IDX 64 78 66 79 63 80 59 81 60 82 61 83 62 84 41 85 42 86 50 87
REMARK SMILES IDX 43 88 49 89 51 90 48 91 44 92 45 93 46 94 47 95
REMARK H PARENT 5 7 88 23 12 29 71 48 39 59
REMARK Flexibility Score: inf
ROOT
ATOM      1  C   UNL A   1      32.105  25.356  26.508  1.00  0.00     0.002 C 
ENDROOT
BRANCH   1   2
ATOM      2  C   UNL A   1      30.862  24.470  26.501  1.00  0.00     0.021 C 
BRANCH   2   3
ATOM      3  C   UNL A   1      30.996  23.050  25.966  1.00  0.00     0.116 C 
BRANCH   3   4
ATOM      4  N   UNL A   1      32.052  22.257  26.556  1.00  0.00    -0.356 N 
ATOM      5  C   UNL A   1      33.232  21.811  26.044  1.00  0.00     0.227 C 
ATOM      6  O   UNL A   1      34.005  21.323  26.884  1.00  0.00    -0.274 OA
ATOM      7  H   UNL A   1      31.888  21.994  27.491  1.00  0.00     0.163 HD
BRANCH   5   8
ATOM      8  C   UNL A   1      33.665  21.801  24.553  1.00  0.00     0.105 C 
ATOM      9  C   UNL A   1      32.851  20.676  23.879  1.00  0.00     0.023 C 
BRANCH   8  10
ATOM     10  C   UNL A   1      33.671  23.104  23.763  1.00  0.00    -0.036 A 
ATOM     11  C   UNL A   1      34.267  24.255  24.304  1.00  0.00     0.005 A 
ATOM     12  C   UNL A   1      33.064  23.225  22.505  1.00  0.00     0.005 A 
ATOM     13  C   UNL A   1      34.032  25.517  23.737  1.00  0.00     0.004 A 
ATOM     14  C   UNL A   1      32.903  24.472  21.899  1.00  0.00     0.004 A 
ATOM     15  C   UNL A   1      33.282  25.639  22.563  1.00  0.00    -0.048 A 
BRANCH  15  16
ATOM     16  C   UNL A   1      32.846  26.988  22.036  1.00  0.00     0.041 C 
BRANCH  16  17
ATOM     17  C   UNL A   1      31.329  27.286  22.075  1.00  0.00     0.022 C 
ATOM     18  C   UNL A   1      30.446  26.346  22.920  1.00  0.00     0.007 C 
ATOM     19  C   UNL A   1      30.942  28.684  22.566  1.00  0.00     0.117 C 
ATOM     20  C   UNL A   1      29.321  27.209  23.501  1.00  0.00     0.003 C 
ATOM     21  C   UNL A   1      29.443  28.554  22.810  1.00  0.00     0.032 C 
BRANCH  19  22
ATOM     22  O   UNL A   1      31.217  29.703  21.626  1.00  0.00    -0.393 OA
ATOM     23  H   UNL A   1      31.562  30.484  22.087  1.00  0.00     0.210 HD
ENDBRANCH  19  22
ENDBRANCH  16  17
ENDBRANCH  15  16
ENDBRANCH   8  10
ENDBRANCH   5   8
ENDBRANCH   3   4
ENDBRANCH   2   3
ENDBRANCH   1   2
BRANCH   1  24
ATOM     24  C   UNL A   1      31.925  26.841  26.837  1.00  0.00     0.002 C 
BRANCH  24  25
ATOM     25  C   UNL A   1      31.958  27.839  25.676  1.00  0.00     0.021 C 
BRANCH  25  26
ATOM     26  C   UNL A   1      33.022  28.928  25.737  1.00  0.00     0.116 C 
BRANCH  26  27
ATOM     27  N   UNL A   1      32.481  30.258  25.955  1.00  0.00    -0.352 N 
ATOM     28  C   UNL A   1      32.907  31.243  26.818  1.00  0.00     0.251 C 
ATOM     29  H   UNL A   1      31.698  30.490  25.406  1.00  0.00     0.163 HD
ATOM     30  O   UNL A   1      32.257  32.272  26.935  1.00  0.00    -0.269 OA
BRANCH  28  31
ATOM     31  C   UNL A   1      34.133  31.041  27.629  1.00  0.00     0.039 A 
ATOM     32  C   UNL A   1      34.355  29.791  28.213  1.00  0.00     0.014 A 
ATOM     33  C   UNL A   1      35.054  32.074  27.818  1.00  0.00     0.014 A 
ATOM     34  C   UNL A   1      35.533  29.555  28.931  1.00  0.00     0.010 A 
ATOM     35  C   UNL A   1      36.254  31.819  28.479  1.00  0.00     0.010 A 
ATOM     36  C   UNL A   1      36.508  30.557  29.042  1.00  0.00    -0.014 A 
BRANCH  36  37
ATOM     37  C   UNL A   1      37.789  30.331  29.765  1.00  0.00     0.031 A 
ATOM     38  C   UNL A   1      38.828  29.423  29.169  1.00  0.00     0.074 A 
ATOM     39  C   UNL A   1      37.983  30.862  30.989  1.00  0.00     0.049 A 
ATOM     40  N   UNL A   1      39.929  28.954  29.699  1.00  0.00    -0.248 NA
ATOM     41  C   UNL A   1      38.567  28.950  27.802  1.00  0.00     0.031 C 
ATOM     42  C   UNL A   1      37.045  31.744  31.685  1.00  0.00     0.029 A 
ATOM     43  N   UNL A   1      39.022  30.717  31.875  1.00  0.00    -0.354 N 
ATOM     44  C   UNL A   1      40.479  28.109  28.742  1.00  0.00     0.074 A 
ATOM     45  C   UNL A   1      39.554  28.085  27.627  1.00  0.00     0.031 C 
ATOM     46  C   UNL A   1      37.553  32.066  32.884  1.00  0.00     0.029 A 
ATOM     47  C   UNL A   1      38.824  31.371  33.070  1.00  0.00     0.049 A 
ATOM     48  H   UNL A   1      39.832  30.196  31.675  1.00  0.00     0.167 HD
ATOM     49  C   UNL A   1      41.655  27.432  28.781  1.00  0.00     0.034 A 
ATOM     50  C   UNL A   1      39.562  31.384  34.199  1.00  0.00     0.034 A 
ATOM     51  C   UNL A   1      42.566  27.479  29.899  1.00  0.00     0.049 A 
ATOM     52  C   UNL A   1      40.847  30.595  34.243  1.00  0.00     0.074 A 
ATOM     53  C   UNL A   1      43.804  26.873  30.029  1.00  0.00     0.029 A 
ATOM     54  N   UNL A   1      42.335  28.163  31.087  1.00  0.00    -0.354 N 
ATOM     55  N   UNL A   1      41.370  29.817  33.323  1.00  0.00    -0.248 NA
ATOM     56  C   UNL A   1      41.644  30.690  35.473  1.00  0.00     0.031 C 
ATOM     57  C   UNL A   1      44.282  27.122  31.319  1.00  0.00     0.029 A 
ATOM     58  C   UNL A   1      43.391  27.964  31.965  1.00  0.00     0.049 A 
ATOM     59  H   UNL A   1      41.538  28.709  31.277  1.00  0.00     0.167 HD
ATOM     60  C   UNL A   1      42.578  29.365  33.848  1.00  0.00     0.074 A 
ATOM     61  C   UNL A   1      42.701  29.949  35.168  1.00  0.00     0.031 C 
ATOM     62  C   UNL A   1      43.505  28.551  33.281  1.00  0.00     0.034 A 
BRANCH  49  63
ATOM     63  C   UNL A   1      41.987  26.554  27.594  1.00  0.00     0.023 A 
ATOM     64  C   UNL A   1      41.591  25.206  27.536  1.00  0.00     0.031 A 
ATOM     65  C   UNL A   1      42.768  27.052  26.536  1.00  0.00     0.131 A 
ATOM     66  C   UNL A   1      42.068  24.378  26.509  1.00  0.00     0.055 A 
ATOM     67  C   UNL A   1      43.151  26.248  25.460  1.00  0.00     0.041 A 
ATOM     68  F   UNL A   1      43.197  28.324  26.539  1.00  0.00    -0.206 F 
ATOM     69  C   UNL A   1      42.822  24.896  25.454  1.00  0.00     0.022 A 
BRANCH  66  70
ATOM     70  S   UNL A   1      41.861  22.584  26.684  1.00  0.00     0.124 S 
ATOM     71  O   UNL A   1      42.781  22.289  27.781  1.00  0.00    -0.237 OA
ATOM     72  O   UNL A   1      40.441  22.459  26.989  1.00  0.00    -0.237 OA
ATOM     73  O   UNL A   1      42.271  22.064  25.381  1.00  0.00    -0.744 OA
ENDBRANCH  66  70
ENDBRANCH  49  63
BRANCH  50  74
ATOM     74  C   UNL A   1      39.092  32.153  35.386  1.00  0.00     0.023 A 
ATOM     75  C   UNL A   1      38.442  31.517  36.455  1.00  0.00     0.031 A 
ATOM     76  C   UNL A   1      39.281  33.546  35.464  1.00  0.00     0.131 A 
ATOM     77  C   UNL A   1      37.981  32.274  37.544  1.00  0.00     0.055 A 
ATOM     78  C   UNL A   1      38.866  34.286  36.572  1.00  0.00     0.041 A 
ATOM     79  F   UNL A   1      39.900  34.203  34.470  1.00  0.00    -0.206 F 
ATOM     80  C   UNL A   1      38.202  33.651  37.617  1.00  0.00     0.022 A 
BRANCH  77  81
ATOM     81  S   UNL A   1      37.028  31.440  38.843  1.00  0.00     0.124 S 
ATOM     82  O   UNL A   1      37.914  31.577  39.994  1.00  0.00    -0.237 OA
ATOM     83  O   UNL A   1      35.803  32.232  38.878  1.00  0.00    -0.237 OA
ATOM     84  O   UNL A   1      36.874  30.079  38.332  1.00  0.00    -0.744 OA
ENDBRANCH  77  81
ENDBRANCH  50  74
BRANCH  62  85
ATOM     85  C   UNL A   1      44.779  28.300  34.052  1.00  0.00     0.023 A 
ATOM     86  C   UNL A   1      44.916  27.229  34.952  1.00  0.00     0.031 A 
ATOM     87  C   UNL A   1      45.891  29.140  33.851  1.00  0.00     0.131 A 
ATOM     88  C   UNL A   1      46.126  27.045  35.640  1.00  0.00     0.055 A 
ATOM     89  C   UNL A   1      47.109  28.918  34.494  1.00  0.00     0.041 A 
ATOM     90  F   UNL A   1      45.814  30.181  33.006  1.00  0.00    -0.206 F 
ATOM     91  C   UNL A   1      47.229  27.871  35.400  1.00  0.00     0.022 A 
BRANCH  88  92
ATOM     92  S   UNL A   1      46.228  25.749  36.905  1.00  0.00     0.124 S 
ATOM     93  O   UNL A   1      46.663  26.502  38.076  1.00  0.00    -0.237 OA
ATOM     94  O   UNL A   1      44.860  25.241  36.944  1.00  0.00    -0.237 OA
ATOM     95  O   UNL A   1      47.218  24.818  36.363  1.00  0.00    -0.744 OA
ENDBRANCH  88  92
ENDBRANCH  62  85
ENDBRANCH  36  37
ENDBRANCH  28  31
ENDBRANCH  26  27
ENDBRANCH  25  26
ENDBRANCH  24  25
ENDBRANCH   1  24
TORSDOF 20
ENDMDL
MODEL 3
REMARK VINA RESULT:     -10.9      4.698      9.379
REMARK SMILES C[C@H](C(=O)NCCCCCCNC(=O)c1ccc(-c2c3nc(c(-c4cc(S(=O)(=O)[O-])ccc4F)c4ccc([nH]4)c(-c4cc(S(=O)(=O)[O-])ccc4F)c4nc(c(-c5cc(S(=O)(=O)[O-])ccc5F)c5ccc2[nH]5)C=C4)C=C3)cc1)c1ccc(C[C@H]2CCC[C@@H]2O)cc1
REMARK SMILES IDX 8 1 7 2 6 3 5 4 3 5 4 6 2 8 1 9 78 10 79 11 90 12 80 13
REMARK SMILES IDX 89 14 81 15 82 16 83 17 84 18 87 19 85 20 86 21 88 22 9 24
REMARK SMILES IDX 10 25 11 26 12 27 13 28 14 30 15 31 16 32 77 33 17 34 76 35
REMARK SMILES IDX 18 36 19 37 20 38 70 39 21 40 75 41 69 42 71 43 22 44 74 45
REMARK SMILES IDX 68 46 67 47 23 49 55 50 35 51 54 52 36 53 39 54 53 55 72 56
REMARK SMILES IDX 37 57 38 58 52 60 73 61 40 62 24 63 25 64 33 65 26 66 32 67
REMARK SMILES IDX 34 68 31 69 27 70 28 71 29 72 30 73 56 74 57 75 65 76 58 77
REMARK SMILES IDX 64 78 66 79 63 80 59 81 60 82 61 83 62 84 41 85 42 86 50 87
REMARK SMILES IDX 43 88 49 89 51 90 48 91 44 92 45 93 46 94 47 95
REMARK H PARENT 5 7 88 23 12 29 71 48 39 59
REMARK Flexibility Score: inf
ROOT
ATOM      1  C   UNL A   1      30.901  27.955  24.388  1.00  0.00     0.002 C 
ENDROOT
BRANCH   1   2
ATOM      2  C   UNL A   1      29.630  27.296  23.859  1.00  0.00     0.021 C 
BRANCH   2   3
ATOM      3  C   UNL A   1      29.548  25.775  23.876  1.00  0.00     0.116 C 
BRANCH   3   4
ATOM      4  N   UNL A   1      29.722  25.155  25.172  1.00  0.00    -0.356 N 
ATOM      5  C   UNL A   1      30.832  24.668  25.792  1.00  0.00     0.227 C 
ATOM      6  O   UNL A   1      30.668  24.383  26.990  1.00  0.00    -0.274 OA
ATOM      7  H   UNL A   1      28.892  25.070  25.696  1.00  0.00     0.163 HD
BRANCH   5   8
ATOM      8  C   UNL A   1      32.220  24.390  25.154  1.00  0.00     0.105 C 
ATOM      9  C   UNL A   1      33.261  25.003  26.116  1.00  0.00     0.023 C 
BRANCH   8  10
ATOM     10  C   UNL A   1      32.570  22.979  24.698  1.00  0.00    -0.036 A 
ATOM     11  C   UNL A   1      32.298  22.576  23.380  1.00  0.00     0.005 A 
ATOM     12  C   UNL A   1      33.131  22.026  25.560  1.00  0.00     0.005 A 
ATOM     13  C   UNL A   1      32.338  21.219  23.024  1.00  0.00     0.004 A 
ATOM     14  C   UNL A   1      33.249  20.689  25.177  1.00  0.00     0.004 A 
ATOM     15  C   UNL A   1      32.746  20.254  23.950  1.00  0.00    -0.048 A 
BRANCH  15  16
ATOM     16  C   UNL A   1      32.615  18.774  23.665  1.00  0.00     0.041 C 
BRANCH  16  17
ATOM     17  C   UNL A   1      33.183  17.814  24.737  1.00  0.00     0.022 C 
ATOM     18  C   UNL A   1      32.339  16.573  25.092  1.00  0.00     0.007 C 
ATOM     19  C   UNL A   1      34.569  17.235  24.437  1.00  0.00     0.117 C 
ATOM     20  C   UNL A   1      33.330  15.449  25.414  1.00  0.00     0.003 C 
ATOM     21  C   UNL A   1      34.694  16.111  25.459  1.00  0.00     0.032 C 
BRANCH  19  22
ATOM     22  O   UNL A   1      35.613  18.175  24.587  1.00  0.00    -0.393 OA
ATOM     23  H   UNL A   1      35.880  18.504  23.714  1.00  0.00     0.210 HD
ENDBRANCH  19  22
ENDBRANCH  16  17
ENDBRANCH  15  16
ENDBRANCH   8  10
ENDBRANCH   5   8
ENDBRANCH   3   4
ENDBRANCH   2   3
ENDBRANCH   1   2
BRANCH   1  24
ATOM     24  C   UNL A   1      32.110  28.035  23.451  1.00  0.00     0.002 C 
BRANCH  24  25
ATOM     25  C   UNL A   1      33.258  28.969  23.845  1.00  0.00     0.021 C 
BRANCH  25  26
ATOM     26  C   UNL A   1      33.506  29.162  25.336  1.00  0.00     0.116 C 
BRANCH  26  27
ATOM     27  N   UNL A   1      32.900  30.365  25.876  1.00  0.00    -0.352 N 
ATOM     28  C   UNL A   1      33.320  31.163  26.917  1.00  0.00     0.251 C 
ATOM     29  H   UNL A   1      32.068  30.653  25.436  1.00  0.00     0.163 HD
ATOM     30  O   UNL A   1      32.616  32.088  27.296  1.00  0.00    -0.269 OA
BRANCH  28  31
ATOM     31  C   UNL A   1      34.608  30.880  27.596  1.00  0.00     0.039 A 
ATOM     32  C   UNL A   1      35.553  31.904  27.703  1.00  0.00     0.014 A 
ATOM     33  C   UNL A   1      34.887  29.615  28.119  1.00  0.00     0.014 A 
ATOM     34  C   UNL A   1      36.750  31.681  28.392  1.00  0.00     0.010 A 
ATOM     35  C   UNL A   1      36.051  29.413  28.859  1.00  0.00     0.010 A 
ATOM     36  C   UNL A   1      36.995  30.444  29.004  1.00  0.00    -0.014 A 
BRANCH  36  37
ATOM     37  C   UNL A   1      38.239  30.182  29.778  1.00  0.00     0.031 A 
ATOM     38  C   UNL A   1      39.261  29.220  29.239  1.00  0.00     0.074 A 
ATOM     39  C   UNL A   1      38.412  30.732  30.996  1.00  0.00     0.049 A 
ATOM     40  N   UNL A   1      40.322  28.718  29.817  1.00  0.00    -0.248 NA
ATOM     41  C   UNL A   1      39.028  28.727  27.873  1.00  0.00     0.031 C 
ATOM     42  C   UNL A   1      37.487  31.665  31.640  1.00  0.00     0.029 A 
ATOM     43  N   UNL A   1      39.413  30.564  31.923  1.00  0.00    -0.354 N 
ATOM     44  C   UNL A   1      40.870  27.831  28.898  1.00  0.00     0.074 A 
ATOM     45  C   UNL A   1      39.984  27.819  27.751  1.00  0.00     0.031 C 
ATOM     46  C   UNL A   1      37.965  31.993  32.850  1.00  0.00     0.029 A 
ATOM     47  C   UNL A   1      39.199  31.252  33.096  1.00  0.00     0.049 A 
ATOM     48  H   UNL A   1      40.207  30.006  31.762  1.00  0.00     0.167 HD
ATOM     49  C   UNL A   1      42.015  27.107  28.994  1.00  0.00     0.034 A 
ATOM     50  C   UNL A   1      39.897  31.260  34.250  1.00  0.00     0.034 A 
ATOM     51  C   UNL A   1      42.887  27.142  30.142  1.00  0.00     0.049 A 
ATOM     52  C   UNL A   1      41.146  30.421  34.356  1.00  0.00     0.074 A 
ATOM     53  C   UNL A   1      44.094  26.489  30.330  1.00  0.00     0.029 A 
ATOM     54  N   UNL A   1      42.643  27.861  31.308  1.00  0.00    -0.354 N 
ATOM     55  N   UNL A   1      41.669  29.602  33.472  1.00  0.00    -0.248 NA
ATOM     56  C   UNL A   1      41.903  30.510  35.613  1.00  0.00     0.031 C 
ATOM     57  C   UNL A   1      44.536  26.748  31.631  1.00  0.00     0.029 A 
ATOM     58  C   UNL A   1      43.658  27.639  32.227  1.00  0.00     0.049 A 
ATOM     59  H   UNL A   1      41.863  28.443  31.457  1.00  0.00     0.167 HD
ATOM     60  C   UNL A   1      42.837  29.113  34.050  1.00  0.00     0.074 A 
ATOM     61  C   UNL A   1      42.938  29.721  35.361  1.00  0.00     0.031 C 
ATOM     62  C   UNL A   1      43.750  28.250  33.534  1.00  0.00     0.034 A 
BRANCH  49  63
ATOM     63  C   UNL A   1      42.352  26.191  27.838  1.00  0.00     0.023 A 
ATOM     64  C   UNL A   1      41.812  24.897  27.737  1.00  0.00     0.031 A 
ATOM     65  C   UNL A   1      43.279  26.590  26.858  1.00  0.00     0.131 A 
ATOM     66  C   UNL A   1      42.283  24.014  26.754  1.00  0.00     0.055 A 
ATOM     67  C   UNL A   1      43.665  25.741  25.818  1.00  0.00     0.041 A 
ATOM     68  F   UNL A   1      43.848  27.805  26.907  1.00  0.00    -0.206 F 
ATOM     69  C   UNL A   1      43.185  24.436  25.776  1.00  0.00     0.022 A 
BRANCH  66  70
ATOM     70  S   UNL A   1      41.857  22.256  26.900  1.00  0.00     0.124 S 
ATOM     71  O   UNL A   1      42.308  21.738  25.610  1.00  0.00    -0.237 OA
ATOM     72  O   UNL A   1      42.632  21.840  28.063  1.00  0.00    -0.237 OA
ATOM     73  O   UNL A   1      40.408  22.270  27.084  1.00  0.00    -0.744 OA
ENDBRANCH  66  70
ENDBRANCH  49  63
BRANCH  50  74
ATOM     74  C   UNL A   1      39.418  32.074  35.403  1.00  0.00     0.023 A 
ATOM     75  C   UNL A   1      39.823  33.407  35.571  1.00  0.00     0.031 A 
ATOM     76  C   UNL A   1      38.547  31.523  36.362  1.00  0.00     0.131 A 
ATOM     77  C   UNL A   1      39.380  34.137  36.686  1.00  0.00     0.055 A 
ATOM     78  C   UNL A   1      38.070  32.268  37.441  1.00  0.00     0.041 A 
ATOM     79  F   UNL A   1      38.127  30.253  36.246  1.00  0.00    -0.206 F 
ATOM     80  C   UNL A   1      38.494  33.582  37.613  1.00  0.00     0.022 A 
BRANCH  77  81
ATOM     81  S   UNL A   1      40.027  35.812  36.944  1.00  0.00     0.124 S 
ATOM     82  O   UNL A   1      39.296  36.233  38.134  1.00  0.00    -0.237 OA
ATOM     83  O   UNL A   1      41.454  35.562  37.122  1.00  0.00    -0.237 OA
ATOM     84  O   UNL A   1      39.668  36.510  35.711  1.00  0.00    -0.744 OA
ENDBRANCH  77  81
ENDBRANCH  50  74
BRANCH  62  85
ATOM     85  C   UNL A   1      44.984  27.965  34.356  1.00  0.00     0.023 A 
ATOM     86  C   UNL A   1      46.157  28.731  34.244  1.00  0.00     0.031 A 
ATOM     87  C   UNL A   1      44.966  26.918  35.297  1.00  0.00     0.131 A 
ATOM     88  C   UNL A   1      47.274  28.418  35.037  1.00  0.00     0.055 A 
ATOM     89  C   UNL A   1      46.058  26.649  36.122  1.00  0.00     0.041 A 
ATOM     90  F   UNL A   1      43.873  26.152  35.442  1.00  0.00    -0.206 F 
ATOM     91  C   UNL A   1      47.224  27.396  35.989  1.00  0.00     0.022 A 
BRANCH  88  92
ATOM     92  S   UNL A   1      48.822  29.324  34.767  1.00  0.00     0.124 S 
ATOM     93  O   UNL A   1      49.346  28.678  33.569  1.00  0.00    -0.237 OA
ATOM     94  O   UNL A   1      48.357  30.697  34.601  1.00  0.00    -0.237 OA
ATOM     95  O   UNL A   1      49.584  29.073  35.990  1.00  0.00    -0.744 OA
ENDBRANCH  88  92
ENDBRANCH  62  85
ENDBRANCH  36  37
ENDBRANCH  28  31
ENDBRANCH  26  27
ENDBRANCH  25  26
ENDBRANCH  24  25
ENDBRANCH   1  24
TORSDOF 20
ENDMDL
