MODEL 1
REMARK VINA RESULT:     -12.1      0.000      0.000
REMARK SMILES O=C(Cc1ccccc1C(=O)NCCCCCCNC(=O)c1ccc(-c2c3nc(c(-c4cc(S(=O)(=O)[O-])ccc4F)c4ccc([nH]4)c(-c4cc(S(=O)(=O)[O-])ccc4F)c4nc(c(-c5cc(S(=O)(=O)[O-])ccc5F)c5ccc2[nH]5)C=C4)C=C3)cc1)Nc1ccc(S(=O)(=O)N2CCCC2)cc1
REMARK SMILES IDX 14 1 13 2 12 3 10 4 11 5 9 7 4 8 5 9 6 10 8 11 7 12 3 13
REMARK SMILES IDX 2 14 1 15 85 16 86 18 87 19 99 20 88 21 98 22 89 23 90 24
REMARK SMILES IDX 91 25 92 26 93 27 94 28 97 29 95 30 96 31 15 32 16 33 17 34
REMARK SMILES IDX 18 35 19 36 20 37 21 39 22 40 23 41 84 42 24 43 83 44 25 45
REMARK SMILES IDX 26 46 27 47 77 48 28 49 82 50 76 51 78 52 29 53 81 54 75 55
REMARK SMILES IDX 74 56 30 58 62 59 42 60 61 61 43 62 46 63 60 64 79 65 44 66
REMARK SMILES IDX 45 67 59 69 80 70 47 71 31 72 32 73 40 74 33 75 39 76 41 77
REMARK SMILES IDX 38 78 34 79 35 80 36 81 37 82 63 83 64 84 72 85 65 86 71 87
REMARK SMILES IDX 73 88 70 89 66 90 67 91 68 92 69 93 48 94 49 95 57 96 50 97
REMARK SMILES IDX 56 98 58 99 55 100 51 101 52 102 53 103 54 104
REMARK H PARENT 12 6 85 17 19 38 78 57 46 68
REMARK Flexibility Score: inf
ROOT
ATOM      1  C   UNL A   1      32.731  26.685  26.120  1.00  0.00     0.021 C 
ENDROOT
BRANCH   1   2
ATOM      2  C   UNL A   1      33.963  25.811  25.839  1.00  0.00     0.116 C 
BRANCH   2   3
ATOM      3  N   UNL A   1      34.289  25.636  24.428  1.00  0.00    -0.352 N 
ATOM      4  C   UNL A   1      34.233  24.558  23.579  1.00  0.00     0.251 C 
ATOM      5  O   UNL A   1      34.290  24.758  22.366  1.00  0.00    -0.269 OA
ATOM      6  H   UNL A   1      34.617  26.458  23.997  1.00  0.00     0.163 HD
BRANCH   4   7
ATOM      7  C   UNL A   1      34.033  23.170  24.060  1.00  0.00     0.043 A 
ATOM      8  C   UNL A   1      32.905  22.375  23.821  1.00  0.00    -0.026 A 
ATOM      9  C   UNL A   1      33.004  20.992  24.099  1.00  0.00     0.005 A 
ATOM     10  C   UNL A   1      34.059  20.475  24.845  1.00  0.00     0.000 A 
ATOM     11  C   UNL A   1      35.045  22.664  24.899  1.00  0.00     0.014 A 
ATOM     12  C   UNL A   1      35.037  21.334  25.323  1.00  0.00     0.001 A 
BRANCH   8  13
ATOM     13  C   UNL A   1      31.527  22.841  23.412  1.00  0.00     0.136 C 
BRANCH  13  14
ATOM     14  C   UNL A   1      31.022  24.208  23.820  1.00  0.00     0.228 C 
ATOM     15  O   UNL A   1      30.654  24.390  24.983  1.00  0.00    -0.274 OA
ATOM     16  N   UNL A   1      31.152  25.249  22.914  1.00  0.00    -0.326 N 
ATOM     17  H   UNL A   1      31.688  25.118  22.099  1.00  0.00     0.169 HD
BRANCH  16  18
ATOM     18  C   UNL A   1      30.526  26.501  23.141  1.00  0.00     0.041 A 
ATOM     19  C   UNL A   1      29.207  26.584  23.581  1.00  0.00     0.027 A 
ATOM     20  C   UNL A   1      31.225  27.687  22.909  1.00  0.00     0.027 A 
ATOM     21  C   UNL A   1      28.573  27.839  23.649  1.00  0.00     0.024 A 
ATOM     22  C   UNL A   1      30.617  28.935  23.002  1.00  0.00     0.024 A 
ATOM     23  C   UNL A   1      29.275  29.016  23.335  1.00  0.00     0.082 A 
BRANCH  23  24
ATOM     24  S   UNL A   1      28.421  30.582  23.367  1.00  0.00     0.243 S 
ATOM     25  O   UNL A   1      27.006  30.271  23.465  1.00  0.00    -0.207 OA
ATOM     26  O   UNL A   1      29.079  31.385  24.374  1.00  0.00    -0.207 OA
BRANCH  24  27
ATOM     27  N   UNL A   1      28.653  31.325  21.877  1.00  0.00    -0.198 NA
ATOM     28  C   UNL A   1      28.760  32.783  21.747  1.00  0.00     0.102 C 
ATOM     29  C   UNL A   1      28.129  30.743  20.632  1.00  0.00     0.102 C 
ATOM     30  C   UNL A   1      27.715  33.142  20.706  1.00  0.00     0.018 C 
ATOM     31  C   UNL A   1      27.655  31.929  19.791  1.00  0.00     0.018 C 
ENDBRANCH  24  27
ENDBRANCH  23  24
ENDBRANCH  16  18
ENDBRANCH  13  14
ENDBRANCH   8  13
ENDBRANCH   4   7
ENDBRANCH   2   3
ENDBRANCH   1   2
BRANCH   1  32
ATOM     32  C   UNL A   1      33.002  28.121  26.587  1.00  0.00     0.002 C 
BRANCH  32  33
ATOM     33  C   UNL A   1      31.796  28.927  27.052  1.00  0.00     0.002 C 
BRANCH  33  34
ATOM     34  C   UNL A   1      31.824  30.393  26.634  1.00  0.00     0.021 C 
BRANCH  34  35
ATOM     35  C   UNL A   1      33.049  31.164  27.113  1.00  0.00     0.116 C 
BRANCH  35  36
ATOM     36  N   UNL A   1      32.790  32.594  27.208  1.00  0.00    -0.352 N 
ATOM     37  C   UNL A   1      33.394  33.487  28.064  1.00  0.00     0.251 C 
ATOM     38  H   UNL A   1      32.111  32.961  26.597  1.00  0.00     0.163 HD
ATOM     39  O   UNL A   1      32.953  34.619  28.222  1.00  0.00    -0.269 OA
BRANCH  37  40
ATOM     40  C   UNL A   1      34.588  33.018  28.792  1.00  0.00     0.039 A 
ATOM     41  C   UNL A   1      34.441  32.339  30.001  1.00  0.00     0.014 A 
ATOM     42  C   UNL A   1      35.841  33.140  28.180  1.00  0.00     0.014 A 
ATOM     43  C   UNL A   1      35.558  31.737  30.581  1.00  0.00     0.010 A 
ATOM     44  C   UNL A   1      36.931  32.471  28.720  1.00  0.00     0.010 A 
ATOM     45  C   UNL A   1      36.804  31.773  29.931  1.00  0.00    -0.014 A 
BRANCH  45  46
ATOM     46  C   UNL A   1      37.999  31.116  30.524  1.00  0.00     0.031 A 
ATOM     47  C   UNL A   1      38.453  31.513  31.901  1.00  0.00     0.074 A 
ATOM     48  C   UNL A   1      38.691  30.206  29.812  1.00  0.00     0.049 A 
ATOM     49  N   UNL A   1      39.490  31.098  32.583  1.00  0.00    -0.248 NA
ATOM     50  C   UNL A   1      37.653  32.537  32.590  1.00  0.00     0.031 C 
ATOM     51  C   UNL A   1      38.368  29.773  28.449  1.00  0.00     0.029 A 
ATOM     52  N   UNL A   1      39.810  29.478  30.130  1.00  0.00    -0.354 N 
ATOM     53  C   UNL A   1      39.469  31.815  33.774  1.00  0.00     0.074 A 
ATOM     54  C   UNL A   1      38.365  32.744  33.686  1.00  0.00     0.031 C 
ATOM     55  C   UNL A   1      39.246  28.831  28.067  1.00  0.00     0.029 A 
ATOM     56  C   UNL A   1      40.223  28.626  29.131  1.00  0.00     0.049 A 
ATOM     57  H   UNL A   1      40.275  29.558  30.994  1.00  0.00     0.167 HD
ATOM     58  C   UNL A   1      40.276  31.686  34.856  1.00  0.00     0.034 A 
ATOM     59  C   UNL A   1      41.274  27.784  29.077  1.00  0.00     0.034 A 
ATOM     60  C   UNL A   1      41.368  30.747  34.925  1.00  0.00     0.049 A 
ATOM     61  C   UNL A   1      42.186  27.685  30.278  1.00  0.00     0.074 A 
ATOM     62  C   UNL A   1      42.222  30.498  35.983  1.00  0.00     0.029 A 
ATOM     63  N   UNL A   1      41.764  29.911  33.889  1.00  0.00    -0.354 N 
ATOM     64  N   UNL A   1      42.120  28.332  31.420  1.00  0.00    -0.248 NA
ATOM     65  C   UNL A   1      43.302  26.736  30.187  1.00  0.00     0.031 C 
ATOM     66  C   UNL A   1      43.183  29.573  35.561  1.00  0.00     0.029 A 
ATOM     67  C   UNL A   1      42.872  29.171  34.271  1.00  0.00     0.049 A 
ATOM     68  H   UNL A   1      41.322  29.851  33.011  1.00  0.00     0.167 HD
ATOM     69  C   UNL A   1      43.165  27.837  32.196  1.00  0.00     0.074 A 
ATOM     70  C   UNL A   1      43.835  26.833  31.396  1.00  0.00     0.031 C 
ATOM     71  C   UNL A   1      43.534  28.177  33.458  1.00  0.00     0.034 A 
BRANCH  58  72
ATOM     72  C   UNL A   1      40.020  32.604  36.028  1.00  0.00     0.023 A 
ATOM     73  C   UNL A   1      39.186  32.225  37.096  1.00  0.00     0.031 A 
ATOM     74  C   UNL A   1      40.588  33.889  36.065  1.00  0.00     0.131 A 
ATOM     75  C   UNL A   1      38.879  33.148  38.107  1.00  0.00     0.055 A 
ATOM     76  C   UNL A   1      40.351  34.771  37.122  1.00  0.00     0.041 A 
ATOM     77  F   UNL A   1      41.371  34.321  35.063  1.00  0.00    -0.206 F 
ATOM     78  C   UNL A   1      39.478  34.407  38.143  1.00  0.00     0.022 A 
BRANCH  75  79
ATOM     79  S   UNL A   1      37.559  32.734  39.281  1.00  0.00     0.124 S 
ATOM     80  O   UNL A   1      36.372  32.826  38.434  1.00  0.00    -0.237 OA
ATOM     81  O   UNL A   1      37.932  31.393  39.716  1.00  0.00    -0.237 OA
ATOM     82  O   UNL A   1      37.669  33.775  40.301  1.00  0.00    -0.744 OA
ENDBRANCH  75  79
ENDBRANCH  58  72
BRANCH  59  83
ATOM     83  C   UNL A   1      41.535  26.973  27.852  1.00  0.00     0.023 A 
ATOM     84  C   UNL A   1      41.203  25.609  27.799  1.00  0.00     0.031 A 
ATOM     85  C   UNL A   1      42.162  27.539  26.727  1.00  0.00     0.131 A 
ATOM     86  C   UNL A   1      41.545  24.848  26.669  1.00  0.00     0.055 A 
ATOM     87  C   UNL A   1      42.445  26.792  25.583  1.00  0.00     0.041 A 
ATOM     88  F   UNL A   1      42.502  28.838  26.721  1.00  0.00    -0.206 F 
ATOM     89  C   UNL A   1      42.148  25.433  25.555  1.00  0.00     0.022 A 
BRANCH  86  90
ATOM     90  S   UNL A   1      41.276  23.054  26.716  1.00  0.00     0.124 S 
ATOM     91  O   UNL A   1      42.112  22.600  25.611  1.00  0.00    -0.237 OA
ATOM     92  O   UNL A   1      41.742  22.713  28.056  1.00  0.00    -0.237 OA
ATOM     93  O   UNL A   1      39.836  22.921  26.506  1.00  0.00    -0.744 OA
ENDBRANCH  86  90
ENDBRANCH  59  83
BRANCH  71  94
ATOM     94  C   UNL A   1      44.684  27.414  34.071  1.00  0.00     0.023 A 
ATOM     95  C   UNL A   1      44.486  26.242  34.820  1.00  0.00     0.031 A 
ATOM     96  C   UNL A   1      46.004  27.873  33.898  1.00  0.00     0.131 A 
ATOM     97  C   UNL A   1      45.583  25.600  35.415  1.00  0.00     0.055 A 
ATOM     98  C   UNL A   1      47.096  27.190  34.433  1.00  0.00     0.041 A 
ATOM     99  F   UNL A   1      46.253  28.990  33.196  1.00  0.00    -0.206 F 
ATOM    100  C   UNL A   1      46.888  26.054  35.208  1.00  0.00     0.022 A 
BRANCH  97 101
ATOM    101  S   UNL A   1      45.273  24.217  36.547  1.00  0.00     0.124 S 
ATOM    102  O   UNL A   1      44.466  23.325  35.721  1.00  0.00    -0.237 OA
ATOM    103  O   UNL A   1      46.622  23.755  36.853  1.00  0.00    -0.237 OA
ATOM    104  O   UNL A   1      44.563  24.840  37.662  1.00  0.00    -0.744 OA
ENDBRANCH  97 101
ENDBRANCH  71  94
ENDBRANCH  45  46
ENDBRANCH  37  40
ENDBRANCH  35  36
ENDBRANCH  34  35
ENDBRANCH  33  34
ENDBRANCH  32  33
ENDBRANCH   1  32
TORSDOF 21
ENDMDL
MODEL 2
REMARK VINA RESULT:     -11.9      0.929      7.194
REMARK SMILES O=C(Cc1ccccc1C(=O)NCCCCCCNC(=O)c1ccc(-c2c3nc(c(-c4cc(S(=O)(=O)[O-])ccc4F)c4ccc([nH]4)c(-c4cc(S(=O)(=O)[O-])ccc4F)c4nc(c(-c5cc(S(=O)(=O)[O-])ccc5F)c5ccc2[nH]5)C=C4)C=C3)cc1)Nc1ccc(S(=O)(=O)N2CCCC2)cc1
REMARK SMILES IDX 14 1 13 2 12 3 10 4 11 5 9 7 4 8 5 9 6 10 8 11 7 12 3 13
REMARK SMILES IDX 2 14 1 15 85 16 86 18 87 19 99 20 88 21 98 22 89 23 90 24
REMARK SMILES IDX 91 25 92 26 93 27 94 28 97 29 95 30 96 31 15 32 16 33 17 34
REMARK SMILES IDX 18 35 19 36 20 37 21 39 22 40 23 41 84 42 24 43 83 44 25 45
REMARK SMILES IDX 26 46 27 47 77 48 28 49 82 50 76 51 78 52 29 53 81 54 75 55
REMARK SMILES IDX 74 56 30 58 62 59 42 60 61 61 43 62 46 63 60 64 79 65 44 66
REMARK SMILES IDX 45 67 59 69 80 70 47 71 31 72 32 73 40 74 33 75 39 76 41 77
REMARK SMILES IDX 38 78 34 79 35 80 36 81 37 82 63 83 64 84 72 85 65 86 71 87
REMARK SMILES IDX 73 88 70 89 66 90 67 91 68 92 69 93 48 94 49 95 57 96 50 97
REMARK SMILES IDX 56 98 58 99 55 100 51 101 52 102 53 103 54 104
REMARK H PARENT 12 6 85 17 19 38 78 57 46 68
REMARK Flexibility Score: inf
ROOT
ATOM      1  C   UNL A   1      33.455  27.443  25.595  1.00  0.00     0.021 C 
ENDROOT
BRANCH   1   2
ATOM      2  C   UNL A   1      33.337  25.911  25.597  1.00  0.00     0.116 C 
BRANCH   2   3
ATOM      3  N   UNL A   1      34.595  25.193  25.426  1.00  0.00    -0.352 N 
ATOM      4  C   UNL A   1      34.915  23.980  24.867  1.00  0.00     0.251 C 
ATOM      5  O   UNL A   1      36.092  23.748  24.594  1.00  0.00    -0.269 OA
ATOM      6  H   UNL A   1      35.374  25.677  25.785  1.00  0.00     0.163 HD
BRANCH   4   7
ATOM      7  C   UNL A   1      33.892  22.968  24.511  1.00  0.00     0.043 A 
ATOM      8  C   UNL A   1      33.369  22.746  23.231  1.00  0.00    -0.026 A 
ATOM      9  C   UNL A   1      32.629  21.561  23.019  1.00  0.00     0.005 A 
ATOM     10  C   UNL A   1      32.182  20.783  24.084  1.00  0.00     0.000 A 
ATOM     11  C   UNL A   1      33.355  22.240  25.591  1.00  0.00     0.014 A 
ATOM     12  C   UNL A   1      32.473  21.178  25.380  1.00  0.00     0.001 A 
BRANCH   8  13
ATOM     13  C   UNL A   1      33.394  23.695  22.056  1.00  0.00     0.136 C 
BRANCH  13  14
ATOM     14  C   UNL A   1      32.770  25.070  22.161  1.00  0.00     0.228 C 
ATOM     15  O   UNL A   1      33.450  26.061  21.882  1.00  0.00    -0.274 OA
ATOM     16  N   UNL A   1      31.407  25.153  22.402  1.00  0.00    -0.326 N 
ATOM     17  H   UNL A   1      30.858  24.338  22.357  1.00  0.00     0.169 HD
BRANCH  16  18
ATOM     18  C   UNL A   1      30.792  26.392  22.712  1.00  0.00     0.041 A 
ATOM     19  C   UNL A   1      29.673  26.459  23.539  1.00  0.00     0.027 A 
ATOM     20  C   UNL A   1      31.293  27.578  22.174  1.00  0.00     0.027 A 
ATOM     21  C   UNL A   1      28.999  27.685  23.701  1.00  0.00     0.024 A 
ATOM     22  C   UNL A   1      30.653  28.801  22.351  1.00  0.00     0.024 A 
ATOM     23  C   UNL A   1      29.479  28.855  23.085  1.00  0.00     0.082 A 
BRANCH  23  24
ATOM     24  S   UNL A   1      28.562  30.376  23.257  1.00  0.00     0.243 S 
ATOM     25  O   UNL A   1      27.166  29.997  23.374  1.00  0.00    -0.207 OA
ATOM     26  O   UNL A   1      29.220  31.132  24.299  1.00  0.00    -0.207 OA
BRANCH  24  27
ATOM     27  N   UNL A   1      28.714  31.233  21.818  1.00  0.00    -0.198 NA
ATOM     28  C   UNL A   1      28.773  32.699  21.793  1.00  0.00     0.102 C 
ATOM     29  C   UNL A   1      28.158  30.727  20.554  1.00  0.00     0.102 C 
ATOM     30  C   UNL A   1      27.679  33.100  20.821  1.00  0.00     0.018 C 
ATOM     31  C   UNL A   1      27.617  31.956  19.821  1.00  0.00     0.018 C 
ENDBRANCH  24  27
ENDBRANCH  23  24
ENDBRANCH  16  18
ENDBRANCH  13  14
ENDBRANCH   8  13
ENDBRANCH   4   7
ENDBRANCH   2   3
ENDBRANCH   1   2
BRANCH   1  32
ATOM     32  C   UNL A   1      32.188  28.227  25.963  1.00  0.00     0.002 C 
BRANCH  32  33
ATOM     33  C   UNL A   1      32.135  29.684  25.520  1.00  0.00     0.002 C 
BRANCH  33  34
ATOM     34  C   UNL A   1      31.805  30.667  26.639  1.00  0.00     0.021 C 
BRANCH  34  35
ATOM     35  C   UNL A   1      32.997  31.473  27.143  1.00  0.00     0.116 C 
BRANCH  35  36
ATOM     36  N   UNL A   1      32.704  32.898  27.203  1.00  0.00    -0.352 N 
ATOM     37  C   UNL A   1      33.235  33.814  28.083  1.00  0.00     0.251 C 
ATOM     38  H   UNL A   1      32.057  33.244  26.545  1.00  0.00     0.163 HD
ATOM     39  O   UNL A   1      32.762  34.937  28.198  1.00  0.00    -0.269 OA
BRANCH  37  40
ATOM     40  C   UNL A   1      34.390  33.378  28.890  1.00  0.00     0.039 A 
ATOM     41  C   UNL A   1      34.181  32.697  30.088  1.00  0.00     0.014 A 
ATOM     42  C   UNL A   1      35.677  33.534  28.362  1.00  0.00     0.014 A 
ATOM     43  C   UNL A   1      35.274  32.125  30.742  1.00  0.00     0.010 A 
ATOM     44  C   UNL A   1      36.747  32.897  28.976  1.00  0.00     0.010 A 
ATOM     45  C   UNL A   1      36.559  32.196  30.177  1.00  0.00    -0.014 A 
BRANCH  45  46
ATOM     46  C   UNL A   1      37.729  31.573  30.849  1.00  0.00     0.031 A 
ATOM     47  C   UNL A   1      38.525  30.523  30.124  1.00  0.00     0.074 A 
ATOM     48  C   UNL A   1      38.044  31.916  32.114  1.00  0.00     0.049 A 
ATOM     49  N   UNL A   1      39.550  29.825  30.541  1.00  0.00    -0.248 NA
ATOM     50  C   UNL A   1      38.089  30.191  28.759  1.00  0.00     0.031 C 
ATOM     51  C   UNL A   1      37.318  32.892  32.931  1.00  0.00     0.029 A 
ATOM     52  N   UNL A   1      39.054  31.486  32.937  1.00  0.00    -0.354 N 
ATOM     53  C   UNL A   1      39.874  28.969  29.494  1.00  0.00     0.074 A 
ATOM     54  C   UNL A   1      38.889  29.182  28.457  1.00  0.00     0.031 C 
ATOM     55  C   UNL A   1      37.929  33.010  34.121  1.00  0.00     0.029 A 
ATOM     56  C   UNL A   1      39.058  32.086  34.175  1.00  0.00     0.049 A 
ATOM     57  H   UNL A   1      39.716  30.809  32.666  1.00  0.00     0.167 HD
ATOM     58  C   UNL A   1      40.917  28.109  29.393  1.00  0.00     0.034 A 
ATOM     59  C   UNL A   1      39.872  31.906  35.233  1.00  0.00     0.034 A 
ATOM     60  C   UNL A   1      41.893  27.918  30.438  1.00  0.00     0.049 A 
ATOM     61  C   UNL A   1      41.005  30.914  35.115  1.00  0.00     0.074 A 
ATOM     62  C   UNL A   1      43.015  27.110  30.430  1.00  0.00     0.029 A 
ATOM     63  N   UNL A   1      41.856  28.534  31.683  1.00  0.00    -0.354 N 
ATOM     64  N   UNL A   1      41.331  30.150  34.097  1.00  0.00    -0.248 NA
ATOM     65  C   UNL A   1      41.884  30.769  36.282  1.00  0.00     0.031 C 
ATOM     66  C   UNL A   1      43.608  27.174  31.694  1.00  0.00     0.029 A 
ATOM     67  C   UNL A   1      42.915  28.096  32.462  1.00  0.00     0.049 A 
ATOM     68  H   UNL A   1      41.177  29.188  31.969  1.00  0.00     0.167 HD
ATOM     69  C   UNL A   1      42.477  29.463  34.489  1.00  0.00     0.074 A 
ATOM     70  C   UNL A   1      42.788  29.912  35.831  1.00  0.00     0.031 C 
ATOM     71  C   UNL A   1      43.209  28.549  33.802  1.00  0.00     0.034 A 
BRANCH  58  72
ATOM     72  C   UNL A   1      41.029  27.296  28.124  1.00  0.00     0.023 A 
ATOM     73  C   UNL A   1      40.665  25.939  28.081  1.00  0.00     0.031 A 
ATOM     74  C   UNL A   1      41.540  27.876  26.950  1.00  0.00     0.131 A 
ATOM     75  C   UNL A   1      40.894  25.188  26.919  1.00  0.00     0.055 A 
ATOM     76  C   UNL A   1      41.680  27.145  25.768  1.00  0.00     0.041 A 
ATOM     77  F   UNL A   1      41.931  29.160  26.934  1.00  0.00    -0.206 F 
ATOM     78  C   UNL A   1      41.371  25.788  25.753  1.00  0.00     0.022 A 
BRANCH  75  79
ATOM     79  S   UNL A   1      40.712  23.385  27.005  1.00  0.00     0.124 S 
ATOM     80  O   UNL A   1      39.287  23.219  26.728  1.00  0.00    -0.237 OA
ATOM     81  O   UNL A   1      41.624  22.926  25.962  1.00  0.00    -0.237 OA
ATOM     82  O   UNL A   1      41.115  23.065  28.372  1.00  0.00    -0.744 OA
ENDBRANCH  75  79
ENDBRANCH  58  72
BRANCH  59  83
ATOM     83  C   UNL A   1      39.653  32.667  36.499  1.00  0.00     0.023 A 
ATOM     84  C   UNL A   1      38.722  32.233  37.457  1.00  0.00     0.031 A 
ATOM     85  C   UNL A   1      40.340  33.868  36.750  1.00  0.00     0.131 A 
ATOM     86  C   UNL A   1      38.467  33.018  38.593  1.00  0.00     0.055 A 
ATOM     87  C   UNL A   1      40.127  34.614  37.911  1.00  0.00     0.041 A 
ATOM     88  F   UNL A   1      41.242  34.332  35.870  1.00  0.00    -0.206 F 
ATOM     89  C   UNL A   1      39.175  34.196  38.835  1.00  0.00     0.022 A 
BRANCH  86  90
ATOM     90  S   UNL A   1      37.122  32.524  39.707  1.00  0.00     0.124 S 
ATOM     91  O   UNL A   1      35.951  32.709  38.858  1.00  0.00    -0.237 OA
ATOM     92  O   UNL A   1      37.478  31.144  40.017  1.00  0.00    -0.237 OA
ATOM     93  O   UNL A   1      37.242  33.462  40.821  1.00  0.00    -0.744 OA
ENDBRANCH  86  90
ENDBRANCH  59  83
BRANCH  71  94
ATOM     94  C   UNL A   1      44.452  28.015  34.472  1.00  0.00     0.023 A 
ATOM     95  C   UNL A   1      44.440  26.836  35.235  1.00  0.00     0.031 A 
ATOM     96  C   UNL A   1      45.673  28.703  34.338  1.00  0.00     0.131 A 
ATOM     97  C   UNL A   1      45.610  26.409  35.882  1.00  0.00     0.055 A 
ATOM     98  C   UNL A   1      46.849  28.236  34.926  1.00  0.00     0.041 A 
ATOM     99  F   UNL A   1      45.744  29.838  33.624  1.00  0.00    -0.206 F 
ATOM    100  C   UNL A   1      46.819  27.090  35.714  1.00  0.00     0.022 A 
BRANCH  97 101
ATOM    101  S   UNL A   1      45.511  25.008  37.029  1.00  0.00     0.124 S 
ATOM    102  O   UNL A   1      46.781  25.108  37.740  1.00  0.00    -0.237 OA
ATOM    103  O   UNL A   1      44.318  25.325  37.807  1.00  0.00    -0.237 OA
ATOM    104  O   UNL A   1      45.384  23.850  36.145  1.00  0.00    -0.744 OA
ENDBRANCH  97 101
ENDBRANCH  71  94
ENDBRANCH  45  46
ENDBRANCH  37  40
ENDBRANCH  35  36
ENDBRANCH  34  35
ENDBRANCH  33  34
ENDBRANCH  32  33
ENDBRANCH   1  32
TORSDOF 21
ENDMDL
MODEL 3
REMARK VINA RESULT:     -11.7      5.751      9.278
REMARK SMILES O=C(Cc1ccccc1C(=O)NCCCCCCNC(=O)c1ccc(-c2c3nc(c(-c4cc(S(=O)(=O)[O-])ccc4F)c4ccc([nH]4)c(-c4cc(S(=O)(=O)[O-])ccc4F)c4nc(c(-c5cc(S(=O)(=O)[O-])ccc5F)c5ccc2[nH]5)C=C4)C=C3)cc1)Nc1ccc(S(=O)(=O)N2CCCC2)cc1
REMARK SMILES IDX 14 1 13 2 12 3 10 4 11 5 9 7 4 8 5 9 6 10 8 11 7 12 3 13
REMARK SMILES IDX 2 14 1 15 85 16 86 18 87 19 99 20 88 21 98 22 89 23 90 24
REMARK SMILES IDX 91 25 92 26 93 27 94 28 97 29 95 30 96 31 15 32 16 33 17 34
REMARK SMILES IDX 18 35 19 36 20 37 21 39 22 40 23 41 84 42 24 43 83 44 25 45
REMARK SMILES IDX 26 46 27 47 77 48 28 49 82 50 76 51 78 52 29 53 81 54 75 55
REMARK SMILES IDX 74 56 30 58 62 59 42 60 61 61 43 62 46 63 60 64 79 65 44 66
REMARK SMILES IDX 45 67 59 69 80 70 47 71 31 72 32 73 40 74 33 75 39 76 41 77
REMARK SMILES IDX 38 78 34 79 35 80 36 81 37 82 63 83 64 84 72 85 65 86 71 87
REMARK SMILES IDX 73 88 70 89 66 90 67 91 68 92 69 93 48 94 49 95 57 96 50 97
REMARK SMILES IDX 56 98 58 99 55 100 51 101 52 102 53 103 54 104
REMARK H PARENT 12 6 85 17 19 38 78 57 46 68
REMARK Flexibility Score: inf
ROOT
ATOM      1  C   UNL A   1      35.380  23.187  26.080  1.00  0.00     0.021 C 
ENDROOT
BRANCH   1   2
ATOM      2  C   UNL A   1      35.088  24.514  25.364  1.00  0.00     0.116 C 
BRANCH   2   3
ATOM      3  N   UNL A   1      34.282  24.399  24.153  1.00  0.00    -0.352 N 
ATOM      4  C   UNL A   1      32.929  24.340  23.929  1.00  0.00     0.251 C 
ATOM      5  O   UNL A   1      32.509  24.539  22.789  1.00  0.00    -0.269 OA
ATOM      6  H   UNL A   1      34.818  24.355  23.328  1.00  0.00     0.163 HD
BRANCH   4   7
ATOM      7  C   UNL A   1      31.946  24.120  25.017  1.00  0.00     0.043 A 
ATOM      8  C   UNL A   1      30.932  25.007  25.398  1.00  0.00    -0.026 A 
ATOM      9  C   UNL A   1      29.913  24.518  26.248  1.00  0.00     0.005 A 
ATOM     10  C   UNL A   1      30.048  23.305  26.918  1.00  0.00     0.000 A 
ATOM     11  C   UNL A   1      32.127  22.944  25.772  1.00  0.00     0.014 A 
ATOM     12  C   UNL A   1      31.203  22.559  26.746  1.00  0.00     0.001 A 
BRANCH   8  13
ATOM     13  C   UNL A   1      30.856  26.488  25.108  1.00  0.00     0.136 C 
BRANCH  13  14
ATOM     14  C   UNL A   1      31.447  27.494  26.072  1.00  0.00     0.228 C 
ATOM     15  O   UNL A   1      31.254  27.353  27.282  1.00  0.00    -0.274 OA
ATOM     16  N   UNL A   1      32.326  28.442  25.569  1.00  0.00    -0.326 N 
ATOM     17  H   UNL A   1      32.654  28.355  24.646  1.00  0.00     0.169 HD
BRANCH  16  18
ATOM     18  C   UNL A   1      32.760  29.533  26.363  1.00  0.00     0.041 A 
ATOM     19  C   UNL A   1      31.985  30.681  26.505  1.00  0.00     0.027 A 
ATOM     20  C   UNL A   1      33.995  29.481  27.012  1.00  0.00     0.027 A 
ATOM     21  C   UNL A   1      32.514  31.801  27.174  1.00  0.00     0.024 A 
ATOM     22  C   UNL A   1      34.516  30.571  27.702  1.00  0.00     0.024 A 
ATOM     23  C   UNL A   1      33.794  31.752  27.754  1.00  0.00     0.082 A 
BRANCH  23  24
ATOM     24  S   UNL A   1      34.460  33.211  28.536  1.00  0.00     0.243 S 
ATOM     25  O   UNL A   1      35.212  33.914  27.511  1.00  0.00    -0.207 OA
ATOM     26  O   UNL A   1      33.356  33.848  29.218  1.00  0.00    -0.207 OA
BRANCH  24  27
ATOM     27  N   UNL A   1      35.570  32.712  29.696  1.00  0.00    -0.198 NA
ATOM     28  C   UNL A   1      35.144  32.122  30.970  1.00  0.00     0.102 C 
ATOM     29  C   UNL A   1      36.874  33.374  29.855  1.00  0.00     0.102 C 
ATOM     30  C   UNL A   1      35.843  32.963  32.023  1.00  0.00     0.018 C 
ATOM     31  C   UNL A   1      37.138  33.405  31.361  1.00  0.00     0.018 C 
ENDBRANCH  24  27
ENDBRANCH  23  24
ENDBRANCH  16  18
ENDBRANCH  13  14
ENDBRANCH   8  13
ENDBRANCH   4   7
ENDBRANCH   2   3
ENDBRANCH   1   2
BRANCH   1  32
ATOM     32  C   UNL A   1      35.920  22.044  25.209  1.00  0.00     0.002 C 
BRANCH  32  33
ATOM     33  C   UNL A   1      37.406  22.083  24.877  1.00  0.00     0.002 C 
BRANCH  33  34
ATOM     34  C   UNL A   1      38.144  20.776  25.152  1.00  0.00     0.021 C 
BRANCH  34  35
ATOM     35  C   UNL A   1      39.335  20.911  26.093  1.00  0.00     0.116 C 
BRANCH  35  36
ATOM     36  N   UNL A   1      40.171  19.717  26.087  1.00  0.00    -0.352 N 
ATOM     37  C   UNL A   1      41.546  19.673  26.051  1.00  0.00     0.251 C 
ATOM     38  H   UNL A   1      39.703  18.851  26.111  1.00  0.00     0.163 HD
ATOM     39  O   UNL A   1      42.146  18.629  25.824  1.00  0.00    -0.269 OA
BRANCH  37  40
ATOM     40  C   UNL A   1      42.266  20.939  26.284  1.00  0.00     0.039 A 
ATOM     41  C   UNL A   1      42.575  21.770  25.207  1.00  0.00     0.014 A 
ATOM     42  C   UNL A   1      42.498  21.349  27.602  1.00  0.00     0.014 A 
ATOM     43  C   UNL A   1      43.081  23.046  25.459  1.00  0.00     0.010 A 
ATOM     44  C   UNL A   1      42.927  22.646  27.847  1.00  0.00     0.010 A 
ATOM     45  C   UNL A   1      43.234  23.504  26.779  1.00  0.00    -0.014 A 
BRANCH  45  46
ATOM     46  C   UNL A   1      43.750  24.868  27.063  1.00  0.00     0.031 A 
ATOM     47  C   UNL A   1      42.826  25.901  27.648  1.00  0.00     0.074 A 
ATOM     48  C   UNL A   1      45.023  25.186  26.757  1.00  0.00     0.049 A 
ATOM     49  N   UNL A   1      43.059  27.156  27.931  1.00  0.00    -0.248 NA
ATOM     50  C   UNL A   1      41.446  25.471  27.921  1.00  0.00     0.031 C 
ATOM     51  C   UNL A   1      45.999  24.278  26.148  1.00  0.00     0.029 A 
ATOM     52  N   UNL A   1      45.720  26.359  26.915  1.00  0.00    -0.354 N 
ATOM     53  C   UNL A   1      41.856  27.666  28.406  1.00  0.00     0.074 A 
ATOM     54  C   UNL A   1      40.879  26.605  28.298  1.00  0.00     0.031 C 
ATOM     55  C   UNL A   1      47.173  24.917  26.019  1.00  0.00     0.029 A 
ATOM     56  C   UNL A   1      47.026  26.292  26.487  1.00  0.00     0.049 A 
ATOM     57  H   UNL A   1      45.320  27.172  27.299  1.00  0.00     0.167 HD
ATOM     58  C   UNL A   1      41.598  28.895  28.916  1.00  0.00     0.034 A 
ATOM     59  C   UNL A   1      47.990  27.234  26.467  1.00  0.00     0.034 A 
ATOM     60  C   UNL A   1      42.590  29.936  29.021  1.00  0.00     0.049 A 
ATOM     61  C   UNL A   1      47.670  28.609  27.004  1.00  0.00     0.074 A 
ATOM     62  C   UNL A   1      42.455  31.202  29.561  1.00  0.00     0.029 A 
ATOM     63  N   UNL A   1      43.899  29.836  28.565  1.00  0.00    -0.354 N 
ATOM     64  N   UNL A   1      46.540  29.060  27.500  1.00  0.00    -0.248 NA
ATOM     65  C   UNL A   1      48.757  29.596  26.989  1.00  0.00     0.031 C 
ATOM     66  C   UNL A   1      43.653  31.893  29.359  1.00  0.00     0.029 A 
ATOM     67  C   UNL A   1      44.570  31.029  28.780  1.00  0.00     0.049 A 
ATOM     68  H   UNL A   1      44.293  29.034  28.152  1.00  0.00     0.167 HD
ATOM     69  C   UNL A   1      46.794  30.372  27.891  1.00  0.00     0.074 A 
ATOM     70  C   UNL A   1      48.185  30.633  27.582  1.00  0.00     0.031 C 
ATOM     71  C   UNL A   1      45.957  31.277  28.459  1.00  0.00     0.034 A 
BRANCH  58  72
ATOM     72  C   UNL A   1      40.183  29.178  29.366  1.00  0.00     0.023 A 
ATOM     73  C   UNL A   1      39.813  29.117  30.722  1.00  0.00     0.031 A 
ATOM     74  C   UNL A   1      39.183  29.479  28.426  1.00  0.00     0.131 A 
ATOM     75  C   UNL A   1      38.467  29.270  31.088  1.00  0.00     0.055 A 
ATOM     76  C   UNL A   1      37.861  29.722  28.807  1.00  0.00     0.041 A 
ATOM     77  F   UNL A   1      39.467  29.526  27.115  1.00  0.00    -0.206 F 
ATOM     78  C   UNL A   1      37.494  29.601  30.144  1.00  0.00     0.022 A 
BRANCH  75  79
ATOM     79  S   UNL A   1      37.984  28.869  32.790  1.00  0.00     0.124 S 
ATOM     80  O   UNL A   1      38.131  27.415  32.802  1.00  0.00    -0.237 OA
ATOM     81  O   UNL A   1      38.958  29.616  33.579  1.00  0.00    -0.237 OA
ATOM     82  O   UNL A   1      36.607  29.350  32.878  1.00  0.00    -0.744 OA
ENDBRANCH  75  79
ENDBRANCH  58  72
BRANCH  59  83
ATOM     83  C   UNL A   1      49.343  26.923  25.918  1.00  0.00     0.023 A 
ATOM     84  C   UNL A   1      49.760  27.436  24.679  1.00  0.00     0.031 A 
ATOM     85  C   UNL A   1      50.226  26.072  26.606  1.00  0.00     0.131 A 
ATOM     86  C   UNL A   1      51.000  27.052  24.143  1.00  0.00     0.055 A 
ATOM     87  C   UNL A   1      51.483  25.742  26.097  1.00  0.00     0.041 A 
ATOM     88  F   UNL A   1      49.882  25.553  27.796  1.00  0.00    -0.206 F 
ATOM     89  C   UNL A   1      51.871  26.222  24.851  1.00  0.00     0.022 A 
BRANCH  86  90
ATOM     90  S   UNL A   1      51.418  27.577  22.457  1.00  0.00     0.124 S 
ATOM     91  O   UNL A   1      50.618  26.659  21.654  1.00  0.00    -0.237 OA
ATOM     92  O   UNL A   1      50.988  28.971  22.459  1.00  0.00    -0.237 OA
ATOM     93  O   UNL A   1      52.863  27.373  22.386  1.00  0.00    -0.744 OA
ENDBRANCH  86  90
ENDBRANCH  59  83
BRANCH  71  94
ATOM     94  C   UNL A   1      46.540  32.618  28.835  1.00  0.00     0.023 A 
ATOM     95  C   UNL A   1      46.604  33.685  27.924  1.00  0.00     0.031 A 
ATOM     96  C   UNL A   1      47.040  32.828  30.134  1.00  0.00     0.131 A 
ATOM     97  C   UNL A   1      47.204  34.895  28.305  1.00  0.00     0.055 A 
ATOM     98  C   UNL A   1      47.572  34.056  30.528  1.00  0.00     0.041 A 
ATOM     99  F   UNL A   1      47.010  31.843  31.047  1.00  0.00    -0.206 F 
ATOM    100  C   UNL A   1      47.669  35.094  29.608  1.00  0.00     0.022 A 
BRANCH  97 101
ATOM    101  S   UNL A   1      47.462  36.174  27.045  1.00  0.00     0.124 S 
ATOM    102  O   UNL A   1      48.215  37.180  27.786  1.00  0.00    -0.237 OA
ATOM    103  O   UNL A   1      48.204  35.453  26.016  1.00  0.00    -0.237 OA
ATOM    104  O   UNL A   1      46.105  36.565  26.671  1.00  0.00    -0.744 OA
ENDBRANCH  97 101
ENDBRANCH  71  94
ENDBRANCH  45  46
ENDBRANCH  37  40
ENDBRANCH  35  36
ENDBRANCH  34  35
ENDBRANCH  33  34
ENDBRANCH  32  33
ENDBRANCH   1  32
TORSDOF 21
ENDMDL
