MODEL 1
REMARK VINA RESULT:     -11.8      0.000      0.000
REMARK SMILES O=C(NCCCCCCNC(=O)c1ccc(-c2ccn(C(F)F)c(=O)c2)cc1O)c1ccc(-c2c3nc(c(-c4cc(S(=O)(=O)[O-])ccc4F)c4ccc([nH]4)c(-c4cc(S(=O)(=O)[O-])ccc4F)c4nc(c(-c5cc(S(=O)(=O)[O-])ccc5F)c5ccc2[nH]5)C=C4)C=C3)cc1
REMARK SMILES IDX 6 1 5 2 4 3 3 4 1 5 2 6 30 8 31 9 92 10 32 11 91 12 33 13
REMARK SMILES IDX 34 14 35 15 85 16 36 17 90 18 84 19 86 20 37 21 89 22 83 23
REMARK SMILES IDX 82 24 38 26 70 27 50 28 69 29 51 30 54 31 68 32 87 33 52 34
REMARK SMILES IDX 53 35 67 37 88 38 55 39 39 40 40 41 48 42 41 43 47 44 49 45
REMARK SMILES IDX 46 46 42 47 43 48 44 49 45 50 71 51 72 52 80 53 73 54 79 55
REMARK SMILES IDX 81 56 78 57 74 58 75 59 76 60 77 61 56 62 57 63 65 64 58 65
REMARK SMILES IDX 64 66 66 67 63 68 59 69 60 70 61 71 62 72 7 73 8 74 9 75
REMARK SMILES IDX 10 76 11 77 12 79 13 80 14 81 28 82 15 83 27 84 16 85 29 86
REMARK SMILES IDX 17 88 18 89 26 90 19 91 24 92 20 93 25 94 21 95 22 96 23 97
REMARK H PARENT 3 7 86 25 54 36 10 78 29 87
REMARK Flexibility Score: inf
ROOT
ATOM      1  C   UNL A   1      35.258  24.088  24.304  1.00  0.00     0.002 C 
ENDROOT
BRANCH   1   2
ATOM      2  C   UNL A   1      35.682  22.638  24.555  1.00  0.00     0.021 C 
BRANCH   2   3
ATOM      3  C   UNL A   1      36.351  22.377  25.902  1.00  0.00     0.116 C 
BRANCH   3   4
ATOM      4  N   UNL A   1      37.372  21.348  25.817  1.00  0.00    -0.352 N 
ATOM      5  O   UNL A   1      39.447  20.495  25.685  1.00  0.00    -0.269 OA
ATOM      6  C   UNL A   1      38.729  21.451  25.979  1.00  0.00     0.251 C 
ATOM      7  H   UNL A   1      37.042  20.443  25.611  1.00  0.00     0.163 HD
BRANCH   6   8
ATOM      8  C   UNL A   1      39.337  22.696  26.499  1.00  0.00     0.039 A 
ATOM      9  C   UNL A   1      39.002  23.910  25.892  1.00  0.00     0.014 A 
ATOM     10  C   UNL A   1      40.281  22.669  27.531  1.00  0.00     0.014 A 
ATOM     11  C   UNL A   1      39.602  25.096  26.323  1.00  0.00     0.010 A 
ATOM     12  C   UNL A   1      40.830  23.859  28.004  1.00  0.00     0.010 A 
ATOM     13  C   UNL A   1      40.519  25.079  27.386  1.00  0.00    -0.014 A 
BRANCH  13  14
ATOM     14  C   UNL A   1      41.206  26.321  27.825  1.00  0.00     0.031 A 
ATOM     15  C   UNL A   1      40.443  27.370  28.584  1.00  0.00     0.074 A 
ATOM     16  C   UNL A   1      42.497  26.524  27.505  1.00  0.00     0.049 A 
ATOM     17  N   UNL A   1      40.851  28.535  29.019  1.00  0.00    -0.248 NA
ATOM     18  C   UNL A   1      39.028  27.085  28.874  1.00  0.00     0.031 C 
ATOM     19  C   UNL A   1      43.327  25.592  26.745  1.00  0.00     0.029 A 
ATOM     20  N   UNL A   1      43.335  27.580  27.771  1.00  0.00    -0.354 N 
ATOM     21  C   UNL A   1      39.743  29.125  29.616  1.00  0.00     0.074 A 
ATOM     22  C   UNL A   1      38.633  28.217  29.436  1.00  0.00     0.031 C 
ATOM     23  C   UNL A   1      44.560  26.105  26.623  1.00  0.00     0.029 A 
ATOM     24  C   UNL A   1      44.600  27.423  27.257  1.00  0.00     0.049 A 
ATOM     25  H   UNL A   1      43.055  28.375  28.280  1.00  0.00     0.167 HD
ATOM     26  C   UNL A   1      39.668  30.304  30.277  1.00  0.00     0.034 A 
ATOM     27  C   UNL A   1      45.671  28.244  27.286  1.00  0.00     0.034 A 
ATOM     28  C   UNL A   1      40.792  31.181  30.476  1.00  0.00     0.049 A 
ATOM     29  C   UNL A   1      45.568  29.555  28.023  1.00  0.00     0.074 A 
ATOM     30  C   UNL A   1      40.838  32.355  31.205  1.00  0.00     0.029 A 
ATOM     31  N   UNL A   1      42.060  30.988  29.946  1.00  0.00    -0.354 N 
ATOM     32  N   UNL A   1      44.541  30.057  28.668  1.00  0.00    -0.248 NA
ATOM     33  C   UNL A   1      46.762  30.411  28.046  1.00  0.00     0.031 C 
ATOM     34  C   UNL A   1      42.111  32.908  31.058  1.00  0.00     0.029 A 
ATOM     35  C   UNL A   1      42.886  32.042  30.300  1.00  0.00     0.049 A 
ATOM     36  H   UNL A   1      42.333  30.216  29.399  1.00  0.00     0.167 HD
ATOM     37  C   UNL A   1      44.968  31.276  29.188  1.00  0.00     0.074 A 
ATOM     38  C   UNL A   1      46.356  31.425  28.801  1.00  0.00     0.031 C 
ATOM     39  C   UNL A   1      44.271  32.186  29.915  1.00  0.00     0.034 A 
BRANCH  26  40
ATOM     40  C   UNL A   1      38.338  30.719  30.862  1.00  0.00     0.023 A 
ATOM     41  C   UNL A   1      37.419  31.439  30.077  1.00  0.00     0.031 A 
ATOM     42  C   UNL A   1      38.026  30.498  32.215  1.00  0.00     0.131 A 
ATOM     43  C   UNL A   1      36.242  31.931  30.657  1.00  0.00     0.055 A 
ATOM     44  C   UNL A   1      36.832  30.951  32.778  1.00  0.00     0.041 A 
ATOM     45  F   UNL A   1      38.872  29.821  33.010  1.00  0.00    -0.206 F 
ATOM     46  C   UNL A   1      35.940  31.682  32.000  1.00  0.00     0.022 A 
BRANCH  43  47
ATOM     47  S   UNL A   1      35.093  32.968  29.713  1.00  0.00     0.124 S 
ATOM     48  O   UNL A   1      35.914  34.145  29.435  1.00  0.00    -0.237 OA
ATOM     49  O   UNL A   1      34.800  32.126  28.558  1.00  0.00    -0.237 OA
ATOM     50  O   UNL A   1      33.982  33.189  30.632  1.00  0.00    -0.744 OA
ENDBRANCH  43  47
ENDBRANCH  26  40
BRANCH  27  51
ATOM     51  C   UNL A   1      46.941  27.786  26.648  1.00  0.00     0.023 A 
ATOM     52  C   UNL A   1      47.190  28.024  25.283  1.00  0.00     0.031 A 
ATOM     53  C   UNL A   1      47.844  26.975  27.354  1.00  0.00     0.131 A 
ATOM     54  C   UNL A   1      48.264  27.385  24.650  1.00  0.00     0.055 A 
ATOM     55  C   UNL A   1      48.955  26.400  26.735  1.00  0.00     0.041 A 
ATOM     56  F   UNL A   1      47.641  26.710  28.653  1.00  0.00    -0.206 F 
ATOM     57  C   UNL A   1      49.158  26.586  25.370  1.00  0.00     0.022 A 
BRANCH  54  58
ATOM     58  S   UNL A   1      48.449  27.447  22.845  1.00  0.00     0.124 S 
ATOM     59  O   UNL A   1      47.336  28.306  22.451  1.00  0.00    -0.237 OA
ATOM     60  O   UNL A   1      49.780  28.032  22.703  1.00  0.00    -0.237 OA
ATOM     61  O   UNL A   1      48.340  26.050  22.437  1.00  0.00    -0.744 OA
ENDBRANCH  54  58
ENDBRANCH  27  51
BRANCH  39  62
ATOM     62  C   UNL A   1      44.964  33.457  30.350  1.00  0.00     0.023 A 
ATOM     63  C   UNL A   1      45.226  34.474  29.410  1.00  0.00     0.031 A 
ATOM     64  C   UNL A   1      45.522  33.580  31.634  1.00  0.00     0.131 A 
ATOM     65  C   UNL A   1      46.069  35.539  29.750  1.00  0.00     0.055 A 
ATOM     66  C   UNL A   1      46.320  34.671  31.985  1.00  0.00     0.041 A 
ATOM     67  F   UNL A   1      45.310  32.634  32.561  1.00  0.00    -0.206 F 
ATOM     68  C   UNL A   1      46.612  35.646  31.034  1.00  0.00     0.022 A 
BRANCH  65  69
ATOM     69  S   UNL A   1      46.577  36.765  28.513  1.00  0.00     0.124 S 
ATOM     70  O   UNL A   1      46.763  37.961  29.332  1.00  0.00    -0.237 OA
ATOM     71  O   UNL A   1      47.802  36.177  27.981  1.00  0.00    -0.237 OA
ATOM     72  O   UNL A   1      45.451  36.818  27.586  1.00  0.00    -0.744 OA
ENDBRANCH  65  69
ENDBRANCH  39  62
ENDBRANCH  13  14
ENDBRANCH   6   8
ENDBRANCH   3   4
ENDBRANCH   2   3
ENDBRANCH   1   2
BRANCH   1  73
ATOM     73  C   UNL A   1      34.712  24.839  25.522  1.00  0.00     0.002 C 
BRANCH  73  74
ATOM     74  C   UNL A   1      33.944  26.127  25.214  1.00  0.00     0.021 C 
BRANCH  74  75
ATOM     75  C   UNL A   1      32.837  26.473  26.207  1.00  0.00     0.116 C 
BRANCH  75  76
ATOM     76  N   UNL A   1      31.575  26.763  25.548  1.00  0.00    -0.352 N 
ATOM     77  C   UNL A   1      30.751  25.897  24.875  1.00  0.00     0.255 C 
ATOM     78  H   UNL A   1      31.273  27.699  25.588  1.00  0.00     0.163 HD
ATOM     79  O   UNL A   1      29.741  26.309  24.304  1.00  0.00    -0.269 OA
BRANCH  77  80
ATOM     80  C   UNL A   1      31.117  24.471  24.764  1.00  0.00     0.081 A 
ATOM     81  C   UNL A   1      31.537  24.009  23.512  1.00  0.00     0.018 A 
ATOM     82  C   UNL A   1      31.057  23.593  25.851  1.00  0.00     0.128 A 
ATOM     83  C   UNL A   1      31.944  22.681  23.359  1.00  0.00     0.010 A 
ATOM     84  C   UNL A   1      31.472  22.270  25.700  1.00  0.00     0.055 A 
ATOM     85  C   UNL A   1      31.927  21.807  24.455  1.00  0.00    -0.014 A 
BRANCH  82  86
ATOM     86  O   UNL A   1      30.602  24.022  27.065  1.00  0.00    -0.507 OA
ATOM     87  H   UNL A   1      30.860  24.860  27.393  1.00  0.00     0.293 HD
ENDBRANCH  82  86
BRANCH  85  88
ATOM     88  C   UNL A   1      32.373  20.406  24.331  1.00  0.00    -0.011 A 
ATOM     89  C   UNL A   1      33.137  19.741  25.369  1.00  0.00     0.027 A 
ATOM     90  C   UNL A   1      32.115  19.746  23.188  1.00  0.00     0.080 A 
ATOM     91  C   UNL A   1      33.623  18.511  25.175  1.00  0.00     0.095 A 
ATOM     92  C   UNL A   1      32.614  18.359  22.976  1.00  0.00     0.255 A 
ATOM     93  N   UNL A   1      33.385  17.829  23.997  1.00  0.00    -0.258 N 
ATOM     94  O   UNL A   1      32.324  17.785  21.928  1.00  0.00    -0.269 OA
BRANCH  93  95
ATOM     95  C   UNL A   1      33.939  16.518  23.787  1.00  0.00     0.451 C 
ATOM     96  F   UNL A   1      35.106  16.366  24.459  1.00  0.00    -0.185 F 
ATOM     97  F   UNL A   1      33.085  15.552  24.203  1.00  0.00    -0.185 F 
ENDBRANCH  93  95
ENDBRANCH  85  88
ENDBRANCH  77  80
ENDBRANCH  75  76
ENDBRANCH  74  75
ENDBRANCH  73  74
ENDBRANCH   1  73
TORSDOF 19
ENDMDL
MODEL 2
REMARK VINA RESULT:     -11.6      1.885      2.189
REMARK SMILES O=C(NCCCCCCNC(=O)c1ccc(-c2ccn(C(F)F)c(=O)c2)cc1O)c1ccc(-c2c3nc(c(-c4cc(S(=O)(=O)[O-])ccc4F)c4ccc([nH]4)c(-c4cc(S(=O)(=O)[O-])ccc4F)c4nc(c(-c5cc(S(=O)(=O)[O-])ccc5F)c5ccc2[nH]5)C=C4)C=C3)cc1
REMARK SMILES IDX 6 1 5 2 4 3 3 4 1 5 2 6 30 8 31 9 92 10 32 11 91 12 33 13
REMARK SMILES IDX 34 14 35 15 85 16 36 17 90 18 84 19 86 20 37 21 89 22 83 23
REMARK SMILES IDX 82 24 38 26 70 27 50 28 69 29 51 30 54 31 68 32 87 33 52 34
REMARK SMILES IDX 53 35 67 37 88 38 55 39 39 40 40 41 48 42 41 43 47 44 49 45
REMARK SMILES IDX 46 46 42 47 43 48 44 49 45 50 71 51 72 52 80 53 73 54 79 55
REMARK SMILES IDX 81 56 78 57 74 58 75 59 76 60 77 61 56 62 57 63 65 64 58 65
REMARK SMILES IDX 64 66 66 67 63 68 59 69 60 70 61 71 62 72 7 73 8 74 9 75
REMARK SMILES IDX 10 76 11 77 12 79 13 80 14 81 28 82 15 83 27 84 16 85 29 86
REMARK SMILES IDX 17 88 18 89 26 90 19 91 24 92 20 93 25 94 21 95 22 96 23 97
REMARK H PARENT 3 7 86 25 54 36 10 78 29 87
REMARK Flexibility Score: inf
ROOT
ATOM      1  C   UNL A   1      35.049  24.195  24.265  1.00  0.00     0.002 C 
ENDROOT
BRANCH   1   2
ATOM      2  C   UNL A   1      35.402  22.708  24.366  1.00  0.00     0.021 C 
BRANCH   2   3
ATOM      3  C   UNL A   1      35.932  22.254  25.723  1.00  0.00     0.116 C 
BRANCH   3   4
ATOM      4  N   UNL A   1      36.888  21.167  25.602  1.00  0.00    -0.352 N 
ATOM      5  O   UNL A   1      38.904  20.192  25.419  1.00  0.00    -0.269 OA
ATOM      6  C   UNL A   1      38.251  21.185  25.741  1.00  0.00     0.251 C 
ATOM      7  H   UNL A   1      36.499  20.287  25.389  1.00  0.00     0.163 HD
BRANCH   6   8
ATOM      8  C   UNL A   1      38.942  22.382  26.270  1.00  0.00     0.039 A 
ATOM      9  C   UNL A   1      38.529  23.643  25.831  1.00  0.00     0.014 A 
ATOM     10  C   UNL A   1      40.033  22.268  27.139  1.00  0.00     0.014 A 
ATOM     11  C   UNL A   1      39.199  24.788  26.268  1.00  0.00     0.010 A 
ATOM     12  C   UNL A   1      40.658  23.414  27.625  1.00  0.00     0.010 A 
ATOM     13  C   UNL A   1      40.268  24.682  27.172  1.00  0.00    -0.014 A 
BRANCH  13  14
ATOM     14  C   UNL A   1      41.025  25.883  27.608  1.00  0.00     0.031 A 
ATOM     15  C   UNL A   1      40.338  26.947  28.421  1.00  0.00     0.074 A 
ATOM     16  C   UNL A   1      42.309  26.040  27.240  1.00  0.00     0.049 A 
ATOM     17  N   UNL A   1      40.814  28.083  28.863  1.00  0.00    -0.248 NA
ATOM     18  C   UNL A   1      38.926  26.715  28.763  1.00  0.00     0.031 C 
ATOM     19  C   UNL A   1      43.067  25.091  26.426  1.00  0.00     0.029 A 
ATOM     20  N   UNL A   1      43.202  27.053  27.493  1.00  0.00    -0.354 N 
ATOM     21  C   UNL A   1      39.757  28.705  29.518  1.00  0.00     0.074 A 
ATOM     22  C   UNL A   1      38.603  27.849  29.365  1.00  0.00     0.031 C 
ATOM     23  C   UNL A   1      44.314  25.554  26.264  1.00  0.00     0.029 A 
ATOM     24  C   UNL A   1      44.438  26.854  26.924  1.00  0.00     0.049 A 
ATOM     25  H   UNL A   1      42.978  27.846  28.031  1.00  0.00     0.167 HD
ATOM     26  C   UNL A   1      39.760  29.870  30.207  1.00  0.00     0.034 A 
ATOM     27  C   UNL A   1      45.543  27.629  26.926  1.00  0.00     0.034 A 
ATOM     28  C   UNL A   1      40.928  30.694  30.378  1.00  0.00     0.049 A 
ATOM     29  C   UNL A   1      45.527  28.926  27.694  1.00  0.00     0.074 A 
ATOM     30  C   UNL A   1      41.054  31.848  31.129  1.00  0.00     0.029 A 
ATOM     31  N   UNL A   1      42.164  30.460  29.791  1.00  0.00    -0.354 N 
ATOM     32  N   UNL A   1      44.549  29.455  28.392  1.00  0.00    -0.248 NA
ATOM     33  C   UNL A   1      46.756  29.730  27.686  1.00  0.00     0.031 C 
ATOM     34  C   UNL A   1      42.344  32.350  30.941  1.00  0.00     0.029 A 
ATOM     35  C   UNL A   1      43.048  31.470  30.133  1.00  0.00     0.049 A 
ATOM     36  H   UNL A   1      42.382  29.690  29.217  1.00  0.00     0.167 HD
ATOM     37  C   UNL A   1      45.049  30.643  28.919  1.00  0.00     0.074 A 
ATOM     38  C   UNL A   1      46.425  30.742  28.479  1.00  0.00     0.031 C 
ATOM     39  C   UNL A   1      44.422  31.565  29.694  1.00  0.00     0.034 A 
BRANCH  26  40
ATOM     40  C   UNL A   1      38.475  30.328  30.855  1.00  0.00     0.023 A 
ATOM     41  C   UNL A   1      37.569  31.128  30.133  1.00  0.00     0.031 A 
ATOM     42  C   UNL A   1      38.196  30.064  32.208  1.00  0.00     0.131 A 
ATOM     43  C   UNL A   1      36.440  31.654  30.775  1.00  0.00     0.055 A 
ATOM     44  C   UNL A   1      37.047  30.554  32.830  1.00  0.00     0.041 A 
ATOM     45  F   UNL A   1      39.030  29.311  32.943  1.00  0.00    -0.206 F 
ATOM     46  C   UNL A   1      36.170  31.363  32.116  1.00  0.00     0.022 A 
BRANCH  43  47
ATOM     47  S   UNL A   1      35.317  32.790  29.916  1.00  0.00     0.124 S 
ATOM     48  O   UNL A   1      34.957  32.013  28.731  1.00  0.00    -0.237 OA
ATOM     49  O   UNL A   1      34.248  32.961  30.896  1.00  0.00    -0.237 OA
ATOM     50  O   UNL A   1      36.135  33.969  29.662  1.00  0.00    -0.744 OA
ENDBRANCH  43  47
ENDBRANCH  26  40
BRANCH  27  51
ATOM     51  C   UNL A   1      46.765  27.132  26.226  1.00  0.00     0.023 A 
ATOM     52  C   UNL A   1      47.819  26.539  26.945  1.00  0.00     0.031 A 
ATOM     53  C   UNL A   1      46.956  27.384  24.858  1.00  0.00     0.131 A 
ATOM     54  C   UNL A   1      49.046  26.301  26.313  1.00  0.00     0.055 A 
ATOM     55  C   UNL A   1      48.157  27.076  24.215  1.00  0.00     0.041 A 
ATOM     56  F   UNL A   1      45.985  27.960  24.134  1.00  0.00    -0.206 F 
ATOM     57  C   UNL A   1      49.217  26.551  24.948  1.00  0.00     0.022 A 
BRANCH  54  58
ATOM     58  S   UNL A   1      50.504  25.800  27.271  1.00  0.00     0.124 S 
ATOM     59  O   UNL A   1      50.312  26.523  28.525  1.00  0.00    -0.237 OA
ATOM     60  O   UNL A   1      50.328  24.352  27.344  1.00  0.00    -0.237 OA
ATOM     61  O   UNL A   1      51.627  26.247  26.453  1.00  0.00    -0.744 OA
ENDBRANCH  54  58
ENDBRANCH  27  51
BRANCH  39  62
ATOM     62  C   UNL A   1      45.186  32.795  30.126  1.00  0.00     0.023 A 
ATOM     63  C   UNL A   1      45.825  32.823  31.382  1.00  0.00     0.031 A 
ATOM     64  C   UNL A   1      45.125  33.988  29.385  1.00  0.00     0.131 A 
ATOM     65  C   UNL A   1      46.327  34.030  31.882  1.00  0.00     0.055 A 
ATOM     66  C   UNL A   1      45.674  35.178  29.867  1.00  0.00     0.041 A 
ATOM     67  F   UNL A   1      44.519  34.015  28.188  1.00  0.00    -0.206 F 
ATOM     68  C   UNL A   1      46.261  35.206  31.130  1.00  0.00     0.022 A 
BRANCH  65  69
ATOM     69  S   UNL A   1      46.988  34.143  33.569  1.00  0.00     0.124 S 
ATOM     70  O   UNL A   1      47.964  35.223  33.439  1.00  0.00    -0.237 OA
ATOM     71  O   UNL A   1      45.797  34.469  34.346  1.00  0.00    -0.237 OA
ATOM     72  O   UNL A   1      47.556  32.821  33.813  1.00  0.00    -0.744 OA
ENDBRANCH  65  69
ENDBRANCH  39  62
ENDBRANCH  13  14
ENDBRANCH   6   8
ENDBRANCH   3   4
ENDBRANCH   2   3
ENDBRANCH   1   2
BRANCH   1  73
ATOM     73  C   UNL A   1      34.488  24.831  25.541  1.00  0.00     0.002 C 
BRANCH  73  74
ATOM     74  C   UNL A   1      33.741  26.153  25.347  1.00  0.00     0.021 C 
BRANCH  74  75
ATOM     75  C   UNL A   1      32.619  26.416  26.348  1.00  0.00     0.116 C 
BRANCH  75  76
ATOM     76  N   UNL A   1      31.350  26.688  25.696  1.00  0.00    -0.352 N 
ATOM     77  C   UNL A   1      30.553  25.820  24.994  1.00  0.00     0.255 C 
ATOM     78  H   UNL A   1      31.019  27.613  25.766  1.00  0.00     0.163 HD
ATOM     79  O   UNL A   1      29.532  26.219  24.434  1.00  0.00    -0.269 OA
BRANCH  77  80
ATOM     80  C   UNL A   1      30.962  24.410  24.838  1.00  0.00     0.081 A 
ATOM     81  C   UNL A   1      31.360  23.991  23.564  1.00  0.00     0.018 A 
ATOM     82  C   UNL A   1      30.964  23.505  25.904  1.00  0.00     0.128 A 
ATOM     83  C   UNL A   1      31.805  22.682  23.366  1.00  0.00     0.010 A 
ATOM     84  C   UNL A   1      31.417  22.201  25.710  1.00  0.00     0.055 A 
ATOM     85  C   UNL A   1      31.849  21.782  24.441  1.00  0.00    -0.014 A 
BRANCH  82  86
ATOM     86  O   UNL A   1      30.531  23.890  27.141  1.00  0.00    -0.507 OA
ATOM     87  H   UNL A   1      31.035  24.497  27.646  1.00  0.00     0.293 HD
ENDBRANCH  82  86
BRANCH  85  88
ATOM     88  C   UNL A   1      32.337  20.400  24.270  1.00  0.00    -0.011 A 
ATOM     89  C   UNL A   1      33.173  19.746  25.259  1.00  0.00     0.027 A 
ATOM     90  C   UNL A   1      32.048  19.751  23.129  1.00  0.00     0.080 A 
ATOM     91  C   UNL A   1      33.692  18.537  25.020  1.00  0.00     0.095 A 
ATOM     92  C   UNL A   1      32.584  18.386  22.869  1.00  0.00     0.255 A 
ATOM     93  N   UNL A   1      33.421  17.867  23.842  1.00  0.00    -0.258 N 
ATOM     94  O   UNL A   1      32.264  17.819  21.826  1.00  0.00    -0.269 OA
BRANCH  93  95
ATOM     95  C   UNL A   1      34.010  16.580  23.582  1.00  0.00     0.451 C 
ATOM     96  F   UNL A   1      34.682  16.578  22.405  1.00  0.00    -0.185 F 
ATOM     97  F   UNL A   1      34.877  16.230  24.562  1.00  0.00    -0.185 F 
ENDBRANCH  93  95
ENDBRANCH  85  88
ENDBRANCH  77  80
ENDBRANCH  75  76
ENDBRANCH  74  75
ENDBRANCH  73  74
ENDBRANCH   1  73
TORSDOF 19
ENDMDL
MODEL 3
REMARK VINA RESULT:     -11.3      4.634      7.247
REMARK SMILES O=C(NCCCCCCNC(=O)c1ccc(-c2ccn(C(F)F)c(=O)c2)cc1O)c1ccc(-c2c3nc(c(-c4cc(S(=O)(=O)[O-])ccc4F)c4ccc([nH]4)c(-c4cc(S(=O)(=O)[O-])ccc4F)c4nc(c(-c5cc(S(=O)(=O)[O-])ccc5F)c5ccc2[nH]5)C=C4)C=C3)cc1
REMARK SMILES IDX 6 1 5 2 4 3 3 4 1 5 2 6 30 8 31 9 92 10 32 11 91 12 33 13
REMARK SMILES IDX 34 14 35 15 85 16 36 17 90 18 84 19 86 20 37 21 89 22 83 23
REMARK SMILES IDX 82 24 38 26 70 27 50 28 69 29 51 30 54 31 68 32 87 33 52 34
REMARK SMILES IDX 53 35 67 37 88 38 55 39 39 40 40 41 48 42 41 43 47 44 49 45
REMARK SMILES IDX 46 46 42 47 43 48 44 49 45 50 71 51 72 52 80 53 73 54 79 55
REMARK SMILES IDX 81 56 78 57 74 58 75 59 76 60 77 61 56 62 57 63 65 64 58 65
REMARK SMILES IDX 64 66 66 67 63 68 59 69 60 70 61 71 62 72 7 73 8 74 9 75
REMARK SMILES IDX 10 76 11 77 12 79 13 80 14 81 28 82 15 83 27 84 16 85 29 86
REMARK SMILES IDX 17 88 18 89 26 90 19 91 24 92 20 93 25 94 21 95 22 96 23 97
REMARK H PARENT 3 7 86 25 54 36 10 78 29 87
REMARK Flexibility Score: inf
ROOT
ATOM      1  C   UNL A   1      33.923  27.976  23.776  1.00  0.00     0.002 C 
ENDROOT
BRANCH   1   2
ATOM      2  C   UNL A   1      33.480  29.196  24.591  1.00  0.00     0.021 C 
BRANCH   2   3
ATOM      3  C   UNL A   1      33.858  29.166  26.069  1.00  0.00     0.116 C 
BRANCH   3   4
ATOM      4  N   UNL A   1      33.764  30.478  26.685  1.00  0.00    -0.352 N 
ATOM      5  O   UNL A   1      34.173  32.091  28.194  1.00  0.00    -0.269 OA
ATOM      6  C   UNL A   1      34.528  31.031  27.680  1.00  0.00     0.251 C 
ATOM      7  H   UNL A   1      33.044  31.055  26.339  1.00  0.00     0.163 HD
BRANCH   6   8
ATOM      8  C   UNL A   1      35.768  30.367  28.139  1.00  0.00     0.039 A 
ATOM      9  C   UNL A   1      35.751  29.686  29.360  1.00  0.00     0.014 A 
ATOM     10  C   UNL A   1      36.959  30.467  27.413  1.00  0.00     0.014 A 
ATOM     11  C   UNL A   1      36.920  29.098  29.848  1.00  0.00     0.010 A 
ATOM     12  C   UNL A   1      38.108  29.825  27.867  1.00  0.00     0.010 A 
ATOM     13  C   UNL A   1      38.108  29.161  29.103  1.00  0.00    -0.014 A 
BRANCH  13  14
ATOM     14  C   UNL A   1      39.373  28.586  29.628  1.00  0.00     0.031 A 
ATOM     15  C   UNL A   1      40.042  29.212  30.821  1.00  0.00     0.074 A 
ATOM     16  C   UNL A   1      39.942  27.534  29.010  1.00  0.00     0.049 A 
ATOM     17  N   UNL A   1      41.167  28.884  31.403  1.00  0.00    -0.248 NA
ATOM     18  C   UNL A   1      39.371  30.374  31.426  1.00  0.00     0.031 C 
ATOM     19  C   UNL A   1      39.402  26.867  27.828  1.00  0.00     0.029 A 
ATOM     20  N   UNL A   1      41.100  26.848  29.284  1.00  0.00    -0.354 N 
ATOM     21  C   UNL A   1      41.345  29.806  32.428  1.00  0.00     0.074 A 
ATOM     22  C   UNL A   1      40.245  30.740  32.351  1.00  0.00     0.031 C 
ATOM     23  C   UNL A   1      40.213  25.855  27.489  1.00  0.00     0.029 A 
ATOM     24  C   UNL A   1      41.356  25.825  28.402  1.00  0.00     0.049 A 
ATOM     25  H   UNL A   1      41.691  27.068  30.040  1.00  0.00     0.167 HD
ATOM     26  C   UNL A   1      42.322  29.850  33.363  1.00  0.00     0.034 A 
ATOM     27  C   UNL A   1      42.392  24.963  28.329  1.00  0.00     0.034 A 
ATOM     28  C   UNL A   1      43.392  28.891  33.446  1.00  0.00     0.049 A 
ATOM     29  C   UNL A   1      43.475  25.030  29.376  1.00  0.00     0.074 A 
ATOM     30  C   UNL A   1      44.382  28.799  34.407  1.00  0.00     0.029 A 
ATOM     31  N   UNL A   1      43.618  27.865  32.538  1.00  0.00    -0.354 N 
ATOM     32  N   UNL A   1      43.579  25.846  30.399  1.00  0.00    -0.248 NA
ATOM     33  C   UNL A   1      44.575  24.062  29.271  1.00  0.00     0.031 C 
ATOM     34  C   UNL A   1      45.246  27.764  34.043  1.00  0.00     0.029 A 
ATOM     35  C   UNL A   1      44.755  27.159  32.896  1.00  0.00     0.049 A 
ATOM     36  H   UNL A   1      43.054  27.667  31.756  1.00  0.00     0.167 HD
ATOM     37  C   UNL A   1      44.745  25.480  31.068  1.00  0.00     0.074 A 
ATOM     38  C   UNL A   1      45.298  24.353  30.347  1.00  0.00     0.031 C 
ATOM     39  C   UNL A   1      45.303  26.032  32.176  1.00  0.00     0.034 A 
BRANCH  26  40
ATOM     40  C   UNL A   1      42.283  30.951  34.396  1.00  0.00     0.023 A 
ATOM     41  C   UNL A   1      42.984  32.151  34.172  1.00  0.00     0.031 A 
ATOM     42  C   UNL A   1      41.645  30.777  35.637  1.00  0.00     0.131 A 
ATOM     43  C   UNL A   1      43.049  33.119  35.183  1.00  0.00     0.055 A 
ATOM     44  C   UNL A   1      41.675  31.762  36.624  1.00  0.00     0.041 A 
ATOM     45  F   UNL A   1      40.967  29.648  35.904  1.00  0.00    -0.206 F 
ATOM     46  C   UNL A   1      42.390  32.935  36.403  1.00  0.00     0.022 A 
BRANCH  43  47
ATOM     47  S   UNL A   1      44.044  34.621  34.981  1.00  0.00     0.124 S 
ATOM     48  O   UNL A   1      43.358  35.286  33.876  1.00  0.00    -0.237 OA
ATOM     49  O   UNL A   1      43.894  35.264  36.284  1.00  0.00    -0.237 OA
ATOM     50  O   UNL A   1      45.379  34.121  34.674  1.00  0.00    -0.744 OA
ENDBRANCH  43  47
ENDBRANCH  26  40
BRANCH  27  51
ATOM     51  C   UNL A   1      42.387  23.928  27.253  1.00  0.00     0.023 A 
ATOM     52  C   UNL A   1      41.796  22.668  27.465  1.00  0.00     0.031 A 
ATOM     53  C   UNL A   1      43.103  24.130  26.063  1.00  0.00     0.131 A 
ATOM     54  C   UNL A   1      42.009  21.635  26.543  1.00  0.00     0.055 A 
ATOM     55  C   UNL A   1      43.250  23.119  25.111  1.00  0.00     0.041 A 
ATOM     56  F   UNL A   1      43.695  25.311  25.822  1.00  0.00    -0.206 F 
ATOM     57  C   UNL A   1      42.719  21.857  25.359  1.00  0.00     0.022 A 
BRANCH  54  58
ATOM     58  S   UNL A   1      41.500  19.934  26.920  1.00  0.00     0.124 S 
ATOM     59  O   UNL A   1      40.675  19.596  25.763  1.00  0.00    -0.237 OA
ATOM     60  O   UNL A   1      42.788  19.249  26.998  1.00  0.00    -0.237 OA
ATOM     61  O   UNL A   1      40.787  20.058  28.187  1.00  0.00    -0.744 OA
ENDBRANCH  54  58
ENDBRANCH  27  51
BRANCH  39  62
ATOM     62  C   UNL A   1      46.598  25.458  32.702  1.00  0.00     0.023 A 
ATOM     63  C   UNL A   1      46.578  24.532  33.764  1.00  0.00     0.031 A 
ATOM     64  C   UNL A   1      47.841  25.963  32.283  1.00  0.00     0.131 A 
ATOM     65  C   UNL A   1      47.772  24.182  34.406  1.00  0.00     0.055 A 
ATOM     66  C   UNL A   1      49.034  25.570  32.894  1.00  0.00     0.041 A 
ATOM     67  F   UNL A   1      47.912  26.855  31.283  1.00  0.00    -0.206 F 
ATOM     68  C   UNL A   1      49.000  24.691  33.974  1.00  0.00     0.022 A 
BRANCH  65  69
ATOM     69  S   UNL A   1      47.766  23.139  35.892  1.00  0.00     0.124 S 
ATOM     70  O   UNL A   1      46.404  22.610  35.883  1.00  0.00    -0.237 OA
ATOM     71  O   UNL A   1      48.814  22.169  35.592  1.00  0.00    -0.237 OA
ATOM     72  O   UNL A   1      48.062  24.069  36.976  1.00  0.00    -0.744 OA
ENDBRANCH  65  69
ENDBRANCH  39  62
ENDBRANCH  13  14
ENDBRANCH   6   8
ENDBRANCH   3   4
ENDBRANCH   2   3
ENDBRANCH   1   2
BRANCH   1  73
ATOM     73  C   UNL A   1      32.935  27.500  22.707  1.00  0.00     0.002 C 
BRANCH  73  74
ATOM     74  C   UNL A   1      31.496  27.995  22.870  1.00  0.00     0.021 C 
BRANCH  74  75
ATOM     75  C   UNL A   1      30.592  27.093  23.708  1.00  0.00     0.116 C 
BRANCH  75  76
ATOM     76  N   UNL A   1      30.633  27.431  25.120  1.00  0.00    -0.352 N 
ATOM     77  C   UNL A   1      31.039  26.645  26.169  1.00  0.00     0.255 C 
ATOM     78  H   UNL A   1      30.333  28.338  25.356  1.00  0.00     0.163 HD
ATOM     79  O   UNL A   1      30.949  27.050  27.328  1.00  0.00    -0.269 OA
BRANCH  77  80
ATOM     80  C   UNL A   1      31.511  25.269  25.916  1.00  0.00     0.081 A 
ATOM     81  C   UNL A   1      32.769  25.118  25.323  1.00  0.00     0.018 A 
ATOM     82  C   UNL A   1      30.754  24.141  26.248  1.00  0.00     0.128 A 
ATOM     83  C   UNL A   1      33.290  23.840  25.105  1.00  0.00     0.010 A 
ATOM     84  C   UNL A   1      31.277  22.866  26.039  1.00  0.00     0.055 A 
ATOM     85  C   UNL A   1      32.553  22.706  25.475  1.00  0.00    -0.014 A 
BRANCH  82  86
ATOM     86  O   UNL A   1      29.504  24.277  26.782  1.00  0.00    -0.507 OA
ATOM     87  H   UNL A   1      28.781  23.814  26.407  1.00  0.00     0.293 HD
ENDBRANCH  82  86
BRANCH  85  88
ATOM     88  C   UNL A   1      33.085  21.343  25.280  1.00  0.00    -0.011 A 
ATOM     89  C   UNL A   1      34.507  21.058  25.287  1.00  0.00     0.027 A 
ATOM     90  C   UNL A   1      32.221  20.344  25.025  1.00  0.00     0.080 A 
ATOM     91  C   UNL A   1      34.958  19.834  24.994  1.00  0.00     0.095 A 
ATOM     92  C   UNL A   1      32.709  18.967  24.739  1.00  0.00     0.255 A 
ATOM     93  N   UNL A   1      34.083  18.803  24.708  1.00  0.00    -0.258 N 
ATOM     94  O   UNL A   1      31.879  18.080  24.545  1.00  0.00    -0.269 OA
BRANCH  93  95
ATOM     95  C   UNL A   1      34.580  17.498  24.362  1.00  0.00     0.451 C 
ATOM     96  F   UNL A   1      34.451  17.260  23.034  1.00  0.00    -0.185 F 
ATOM     97  F   UNL A   1      35.889  17.370  24.688  1.00  0.00    -0.185 F 
ENDBRANCH  93  95
ENDBRANCH  85  88
ENDBRANCH  77  80
ENDBRANCH  75  76
ENDBRANCH  74  75
ENDBRANCH  73  74
ENDBRANCH   1  73
TORSDOF 19
ENDMDL
