MODEL 1
REMARK VINA RESULT:     -10.8      0.000      0.000
REMARK SMILES CN(CCc1cccs1)C(=O)N[C@H](CC(N)=O)C(=O)NCCCCCCNC(=O)c1ccc(-c2c3nc(c(-c4cc(S(=O)(=O)[O-])ccc4F)c4ccc([nH]4)c(-c4cc(S(=O)(=O)[O-])ccc4F)c4nc(c(-c5cc(S(=O)(=O)[O-])ccc5F)c5ccc2[nH]5)C=C4)C=C3)cc1
REMARK SMILES IDX 22 1 21 2 20 3 18 4 19 5 13 7 12 8 10 9 11 10 2 12 1 13 3 14
REMARK SMILES IDX 4 15 5 16 6 17 9 18 7 19 8 20 14 21 15 22 16 23 17 24 23 27
REMARK SMILES IDX 24 28 25 29 26 30 27 31 28 32 29 34 30 35 31 36 92 37 32 38
REMARK SMILES IDX 91 39 33 40 34 41 35 42 85 43 36 44 90 45 84 46 86 47 37 48
REMARK SMILES IDX 89 49 83 50 82 51 38 53 70 54 50 55 69 56 51 57 54 58 68 59
REMARK SMILES IDX 87 60 52 61 53 62 67 64 88 65 55 66 39 67 40 68 48 69 41 70
REMARK SMILES IDX 47 71 49 72 46 73 42 74 43 75 44 76 45 77 71 78 72 79 80 80
REMARK SMILES IDX 73 81 79 82 81 83 78 84 74 85 75 86 76 87 77 88 56 89 57 90
REMARK SMILES IDX 65 91 58 92 64 93 66 94 63 95 59 96 60 97 61 98 62 99
REMARK H PARENT 20 6 12 11 16 25 16 26 27 33 86 52 54 63
REMARK Flexibility Score: inf
ROOT
ATOM      1  C   UNL A   1      31.870  28.122  27.253  1.00  0.00     0.021 C 
ENDROOT
BRANCH   1   2
ATOM      2  C   UNL A   1      30.977  27.341  26.235  1.00  0.00     0.116 C 
BRANCH   2   3
ATOM      3  N   UNL A   1      31.451  26.304  25.164  1.00  0.00    -0.354 N 
ATOM      4  C   UNL A   1      30.904  25.677  23.989  1.00  0.00     0.243 C 
ATOM      5  O   UNL A   1      30.183  26.030  23.057  1.00  0.00    -0.273 OA
ATOM      6  H   UNL A   1      32.370  25.998  25.340  1.00  0.00     0.163 HD
BRANCH   4   7
ATOM      7  C   UNL A   1      31.096  24.222  23.803  1.00  0.00     0.182 C 
BRANCH   7   8
ATOM      8  N   UNL A   1      30.409  23.702  24.913  1.00  0.00    -0.326 N 
ATOM      9  C   UNL A   1      31.036  23.029  25.937  1.00  0.00     0.317 C 
ATOM     10  O   UNL A   1      30.301  22.874  26.923  1.00  0.00    -0.249 OA
ATOM     11  H   UNL A   1      29.433  23.825  24.959  1.00  0.00     0.166 HD
BRANCH   9  12
ATOM     12  N   UNL A   1      32.362  22.458  25.867  1.00  0.00    -0.328 N 
ATOM     13  C   UNL A   1      33.220  23.263  26.761  1.00  0.00     0.148 C 
BRANCH  12  14
ATOM     14  C   UNL A   1      33.225  21.287  25.032  1.00  0.00     0.126 C 
BRANCH  14  15
ATOM     15  C   UNL A   1      32.916  19.767  24.129  1.00  0.00     0.068 C 
BRANCH  15  16
ATOM     16  C   UNL A   1      33.366  18.111  24.346  1.00  0.00     0.006 A 
ATOM     17  C   UNL A   1      34.333  17.264  23.749  1.00  0.00     0.015 A 
ATOM     18  S   UNL A   1      32.598  17.156  25.584  1.00  0.00    -0.149 S 
ATOM     19  C   UNL A   1      34.540  15.997  24.340  1.00  0.00     0.012 A 
ATOM     20  C   UNL A   1      33.629  15.794  25.334  1.00  0.00     0.065 A 
ENDBRANCH  15  16
ENDBRANCH  14  15
ENDBRANCH  12  14
ENDBRANCH   9  12
ENDBRANCH   7   8
BRANCH   7  21
ATOM     21  C   UNL A   1      32.498  24.078  23.189  1.00  0.00     0.134 C 
BRANCH  21  22
ATOM     22  C   UNL A   1      32.997  24.950  22.073  1.00  0.00     0.220 C 
ATOM     23  N   UNL A   1      32.703  24.431  20.826  1.00  0.00    -0.370 N 
ATOM     24  O   UNL A   1      33.686  25.931  22.227  1.00  0.00    -0.275 OA
ATOM     25  H   UNL A   1      32.137  23.628  20.748  1.00  0.00     0.159 HD
ATOM     26  H   UNL A   1      33.059  24.862  20.016  1.00  0.00     0.159 HD
ENDBRANCH  21  22
ENDBRANCH   7  21
ENDBRANCH   4   7
ENDBRANCH   2   3
ENDBRANCH   1   2
BRANCH   1  27
ATOM     27  C   UNL A   1      31.611  29.647  27.365  1.00  0.00     0.002 C 
BRANCH  27  28
ATOM     28  C   UNL A   1      32.727  30.549  26.880  1.00  0.00     0.002 C 
BRANCH  28  29
ATOM     29  C   UNL A   1      32.408  32.032  27.015  1.00  0.00     0.021 C 
BRANCH  29  30
ATOM     30  C   UNL A   1      33.577  32.881  27.513  1.00  0.00     0.116 C 
BRANCH  30  31
ATOM     31  N   UNL A   1      33.120  34.140  28.080  1.00  0.00    -0.352 N 
ATOM     32  C   UNL A   1      33.443  34.683  29.300  1.00  0.00     0.251 C 
ATOM     33  H   UNL A   1      32.506  34.669  27.521  1.00  0.00     0.163 HD
ATOM     34  O   UNL A   1      32.771  35.592  29.776  1.00  0.00    -0.269 OA
BRANCH  32  35
ATOM     35  C   UNL A   1      34.604  34.136  30.030  1.00  0.00     0.039 A 
ATOM     36  C   UNL A   1      34.398  33.219  31.061  1.00  0.00     0.014 A 
ATOM     37  C   UNL A   1      35.899  34.509  29.655  1.00  0.00     0.014 A 
ATOM     38  C   UNL A   1      35.501  32.634  31.684  1.00  0.00     0.010 A 
ATOM     39  C   UNL A   1      36.992  33.862  30.220  1.00  0.00     0.010 A 
ATOM     40  C   UNL A   1      36.805  32.927  31.248  1.00  0.00    -0.014 A 
BRANCH  40  41
ATOM     41  C   UNL A   1      37.987  32.279  31.870  1.00  0.00     0.031 A 
ATOM     42  C   UNL A   1      38.707  31.179  31.138  1.00  0.00     0.074 A 
ATOM     43  C   UNL A   1      38.378  32.645  33.107  1.00  0.00     0.049 A 
ATOM     44  N   UNL A   1      39.719  30.449  31.530  1.00  0.00    -0.248 NA
ATOM     45  C   UNL A   1      38.203  30.837  29.799  1.00  0.00     0.031 C 
ATOM     46  C   UNL A   1      37.732  33.674  33.925  1.00  0.00     0.029 A 
ATOM     47  N   UNL A   1      39.407  32.195  33.895  1.00  0.00    -0.354 N 
ATOM     48  C   UNL A   1      39.966  29.556  30.491  1.00  0.00     0.074 A 
ATOM     49  C   UNL A   1      38.953  29.792  29.485  1.00  0.00     0.031 C 
ATOM     50  C   UNL A   1      38.399  33.797  35.084  1.00  0.00     0.029 A 
ATOM     51  C   UNL A   1      39.485  32.823  35.117  1.00  0.00     0.049 A 
ATOM     52  H   UNL A   1      40.032  31.488  33.611  1.00  0.00     0.167 HD
ATOM     53  C   UNL A   1      40.962  28.644  30.377  1.00  0.00     0.034 A 
ATOM     54  C   UNL A   1      40.328  32.625  36.150  1.00  0.00     0.034 A 
ATOM     55  C   UNL A   1      41.966  28.431  31.391  1.00  0.00     0.049 A 
ATOM     56  C   UNL A   1      41.401  31.573  36.018  1.00  0.00     0.074 A 
ATOM     57  C   UNL A   1      43.048  27.569  31.361  1.00  0.00     0.029 A 
ATOM     58  N   UNL A   1      42.005  29.074  32.621  1.00  0.00    -0.354 N 
ATOM     59  N   UNL A   1      41.655  30.774  35.007  1.00  0.00    -0.248 NA
ATOM     60  C   UNL A   1      42.309  31.405  37.159  1.00  0.00     0.031 C 
ATOM     61  C   UNL A   1      43.692  27.631  32.601  1.00  0.00     0.029 A 
ATOM     62  C   UNL A   1      43.069  28.599  33.373  1.00  0.00     0.049 A 
ATOM     63  H   UNL A   1      41.370  29.766  32.917  1.00  0.00     0.167 HD
ATOM     64  C   UNL A   1      42.772  30.031  35.380  1.00  0.00     0.074 A 
ATOM     65  C   UNL A   1      43.152  30.492  36.700  1.00  0.00     0.031 C 
ATOM     66  C   UNL A   1      43.430  29.062  34.693  1.00  0.00     0.034 A 
BRANCH  53  67
ATOM     67  C   UNL A   1      40.991  27.796  29.127  1.00  0.00     0.023 A 
ATOM     68  C   UNL A   1      41.962  27.984  28.127  1.00  0.00     0.031 A 
ATOM     69  C   UNL A   1      40.022  26.798  28.921  1.00  0.00     0.131 A 
ATOM     70  C   UNL A   1      41.895  27.243  26.937  1.00  0.00     0.055 A 
ATOM     71  C   UNL A   1      40.015  26.003  27.773  1.00  0.00     0.041 A 
ATOM     72  F   UNL A   1      39.054  26.586  29.827  1.00  0.00    -0.206 F 
ATOM     73  C   UNL A   1      40.947  26.234  26.765  1.00  0.00     0.022 A 
BRANCH  70  74
ATOM     74  S   UNL A   1      42.971  27.725  25.557  1.00  0.00     0.124 S 
ATOM     75  O   UNL A   1      43.389  26.423  25.041  1.00  0.00    -0.237 OA
ATOM     76  O   UNL A   1      42.067  28.489  24.706  1.00  0.00    -0.237 OA
ATOM     77  O   UNL A   1      44.028  28.500  26.202  1.00  0.00    -0.744 OA
ENDBRANCH  70  74
ENDBRANCH  53  67
BRANCH  54  78
ATOM     78  C   UNL A   1      40.188  33.421  37.405  1.00  0.00     0.023 A 
ATOM     79  C   UNL A   1      39.554  32.883  38.537  1.00  0.00     0.031 A 
ATOM     80  C   UNL A   1      40.642  34.751  37.476  1.00  0.00     0.131 A 
ATOM     81  C   UNL A   1      39.347  33.685  39.670  1.00  0.00     0.055 A 
ATOM     82  C   UNL A   1      40.489  35.524  38.628  1.00  0.00     0.041 A 
ATOM     83  F   UNL A   1      41.256  35.315  36.424  1.00  0.00    -0.206 F 
ATOM     84  C   UNL A   1      39.824  34.996  39.729  1.00  0.00     0.022 A 
BRANCH  81  85
ATOM     85  S   UNL A   1      38.349  33.021  41.032  1.00  0.00     0.124 S 
ATOM     86  O   UNL A   1      38.896  33.739  42.177  1.00  0.00    -0.237 OA
ATOM     87  O   UNL A   1      36.998  33.392  40.626  1.00  0.00    -0.237 OA
ATOM     88  O   UNL A   1      38.637  31.588  40.997  1.00  0.00    -0.744 OA
ENDBRANCH  81  85
ENDBRANCH  54  78
BRANCH  66  89
ATOM     89  C   UNL A   1      44.659  28.470  35.343  1.00  0.00     0.023 A 
ATOM     90  C   UNL A   1      44.580  27.386  36.232  1.00  0.00     0.031 A 
ATOM     91  C   UNL A   1      45.930  29.007  35.066  1.00  0.00     0.131 A 
ATOM     92  C   UNL A   1      45.742  26.909  36.858  1.00  0.00     0.055 A 
ATOM     93  C   UNL A   1      47.089  28.484  35.636  1.00  0.00     0.041 A 
ATOM     94  F   UNL A   1      46.064  30.047  34.227  1.00  0.00    -0.206 F 
ATOM     95  C   UNL A   1      46.999  27.437  36.549  1.00  0.00     0.022 A 
BRANCH  92  96
ATOM     96  S   UNL A   1      45.580  25.654  38.158  1.00  0.00     0.124 S 
ATOM     97  O   UNL A   1      44.131  25.518  38.267  1.00  0.00    -0.237 OA
ATOM     98  O   UNL A   1      46.285  24.514  37.581  1.00  0.00    -0.237 OA
ATOM     99  O   UNL A   1      46.234  26.269  39.311  1.00  0.00    -0.744 OA
ENDBRANCH  92  96
ENDBRANCH  66  89
ENDBRANCH  40  41
ENDBRANCH  32  35
ENDBRANCH  30  31
ENDBRANCH  29  30
ENDBRANCH  28  29
ENDBRANCH  27  28
ENDBRANCH   1  27
TORSDOF 23
ENDMDL
MODEL 2
REMARK VINA RESULT:     -10.6      3.744      8.824
REMARK SMILES CN(CCc1cccs1)C(=O)N[C@H](CC(N)=O)C(=O)NCCCCCCNC(=O)c1ccc(-c2c3nc(c(-c4cc(S(=O)(=O)[O-])ccc4F)c4ccc([nH]4)c(-c4cc(S(=O)(=O)[O-])ccc4F)c4nc(c(-c5cc(S(=O)(=O)[O-])ccc5F)c5ccc2[nH]5)C=C4)C=C3)cc1
REMARK SMILES IDX 22 1 21 2 20 3 18 4 19 5 13 7 12 8 10 9 11 10 2 12 1 13 3 14
REMARK SMILES IDX 4 15 5 16 6 17 9 18 7 19 8 20 14 21 15 22 16 23 17 24 23 27
REMARK SMILES IDX 24 28 25 29 26 30 27 31 28 32 29 34 30 35 31 36 92 37 32 38
REMARK SMILES IDX 91 39 33 40 34 41 35 42 85 43 36 44 90 45 84 46 86 47 37 48
REMARK SMILES IDX 89 49 83 50 82 51 38 53 70 54 50 55 69 56 51 57 54 58 68 59
REMARK SMILES IDX 87 60 52 61 53 62 67 64 88 65 55 66 39 67 40 68 48 69 41 70
REMARK SMILES IDX 47 71 49 72 46 73 42 74 43 75 44 76 45 77 71 78 72 79 80 80
REMARK SMILES IDX 73 81 79 82 81 83 78 84 74 85 75 86 76 87 77 88 56 89 57 90
REMARK SMILES IDX 65 91 58 92 64 93 66 94 63 95 59 96 60 97 61 98 62 99
REMARK H PARENT 20 6 12 11 16 25 16 26 27 33 86 52 54 63
REMARK Flexibility Score: inf
ROOT
ATOM      1  C   UNL A   1      32.574  30.106  25.633  1.00  0.00     0.021 C 
ENDROOT
BRANCH   1   2
ATOM      2  C   UNL A   1      31.381  29.238  25.120  1.00  0.00     0.116 C 
BRANCH   2   3
ATOM      3  N   UNL A   1      31.463  27.925  24.272  1.00  0.00    -0.354 N 
ATOM      4  C   UNL A   1      30.702  27.297  23.224  1.00  0.00     0.243 C 
ATOM      5  O   UNL A   1      30.093  27.682  22.227  1.00  0.00    -0.273 OA
ATOM      6  H   UNL A   1      32.246  27.382  24.523  1.00  0.00     0.163 HD
BRANCH   4   7
ATOM      7  C   UNL A   1      30.419  25.849  23.318  1.00  0.00     0.182 C 
BRANCH   7   8
ATOM      8  N   UNL A   1      29.524  25.805  24.401  1.00  0.00    -0.326 N 
ATOM      9  C   UNL A   1      29.878  25.349  25.651  1.00  0.00     0.317 C 
ATOM     10  O   UNL A   1      29.029  25.621  26.512  1.00  0.00    -0.249 OA
ATOM     11  H   UNL A   1      28.601  26.114  24.257  1.00  0.00     0.166 HD
BRANCH   9  12
ATOM     12  N   UNL A   1      31.043  24.546  25.943  1.00  0.00    -0.328 N 
ATOM     13  C   UNL A   1      30.558  23.180  26.232  1.00  0.00     0.148 C 
BRANCH  12  14
ATOM     14  C   UNL A   1      32.699  24.698  26.163  1.00  0.00     0.126 C 
BRANCH  14  15
ATOM     15  C   UNL A   1      34.150  23.648  26.269  1.00  0.00     0.068 C 
BRANCH  15  16
ATOM     16  C   UNL A   1      35.299  23.042  25.127  1.00  0.00     0.006 A 
ATOM     17  C   UNL A   1      35.529  23.263  23.746  1.00  0.00     0.015 A 
ATOM     18  S   UNL A   1      36.563  21.964  25.652  1.00  0.00    -0.149 S 
ATOM     19  C   UNL A   1      36.712  22.725  23.190  1.00  0.00     0.012 A 
ATOM     20  C   UNL A   1      37.354  21.958  24.118  1.00  0.00     0.065 A 
ENDBRANCH  15  16
ENDBRANCH  14  15
ENDBRANCH  12  14
ENDBRANCH   9  12
ENDBRANCH   7   8
BRANCH   7  21
ATOM     21  C   UNL A   1      31.736  25.157  22.930  1.00  0.00     0.134 C 
BRANCH  21  22
ATOM     22  C   UNL A   1      32.575  25.591  21.761  1.00  0.00     0.220 C 
ATOM     23  N   UNL A   1      31.842  25.693  20.594  1.00  0.00    -0.370 N 
ATOM     24  O   UNL A   1      33.776  25.719  21.793  1.00  0.00    -0.275 OA
ATOM     25  H   UNL A   1      30.864  25.580  20.616  1.00  0.00     0.159 HD
ATOM     26  H   UNL A   1      32.297  25.878  19.741  1.00  0.00     0.159 HD
ENDBRANCH  21  22
ENDBRANCH   7  21
ENDBRANCH   4   7
ENDBRANCH   2   3
ENDBRANCH   1   2
BRANCH   1  27
ATOM     27  C   UNL A   1      32.276  31.047  26.828  1.00  0.00     0.002 C 
BRANCH  27  28
ATOM     28  C   UNL A   1      33.445  31.361  27.738  1.00  0.00     0.002 C 
BRANCH  28  29
ATOM     29  C   UNL A   1      34.664  30.486  27.481  1.00  0.00     0.021 C 
BRANCH  29  30
ATOM     30  C   UNL A   1      35.761  30.612  28.538  1.00  0.00     0.116 C 
BRANCH  30  31
ATOM     31  N   UNL A   1      35.319  31.400  29.677  1.00  0.00    -0.352 N 
ATOM     32  C   UNL A   1      35.888  31.471  30.926  1.00  0.00     0.251 C 
ATOM     33  H   UNL A   1      34.514  31.950  29.538  1.00  0.00     0.163 HD
ATOM     34  O   UNL A   1      35.260  31.934  31.872  1.00  0.00    -0.269 OA
BRANCH  32  35
ATOM     35  C   UNL A   1      37.263  30.963  31.104  1.00  0.00     0.039 A 
ATOM     36  C   UNL A   1      37.467  29.749  31.760  1.00  0.00     0.014 A 
ATOM     37  C   UNL A   1      38.342  31.681  30.578  1.00  0.00     0.014 A 
ATOM     38  C   UNL A   1      38.759  29.228  31.843  1.00  0.00     0.010 A 
ATOM     39  C   UNL A   1      39.613  31.118  30.589  1.00  0.00     0.010 A 
ATOM     40  C   UNL A   1      39.837  29.892  31.231  1.00  0.00    -0.014 A 
BRANCH  40  41
ATOM     41  C   UNL A   1      41.210  29.328  31.271  1.00  0.00     0.031 A 
ATOM     42  C   UNL A   1      42.182  29.804  32.317  1.00  0.00     0.074 A 
ATOM     43  C   UNL A   1      41.592  28.430  30.342  1.00  0.00     0.049 A 
ATOM     44  N   UNL A   1      43.439  29.483  32.485  1.00  0.00    -0.248 NA
ATOM     45  C   UNL A   1      41.681  30.795  33.282  1.00  0.00     0.031 C 
ATOM     46  C   UNL A   1      40.746  27.924  29.259  1.00  0.00     0.029 A 
ATOM     47  N   UNL A   1      42.789  27.786  30.154  1.00  0.00    -0.354 N 
ATOM     48  C   UNL A   1      43.880  30.237  33.568  1.00  0.00     0.074 A 
ATOM     49  C   UNL A   1      42.776  31.082  33.969  1.00  0.00     0.031 C 
ATOM     50  C   UNL A   1      41.439  27.025  28.542  1.00  0.00     0.029 A 
ATOM     51  C   UNL A   1      42.794  26.930  29.076  1.00  0.00     0.049 A 
ATOM     52  H   UNL A   1      43.572  27.923  30.736  1.00  0.00     0.167 HD
ATOM     53  C   UNL A   1      45.085  30.207  34.187  1.00  0.00     0.034 A 
ATOM     54  C   UNL A   1      43.782  26.166  28.569  1.00  0.00     0.034 A 
ATOM     55  C   UNL A   1      46.171  29.350  33.774  1.00  0.00     0.049 A 
ATOM     56  C   UNL A   1      45.129  26.182  29.248  1.00  0.00     0.074 A 
ATOM     57  C   UNL A   1      47.418  29.202  34.355  1.00  0.00     0.029 A 
ATOM     58  N   UNL A   1      46.144  28.507  32.670  1.00  0.00    -0.354 N 
ATOM     59  N   UNL A   1      45.515  26.861  30.304  1.00  0.00    -0.248 NA
ATOM     60  C   UNL A   1      46.171  25.320  28.675  1.00  0.00     0.031 C 
ATOM     61  C   UNL A   1      48.171  28.334  33.559  1.00  0.00     0.029 A 
ATOM     62  C   UNL A   1      47.366  27.867  32.531  1.00  0.00     0.049 A 
ATOM     63  H   UNL A   1      45.372  28.384  32.073  1.00  0.00     0.167 HD
ATOM     64  C   UNL A   1      46.834  26.482  30.540  1.00  0.00     0.074 A 
ATOM     65  C   UNL A   1      47.169  25.503  29.526  1.00  0.00     0.031 C 
ATOM     66  C   UNL A   1      47.689  26.899  31.508  1.00  0.00     0.034 A 
BRANCH  53  67
ATOM     67  C   UNL A   1      45.296  31.146  35.352  1.00  0.00     0.023 A 
ATOM     68  C   UNL A   1      44.995  30.767  36.672  1.00  0.00     0.031 A 
ATOM     69  C   UNL A   1      45.785  32.447  35.138  1.00  0.00     0.131 A 
ATOM     70  C   UNL A   1      45.110  31.700  37.713  1.00  0.00     0.055 A 
ATOM     71  C   UNL A   1      45.982  33.342  36.191  1.00  0.00     0.041 A 
ATOM     72  F   UNL A   1      46.068  32.877  33.898  1.00  0.00    -0.206 F 
ATOM     73  C   UNL A   1      45.629  32.976  37.487  1.00  0.00     0.022 A 
BRANCH  70  74
ATOM     74  S   UNL A   1      44.427  31.273  39.339  1.00  0.00     0.124 S 
ATOM     75  O   UNL A   1      44.802  29.865  39.455  1.00  0.00    -0.237 OA
ATOM     76  O   UNL A   1      45.126  32.195  40.226  1.00  0.00    -0.237 OA
ATOM     77  O   UNL A   1      42.995  31.518  39.183  1.00  0.00    -0.744 OA
ENDBRANCH  70  74
ENDBRANCH  53  67
BRANCH  54  78
ATOM     78  C   UNL A   1      43.550  25.335  27.351  1.00  0.00     0.023 A 
ATOM     79  C   UNL A   1      42.881  24.103  27.432  1.00  0.00     0.031 A 
ATOM     80  C   UNL A   1      44.036  25.737  26.094  1.00  0.00     0.131 A 
ATOM     81  C   UNL A   1      42.763  23.294  26.291  1.00  0.00     0.055 A 
ATOM     82  C   UNL A   1      43.861  24.958  24.950  1.00  0.00     0.041 A 
ATOM     83  F   UNL A   1      44.682  26.907  25.959  1.00  0.00    -0.206 F 
ATOM     84  C   UNL A   1      43.234  23.720  25.047  1.00  0.00     0.022 A 
BRANCH  81  85
ATOM     85  S   UNL A   1      42.075  21.625  26.477  1.00  0.00     0.124 S 
ATOM     86  O   UNL A   1      40.673  21.845  26.143  1.00  0.00    -0.237 OA
ATOM     87  O   UNL A   1      42.856  20.867  25.507  1.00  0.00    -0.237 OA
ATOM     88  O   UNL A   1      42.340  21.303  27.878  1.00  0.00    -0.744 OA
ENDBRANCH  81  85
ENDBRANCH  54  78
BRANCH  66  89
ATOM     89  C   UNL A   1      49.057  26.257  31.543  1.00  0.00     0.023 A 
ATOM     90  C   UNL A   1      49.321  25.112  32.312  1.00  0.00     0.031 A 
ATOM     91  C   UNL A   1      50.112  26.807  30.793  1.00  0.00     0.131 A 
ATOM     92  C   UNL A   1      50.621  24.587  32.361  1.00  0.00     0.055 A 
ATOM     93  C   UNL A   1      51.386  26.239  30.789  1.00  0.00     0.041 A 
ATOM     94  F   UNL A   1      49.919  27.903  30.043  1.00  0.00    -0.206 F 
ATOM     95  C   UNL A   1      51.650  25.130  31.587  1.00  0.00     0.022 A 
BRANCH  92  96
ATOM     96  S   UNL A   1      50.975  23.243  33.527  1.00  0.00     0.124 S 
ATOM     97  O   UNL A   1      49.810  23.290  34.405  1.00  0.00    -0.237 OA
ATOM     98  O   UNL A   1      51.063  22.082  32.647  1.00  0.00    -0.237 OA
ATOM     99  O   UNL A   1      52.236  23.649  34.145  1.00  0.00    -0.744 OA
ENDBRANCH  92  96
ENDBRANCH  66  89
ENDBRANCH  40  41
ENDBRANCH  32  35
ENDBRANCH  30  31
ENDBRANCH  29  30
ENDBRANCH  28  29
ENDBRANCH  27  28
ENDBRANCH   1  27
TORSDOF 23
ENDMDL
MODEL 3
REMARK VINA RESULT:     -10.6      2.678      8.083
REMARK SMILES CN(CCc1cccs1)C(=O)N[C@H](CC(N)=O)C(=O)NCCCCCCNC(=O)c1ccc(-c2c3nc(c(-c4cc(S(=O)(=O)[O-])ccc4F)c4ccc([nH]4)c(-c4cc(S(=O)(=O)[O-])ccc4F)c4nc(c(-c5cc(S(=O)(=O)[O-])ccc5F)c5ccc2[nH]5)C=C4)C=C3)cc1
REMARK SMILES IDX 22 1 21 2 20 3 18 4 19 5 13 7 12 8 10 9 11 10 2 12 1 13 3 14
REMARK SMILES IDX 4 15 5 16 6 17 9 18 7 19 8 20 14 21 15 22 16 23 17 24 23 27
REMARK SMILES IDX 24 28 25 29 26 30 27 31 28 32 29 34 30 35 31 36 92 37 32 38
REMARK SMILES IDX 91 39 33 40 34 41 35 42 85 43 36 44 90 45 84 46 86 47 37 48
REMARK SMILES IDX 89 49 83 50 82 51 38 53 70 54 50 55 69 56 51 57 54 58 68 59
REMARK SMILES IDX 87 60 52 61 53 62 67 64 88 65 55 66 39 67 40 68 48 69 41 70
REMARK SMILES IDX 47 71 49 72 46 73 42 74 43 75 44 76 45 77 71 78 72 79 80 80
REMARK SMILES IDX 73 81 79 82 81 83 78 84 74 85 75 86 76 87 77 88 56 89 57 90
REMARK SMILES IDX 65 91 58 92 64 93 66 94 63 95 59 96 60 97 61 98 62 99
REMARK H PARENT 20 6 12 11 16 25 16 26 27 33 86 52 54 63
REMARK Flexibility Score: inf
ROOT
ATOM      1  C   UNL A   1      31.598  29.771  25.661  1.00  0.00     0.021 C 
ENDROOT
BRANCH   1   2
ATOM      2  C   UNL A   1      31.555  28.483  24.776  1.00  0.00     0.116 C 
BRANCH   2   3
ATOM      3  N   UNL A   1      32.687  27.418  24.601  1.00  0.00    -0.354 N 
ATOM      4  C   UNL A   1      32.934  26.268  23.771  1.00  0.00     0.243 C 
ATOM      5  O   UNL A   1      32.727  25.970  22.595  1.00  0.00    -0.273 OA
ATOM      6  H   UNL A   1      33.432  27.578  25.225  1.00  0.00     0.163 HD
BRANCH   4   7
ATOM      7  C   UNL A   1      33.462  25.037  24.398  1.00  0.00     0.182 C 
BRANCH   7   8
ATOM      8  N   UNL A   1      34.420  24.628  23.455  1.00  0.00    -0.326 N 
ATOM      9  C   UNL A   1      35.256  23.552  23.651  1.00  0.00     0.317 C 
ATOM     10  O   UNL A   1      35.844  23.213  22.614  1.00  0.00    -0.249 OA
ATOM     11  H   UNL A   1      34.497  25.136  22.615  1.00  0.00     0.166 HD
BRANCH   9  12
ATOM     12  N   UNL A   1      35.526  22.932  24.928  1.00  0.00    -0.328 N 
ATOM     13  C   UNL A   1      36.806  23.490  25.411  1.00  0.00     0.148 C 
BRANCH  12  14
ATOM     14  C   UNL A   1      34.925  21.737  25.940  1.00  0.00     0.126 C 
BRANCH  14  15
ATOM     15  C   UNL A   1      34.017  20.193  25.819  1.00  0.00     0.068 C 
BRANCH  15  16
ATOM     16  C   UNL A   1      33.827  18.986  24.594  1.00  0.00     0.006 A 
ATOM     17  C   UNL A   1      34.558  17.830  24.226  1.00  0.00     0.015 A 
ATOM     18  S   UNL A   1      32.438  19.024  23.543  1.00  0.00    -0.149 S 
ATOM     19  C   UNL A   1      33.971  16.965  23.276  1.00  0.00     0.012 A 
ATOM     20  C   UNL A   1      32.822  17.518  22.791  1.00  0.00     0.065 A 
ENDBRANCH  15  16
ENDBRANCH  14  15
ENDBRANCH  12  14
ENDBRANCH   9  12
ENDBRANCH   7   8
BRANCH   7  21
ATOM     21  C   UNL A   1      32.258  24.404  25.113  1.00  0.00     0.134 C 
BRANCH  21  22
ATOM     22  C   UNL A   1      31.455  23.278  24.525  1.00  0.00     0.220 C 
ATOM     23  N   UNL A   1      30.762  23.661  23.391  1.00  0.00    -0.370 N 
ATOM     24  O   UNL A   1      31.320  22.194  25.040  1.00  0.00    -0.275 OA
ATOM     25  H   UNL A   1      30.904  24.556  23.007  1.00  0.00     0.159 HD
ATOM     26  H   UNL A   1      30.127  23.038  22.969  1.00  0.00     0.159 HD
ENDBRANCH  21  22
ENDBRANCH   7  21
ENDBRANCH   4   7
ENDBRANCH   2   3
ENDBRANCH   1   2
BRANCH   1  27
ATOM     27  C   UNL A   1      32.597  29.757  26.847  1.00  0.00     0.002 C 
BRANCH  27  28
ATOM     28  C   UNL A   1      33.031  31.111  27.369  1.00  0.00     0.002 C 
BRANCH  28  29
ATOM     29  C   UNL A   1      34.502  31.168  27.755  1.00  0.00     0.021 C 
BRANCH  29  30
ATOM     30  C   UNL A   1      35.047  32.583  27.941  1.00  0.00     0.116 C 
BRANCH  30  31
ATOM     31  N   UNL A   1      34.430  33.250  29.076  1.00  0.00    -0.352 N 
ATOM     32  C   UNL A   1      34.744  33.115  30.407  1.00  0.00     0.251 C 
ATOM     33  H   UNL A   1      33.700  33.875  28.866  1.00  0.00     0.163 HD
ATOM     34  O   UNL A   1      33.966  33.501  31.273  1.00  0.00    -0.269 OA
BRANCH  32  35
ATOM     35  C   UNL A   1      36.028  32.481  30.768  1.00  0.00     0.039 A 
ATOM     36  C   UNL A   1      36.028  31.341  31.571  1.00  0.00     0.014 A 
ATOM     37  C   UNL A   1      37.225  33.004  30.269  1.00  0.00     0.014 A 
ATOM     38  C   UNL A   1      37.236  30.692  31.833  1.00  0.00     0.010 A 
ATOM     39  C   UNL A   1      38.412  32.307  30.461  1.00  0.00     0.010 A 
ATOM     40  C   UNL A   1      38.432  31.151  31.254  1.00  0.00    -0.014 A 
BRANCH  40  41
ATOM     41  C   UNL A   1      39.718  30.445  31.485  1.00  0.00     0.031 A 
ATOM     42  C   UNL A   1      40.592  30.846  32.643  1.00  0.00     0.074 A 
ATOM     43  C   UNL A   1      40.117  29.484  30.629  1.00  0.00     0.049 A 
ATOM     44  N   UNL A   1      41.773  30.397  32.982  1.00  0.00    -0.248 NA
ATOM     45  C   UNL A   1      40.081  31.912  33.517  1.00  0.00     0.031 C 
ATOM     46  C   UNL A   1      39.369  29.039  29.452  1.00  0.00     0.029 A 
ATOM     47  N   UNL A   1      41.250  28.710  30.611  1.00  0.00    -0.354 N 
ATOM     48  C   UNL A   1      42.149  31.132  34.102  1.00  0.00     0.074 A 
ATOM     49  C   UNL A   1      41.102  32.102  34.339  1.00  0.00     0.031 C 
ATOM     50  C   UNL A   1      40.047  28.050  28.846  1.00  0.00     0.029 A 
ATOM     51  C   UNL A   1      41.301  27.826  29.558  1.00  0.00     0.049 A 
ATOM     52  H   UNL A   1      41.961  28.780  31.290  1.00  0.00     0.167 HD
ATOM     53  C   UNL A   1      43.253  30.992  34.875  1.00  0.00     0.034 A 
ATOM     54  C   UNL A   1      42.258  26.946  29.199  1.00  0.00     0.034 A 
ATOM     55  C   UNL A   1      44.282  30.013  34.624  1.00  0.00     0.049 A 
ATOM     56  C   UNL A   1      43.498  26.839  30.050  1.00  0.00     0.074 A 
ATOM     57  C   UNL A   1      45.419  29.749  35.368  1.00  0.00     0.029 A 
ATOM     58  N   UNL A   1      44.308  29.145  33.539  1.00  0.00    -0.354 N 
ATOM     59  N   UNL A   1      43.816  27.504  31.137  1.00  0.00    -0.248 NA
ATOM     60  C   UNL A   1      44.505  25.854  29.634  1.00  0.00     0.031 C 
ATOM     61  C   UNL A   1      46.170  28.783  34.692  1.00  0.00     0.029 A 
ATOM     62  C   UNL A   1      45.460  28.374  33.574  1.00  0.00     0.049 A 
ATOM     63  H   UNL A   1      43.611  29.086  32.847  1.00  0.00     0.167 HD
ATOM     64  C   UNL A   1      45.043  26.994  31.552  1.00  0.00     0.074 A 
ATOM     65  C   UNL A   1      45.398  25.955  30.607  1.00  0.00     0.031 C 
ATOM     66  C   UNL A   1      45.805  27.346  32.619  1.00  0.00     0.034 A 
BRANCH  53  67
ATOM     67  C   UNL A   1      43.412  31.938  36.043  1.00  0.00     0.023 A 
ATOM     68  C   UNL A   1      42.663  31.789  37.224  1.00  0.00     0.031 A 
ATOM     69  C   UNL A   1      44.309  33.018  35.968  1.00  0.00     0.131 A 
ATOM     70  C   UNL A   1      42.767  32.745  38.246  1.00  0.00     0.055 A 
ATOM     71  C   UNL A   1      44.473  33.916  37.025  1.00  0.00     0.041 A 
ATOM     72  F   UNL A   1      45.034  33.229  34.857  1.00  0.00    -0.206 F 
ATOM     73  C   UNL A   1      43.688  33.791  38.167  1.00  0.00     0.022 A 
BRANCH  70  74
ATOM     74  S   UNL A   1      41.572  32.687  39.610  1.00  0.00     0.124 S 
ATOM     75  O   UNL A   1      40.329  32.389  38.901  1.00  0.00    -0.237 OA
ATOM     76  O   UNL A   1      42.102  31.618  40.447  1.00  0.00    -0.237 OA
ATOM     77  O   UNL A   1      41.646  34.028  40.186  1.00  0.00    -0.744 OA
ENDBRANCH  70  74
ENDBRANCH  53  67
BRANCH  54  78
ATOM     78  C   UNL A   1      42.096  26.109  27.974  1.00  0.00     0.023 A 
ATOM     79  C   UNL A   1      41.644  24.782  28.059  1.00  0.00     0.031 A 
ATOM     80  C   UNL A   1      42.438  26.607  26.703  1.00  0.00     0.131 A 
ATOM     81  C   UNL A   1      41.597  23.984  26.904  1.00  0.00     0.055 A 
ATOM     82  C   UNL A   1      42.328  25.829  25.550  1.00  0.00     0.041 A 
ATOM     83  F   UNL A   1      42.874  27.869  26.564  1.00  0.00    -0.206 F 
ATOM     84  C   UNL A   1      41.920  24.503  25.649  1.00  0.00     0.022 A 
BRANCH  81  85
ATOM     85  S   UNL A   1      41.204  22.222  27.084  1.00  0.00     0.124 S 
ATOM     86  O   UNL A   1      42.099  21.618  26.104  1.00  0.00    -0.237 OA
ATOM     87  O   UNL A   1      41.528  21.981  28.485  1.00  0.00    -0.237 OA
ATOM     88  O   UNL A   1      39.781  22.156  26.754  1.00  0.00    -0.744 OA
ENDBRANCH  81  85
ENDBRANCH  54  78
BRANCH  66  89
ATOM     89  C   UNL A   1      47.077  26.564  32.845  1.00  0.00     0.023 A 
ATOM     90  C   UNL A   1      47.096  25.377  33.597  1.00  0.00     0.031 A 
ATOM     91  C   UNL A   1      48.291  27.019  32.298  1.00  0.00     0.131 A 
ATOM     92  C   UNL A   1      48.312  24.717  33.831  1.00  0.00     0.055 A 
ATOM     93  C   UNL A   1      49.485  26.320  32.474  1.00  0.00     0.041 A 
ATOM     94  F   UNL A   1      48.333  28.148  31.574  1.00  0.00    -0.206 F 
ATOM     95  C   UNL A   1      49.503  25.169  33.256  1.00  0.00     0.022 A 
BRANCH  92  96
ATOM     96  S   UNL A   1      48.335  23.314  34.980  1.00  0.00     0.124 S 
ATOM     97  O   UNL A   1      49.235  22.385  34.303  1.00  0.00    -0.237 OA
ATOM     98  O   UNL A   1      48.848  23.921  36.204  1.00  0.00    -0.237 OA
ATOM     99  O   UNL A   1      46.936  22.894  35.035  1.00  0.00    -0.744 OA
ENDBRANCH  92  96
ENDBRANCH  66  89
ENDBRANCH  40  41
ENDBRANCH  32  35
ENDBRANCH  30  31
ENDBRANCH  29  30
ENDBRANCH  28  29
ENDBRANCH  27  28
ENDBRANCH   1  27
TORSDOF 23
ENDMDL
