MODEL 1
REMARK VINA RESULT:     -10.5      0.000      0.000
REMARK SMILES C[NH2+][C@@]1(C(=O)NCCCCCCNC(=O)c2ccc(-c3c4nc(c(-c5cc(S(=O)(=O)[O-])ccc5F)c5ccc([nH]5)c(-c5cc(S(=O)(=O)[O-])ccc5F)c5nc(c(-c6cc(S(=O)(=O)[O-])ccc6F)c6ccc3[nH]6)C=C5)C=C4)cc2)CC[C@H](SC(C)C)C1
REMARK SMILES IDX 10 1 9 2 8 3 7 4 6 5 4 6 5 7 3 9 79 10 86 11 80 12 81 13
REMARK SMILES IDX 2 14 1 15 82 18 83 19 84 20 85 21 11 22 12 23 13 24 14 25
REMARK SMILES IDX 15 27 16 28 17 29 78 30 18 31 77 32 19 33 20 34 21 35 71 36
REMARK SMILES IDX 22 37 76 38 70 39 72 40 23 41 75 42 69 43 68 44 24 46 56 47
REMARK SMILES IDX 36 48 55 49 37 50 40 51 54 52 73 53 38 54 39 55 53 57 74 58
REMARK SMILES IDX 41 59 25 60 26 61 34 62 27 63 33 64 35 65 32 66 28 67 29 68
REMARK SMILES IDX 30 69 31 70 57 71 58 72 66 73 59 74 65 75 67 76 64 77 60 78
REMARK SMILES IDX 61 79 62 80 63 81 42 82 43 83 51 84 44 85 50 86 52 87 49 88
REMARK SMILES IDX 45 89 46 90 47 91 48 92
REMARK H PARENT 6 8 2 16 2 17 13 26 72 45 40 56
REMARK Flexibility Score: inf
ROOT
ATOM      1  C   UNL A   1      31.285  31.003  26.131  1.00  0.00     0.002 C 
ENDROOT
BRANCH   1   2
ATOM      2  C   UNL A   1      32.074  29.974  26.952  1.00  0.00     0.002 C 
BRANCH   2   3
ATOM      3  C   UNL A   1      33.079  29.120  26.183  1.00  0.00     0.021 C 
BRANCH   3   4
ATOM      4  C   UNL A   1      33.176  27.666  26.626  1.00  0.00     0.116 C 
BRANCH   4   5
ATOM      5  N   UNL A   1      33.786  26.777  25.672  1.00  0.00    -0.351 N 
ATOM      6  C   UNL A   1      33.267  26.117  24.603  1.00  0.00     0.281 C 
ATOM      7  O   UNL A   1      34.117  25.698  23.798  1.00  0.00    -0.268 OA
ATOM      8  H   UNL A   1      34.747  26.619  25.821  1.00  0.00     0.163 HD
BRANCH   6   9
ATOM      9  C   UNL A   1      31.717  25.888  24.297  1.00  0.00     0.176 C 
ATOM     10  C   UNL A   1      31.508  25.325  22.883  1.00  0.00     0.080 C 
ATOM     11  C   UNL A   1      30.785  27.110  24.352  1.00  0.00     0.093 C 
ATOM     12  C   UNL A   1      31.131  26.513  22.005  1.00  0.00     0.022 C 
ATOM     13  C   UNL A   1      30.320  27.444  22.906  1.00  0.00     0.054 C 
BRANCH   9  14
ATOM     14  N   UNL A   1      31.255  24.815  25.246  1.00  0.00    -0.336 N 
ATOM     15  C   UNL A   1      31.074  23.504  24.623  1.00  0.00     0.331 C 
ATOM     16  H   UNL A   1      31.949  24.724  25.988  1.00  0.00     0.346 HD
ATOM     17  H   UNL A   1      30.341  25.104  25.594  1.00  0.00     0.346 HD
ENDBRANCH   9  14
BRANCH  13  18
ATOM     18  S   UNL A   1      30.324  29.289  22.799  1.00  0.00    -0.155 SA
BRANCH  18  19
ATOM     19  C   UNL A   1      28.611  29.945  22.707  1.00  0.00     0.040 C 
ATOM     20  C   UNL A   1      27.427  29.049  23.013  1.00  0.00     0.019 C 
ATOM     21  C   UNL A   1      28.536  31.245  23.500  1.00  0.00     0.019 C 
ENDBRANCH  18  19
ENDBRANCH  13  18
ENDBRANCH   6   9
ENDBRANCH   4   5
ENDBRANCH   3   4
ENDBRANCH   2   3
ENDBRANCH   1   2
BRANCH   1  22
ATOM     22  C   UNL A   1      31.465  32.478  26.507  1.00  0.00     0.021 C 
BRANCH  22  23
ATOM     23  C   UNL A   1      32.635  32.800  27.434  1.00  0.00     0.116 C 
BRANCH  23  24
ATOM     24  N   UNL A   1      32.701  34.208  27.776  1.00  0.00    -0.352 N 
ATOM     25  C   UNL A   1      33.478  34.870  28.694  1.00  0.00     0.251 C 
ATOM     26  H   UNL A   1      32.085  34.783  27.267  1.00  0.00     0.163 HD
ATOM     27  O   UNL A   1      33.227  36.045  28.946  1.00  0.00    -0.269 OA
BRANCH  25  28
ATOM     28  C   UNL A   1      34.592  34.187  29.396  1.00  0.00     0.039 A 
ATOM     29  C   UNL A   1      35.903  34.478  29.005  1.00  0.00     0.014 A 
ATOM     30  C   UNL A   1      34.363  33.224  30.384  1.00  0.00     0.014 A 
ATOM     31  C   UNL A   1      36.980  33.847  29.636  1.00  0.00     0.010 A 
ATOM     32  C   UNL A   1      35.440  32.640  31.055  1.00  0.00     0.010 A 
ATOM     33  C   UNL A   1      36.761  32.942  30.686  1.00  0.00    -0.014 A 
BRANCH  33  34
ATOM     34  C   UNL A   1      37.900  32.297  31.393  1.00  0.00     0.031 A 
ATOM     35  C   UNL A   1      38.655  31.166  30.745  1.00  0.00     0.074 A 
ATOM     36  C   UNL A   1      38.224  32.694  32.639  1.00  0.00     0.049 A 
ATOM     37  N   UNL A   1      39.627  30.433  31.227  1.00  0.00    -0.248 NA
ATOM     38  C   UNL A   1      38.242  30.796  29.384  1.00  0.00     0.031 C 
ATOM     39  C   UNL A   1      37.552  33.758  33.387  1.00  0.00     0.029 A 
ATOM     40  N   UNL A   1      39.194  32.246  33.501  1.00  0.00    -0.354 N 
ATOM     41  C   UNL A   1      39.934  29.507  30.236  1.00  0.00     0.074 A 
ATOM     42  C   UNL A   1      39.005  29.739  29.149  1.00  0.00     0.031 C 
ATOM     43  C   UNL A   1      38.138  33.889  34.588  1.00  0.00     0.029 A 
ATOM     44  C   UNL A   1      39.199  32.896  34.715  1.00  0.00     0.049 A 
ATOM     45  H   UNL A   1      39.828  31.528  33.273  1.00  0.00     0.167 HD
ATOM     46  C   UNL A   1      40.911  28.565  30.224  1.00  0.00     0.034 A 
ATOM     47  C   UNL A   1      39.961  32.704  35.811  1.00  0.00     0.034 A 
ATOM     48  C   UNL A   1      41.839  28.354  31.311  1.00  0.00     0.049 A 
ATOM     49  C   UNL A   1      41.026  31.638  35.784  1.00  0.00     0.074 A 
ATOM     50  C   UNL A   1      42.899  27.466  31.380  1.00  0.00     0.029 A 
ATOM     51  N   UNL A   1      41.814  29.032  32.523  1.00  0.00    -0.354 N 
ATOM     52  N   UNL A   1      41.333  30.800  34.819  1.00  0.00    -0.248 NA
ATOM     53  C   UNL A   1      41.855  31.500  36.988  1.00  0.00     0.031 C 
ATOM     54  C   UNL A   1      43.472  27.562  32.654  1.00  0.00     0.029 A 
ATOM     55  C   UNL A   1      42.818  28.561  33.355  1.00  0.00     0.049 A 
ATOM     56  H   UNL A   1      41.174  29.744  32.757  1.00  0.00     0.167 HD
ATOM     57  C   UNL A   1      42.410  30.056  35.294  1.00  0.00     0.074 A 
ATOM     58  C   UNL A   1      42.707  30.554  36.621  1.00  0.00     0.031 C 
ATOM     59  C   UNL A   1      43.095  29.056  34.684  1.00  0.00     0.034 A 
BRANCH  46  60
ATOM     60  C   UNL A   1      41.002  27.674  29.008  1.00  0.00     0.023 A 
ATOM     61  C   UNL A   1      41.985  27.868  28.021  1.00  0.00     0.031 A 
ATOM     62  C   UNL A   1      40.078  26.633  28.816  1.00  0.00     0.131 A 
ATOM     63  C   UNL A   1      41.973  27.089  26.854  1.00  0.00     0.055 A 
ATOM     64  C   UNL A   1      40.120  25.807  27.690  1.00  0.00     0.041 A 
ATOM     65  F   UNL A   1      39.104  26.409  29.712  1.00  0.00    -0.206 F 
ATOM     66  C   UNL A   1      41.062  26.043  26.693  1.00  0.00     0.022 A 
BRANCH  63  67
ATOM     67  S   UNL A   1      43.068  27.559  25.487  1.00  0.00     0.124 S 
ATOM     68  O   UNL A   1      44.080  28.354  26.180  1.00  0.00    -0.237 OA
ATOM     69  O   UNL A   1      43.509  26.266  24.978  1.00  0.00    -0.237 OA
ATOM     70  O   UNL A   1      42.196  28.318  24.594  1.00  0.00    -0.744 OA
ENDBRANCH  63  67
ENDBRANCH  46  60
BRANCH  47  71
ATOM     71  C   UNL A   1      39.741  33.527  37.033  1.00  0.00     0.023 A 
ATOM     72  C   UNL A   1      40.520  34.665  37.290  1.00  0.00     0.031 A 
ATOM     73  C   UNL A   1      38.770  33.163  37.983  1.00  0.00     0.131 A 
ATOM     74  C   UNL A   1      40.349  35.375  38.489  1.00  0.00     0.055 A 
ATOM     75  C   UNL A   1      38.568  33.901  39.151  1.00  0.00     0.041 A 
ATOM     76  F   UNL A   1      37.993  32.086  37.782  1.00  0.00    -0.206 F 
ATOM     77  C   UNL A   1      39.369  35.008  39.416  1.00  0.00     0.022 A 
BRANCH  74  78
ATOM     78  S   UNL A   1      41.478  36.745  38.858  1.00  0.00     0.124 S 
ATOM     79  O   UNL A   1      42.274  36.189  39.945  1.00  0.00    -0.237 OA
ATOM     80  O   UNL A   1      42.166  36.921  37.582  1.00  0.00    -0.237 OA
ATOM     81  O   UNL A   1      40.580  37.835  39.233  1.00  0.00    -0.744 OA
ENDBRANCH  74  78
ENDBRANCH  47  71
BRANCH  59  82
ATOM     82  C   UNL A   1      44.262  28.466  35.439  1.00  0.00     0.023 A 
ATOM     83  C   UNL A   1      44.088  27.453  36.396  1.00  0.00     0.031 A 
ATOM     84  C   UNL A   1      45.566  28.940  35.206  1.00  0.00     0.131 A 
ATOM     85  C   UNL A   1      45.191  26.982  37.125  1.00  0.00     0.055 A 
ATOM     86  C   UNL A   1      46.667  28.428  35.892  1.00  0.00     0.041 A 
ATOM     87  F   UNL A   1      45.789  29.909  34.304  1.00  0.00    -0.206 F 
ATOM     88  C   UNL A   1      46.482  27.453  36.867  1.00  0.00     0.022 A 
BRANCH  85  89
ATOM     89  S   UNL A   1      44.906  25.806  38.477  1.00  0.00     0.124 S 
ATOM     90  O   UNL A   1      46.220  25.743  39.107  1.00  0.00    -0.237 OA
ATOM     91  O   UNL A   1      43.859  26.467  39.250  1.00  0.00    -0.237 OA
ATOM     92  O   UNL A   1      44.489  24.586  37.789  1.00  0.00    -0.744 OA
ENDBRANCH  85  89
ENDBRANCH  59  82
ENDBRANCH  33  34
ENDBRANCH  25  28
ENDBRANCH  23  24
ENDBRANCH  22  23
ENDBRANCH   1  22
TORSDOF 19
ENDMDL
MODEL 2
REMARK VINA RESULT:     -10.3      3.842      9.280
REMARK SMILES C[NH2+][C@@]1(C(=O)NCCCCCCNC(=O)c2ccc(-c3c4nc(c(-c5cc(S(=O)(=O)[O-])ccc5F)c5ccc([nH]5)c(-c5cc(S(=O)(=O)[O-])ccc5F)c5nc(c(-c6cc(S(=O)(=O)[O-])ccc6F)c6ccc3[nH]6)C=C5)C=C4)cc2)CC[C@H](SC(C)C)C1
REMARK SMILES IDX 10 1 9 2 8 3 7 4 6 5 4 6 5 7 3 9 79 10 86 11 80 12 81 13
REMARK SMILES IDX 2 14 1 15 82 18 83 19 84 20 85 21 11 22 12 23 13 24 14 25
REMARK SMILES IDX 15 27 16 28 17 29 78 30 18 31 77 32 19 33 20 34 21 35 71 36
REMARK SMILES IDX 22 37 76 38 70 39 72 40 23 41 75 42 69 43 68 44 24 46 56 47
REMARK SMILES IDX 36 48 55 49 37 50 40 51 54 52 73 53 38 54 39 55 53 57 74 58
REMARK SMILES IDX 41 59 25 60 26 61 34 62 27 63 33 64 35 65 32 66 28 67 29 68
REMARK SMILES IDX 30 69 31 70 57 71 58 72 66 73 59 74 65 75 67 76 64 77 60 78
REMARK SMILES IDX 61 79 62 80 63 81 42 82 43 83 51 84 44 85 50 86 52 87 49 88
REMARK SMILES IDX 45 89 46 90 47 91 48 92
REMARK H PARENT 6 8 2 16 2 17 13 26 72 45 40 56
REMARK Flexibility Score: inf
ROOT
ATOM      1  C   UNL A   1      33.759  28.182  23.855  1.00  0.00     0.002 C 
ENDROOT
BRANCH   1   2
ATOM      2  C   UNL A   1      32.815  27.587  22.803  1.00  0.00     0.002 C 
BRANCH   2   3
ATOM      3  C   UNL A   1      33.176  26.199  22.275  1.00  0.00     0.021 C 
BRANCH   3   4
ATOM      4  C   UNL A   1      32.113  25.127  22.475  1.00  0.00     0.116 C 
BRANCH   4   5
ATOM      5  N   UNL A   1      30.892  25.585  23.086  1.00  0.00    -0.351 N 
ATOM      6  C   UNL A   1      30.474  25.563  24.379  1.00  0.00     0.281 C 
ATOM      7  O   UNL A   1      29.524  26.328  24.623  1.00  0.00    -0.268 OA
ATOM      8  H   UNL A   1      30.247  25.983  22.457  1.00  0.00     0.163 HD
BRANCH   6   9
ATOM      9  C   UNL A   1      31.112  24.702  25.562  1.00  0.00     0.176 C 
ATOM     10  C   UNL A   1      32.120  25.532  26.372  1.00  0.00     0.080 C 
ATOM     11  C   UNL A   1      31.893  23.431  25.187  1.00  0.00     0.093 C 
ATOM     12  C   UNL A   1      33.500  25.154  25.844  1.00  0.00     0.022 C 
ATOM     13  C   UNL A   1      33.403  23.676  25.470  1.00  0.00     0.054 C 
BRANCH   9  14
ATOM     14  N   UNL A   1      29.984  24.382  26.505  1.00  0.00    -0.336 N 
ATOM     15  C   UNL A   1      29.933  22.981  26.923  1.00  0.00     0.331 C 
ATOM     16  H   UNL A   1      30.090  24.961  27.338  1.00  0.00     0.346 HD
ATOM     17  H   UNL A   1      29.117  24.570  26.001  1.00  0.00     0.346 HD
ENDBRANCH   9  14
BRANCH  13  18
ATOM     18  S   UNL A   1      34.303  22.877  24.068  1.00  0.00    -0.155 SA
BRANCH  18  19
ATOM     19  C   UNL A   1      35.216  21.388  24.637  1.00  0.00     0.040 C 
ATOM     20  C   UNL A   1      36.290  21.504  25.700  1.00  0.00     0.019 C 
ATOM     21  C   UNL A   1      34.211  20.296  24.988  1.00  0.00     0.019 C 
ENDBRANCH  18  19
ENDBRANCH  13  18
ENDBRANCH   6   9
ENDBRANCH   4   5
ENDBRANCH   3   4
ENDBRANCH   2   3
ENDBRANCH   1   2
BRANCH   1  22
ATOM     22  C   UNL A   1      33.173  29.241  24.795  1.00  0.00     0.021 C 
BRANCH  22  23
ATOM     23  C   UNL A   1      33.778  29.310  26.196  1.00  0.00     0.116 C 
BRANCH  23  24
ATOM     24  N   UNL A   1      33.652  30.626  26.791  1.00  0.00    -0.352 N 
ATOM     25  C   UNL A   1      34.381  31.232  27.783  1.00  0.00     0.251 C 
ATOM     26  H   UNL A   1      32.922  31.175  26.422  1.00  0.00     0.163 HD
ATOM     27  O   UNL A   1      33.972  32.288  28.260  1.00  0.00    -0.269 OA
BRANCH  25  28
ATOM     28  C   UNL A   1      35.632  30.626  28.300  1.00  0.00     0.039 A 
ATOM     29  C   UNL A   1      36.836  30.934  27.657  1.00  0.00     0.014 A 
ATOM     30  C   UNL A   1      35.629  29.716  29.362  1.00  0.00     0.014 A 
ATOM     31  C   UNL A   1      38.036  30.375  28.110  1.00  0.00     0.010 A 
ATOM     32  C   UNL A   1      36.834  29.206  29.850  1.00  0.00     0.010 A 
ATOM     33  C   UNL A   1      38.051  29.526  29.227  1.00  0.00    -0.014 A 
BRANCH  33  34
ATOM     34  C   UNL A   1      39.326  28.959  29.743  1.00  0.00     0.031 A 
ATOM     35  C   UNL A   1      40.026  29.601  30.910  1.00  0.00     0.074 A 
ATOM     36  C   UNL A   1      39.880  27.894  29.129  1.00  0.00     0.049 A 
ATOM     37  N   UNL A   1      41.177  29.298  31.457  1.00  0.00    -0.248 NA
ATOM     38  C   UNL A   1      39.355  30.755  31.526  1.00  0.00     0.031 C 
ATOM     39  C   UNL A   1      39.316  27.200  27.970  1.00  0.00     0.029 A 
ATOM     40  N   UNL A   1      41.046  27.215  29.386  1.00  0.00    -0.354 N 
ATOM     41  C   UNL A   1      41.374  30.228  32.472  1.00  0.00     0.074 A 
ATOM     42  C   UNL A   1      40.248  31.139  32.425  1.00  0.00     0.031 C 
ATOM     43  C   UNL A   1      40.126  26.186  27.627  1.00  0.00     0.029 A 
ATOM     44  C   UNL A   1      41.288  26.181  28.510  1.00  0.00     0.049 A 
ATOM     45  H   UNL A   1      41.651  27.446  30.127  1.00  0.00     0.167 HD
ATOM     46  C   UNL A   1      42.388  30.305  33.371  1.00  0.00     0.034 A 
ATOM     47  C   UNL A   1      42.333  25.334  28.420  1.00  0.00     0.034 A 
ATOM     48  C   UNL A   1      43.497  29.382  33.414  1.00  0.00     0.049 A 
ATOM     49  C   UNL A   1      43.458  25.451  29.416  1.00  0.00     0.074 A 
ATOM     50  C   UNL A   1      44.546  29.337  34.317  1.00  0.00     0.029 A 
ATOM     51  N   UNL A   1      43.708  28.347  32.513  1.00  0.00    -0.354 N 
ATOM     52  N   UNL A   1      43.606  26.309  30.399  1.00  0.00    -0.248 NA
ATOM     53  C   UNL A   1      44.550  24.477  29.298  1.00  0.00     0.031 C 
ATOM     54  C   UNL A   1      45.422  28.317  33.923  1.00  0.00     0.029 A 
ATOM     55  C   UNL A   1      44.883  27.678  32.819  1.00  0.00     0.049 A 
ATOM     56  H   UNL A   1      43.108  28.121  31.765  1.00  0.00     0.167 HD
ATOM     57  C   UNL A   1      44.795  25.958  31.032  1.00  0.00     0.074 A 
ATOM     58  C   UNL A   1      45.315  24.803  30.329  1.00  0.00     0.031 C 
ATOM     59  C   UNL A   1      45.399  26.535  32.101  1.00  0.00     0.034 A 
BRANCH  46  60
ATOM     60  C   UNL A   1      42.353  31.446  34.361  1.00  0.00     0.023 A 
ATOM     61  C   UNL A   1      41.464  31.453  35.450  1.00  0.00     0.031 A 
ATOM     62  C   UNL A   1      43.200  32.556  34.199  1.00  0.00     0.131 A 
ATOM     63  C   UNL A   1      41.386  32.578  36.286  1.00  0.00     0.055 A 
ATOM     64  C   UNL A   1      43.175  33.638  35.083  1.00  0.00     0.041 A 
ATOM     65  F   UNL A   1      44.057  32.618  33.169  1.00  0.00    -0.206 F 
ATOM     66  C   UNL A   1      42.253  33.660  36.125  1.00  0.00     0.022 A 
BRANCH  63  67
ATOM     67  S   UNL A   1      40.035  32.667  37.494  1.00  0.00     0.124 S 
ATOM     68  O   UNL A   1      39.200  31.540  37.086  1.00  0.00    -0.237 OA
ATOM     69  O   UNL A   1      40.737  32.517  38.763  1.00  0.00    -0.237 OA
ATOM     70  O   UNL A   1      39.449  33.984  37.256  1.00  0.00    -0.744 OA
ENDBRANCH  63  67
ENDBRANCH  46  60
BRANCH  47  71
ATOM     71  C   UNL A   1      42.378  24.307  27.340  1.00  0.00     0.023 A 
ATOM     72  C   UNL A   1      41.682  23.095  27.464  1.00  0.00     0.031 A 
ATOM     73  C   UNL A   1      43.150  24.511  26.183  1.00  0.00     0.131 A 
ATOM     74  C   UNL A   1      41.807  22.111  26.471  1.00  0.00     0.055 A 
ATOM     75  C   UNL A   1      43.232  23.549  25.173  1.00  0.00     0.041 A 
ATOM     76  F   UNL A   1      43.830  25.656  26.012  1.00  0.00    -0.206 F 
ATOM     77  C   UNL A   1      42.568  22.335  25.320  1.00  0.00     0.022 A 
BRANCH  74  78
ATOM     78  S   UNL A   1      41.022  20.499  26.740  1.00  0.00     0.124 S 
ATOM     79  O   UNL A   1      42.006  19.589  26.167  1.00  0.00    -0.237 OA
ATOM     80  O   UNL A   1      40.886  20.468  28.193  1.00  0.00    -0.237 OA
ATOM     81  O   UNL A   1      39.765  20.606  26.002  1.00  0.00    -0.744 OA
ENDBRANCH  74  78
ENDBRANCH  47  71
BRANCH  59  82
ATOM     82  C   UNL A   1      46.672  25.892  32.598  1.00  0.00     0.023 A 
ATOM     83  C   UNL A   1      47.916  26.157  32.002  1.00  0.00     0.031 A 
ATOM     84  C   UNL A   1      46.632  24.988  33.674  1.00  0.00     0.131 A 
ATOM     85  C   UNL A   1      49.063  25.484  32.450  1.00  0.00     0.055 A 
ATOM     86  C   UNL A   1      47.784  24.365  34.153  1.00  0.00     0.041 A 
ATOM     87  F   UNL A   1      45.469  24.697  34.279  1.00  0.00    -0.206 F 
ATOM     88  C   UNL A   1      49.007  24.601  33.533  1.00  0.00     0.022 A 
BRANCH  85  89
ATOM     89  S   UNL A   1      50.618  25.711  31.543  1.00  0.00     0.124 S 
ATOM     90  O   UNL A   1      51.566  24.982  32.379  1.00  0.00    -0.237 OA
ATOM     91  O   UNL A   1      50.316  25.109  30.248  1.00  0.00    -0.237 OA
ATOM     92  O   UNL A   1      50.796  27.162  31.524  1.00  0.00    -0.744 OA
ENDBRANCH  85  89
ENDBRANCH  59  82
ENDBRANCH  33  34
ENDBRANCH  25  28
ENDBRANCH  23  24
ENDBRANCH  22  23
ENDBRANCH   1  22
TORSDOF 19
ENDMDL
MODEL 3
REMARK VINA RESULT:     -10.2      3.746      9.203
REMARK SMILES C[NH2+][C@@]1(C(=O)NCCCCCCNC(=O)c2ccc(-c3c4nc(c(-c5cc(S(=O)(=O)[O-])ccc5F)c5ccc([nH]5)c(-c5cc(S(=O)(=O)[O-])ccc5F)c5nc(c(-c6cc(S(=O)(=O)[O-])ccc6F)c6ccc3[nH]6)C=C5)C=C4)cc2)CC[C@H](SC(C)C)C1
REMARK SMILES IDX 10 1 9 2 8 3 7 4 6 5 4 6 5 7 3 9 79 10 86 11 80 12 81 13
REMARK SMILES IDX 2 14 1 15 82 18 83 19 84 20 85 21 11 22 12 23 13 24 14 25
REMARK SMILES IDX 15 27 16 28 17 29 78 30 18 31 77 32 19 33 20 34 21 35 71 36
REMARK SMILES IDX 22 37 76 38 70 39 72 40 23 41 75 42 69 43 68 44 24 46 56 47
REMARK SMILES IDX 36 48 55 49 37 50 40 51 54 52 73 53 38 54 39 55 53 57 74 58
REMARK SMILES IDX 41 59 25 60 26 61 34 62 27 63 33 64 35 65 32 66 28 67 29 68
REMARK SMILES IDX 30 69 31 70 57 71 58 72 66 73 59 74 65 75 67 76 64 77 60 78
REMARK SMILES IDX 61 79 62 80 63 81 42 82 43 83 51 84 44 85 50 86 52 87 49 88
REMARK SMILES IDX 45 89 46 90 47 91 48 92
REMARK H PARENT 6 8 2 16 2 17 13 26 72 45 40 56
REMARK Flexibility Score: inf
ROOT
ATOM      1  C   UNL A   1      31.480  27.565  26.804  1.00  0.00     0.002 C 
ENDROOT
BRANCH   1   2
ATOM      2  C   UNL A   1      31.799  26.103  26.464  1.00  0.00     0.002 C 
BRANCH   2   3
ATOM      3  C   UNL A   1      30.657  25.280  25.871  1.00  0.00     0.021 C 
BRANCH   3   4
ATOM      4  C   UNL A   1      30.656  25.162  24.352  1.00  0.00     0.116 C 
BRANCH   4   5
ATOM      5  N   UNL A   1      30.425  26.395  23.645  1.00  0.00    -0.351 N 
ATOM      6  C   UNL A   1      31.135  27.010  22.662  1.00  0.00     0.281 C 
ATOM      7  O   UNL A   1      30.500  27.881  22.042  1.00  0.00    -0.268 OA
ATOM      8  H   UNL A   1      29.612  26.876  23.922  1.00  0.00     0.163 HD
BRANCH   6   9
ATOM      9  C   UNL A   1      32.638  26.682  22.237  1.00  0.00     0.176 C 
ATOM     10  C   UNL A   1      32.680  25.697  21.059  1.00  0.00     0.080 C 
ATOM     11  C   UNL A   1      33.560  26.043  23.289  1.00  0.00     0.093 C 
ATOM     12  C   UNL A   1      32.937  24.322  21.666  1.00  0.00     0.022 C 
ATOM     13  C   UNL A   1      33.843  24.572  22.871  1.00  0.00     0.054 C 
BRANCH   9  14
ATOM     14  N   UNL A   1      33.220  27.971  21.723  1.00  0.00    -0.336 N 
ATOM     15  C   UNL A   1      33.946  28.743  22.730  1.00  0.00     0.331 C 
ATOM     16  H   UNL A   1      33.865  27.749  20.964  1.00  0.00     0.346 HD
ATOM     17  H   UNL A   1      32.436  28.547  21.419  1.00  0.00     0.346 HD
ENDBRANCH   9  14
BRANCH  13  18
ATOM     18  S   UNL A   1      33.812  23.597  24.441  1.00  0.00    -0.155 SA
BRANCH  18  19
ATOM     19  C   UNL A   1      35.483  22.953  24.848  1.00  0.00     0.040 C 
ATOM     20  C   UNL A   1      36.270  23.534  26.007  1.00  0.00     0.019 C 
ATOM     21  C   UNL A   1      35.420  21.433  24.934  1.00  0.00     0.019 C 
ENDBRANCH  18  19
ENDBRANCH  13  18
ENDBRANCH   6   9
ENDBRANCH   4   5
ENDBRANCH   3   4
ENDBRANCH   2   3
ENDBRANCH   1   2
BRANCH   1  22
ATOM     22  C   UNL A   1      32.215  28.642  25.997  1.00  0.00     0.021 C 
BRANCH  22  23
ATOM     23  C   UNL A   1      33.533  29.142  26.583  1.00  0.00     0.116 C 
BRANCH  23  24
ATOM     24  N   UNL A   1      33.484  30.546  26.943  1.00  0.00    -0.352 N 
ATOM     25  C   UNL A   1      34.305  31.290  27.752  1.00  0.00     0.251 C 
ATOM     26  H   UNL A   1      32.738  31.046  26.541  1.00  0.00     0.163 HD
ATOM     27  O   UNL A   1      33.958  32.427  28.065  1.00  0.00    -0.269 OA
BRANCH  25  28
ATOM     28  C   UNL A   1      35.581  30.741  28.270  1.00  0.00     0.039 A 
ATOM     29  C   UNL A   1      35.543  29.926  29.407  1.00  0.00     0.014 A 
ATOM     30  C   UNL A   1      36.814  31.066  27.695  1.00  0.00     0.014 A 
ATOM     31  C   UNL A   1      36.727  29.396  29.931  1.00  0.00     0.010 A 
ATOM     32  C   UNL A   1      37.988  30.487  28.182  1.00  0.00     0.010 A 
ATOM     33  C   UNL A   1      37.959  29.650  29.309  1.00  0.00    -0.014 A 
BRANCH  33  34
ATOM     34  C   UNL A   1      39.219  29.058  29.833  1.00  0.00     0.031 A 
ATOM     35  C   UNL A   1      39.896  29.657  31.037  1.00  0.00     0.074 A 
ATOM     36  C   UNL A   1      39.782  28.013  29.195  1.00  0.00     0.049 A 
ATOM     37  N   UNL A   1      41.033  29.328  31.599  1.00  0.00    -0.248 NA
ATOM     38  C   UNL A   1      39.217  30.792  31.677  1.00  0.00     0.031 C 
ATOM     39  C   UNL A   1      39.240  27.361  28.001  1.00  0.00     0.029 A 
ATOM     40  N   UNL A   1      40.938  27.319  29.454  1.00  0.00    -0.354 N 
ATOM     41  C   UNL A   1      41.212  30.222  32.649  1.00  0.00     0.074 A 
ATOM     42  C   UNL A   1      40.092  31.140  32.608  1.00  0.00     0.031 C 
ATOM     43  C   UNL A   1      40.054  26.356  27.641  1.00  0.00     0.029 A 
ATOM     44  C   UNL A   1      41.195  26.314  28.549  1.00  0.00     0.049 A 
ATOM     45  H   UNL A   1      41.528  27.521  30.216  1.00  0.00     0.167 HD
ATOM     46  C   UNL A   1      42.205  30.263  33.573  1.00  0.00     0.034 A 
ATOM     47  C   UNL A   1      42.238  25.465  28.453  1.00  0.00     0.034 A 
ATOM     48  C   UNL A   1      43.309  29.332  33.609  1.00  0.00     0.049 A 
ATOM     49  C   UNL A   1      43.341  25.541  29.477  1.00  0.00     0.074 A 
ATOM     50  C   UNL A   1      44.338  29.250  34.532  1.00  0.00     0.029 A 
ATOM     51  N   UNL A   1      43.535  28.327  32.677  1.00  0.00    -0.354 N 
ATOM     52  N   UNL A   1      43.471  26.365  30.492  1.00  0.00    -0.248 NA
ATOM     53  C   UNL A   1      44.431  24.566  29.350  1.00  0.00     0.031 C 
ATOM     54  C   UNL A   1      45.217  28.240  34.123  1.00  0.00     0.029 A 
ATOM     55  C   UNL A   1      44.700  27.642  32.986  1.00  0.00     0.049 A 
ATOM     56  H   UNL A   1      42.951  28.131  31.909  1.00  0.00     0.167 HD
ATOM     57  C   UNL A   1      44.644  25.985  31.139  1.00  0.00     0.074 A 
ATOM     58  C   UNL A   1      45.174  24.852  30.408  1.00  0.00     0.031 C 
ATOM     59  C   UNL A   1      45.227  26.522  32.241  1.00  0.00     0.034 A 
BRANCH  46  60
ATOM     60  C   UNL A   1      42.153  31.369  34.600  1.00  0.00     0.023 A 
ATOM     61  C   UNL A   1      41.154  31.415  35.588  1.00  0.00     0.031 A 
ATOM     62  C   UNL A   1      43.099  32.408  34.577  1.00  0.00     0.131 A 
ATOM     63  C   UNL A   1      41.075  32.513  36.457  1.00  0.00     0.055 A 
ATOM     64  C   UNL A   1      43.065  33.458  35.497  1.00  0.00     0.041 A 
ATOM     65  F   UNL A   1      44.067  32.431  33.647  1.00  0.00    -0.206 F 
ATOM     66  C   UNL A   1      42.039  33.523  36.435  1.00  0.00     0.022 A 
BRANCH  63  67
ATOM     67  S   UNL A   1      39.612  32.677  37.517  1.00  0.00     0.124 S 
ATOM     68  O   UNL A   1      39.029  33.923  37.023  1.00  0.00    -0.237 OA
ATOM     69  O   UNL A   1      38.868  31.459  37.215  1.00  0.00    -0.237 OA
ATOM     70  O   UNL A   1      40.170  32.750  38.865  1.00  0.00    -0.744 OA
ENDBRANCH  63  67
ENDBRANCH  46  60
BRANCH  47  71
ATOM     71  C   UNL A   1      42.302  24.476  27.340  1.00  0.00     0.023 A 
ATOM     72  C   UNL A   1      41.559  23.286  27.384  1.00  0.00     0.031 A 
ATOM     73  C   UNL A   1      43.139  24.691  26.230  1.00  0.00     0.131 A 
ATOM     74  C   UNL A   1      41.701  22.334  26.363  1.00  0.00     0.055 A 
ATOM     75  C   UNL A   1      43.239  23.763  25.192  1.00  0.00     0.041 A 
ATOM     76  F   UNL A   1      43.866  25.816  26.136  1.00  0.00    -0.206 F 
ATOM     77  C   UNL A   1      42.527  22.570  25.260  1.00  0.00     0.022 A 
BRANCH  74  78
ATOM     78  S   UNL A   1      40.846  20.743  26.533  1.00  0.00     0.124 S 
ATOM     79  O   UNL A   1      39.539  21.045  25.962  1.00  0.00    -0.237 OA
ATOM     80  O   UNL A   1      41.701  19.856  25.749  1.00  0.00    -0.237 OA
ATOM     81  O   UNL A   1      40.860  20.503  27.974  1.00  0.00    -0.744 OA
ENDBRANCH  74  78
ENDBRANCH  47  71
BRANCH  59  82
ATOM     82  C   UNL A   1      46.485  25.855  32.744  1.00  0.00     0.023 A 
ATOM     83  C   UNL A   1      47.741  26.117  32.171  1.00  0.00     0.031 A 
ATOM     84  C   UNL A   1      46.419  24.930  33.801  1.00  0.00     0.131 A 
ATOM     85  C   UNL A   1      48.873  25.423  32.623  1.00  0.00     0.055 A 
ATOM     86  C   UNL A   1      47.557  24.285  34.284  1.00  0.00     0.041 A 
ATOM     87  F   UNL A   1      45.244  24.640  34.383  1.00  0.00    -0.206 F 
ATOM     88  C   UNL A   1      48.792  24.520  33.687  1.00  0.00     0.022 A 
BRANCH  85  89
ATOM     89  S   UNL A   1      50.444  25.651  31.744  1.00  0.00     0.124 S 
ATOM     90  O   UNL A   1      51.085  24.353  31.925  1.00  0.00    -0.237 OA
ATOM     91  O   UNL A   1      50.001  25.959  30.387  1.00  0.00    -0.237 OA
ATOM     92  O   UNL A   1      51.078  26.760  32.454  1.00  0.00    -0.744 OA
ENDBRANCH  85  89
ENDBRANCH  59  82
ENDBRANCH  33  34
ENDBRANCH  25  28
ENDBRANCH  23  24
ENDBRANCH  22  23
ENDBRANCH   1  22
TORSDOF 19
ENDMDL
