MODEL 1
REMARK VINA RESULT:     -12.3      0.000      0.000
REMARK SMILES O=C(NCCCCCCNC(=O)c1csc(-c2cnc3ccccc3c2)c1)c1ccc(-c2c3nc(c(-c4cc(S(=O)(=O)[O-])ccc4F)c4ccc([nH]4)c(-c4cc(S(=O)(=O)[O-])ccc4F)c4nc(c(-c5cc(S(=O)(=O)[O-])ccc5F)c5ccc2[nH]5)C=C4)C=C3)cc1
REMARK SMILES IDX 5 1 4 2 3 3 1 4 2 5 28 7 29 8 90 9 30 10 89 11 31 12 32 13
REMARK SMILES IDX 33 14 83 15 34 16 88 17 82 18 84 19 35 20 87 21 81 22 80 23
REMARK SMILES IDX 36 25 68 26 48 27 67 28 49 29 52 30 66 31 85 32 50 33 51 34
REMARK SMILES IDX 65 36 86 37 53 38 37 39 38 40 46 41 39 42 45 43 47 44 44 45
REMARK SMILES IDX 40 46 41 47 42 48 43 49 69 50 70 51 78 52 71 53 77 54 79 55
REMARK SMILES IDX 76 56 72 57 73 58 74 59 75 60 54 61 55 62 63 63 56 64 62 65
REMARK SMILES IDX 64 66 61 67 57 68 58 69 59 70 60 71 6 72 7 73 8 74 9 75
REMARK SMILES IDX 10 76 11 77 12 79 13 80 14 81 27 82 15 83 16 84 17 85 18 86
REMARK SMILES IDX 26 87 19 88 25 89 20 90 24 91 21 92 23 93 22 94
REMARK H PARENT 3 6 84 24 52 35 10 78
REMARK Flexibility Score: inf
ROOT
ATOM      1  C   UNL A   1      31.477  31.720  26.569  1.00  0.00     0.021 C 
ENDROOT
BRANCH   1   2
ATOM      2  C   UNL A   1      32.687  32.334  27.262  1.00  0.00     0.116 C 
BRANCH   2   3
ATOM      3  N   UNL A   1      32.499  33.743  27.555  1.00  0.00    -0.352 N 
ATOM      4  O   UNL A   1      32.728  35.653  28.723  1.00  0.00    -0.269 OA
ATOM      5  C   UNL A   1      33.132  34.515  28.497  1.00  0.00     0.251 C 
ATOM      6  H   UNL A   1      31.826  34.206  27.005  1.00  0.00     0.163 HD
BRANCH   5   7
ATOM      7  C   UNL A   1      34.290  33.974  29.245  1.00  0.00     0.039 A 
ATOM      8  C   UNL A   1      34.124  32.953  30.187  1.00  0.00     0.014 A 
ATOM      9  C   UNL A   1      35.568  34.463  28.960  1.00  0.00     0.014 A 
ATOM     10  C   UNL A   1      35.224  32.475  30.896  1.00  0.00     0.010 A 
ATOM     11  C   UNL A   1      36.678  33.944  29.631  1.00  0.00     0.010 A 
ATOM     12  C   UNL A   1      36.513  32.948  30.606  1.00  0.00    -0.014 A 
BRANCH  12  13
ATOM     13  C   UNL A   1      37.692  32.305  31.240  1.00  0.00     0.031 A 
ATOM     14  C   UNL A   1      38.423  31.181  30.566  1.00  0.00     0.074 A 
ATOM     15  C   UNL A   1      38.076  32.741  32.457  1.00  0.00     0.049 A 
ATOM     16  N   UNL A   1      39.448  30.492  30.998  1.00  0.00    -0.248 NA
ATOM     17  C   UNL A   1      37.941  30.771  29.238  1.00  0.00     0.031 C 
ATOM     18  C   UNL A   1      37.420  33.815  33.209  1.00  0.00     0.029 A 
ATOM     19  N   UNL A   1      39.098  32.338  33.278  1.00  0.00    -0.354 N 
ATOM     20  C   UNL A   1      39.726  29.556  30.009  1.00  0.00     0.074 A 
ATOM     21  C   UNL A   1      38.750  29.757  28.958  1.00  0.00     0.031 C 
ATOM     22  C   UNL A   1      38.060  33.989  34.375  1.00  0.00     0.029 A 
ATOM     23  C   UNL A   1      39.131  33.006  34.480  1.00  0.00     0.049 A 
ATOM     24  H   UNL A   1      39.743  31.637  33.032  1.00  0.00     0.167 HD
ATOM     25  C   UNL A   1      40.707  28.621  29.987  1.00  0.00     0.034 A 
ATOM     26  C   UNL A   1      39.912  32.825  35.562  1.00  0.00     0.034 A 
ATOM     27  C   UNL A   1      41.677  28.446  31.040  1.00  0.00     0.049 A 
ATOM     28  C   UNL A   1      40.962  31.749  35.522  1.00  0.00     0.074 A 
ATOM     29  C   UNL A   1      42.773  27.600  31.069  1.00  0.00     0.029 A 
ATOM     30  N   UNL A   1      41.657  29.109  32.259  1.00  0.00    -0.354 N 
ATOM     31  N   UNL A   1      41.255  30.920  34.547  1.00  0.00    -0.248 NA
ATOM     32  C   UNL A   1      41.782  31.580  36.728  1.00  0.00     0.031 C 
ATOM     33  C   UNL A   1      43.374  27.704  32.330  1.00  0.00     0.029 A 
ATOM     34  C   UNL A   1      42.689  28.656  33.067  1.00  0.00     0.049 A 
ATOM     35  H   UNL A   1      41.004  29.801  32.514  1.00  0.00     0.167 HD
ATOM     36  C   UNL A   1      42.298  30.135  35.022  1.00  0.00     0.074 A 
ATOM     37  C   UNL A   1      42.600  30.605  36.359  1.00  0.00     0.031 C 
ATOM     38  C   UNL A   1      42.950  29.113  34.410  1.00  0.00     0.034 A 
BRANCH  25  39
ATOM     39  C   UNL A   1      40.759  27.681  28.810  1.00  0.00     0.023 A 
ATOM     40  C   UNL A   1      41.720  27.816  27.793  1.00  0.00     0.031 A 
ATOM     41  C   UNL A   1      39.848  26.614  28.723  1.00  0.00     0.131 A 
ATOM     42  C   UNL A   1      41.723  26.917  26.714  1.00  0.00     0.055 A 
ATOM     43  C   UNL A   1      39.891  25.693  27.676  1.00  0.00     0.041 A 
ATOM     44  F   UNL A   1      38.900  26.450  29.661  1.00  0.00    -0.206 F 
ATOM     45  C   UNL A   1      40.828  25.845  26.659  1.00  0.00     0.022 A 
BRANCH  42  46
ATOM     46  S   UNL A   1      42.868  27.212  25.337  1.00  0.00     0.124 S 
ATOM     47  O   UNL A   1      42.834  25.928  24.643  1.00  0.00    -0.237 OA
ATOM     48  O   UNL A   1      42.244  28.332  24.642  1.00  0.00    -0.237 OA
ATOM     49  O   UNL A   1      44.133  27.519  26.003  1.00  0.00    -0.744 OA
ENDBRANCH  42  46
ENDBRANCH  25  39
BRANCH  26  50
ATOM     50  C   UNL A   1      39.689  33.633  36.794  1.00  0.00     0.023 A 
ATOM     51  C   UNL A   1      39.023  33.096  37.905  1.00  0.00     0.031 A 
ATOM     52  C   UNL A   1      40.112  34.973  36.858  1.00  0.00     0.131 A 
ATOM     53  C   UNL A   1      38.764  33.906  39.021  1.00  0.00     0.055 A 
ATOM     54  C   UNL A   1      39.896  35.761  37.989  1.00  0.00     0.041 A 
ATOM     55  F   UNL A   1      40.756  35.533  35.822  1.00  0.00    -0.206 F 
ATOM     56  C   UNL A   1      39.206  35.231  39.075  1.00  0.00     0.022 A 
BRANCH  53  57
ATOM     57  S   UNL A   1      37.759  33.230  40.370  1.00  0.00     0.124 S 
ATOM     58  O   UNL A   1      37.672  34.366  41.279  1.00  0.00    -0.237 OA
ATOM     59  O   UNL A   1      36.529  32.868  39.676  1.00  0.00    -0.237 OA
ATOM     60  O   UNL A   1      38.555  32.103  40.853  1.00  0.00    -0.744 OA
ENDBRANCH  53  57
ENDBRANCH  26  50
BRANCH  38  61
ATOM     61  C   UNL A   1      44.050  28.454  35.196  1.00  0.00     0.023 A 
ATOM     62  C   UNL A   1      43.817  27.276  35.927  1.00  0.00     0.031 A 
ATOM     63  C   UNL A   1      45.333  29.026  35.242  1.00  0.00     0.131 A 
ATOM     64  C   UNL A   1      44.840  26.733  36.717  1.00  0.00     0.055 A 
ATOM     65  C   UNL A   1      46.363  28.452  35.989  1.00  0.00     0.041 A 
ATOM     66  F   UNL A   1      45.604  30.152  34.564  1.00  0.00    -0.206 F 
ATOM     67  C   UNL A   1      46.115  27.306  36.742  1.00  0.00     0.022 A 
BRANCH  64  68
ATOM     68  S   UNL A   1      44.462  25.308  37.771  1.00  0.00     0.124 S 
ATOM     69  O   UNL A   1      45.050  25.708  39.044  1.00  0.00    -0.237 OA
ATOM     70  O   UNL A   1      43.004  25.262  37.728  1.00  0.00    -0.237 OA
ATOM     71  O   UNL A   1      45.134  24.196  37.099  1.00  0.00    -0.744 OA
ENDBRANCH  64  68
ENDBRANCH  38  61
ENDBRANCH  12  13
ENDBRANCH   5   7
ENDBRANCH   2   3
ENDBRANCH   1   2
BRANCH   1  72
ATOM     72  C   UNL A   1      31.700  30.325  25.981  1.00  0.00     0.002 C 
BRANCH  72  73
ATOM     73  C   UNL A   1      32.237  29.271  26.954  1.00  0.00     0.002 C 
BRANCH  73  74
ATOM     74  C   UNL A   1      32.766  27.981  26.317  1.00  0.00     0.021 C 
BRANCH  74  75
ATOM     75  C   UNL A   1      32.126  26.689  26.827  1.00  0.00     0.116 C 
BRANCH  75  76
ATOM     76  N   UNL A   1      30.762  26.541  26.349  1.00  0.00    -0.352 N 
ATOM     77  C   UNL A   1      30.302  25.888  25.241  1.00  0.00     0.252 C 
ATOM     78  H   UNL A   1      30.071  26.971  26.902  1.00  0.00     0.163 HD
ATOM     79  O   UNL A   1      29.141  26.089  24.864  1.00  0.00    -0.269 OA
BRANCH  77  80
ATOM     80  C   UNL A   1      31.188  24.992  24.520  1.00  0.00     0.051 A 
ATOM     81  C   UNL A   1      31.853  25.318  23.351  1.00  0.00     0.079 A 
ATOM     82  C   UNL A   1      31.563  23.680  24.963  1.00  0.00     0.034 A 
ATOM     83  S   UNL A   1      32.839  24.049  22.776  1.00  0.00    -0.143 S 
ATOM     84  C   UNL A   1      32.447  23.049  24.110  1.00  0.00     0.037 A 
BRANCH  84  85
ATOM     85  C   UNL A   1      33.024  21.712  24.227  1.00  0.00     0.011 A 
ATOM     86  C   UNL A   1      34.211  21.500  24.918  1.00  0.00     0.121 A 
ATOM     87  C   UNL A   1      32.439  20.599  23.621  1.00  0.00     0.021 A 
ATOM     88  N   UNL A   1      34.828  20.298  25.038  1.00  0.00    -0.256 NA
ATOM     89  C   UNL A   1      33.046  19.340  23.722  1.00  0.00     0.001 A 
ATOM     90  C   UNL A   1      34.251  19.237  24.449  1.00  0.00     0.070 A 
ATOM     91  C   UNL A   1      32.485  18.204  23.114  1.00  0.00     0.010 A 
ATOM     92  C   UNL A   1      34.853  17.990  24.545  1.00  0.00     0.029 A 
ATOM     93  C   UNL A   1      33.113  16.964  23.224  1.00  0.00     0.001 A 
ATOM     94  C   UNL A   1      34.298  16.857  23.941  1.00  0.00     0.002 A 
ENDBRANCH  84  85
ENDBRANCH  77  80
ENDBRANCH  75  76
ENDBRANCH  74  75
ENDBRANCH  73  74
ENDBRANCH  72  73
ENDBRANCH   1  72
TORSDOF 17
ENDMDL
MODEL 2
REMARK VINA RESULT:     -12.3      5.625     11.859
REMARK SMILES O=C(NCCCCCCNC(=O)c1csc(-c2cnc3ccccc3c2)c1)c1ccc(-c2c3nc(c(-c4cc(S(=O)(=O)[O-])ccc4F)c4ccc([nH]4)c(-c4cc(S(=O)(=O)[O-])ccc4F)c4nc(c(-c5cc(S(=O)(=O)[O-])ccc5F)c5ccc2[nH]5)C=C4)C=C3)cc1
REMARK SMILES IDX 5 1 4 2 3 3 1 4 2 5 28 7 29 8 90 9 30 10 89 11 31 12 32 13
REMARK SMILES IDX 33 14 83 15 34 16 88 17 82 18 84 19 35 20 87 21 81 22 80 23
REMARK SMILES IDX 36 25 68 26 48 27 67 28 49 29 52 30 66 31 85 32 50 33 51 34
REMARK SMILES IDX 65 36 86 37 53 38 37 39 38 40 46 41 39 42 45 43 47 44 44 45
REMARK SMILES IDX 40 46 41 47 42 48 43 49 69 50 70 51 78 52 71 53 77 54 79 55
REMARK SMILES IDX 76 56 72 57 73 58 74 59 75 60 54 61 55 62 63 63 56 64 62 65
REMARK SMILES IDX 64 66 61 67 57 68 58 69 59 70 60 71 6 72 7 73 8 74 9 75
REMARK SMILES IDX 10 76 11 77 12 79 13 80 14 81 27 82 15 83 16 84 17 85 18 86
REMARK SMILES IDX 26 87 19 88 25 89 20 90 24 91 21 92 23 93 22 94
REMARK H PARENT 3 6 84 24 52 35 10 78
REMARK Flexibility Score: inf
ROOT
ATOM      1  C   UNL A   1      37.787  20.048  24.986  1.00  0.00     0.021 C 
ENDROOT
BRANCH   1   2
ATOM      2  C   UNL A   1      39.029  20.464  25.766  1.00  0.00     0.116 C 
BRANCH   2   3
ATOM      3  N   UNL A   1      40.004  19.394  25.864  1.00  0.00    -0.352 N 
ATOM      4  O   UNL A   1      42.059  18.480  25.934  1.00  0.00    -0.269 OA
ATOM      5  C   UNL A   1      41.362  19.485  26.044  1.00  0.00     0.251 C 
ATOM      6  H   UNL A   1      39.642  18.481  25.791  1.00  0.00     0.163 HD
BRANCH   5   7
ATOM      7  C   UNL A   1      41.984  20.792  26.356  1.00  0.00     0.039 A 
ATOM      8  C   UNL A   1      42.326  21.688  25.338  1.00  0.00     0.014 A 
ATOM      9  C   UNL A   1      42.179  21.145  27.695  1.00  0.00     0.014 A 
ATOM     10  C   UNL A   1      42.932  22.902  25.654  1.00  0.00     0.010 A 
ATOM     11  C   UNL A   1      42.735  22.387  28.013  1.00  0.00     0.010 A 
ATOM     12  C   UNL A   1      43.118  23.273  26.995  1.00  0.00    -0.014 A 
BRANCH  12  13
ATOM     13  C   UNL A   1      43.599  24.639  27.320  1.00  0.00     0.031 A 
ATOM     14  C   UNL A   1      42.660  25.695  27.829  1.00  0.00     0.074 A 
ATOM     15  C   UNL A   1      44.902  24.920  27.120  1.00  0.00     0.049 A 
ATOM     16  N   UNL A   1      42.913  26.943  28.128  1.00  0.00    -0.248 NA
ATOM     17  C   UNL A   1      41.256  25.303  28.024  1.00  0.00     0.031 C 
ATOM     18  C   UNL A   1      45.895  23.971  26.608  1.00  0.00     0.029 A 
ATOM     19  N   UNL A   1      45.616  26.075  27.312  1.00  0.00    -0.354 N 
ATOM     20  C   UNL A   1      41.702  27.494  28.529  1.00  0.00     0.074 A 
ATOM     21  C   UNL A   1      40.709  26.445  28.422  1.00  0.00     0.031 C 
ATOM     22  C   UNL A   1      47.089  24.579  26.534  1.00  0.00     0.029 A 
ATOM     23  C   UNL A   1      46.936  25.972  26.937  1.00  0.00     0.049 A 
ATOM     24  H   UNL A   1      45.223  26.898  27.681  1.00  0.00     0.167 HD
ATOM     25  C   UNL A   1      41.451  28.759  28.948  1.00  0.00     0.034 A 
ATOM     26  C   UNL A   1      47.907  26.903  26.887  1.00  0.00     0.034 A 
ATOM     27  C   UNL A   1      42.457  29.786  29.061  1.00  0.00     0.049 A 
ATOM     28  C   UNL A   1      47.585  28.308  27.317  1.00  0.00     0.074 A 
ATOM     29  C   UNL A   1      42.328  31.066  29.573  1.00  0.00     0.029 A 
ATOM     30  N   UNL A   1      43.772  29.661  28.634  1.00  0.00    -0.354 N 
ATOM     31  N   UNL A   1      46.447  28.791  27.761  1.00  0.00    -0.248 NA
ATOM     32  C   UNL A   1      48.671  29.291  27.235  1.00  0.00     0.031 C 
ATOM     33  C   UNL A   1      43.546  31.735  29.394  1.00  0.00     0.029 A 
ATOM     34  C   UNL A   1      44.451  30.856  28.823  1.00  0.00     0.049 A 
ATOM     35  H   UNL A   1      44.166  28.844  28.251  1.00  0.00     0.167 HD
ATOM     36  C   UNL A   1      46.685  30.136  28.016  1.00  0.00     0.074 A 
ATOM     37  C   UNL A   1      48.078  30.381  27.701  1.00  0.00     0.031 C 
ATOM     38  C   UNL A   1      45.830  31.088  28.469  1.00  0.00     0.034 A 
BRANCH  25  39
ATOM     39  C   UNL A   1      40.025  29.122  29.277  1.00  0.00     0.023 A 
ATOM     40  C   UNL A   1      39.570  29.224  30.603  1.00  0.00     0.031 A 
ATOM     41  C   UNL A   1      39.116  29.401  28.241  1.00  0.00     0.131 A 
ATOM     42  C   UNL A   1      38.231  29.562  30.856  1.00  0.00     0.055 A 
ATOM     43  C   UNL A   1      37.801  29.787  28.501  1.00  0.00     0.041 A 
ATOM     44  F   UNL A   1      39.496  29.303  26.957  1.00  0.00    -0.206 F 
ATOM     45  C   UNL A   1      37.349  29.863  29.815  1.00  0.00     0.022 A 
BRANCH  42  46
ATOM     46  S   UNL A   1      37.632  29.528  32.569  1.00  0.00     0.124 S 
ATOM     47  O   UNL A   1      38.695  30.245  33.269  1.00  0.00    -0.237 OA
ATOM     48  O   UNL A   1      36.352  30.219  32.470  1.00  0.00    -0.237 OA
ATOM     49  O   UNL A   1      37.548  28.101  32.874  1.00  0.00    -0.744 OA
ENDBRANCH  42  46
ENDBRANCH  25  39
BRANCH  26  50
ATOM     50  C   UNL A   1      49.254  26.556  26.352  1.00  0.00     0.023 A 
ATOM     51  C   UNL A   1      49.699  27.062  25.122  1.00  0.00     0.031 A 
ATOM     52  C   UNL A   1      50.101  25.680  27.054  1.00  0.00     0.131 A 
ATOM     53  C   UNL A   1      50.942  26.657  24.611  1.00  0.00     0.055 A 
ATOM     54  C   UNL A   1      51.357  25.319  26.566  1.00  0.00     0.041 A 
ATOM     55  F   UNL A   1      49.722  25.171  28.237  1.00  0.00    -0.206 F 
ATOM     56  C   UNL A   1      51.778  25.799  25.330  1.00  0.00     0.022 A 
BRANCH  53  57
ATOM     57  S   UNL A   1      51.414  27.199  22.946  1.00  0.00     0.124 S 
ATOM     58  O   UNL A   1      52.592  26.381  22.686  1.00  0.00    -0.237 OA
ATOM     59  O   UNL A   1      50.221  26.870  22.174  1.00  0.00    -0.237 OA
ATOM     60  O   UNL A   1      51.671  28.628  23.115  1.00  0.00    -0.744 OA
ENDBRANCH  53  57
ENDBRANCH  26  50
BRANCH  38  61
ATOM     61  C   UNL A   1      46.398  32.469  28.647  1.00  0.00     0.023 A 
ATOM     62  C   UNL A   1      46.511  33.355  27.561  1.00  0.00     0.031 A 
ATOM     63  C   UNL A   1      46.860  32.893  29.905  1.00  0.00     0.131 A 
ATOM     64  C   UNL A   1      47.122  34.604  27.742  1.00  0.00     0.055 A 
ATOM     65  C   UNL A   1      47.421  34.157  30.090  1.00  0.00     0.041 A 
ATOM     66  F   UNL A   1      46.777  32.082  30.972  1.00  0.00    -0.206 F 
ATOM     67  C   UNL A   1      47.565  35.015  29.002  1.00  0.00     0.022 A 
BRANCH  64  68
ATOM     68  S   UNL A   1      47.397  35.656  26.291  1.00  0.00     0.124 S 
ATOM     69  O   UNL A   1      48.842  35.855  26.332  1.00  0.00    -0.237 OA
ATOM     70  O   UNL A   1      46.897  34.826  25.201  1.00  0.00    -0.237 OA
ATOM     71  O   UNL A   1      46.598  36.847  26.576  1.00  0.00    -0.744 OA
ENDBRANCH  64  68
ENDBRANCH  38  61
ENDBRANCH  12  13
ENDBRANCH   5   7
ENDBRANCH   2   3
ENDBRANCH   1   2
BRANCH   1  72
ATOM     72  C   UNL A   1      36.619  21.034  25.043  1.00  0.00     0.002 C 
BRANCH  72  73
ATOM     73  C   UNL A   1      35.221  20.414  24.968  1.00  0.00     0.002 C 
BRANCH  73  74
ATOM     74  C   UNL A   1      34.117  21.319  24.409  1.00  0.00     0.021 C 
BRANCH  74  75
ATOM     75  C   UNL A   1      32.716  21.062  24.966  1.00  0.00     0.116 C 
BRANCH  75  76
ATOM     76  N   UNL A   1      32.652  21.314  26.395  1.00  0.00    -0.352 N 
ATOM     77  C   UNL A   1      32.748  22.499  27.068  1.00  0.00     0.252 C 
ATOM     78  H   UNL A   1      32.520  20.518  26.959  1.00  0.00     0.163 HD
ATOM     79  O   UNL A   1      32.927  22.482  28.292  1.00  0.00    -0.269 OA
BRANCH  77  80
ATOM     80  C   UNL A   1      32.659  23.748  26.332  1.00  0.00     0.051 A 
ATOM     81  C   UNL A   1      33.748  24.497  25.923  1.00  0.00     0.079 A 
ATOM     82  C   UNL A   1      31.438  24.332  25.855  1.00  0.00     0.034 A 
ATOM     83  S   UNL A   1      33.298  25.897  25.055  1.00  0.00    -0.143 S 
ATOM     84  C   UNL A   1      31.633  25.505  25.153  1.00  0.00     0.037 A 
BRANCH  84  85
ATOM     85  C   UNL A   1      30.632  26.375  24.543  1.00  0.00     0.011 A 
ATOM     86  C   UNL A   1      29.298  25.992  24.465  1.00  0.00     0.121 A 
ATOM     87  C   UNL A   1      30.969  27.606  23.978  1.00  0.00     0.021 A 
ATOM     88  N   UNL A   1      28.319  26.727  23.881  1.00  0.00    -0.256 NA
ATOM     89  C   UNL A   1      29.985  28.395  23.365  1.00  0.00     0.001 A 
ATOM     90  C   UNL A   1      28.661  27.910  23.342  1.00  0.00     0.070 A 
ATOM     91  C   UNL A   1      30.298  29.634  22.779  1.00  0.00     0.010 A 
ATOM     92  C   UNL A   1      27.688  28.690  22.731  1.00  0.00     0.029 A 
ATOM     93  C   UNL A   1      29.302  30.395  22.170  1.00  0.00     0.001 A 
ATOM     94  C   UNL A   1      27.995  29.923  22.146  1.00  0.00     0.002 A 
ENDBRANCH  84  85
ENDBRANCH  77  80
ENDBRANCH  75  76
ENDBRANCH  74  75
ENDBRANCH  73  74
ENDBRANCH  72  73
ENDBRANCH   1  72
TORSDOF 17
ENDMDL
MODEL 3
REMARK VINA RESULT:     -12.1      2.529      8.217
REMARK SMILES O=C(NCCCCCCNC(=O)c1csc(-c2cnc3ccccc3c2)c1)c1ccc(-c2c3nc(c(-c4cc(S(=O)(=O)[O-])ccc4F)c4ccc([nH]4)c(-c4cc(S(=O)(=O)[O-])ccc4F)c4nc(c(-c5cc(S(=O)(=O)[O-])ccc5F)c5ccc2[nH]5)C=C4)C=C3)cc1
REMARK SMILES IDX 5 1 4 2 3 3 1 4 2 5 28 7 29 8 90 9 30 10 89 11 31 12 32 13
REMARK SMILES IDX 33 14 83 15 34 16 88 17 82 18 84 19 35 20 87 21 81 22 80 23
REMARK SMILES IDX 36 25 68 26 48 27 67 28 49 29 52 30 66 31 85 32 50 33 51 34
REMARK SMILES IDX 65 36 86 37 53 38 37 39 38 40 46 41 39 42 45 43 47 44 44 45
REMARK SMILES IDX 40 46 41 47 42 48 43 49 69 50 70 51 78 52 71 53 77 54 79 55
REMARK SMILES IDX 76 56 72 57 73 58 74 59 75 60 54 61 55 62 63 63 56 64 62 65
REMARK SMILES IDX 64 66 61 67 57 68 58 69 59 70 60 71 6 72 7 73 8 74 9 75
REMARK SMILES IDX 10 76 11 77 12 79 13 80 14 81 27 82 15 83 16 84 17 85 18 86
REMARK SMILES IDX 26 87 19 88 25 89 20 90 24 91 21 92 23 93 22 94
REMARK H PARENT 3 6 84 24 52 35 10 78
REMARK Flexibility Score: inf
ROOT
ATOM      1  C   UNL A   1      33.150  29.030  23.590  1.00  0.00     0.021 C 
ENDROOT
BRANCH   1   2
ATOM      2  C   UNL A   1      33.411  29.130  25.088  1.00  0.00     0.116 C 
BRANCH   2   3
ATOM      3  N   UNL A   1      32.842  30.332  25.668  1.00  0.00    -0.352 N 
ATOM      4  O   UNL A   1      32.521  31.906  27.244  1.00  0.00    -0.269 OA
ATOM      5  C   UNL A   1      33.223  30.999  26.806  1.00  0.00     0.251 C 
ATOM      6  H   UNL A   1      32.080  30.720  25.181  1.00  0.00     0.163 HD
BRANCH   5   7
ATOM      7  C   UNL A   1      34.469  30.616  27.510  1.00  0.00     0.039 A 
ATOM      8  C   UNL A   1      35.535  31.515  27.627  1.00  0.00     0.014 A 
ATOM      9  C   UNL A   1      34.548  29.354  28.105  1.00  0.00     0.014 A 
ATOM     10  C   UNL A   1      36.706  31.125  28.273  1.00  0.00     0.010 A 
ATOM     11  C   UNL A   1      35.701  28.984  28.802  1.00  0.00     0.010 A 
ATOM     12  C   UNL A   1      36.790  29.866  28.888  1.00  0.00    -0.014 A 
BRANCH  12  13
ATOM     13  C   UNL A   1      37.972  29.532  29.722  1.00  0.00     0.031 A 
ATOM     14  C   UNL A   1      38.108  30.053  31.123  1.00  0.00     0.074 A 
ATOM     15  C   UNL A   1      38.939  28.767  29.178  1.00  0.00     0.049 A 
ATOM     16  N   UNL A   1      39.090  29.883  31.970  1.00  0.00    -0.248 NA
ATOM     17  C   UNL A   1      37.004  30.876  31.641  1.00  0.00     0.031 C 
ATOM     18  C   UNL A   1      38.915  28.227  27.815  1.00  0.00     0.029 A 
ATOM     19  N   UNL A   1      40.129  28.317  29.690  1.00  0.00    -0.354 N 
ATOM     20  C   UNL A   1      38.736  30.588  33.115  1.00  0.00     0.074 A 
ATOM     21  C   UNL A   1      37.452  31.202  32.847  1.00  0.00     0.031 C 
ATOM     22  C   UNL A   1      40.031  27.513  27.604  1.00  0.00     0.029 A 
ATOM     23  C   UNL A   1      40.875  27.592  28.790  1.00  0.00     0.049 A 
ATOM     24  H   UNL A   1      40.422  28.497  30.612  1.00  0.00     0.167 HD
ATOM     25  C   UNL A   1      39.425  30.705  34.277  1.00  0.00     0.034 A 
ATOM     26  C   UNL A   1      42.115  27.078  28.893  1.00  0.00     0.034 A 
ATOM     27  C   UNL A   1      40.698  30.075  34.528  1.00  0.00     0.049 A 
ATOM     28  C   UNL A   1      42.870  27.265  30.180  1.00  0.00     0.074 A 
ATOM     29  C   UNL A   1      41.427  30.044  35.704  1.00  0.00     0.029 A 
ATOM     30  N   UNL A   1      41.443  29.384  33.582  1.00  0.00    -0.354 N 
ATOM     31  N   UNL A   1      42.487  27.877  31.277  1.00  0.00    -0.248 NA
ATOM     32  C   UNL A   1      44.222  26.699  30.243  1.00  0.00     0.031 C 
ATOM     33  C   UNL A   1      42.641  29.394  35.451  1.00  0.00     0.029 A 
ATOM     34  C   UNL A   1      42.646  28.968  34.134  1.00  0.00     0.049 A 
ATOM     35  H   UNL A   1      41.160  29.214  32.655  1.00  0.00     0.167 HD
ATOM     36  C   UNL A   1      43.552  27.762  32.162  1.00  0.00     0.074 A 
ATOM     37  C   UNL A   1      44.581  27.003  31.481  1.00  0.00     0.031 C 
ATOM     38  C   UNL A   1      43.672  28.243  33.426  1.00  0.00     0.034 A 
BRANCH  25  39
ATOM     39  C   UNL A   1      38.842  31.582  35.355  1.00  0.00     0.023 A 
ATOM     40  C   UNL A   1      38.258  31.046  36.516  1.00  0.00     0.031 A 
ATOM     41  C   UNL A   1      38.902  32.982  35.230  1.00  0.00     0.131 A 
ATOM     42  C   UNL A   1      37.724  31.906  37.489  1.00  0.00     0.055 A 
ATOM     43  C   UNL A   1      38.418  33.831  36.225  1.00  0.00     0.041 A 
ATOM     44  F   UNL A   1      39.435  33.545  34.134  1.00  0.00    -0.206 F 
ATOM     45  C   UNL A   1      37.818  33.295  37.361  1.00  0.00     0.022 A 
BRANCH  42  46
ATOM     46  S   UNL A   1      36.834  31.185  38.896  1.00  0.00     0.124 S 
ATOM     47  O   UNL A   1      37.781  31.397  39.987  1.00  0.00    -0.237 OA
ATOM     48  O   UNL A   1      35.616  31.985  38.943  1.00  0.00    -0.237 OA
ATOM     49  O   UNL A   1      36.648  29.789  38.505  1.00  0.00    -0.744 OA
ENDBRANCH  42  46
ENDBRANCH  25  39
BRANCH  26  50
ATOM     50  C   UNL A   1      42.746  26.400  27.726  1.00  0.00     0.023 A 
ATOM     51  C   UNL A   1      42.739  25.003  27.606  1.00  0.00     0.031 A 
ATOM     52  C   UNL A   1      43.400  27.147  26.730  1.00  0.00     0.131 A 
ATOM     53  C   UNL A   1      43.407  24.392  26.534  1.00  0.00     0.055 A 
ATOM     54  C   UNL A   1      44.021  26.538  25.639  1.00  0.00     0.041 A 
ATOM     55  F   UNL A   1      43.433  28.488  26.797  1.00  0.00    -0.206 F 
ATOM     56  C   UNL A   1      44.037  25.150  25.544  1.00  0.00     0.022 A 
BRANCH  53  57
ATOM     57  S   UNL A   1      43.519  22.582  26.498  1.00  0.00     0.124 S 
ATOM     58  O   UNL A   1      44.955  22.367  26.630  1.00  0.00    -0.237 OA
ATOM     59  O   UNL A   1      42.705  22.209  27.650  1.00  0.00    -0.237 OA
ATOM     60  O   UNL A   1      42.952  22.233  25.197  1.00  0.00    -0.744 OA
ENDBRANCH  53  57
ENDBRANCH  26  50
BRANCH  38  61
ATOM     61  C   UNL A   1      44.966  27.946  34.135  1.00  0.00     0.023 A 
ATOM     62  C   UNL A   1      45.127  26.774  34.894  1.00  0.00     0.031 A 
ATOM     63  C   UNL A   1      46.034  28.857  34.079  1.00  0.00     0.131 A 
ATOM     64  C   UNL A   1      46.313  26.567  35.612  1.00  0.00     0.055 A 
ATOM     65  C   UNL A   1      47.233  28.621  34.754  1.00  0.00     0.041 A 
ATOM     66  F   UNL A   1      45.928  29.992  33.370  1.00  0.00    -0.206 F 
ATOM     67  C   UNL A   1      47.372  27.476  35.535  1.00  0.00     0.022 A 
BRANCH  64  68
ATOM     68  S   UNL A   1      46.427  25.126  36.707  1.00  0.00     0.124 S 
ATOM     69  O   UNL A   1      45.515  25.493  37.785  1.00  0.00    -0.237 OA
ATOM     70  O   UNL A   1      45.988  24.037  35.841  1.00  0.00    -0.237 OA
ATOM     71  O   UNL A   1      47.842  25.089  37.077  1.00  0.00    -0.744 OA
ENDBRANCH  64  68
ENDBRANCH  38  61
ENDBRANCH  12  13
ENDBRANCH   5   7
ENDBRANCH   2   3
ENDBRANCH   1   2
BRANCH   1  72
ATOM     72  C   UNL A   1      33.613  27.728  22.932  1.00  0.00     0.002 C 
BRANCH  72  73
ATOM     73  C   UNL A   1      32.509  26.871  22.306  1.00  0.00     0.002 C 
BRANCH  73  74
ATOM     74  C   UNL A   1      31.089  27.439  22.396  1.00  0.00     0.021 C 
BRANCH  74  75
ATOM     75  C   UNL A   1      30.130  26.666  23.304  1.00  0.00     0.116 C 
BRANCH  75  76
ATOM     76  N   UNL A   1      30.293  27.040  24.698  1.00  0.00    -0.352 N 
ATOM     77  C   UNL A   1      30.819  26.317  25.730  1.00  0.00     0.252 C 
ATOM     78  H   UNL A   1      29.980  27.944  24.932  1.00  0.00     0.163 HD
ATOM     79  O   UNL A   1      30.637  26.707  26.890  1.00  0.00    -0.269 OA
BRANCH  77  80
ATOM     80  C   UNL A   1      31.558  25.100  25.446  1.00  0.00     0.051 A 
ATOM     81  C   UNL A   1      31.023  23.981  24.834  1.00  0.00     0.079 A 
ATOM     82  C   UNL A   1      32.962  24.922  25.682  1.00  0.00     0.034 A 
ATOM     83  S   UNL A   1      32.168  22.733  24.622  1.00  0.00    -0.143 S 
ATOM     84  C   UNL A   1      33.427  23.682  25.291  1.00  0.00     0.037 A 
BRANCH  84  85
ATOM     85  C   UNL A   1      34.782  23.146  25.394  1.00  0.00     0.011 A 
ATOM     86  C   UNL A   1      35.064  21.831  25.042  1.00  0.00     0.121 A 
ATOM     87  C   UNL A   1      35.842  23.909  25.886  1.00  0.00     0.021 A 
ATOM     88  N   UNL A   1      36.285  21.252  25.146  1.00  0.00    -0.256 NA
ATOM     89  C   UNL A   1      37.120  23.346  26.008  1.00  0.00     0.001 A 
ATOM     90  C   UNL A   1      37.296  22.001  25.621  1.00  0.00     0.070 A 
ATOM     91  C   UNL A   1      38.204  24.087  26.509  1.00  0.00     0.010 A 
ATOM     92  C   UNL A   1      38.561  21.442  25.746  1.00  0.00     0.029 A 
ATOM     93  C   UNL A   1      39.463  23.501  26.627  1.00  0.00     0.001 A 
ATOM     94  C   UNL A   1      39.642  22.176  26.245  1.00  0.00     0.002 A 
ENDBRANCH  84  85
ENDBRANCH  77  80
ENDBRANCH  75  76
ENDBRANCH  74  75
ENDBRANCH  73  74
ENDBRANCH  72  73
ENDBRANCH   1  72
TORSDOF 17
ENDMDL
