MODEL 1
REMARK VINA RESULT:     -10.2      0.000      0.000
REMARK SMILES CCCN(C(=O)Cc1c(C(=O)NCCCCCCNC(=O)c2ccc(-c3c4nc(c(-c5cc(S(=O)(=O)[O-])ccc5F)c5ccc([nH]5)c(-c5cc(S(=O)(=O)[O-])ccc5F)c5nc(c(-c6cc(S(=O)(=O)[O-])ccc6F)c6ccc3[nH]6)C=C5)C=C4)cc2)c(C)cn1CC)c1cccc(Cl)c1
REMARK SMILES IDX 14 1 13 2 12 3 10 4 11 5 9 7 8 8 88 9 85 10 87 11 86 12 7 13
REMARK SMILES IDX 5 14 6 15 4 16 3 17 2 18 1 19 91 20 92 21 97 22 93 23 95 24
REMARK SMILES IDX 94 25 96 26 89 27 90 28 15 29 16 30 17 31 18 32 19 33 20 34
REMARK SMILES IDX 21 36 22 37 23 38 84 39 24 40 83 41 25 42 26 43 27 44 77 45
REMARK SMILES IDX 28 46 82 47 76 48 78 49 29 50 81 51 75 52 74 53 30 55 62 56
REMARK SMILES IDX 42 57 61 58 43 59 46 60 60 61 79 62 44 63 45 64 59 66 80 67
REMARK SMILES IDX 47 68 31 69 32 70 40 71 33 72 39 73 41 74 38 75 34 76 35 77
REMARK SMILES IDX 36 78 37 79 63 80 64 81 72 82 65 83 71 84 73 85 70 86 66 87
REMARK SMILES IDX 67 88 68 89 69 90 48 91 49 92 57 93 50 94 56 95 58 96 55 97
REMARK SMILES IDX 51 98 52 99 53 100 54 101
REMARK H PARENT 12 6 19 35 78 54 46 65
REMARK Flexibility Score: inf
ROOT
ATOM      1  C   UNL A   1      37.862  22.657  24.869  1.00  0.00     0.021 C 
ENDROOT
BRANCH   1   2
ATOM      2  C   UNL A   1      37.416  23.870  25.671  1.00  0.00     0.116 C 
BRANCH   2   3
ATOM      3  N   UNL A   1      36.403  23.570  26.632  1.00  0.00    -0.352 N 
ATOM      4  C   UNL A   1      35.039  23.569  26.598  1.00  0.00     0.253 C 
ATOM      5  O   UNL A   1      34.554  23.029  27.602  1.00  0.00    -0.269 OA
ATOM      6  H   UNL A   1      36.767  23.309  27.508  1.00  0.00     0.163 HD
BRANCH   4   7
ATOM      7  C   UNL A   1      34.160  24.110  25.519  1.00  0.00     0.064 A 
ATOM      8  C   UNL A   1      34.076  23.408  24.283  1.00  0.00     0.040 A 
ATOM      9  N   UNL A   1      33.413  24.203  23.375  1.00  0.00    -0.350 N 
ATOM     10  C   UNL A   1      33.269  25.251  25.352  1.00  0.00    -0.020 A 
ATOM     11  C   UNL A   1      32.841  25.240  24.041  1.00  0.00     0.090 A 
ATOM     12  C   UNL A   1      32.786  26.351  26.233  1.00  0.00     0.047 C 
BRANCH   8  13
ATOM     13  C   UNL A   1      34.669  22.042  23.962  1.00  0.00     0.155 C 
BRANCH  13  14
ATOM     14  C   UNL A   1      34.334  20.933  24.944  1.00  0.00     0.232 C 
ATOM     15  O   UNL A   1      35.154  20.675  25.834  1.00  0.00    -0.274 OA
BRANCH  14  16
ATOM     16  N   UNL A   1      33.145  20.208  24.766  1.00  0.00    -0.312 N 
BRANCH  16  17
ATOM     17  C   UNL A   1      31.789  20.771  24.986  1.00  0.00     0.125 C 
BRANCH  17  18
ATOM     18  C   UNL A   1      31.625  21.755  26.150  1.00  0.00     0.019 C 
ATOM     19  C   UNL A   1      30.655  22.891  25.835  1.00  0.00     0.006 C 
ENDBRANCH  17  18
ENDBRANCH  16  17
BRANCH  16  20
ATOM     20  C   UNL A   1      33.251  18.801  24.530  1.00  0.00     0.045 A 
ATOM     21  C   UNL A   1      33.850  18.318  23.361  1.00  0.00     0.026 A 
ATOM     22  C   UNL A   1      32.681  17.886  25.421  1.00  0.00     0.046 A 
ATOM     23  C   UNL A   1      33.933  16.943  23.121  1.00  0.00     0.004 A 
ATOM     24  C   UNL A   1      32.775  16.516  25.186  1.00  0.00     0.043 A 
ATOM     25  C   UNL A   1      33.408  16.040  24.043  1.00  0.00     0.020 A 
ATOM     26  Cl  UNL A   1      32.086  15.412  26.312  1.00  0.00    -0.084 Cl
ENDBRANCH  16  20
ENDBRANCH  14  16
ENDBRANCH  13  14
ENDBRANCH   8  13
BRANCH   9  27
ATOM     27  C   UNL A   1      33.241  24.055  21.939  1.00  0.00     0.118 C 
ATOM     28  C   UNL A   1      32.714  25.299  21.253  1.00  0.00     0.027 C 
ENDBRANCH   9  27
ENDBRANCH   4   7
ENDBRANCH   2   3
ENDBRANCH   1   2
BRANCH   1  29
ATOM     29  C   UNL A   1      38.579  21.599  25.709  1.00  0.00     0.002 C 
BRANCH  29  30
ATOM     30  C   UNL A   1      39.787  22.098  26.522  1.00  0.00     0.002 C 
BRANCH  30  31
ATOM     31  C   UNL A   1      41.177  21.841  25.919  1.00  0.00     0.021 C 
BRANCH  31  32
ATOM     32  C   UNL A   1      42.271  22.722  26.501  1.00  0.00     0.116 C 
BRANCH  32  33
ATOM     33  N   UNL A   1      42.611  22.346  27.869  1.00  0.00    -0.352 N 
ATOM     34  C   UNL A   1      43.068  23.150  28.894  1.00  0.00     0.251 C 
ATOM     35  H   UNL A   1      42.499  21.394  28.090  1.00  0.00     0.163 HD
ATOM     36  O   UNL A   1      43.671  22.657  29.836  1.00  0.00    -0.269 OA
BRANCH  34  37
ATOM     37  C   UNL A   1      42.823  24.605  28.824  1.00  0.00     0.039 A 
ATOM     38  C   UNL A   1      41.558  25.112  28.525  1.00  0.00     0.014 A 
ATOM     39  C   UNL A   1      43.885  25.473  29.081  1.00  0.00     0.014 A 
ATOM     40  C   UNL A   1      41.361  26.492  28.573  1.00  0.00     0.010 A 
ATOM     41  C   UNL A   1      43.654  26.812  29.286  1.00  0.00     0.010 A 
ATOM     42  C   UNL A   1      42.408  27.339  28.986  1.00  0.00    -0.014 A 
BRANCH  42  43
ATOM     43  C   UNL A   1      42.169  28.757  29.254  1.00  0.00     0.031 A 
ATOM     44  C   UNL A   1      43.111  29.652  28.536  1.00  0.00     0.074 A 
ATOM     45  C   UNL A   1      41.122  29.255  29.953  1.00  0.00     0.049 A 
ATOM     46  N   UNL A   1      44.145  30.232  29.045  1.00  0.00    -0.248 NA
ATOM     47  C   UNL A   1      43.037  29.756  27.071  1.00  0.00     0.031 C 
ATOM     48  C   UNL A   1      39.980  28.532  30.523  1.00  0.00     0.029 A 
ATOM     49  N   UNL A   1      40.824  30.553  30.253  1.00  0.00    -0.354 N 
ATOM     50  C   UNL A   1      44.699  30.994  28.026  1.00  0.00     0.074 A 
ATOM     51  C   UNL A   1      44.118  30.497  26.806  1.00  0.00     0.031 C 
ATOM     52  C   UNL A   1      39.025  29.408  30.913  1.00  0.00     0.029 A 
ATOM     53  C   UNL A   1      39.550  30.757  30.789  1.00  0.00     0.049 A 
ATOM     54  H   UNL A   1      41.460  31.290  30.104  1.00  0.00     0.167 HD
ATOM     55  C   UNL A   1      45.391  32.129  28.319  1.00  0.00     0.034 A 
ATOM     56  C   UNL A   1      38.977  31.939  31.153  1.00  0.00     0.034 A 
ATOM     57  C   UNL A   1      45.682  32.194  29.736  1.00  0.00     0.049 A 
ATOM     58  C   UNL A   1      40.094  32.866  31.443  1.00  0.00     0.074 A 
ATOM     59  C   UNL A   1      46.413  31.429  30.621  1.00  0.00     0.029 A 
ATOM     60  N   UNL A   1      44.827  32.951  30.505  1.00  0.00    -0.354 N 
ATOM     61  N   UNL A   1      40.920  32.689  32.435  1.00  0.00    -0.248 NA
ATOM     62  C   UNL A   1      40.588  33.712  30.370  1.00  0.00     0.031 C 
ATOM     63  C   UNL A   1      45.650  31.426  31.827  1.00  0.00     0.029 A 
ATOM     64  C   UNL A   1      44.539  32.257  31.654  1.00  0.00     0.049 A 
ATOM     65  H   UNL A   1      44.481  33.842  30.271  1.00  0.00     0.167 HD
ATOM     66  C   UNL A   1      42.167  32.996  31.917  1.00  0.00     0.074 A 
ATOM     67  C   UNL A   1      41.887  33.736  30.687  1.00  0.00     0.031 C 
ATOM     68  C   UNL A   1      43.290  32.377  32.388  1.00  0.00     0.034 A 
BRANCH  55  69
ATOM     69  C   UNL A   1      45.461  33.362  27.449  1.00  0.00     0.023 A 
ATOM     70  C   UNL A   1      46.731  33.736  26.966  1.00  0.00     0.031 A 
ATOM     71  C   UNL A   1      44.443  34.333  27.320  1.00  0.00     0.131 A 
ATOM     72  C   UNL A   1      46.970  35.035  26.490  1.00  0.00     0.055 A 
ATOM     73  C   UNL A   1      44.672  35.604  26.785  1.00  0.00     0.041 A 
ATOM     74  F   UNL A   1      43.204  34.151  27.789  1.00  0.00    -0.206 F 
ATOM     75  C   UNL A   1      45.947  35.975  26.396  1.00  0.00     0.022 A 
BRANCH  72  76
ATOM     76  S   UNL A   1      48.681  35.529  26.160  1.00  0.00     0.124 S 
ATOM     77  O   UNL A   1      49.007  34.706  24.999  1.00  0.00    -0.237 OA
ATOM     78  O   UNL A   1      48.540  36.961  25.918  1.00  0.00    -0.237 OA
ATOM     79  O   UNL A   1      49.380  35.172  27.393  1.00  0.00    -0.744 OA
ENDBRANCH  72  76
ENDBRANCH  55  69
BRANCH  56  80
ATOM     80  C   UNL A   1      37.571  32.401  30.959  1.00  0.00     0.023 A 
ATOM     81  C   UNL A   1      36.762  32.897  32.011  1.00  0.00     0.031 A 
ATOM     82  C   UNL A   1      37.105  32.628  29.646  1.00  0.00     0.131 A 
ATOM     83  C   UNL A   1      35.561  33.596  31.724  1.00  0.00     0.055 A 
ATOM     84  C   UNL A   1      35.926  33.327  29.370  1.00  0.00     0.041 A 
ATOM     85  F   UNL A   1      37.833  32.257  28.580  1.00  0.00    -0.206 F 
ATOM     86  C   UNL A   1      35.154  33.824  30.408  1.00  0.00     0.022 A 
BRANCH  83  87
ATOM     87  S   UNL A   1      34.540  34.306  33.064  1.00  0.00     0.124 S 
ATOM     88  O   UNL A   1      33.218  34.364  32.453  1.00  0.00    -0.237 OA
ATOM     89  O   UNL A   1      34.718  33.339  34.142  1.00  0.00    -0.237 OA
ATOM     90  O   UNL A   1      35.157  35.611  33.310  1.00  0.00    -0.744 OA
ENDBRANCH  83  87
ENDBRANCH  56  80
BRANCH  68  91
ATOM     91  C   UNL A   1      43.184  31.631  33.708  1.00  0.00     0.023 A 
ATOM     92  C   UNL A   1      42.624  30.343  33.884  1.00  0.00     0.031 A 
ATOM     93  C   UNL A   1      43.765  32.245  34.831  1.00  0.00     0.131 A 
ATOM     94  C   UNL A   1      42.647  29.732  35.156  1.00  0.00     0.055 A 
ATOM     95  C   UNL A   1      43.810  31.627  36.079  1.00  0.00     0.041 A 
ATOM     96  F   UNL A   1      44.328  33.461  34.726  1.00  0.00    -0.206 F 
ATOM     97  C   UNL A   1      43.244  30.370  36.249  1.00  0.00     0.022 A 
BRANCH  94  98
ATOM     98  S   UNL A   1      41.869  28.104  35.428  1.00  0.00     0.124 S 
ATOM     99  O   UNL A   1      41.207  28.252  36.719  1.00  0.00    -0.237 OA
ATOM    100  O   UNL A   1      40.989  27.975  34.271  1.00  0.00    -0.237 OA
ATOM    101  O   UNL A   1      43.006  27.180  35.432  1.00  0.00    -0.744 OA
ENDBRANCH  94  98
ENDBRANCH  68  91
ENDBRANCH  42  43
ENDBRANCH  34  37
ENDBRANCH  32  33
ENDBRANCH  31  32
ENDBRANCH  30  31
ENDBRANCH  29  30
ENDBRANCH   1  29
TORSDOF 23
ENDMDL
MODEL 2
REMARK VINA RESULT:     -10.1      6.421     13.714
REMARK SMILES CCCN(C(=O)Cc1c(C(=O)NCCCCCCNC(=O)c2ccc(-c3c4nc(c(-c5cc(S(=O)(=O)[O-])ccc5F)c5ccc([nH]5)c(-c5cc(S(=O)(=O)[O-])ccc5F)c5nc(c(-c6cc(S(=O)(=O)[O-])ccc6F)c6ccc3[nH]6)C=C5)C=C4)cc2)c(C)cn1CC)c1cccc(Cl)c1
REMARK SMILES IDX 14 1 13 2 12 3 10 4 11 5 9 7 8 8 88 9 85 10 87 11 86 12 7 13
REMARK SMILES IDX 5 14 6 15 4 16 3 17 2 18 1 19 91 20 92 21 97 22 93 23 95 24
REMARK SMILES IDX 94 25 96 26 89 27 90 28 15 29 16 30 17 31 18 32 19 33 20 34
REMARK SMILES IDX 21 36 22 37 23 38 84 39 24 40 83 41 25 42 26 43 27 44 77 45
REMARK SMILES IDX 28 46 82 47 76 48 78 49 29 50 81 51 75 52 74 53 30 55 62 56
REMARK SMILES IDX 42 57 61 58 43 59 46 60 60 61 79 62 44 63 45 64 59 66 80 67
REMARK SMILES IDX 47 68 31 69 32 70 40 71 33 72 39 73 41 74 38 75 34 76 35 77
REMARK SMILES IDX 36 78 37 79 63 80 64 81 72 82 65 83 71 84 73 85 70 86 66 87
REMARK SMILES IDX 67 88 68 89 69 90 48 91 49 92 57 93 50 94 56 95 58 96 55 97
REMARK SMILES IDX 51 98 52 99 53 100 54 101
REMARK H PARENT 12 6 19 35 78 54 46 65
REMARK Flexibility Score: inf
ROOT
ATOM      1  C   UNL A   1      40.929  34.291  29.936  1.00  0.00     0.021 C 
ENDROOT
BRANCH   1   2
ATOM      2  C   UNL A   1      42.369  34.725  29.713  1.00  0.00     0.116 C 
BRANCH   2   3
ATOM      3  N   UNL A   1      42.786  34.619  28.351  1.00  0.00    -0.352 N 
ATOM      4  C   UNL A   1      44.003  34.588  27.734  1.00  0.00     0.253 C 
ATOM      5  O   UNL A   1      43.907  34.266  26.543  1.00  0.00    -0.269 OA
ATOM      6  H   UNL A   1      42.033  34.555  27.720  1.00  0.00     0.163 HD
BRANCH   4   7
ATOM      7  C   UNL A   1      45.335  34.876  28.347  1.00  0.00     0.064 A 
ATOM      8  C   UNL A   1      46.113  35.951  27.829  1.00  0.00     0.040 A 
ATOM      9  N   UNL A   1      47.375  35.877  28.374  1.00  0.00    -0.350 N 
ATOM     10  C   UNL A   1      46.142  34.330  29.430  1.00  0.00    -0.020 A 
ATOM     11  C   UNL A   1      47.353  34.989  29.401  1.00  0.00     0.090 A 
ATOM     12  C   UNL A   1      45.946  33.275  30.464  1.00  0.00     0.047 C 
BRANCH   8  13
ATOM     13  C   UNL A   1      45.678  36.982  26.795  1.00  0.00     0.155 C 
BRANCH  13  14
ATOM     14  C   UNL A   1      45.456  38.389  27.322  1.00  0.00     0.232 C 
ATOM     15  O   UNL A   1      46.419  39.166  27.333  1.00  0.00    -0.274 OA
BRANCH  14  16
ATOM     16  N   UNL A   1      44.192  38.730  27.829  1.00  0.00    -0.312 N 
BRANCH  16  17
ATOM     17  C   UNL A   1      43.608  38.147  29.063  1.00  0.00     0.125 C 
BRANCH  17  18
ATOM     18  C   UNL A   1      44.204  38.607  30.398  1.00  0.00     0.019 C 
ATOM     19  C   UNL A   1      45.151  37.579  31.013  1.00  0.00     0.006 C 
ENDBRANCH  17  18
ENDBRANCH  16  17
BRANCH  16  20
ATOM     20  C   UNL A   1      43.349  39.554  27.019  1.00  0.00     0.045 A 
ATOM     21  C   UNL A   1      41.974  39.303  26.937  1.00  0.00     0.026 A 
ATOM     22  C   UNL A   1      43.896  40.570  26.230  1.00  0.00     0.046 A 
ATOM     23  C   UNL A   1      41.154  40.096  26.129  1.00  0.00     0.004 A 
ATOM     24  C   UNL A   1      43.075  41.366  25.433  1.00  0.00     0.043 A 
ATOM     25  C   UNL A   1      41.704  41.140  25.386  1.00  0.00     0.020 A 
ATOM     26  Cl  UNL A   1      43.772  42.626  24.489  1.00  0.00    -0.084 Cl
ENDBRANCH  16  20
ENDBRANCH  14  16
ENDBRANCH  13  14
ENDBRANCH   8  13
BRANCH   9  27
ATOM     27  C   UNL A   1      48.594  36.593  28.034  1.00  0.00     0.118 C 
ATOM     28  C   UNL A   1      48.993  37.641  29.052  1.00  0.00     0.027 C 
ENDBRANCH   9  27
ENDBRANCH   4   7
ENDBRANCH   2   3
ENDBRANCH   1   2
BRANCH   1  29
ATOM     29  C   UNL A   1      40.796  33.020  30.777  1.00  0.00     0.002 C 
BRANCH  29  30
ATOM     30  C   UNL A   1      39.927  31.905  30.169  1.00  0.00     0.002 C 
BRANCH  30  31
ATOM     31  C   UNL A   1      38.420  31.966  30.470  1.00  0.00     0.021 C 
BRANCH  31  32
ATOM     32  C   UNL A   1      37.554  32.132  29.231  1.00  0.00     0.116 C 
BRANCH  32  33
ATOM     33  N   UNL A   1      36.516  31.110  29.146  1.00  0.00    -0.352 N 
ATOM     34  C   UNL A   1      36.578  29.868  28.543  1.00  0.00     0.251 C 
ATOM     35  H   UNL A   1      35.659  31.334  29.575  1.00  0.00     0.163 HD
ATOM     36  O   UNL A   1      35.549  29.298  28.211  1.00  0.00    -0.269 OA
BRANCH  34  37
ATOM     37  C   UNL A   1      37.900  29.256  28.303  1.00  0.00     0.039 A 
ATOM     38  C   UNL A   1      38.620  29.522  27.138  1.00  0.00     0.014 A 
ATOM     39  C   UNL A   1      38.430  28.412  29.279  1.00  0.00     0.014 A 
ATOM     40  C   UNL A   1      39.906  28.998  27.011  1.00  0.00     0.010 A 
ATOM     41  C   UNL A   1      39.750  28.032  29.226  1.00  0.00     0.010 A 
ATOM     42  C   UNL A   1      40.482  28.277  28.076  1.00  0.00    -0.014 A 
BRANCH  42  43
ATOM     43  C   UNL A   1      41.896  27.905  28.057  1.00  0.00     0.031 A 
ATOM     44  C   UNL A   1      42.168  26.686  27.254  1.00  0.00     0.074 A 
ATOM     45  C   UNL A   1      42.905  28.644  28.576  1.00  0.00     0.049 A 
ATOM     46  N   UNL A   1      42.364  25.499  27.717  1.00  0.00    -0.248 NA
ATOM     47  C   UNL A   1      42.000  26.731  25.793  1.00  0.00     0.031 C 
ATOM     48  C   UNL A   1      42.839  29.975  29.189  1.00  0.00     0.029 A 
ATOM     49  N   UNL A   1      44.243  28.374  28.608  1.00  0.00    -0.354 N 
ATOM     50  C   UNL A   1      42.617  24.693  26.616  1.00  0.00     0.074 A 
ATOM     51  C   UNL A   1      42.168  25.443  25.472  1.00  0.00     0.031 C 
ATOM     52  C   UNL A   1      44.086  30.478  29.341  1.00  0.00     0.029 A 
ATOM     53  C   UNL A   1      45.050  29.444  29.005  1.00  0.00     0.049 A 
ATOM     54  H   UNL A   1      44.611  27.493  28.369  1.00  0.00     0.167 HD
ATOM     55  C   UNL A   1      43.404  23.590  26.741  1.00  0.00     0.034 A 
ATOM     56  C   UNL A   1      46.410  29.473  29.102  1.00  0.00     0.034 A 
ATOM     57  C   UNL A   1      43.625  23.280  28.137  1.00  0.00     0.049 A 
ATOM     58  C   UNL A   1      46.839  28.069  29.292  1.00  0.00     0.074 A 
ATOM     59  C   UNL A   1      42.821  22.919  29.199  1.00  0.00     0.029 A 
ATOM     60  N   UNL A   1      44.801  23.735  28.691  1.00  0.00    -0.354 N 
ATOM     61  N   UNL A   1      46.542  27.376  30.356  1.00  0.00    -0.248 NA
ATOM     62  C   UNL A   1      47.179  27.283  28.118  1.00  0.00     0.031 C 
ATOM     63  C   UNL A   1      43.368  23.599  30.327  1.00  0.00     0.029 A 
ATOM     64  C   UNL A   1      44.527  24.270  29.925  1.00  0.00     0.049 A 
ATOM     65  H   UNL A   1      45.690  23.686  28.271  1.00  0.00     0.167 HD
ATOM     66  C   UNL A   1      46.204  26.121  29.878  1.00  0.00     0.074 A 
ATOM     67  C   UNL A   1      46.734  26.086  28.516  1.00  0.00     0.031 C 
ATOM     68  C   UNL A   1      45.289  25.347  30.535  1.00  0.00     0.034 A 
BRANCH  55  69
ATOM     69  C   UNL A   1      44.303  23.029  25.663  1.00  0.00     0.023 A 
ATOM     70  C   UNL A   1      44.218  21.644  25.415  1.00  0.00     0.031 A 
ATOM     71  C   UNL A   1      45.416  23.689  25.097  1.00  0.00     0.131 A 
ATOM     72  C   UNL A   1      45.245  20.967  24.737  1.00  0.00     0.055 A 
ATOM     73  C   UNL A   1      46.402  23.020  24.366  1.00  0.00     0.041 A 
ATOM     74  F   UNL A   1      45.667  24.987  25.299  1.00  0.00    -0.206 F 
ATOM     75  C   UNL A   1      46.339  21.647  24.209  1.00  0.00     0.022 A 
BRANCH  72  76
ATOM     76  S   UNL A   1      45.208  19.156  24.708  1.00  0.00     0.124 S 
ATOM     77  O   UNL A   1      43.808  18.884  25.014  1.00  0.00    -0.237 OA
ATOM     78  O   UNL A   1      45.639  18.868  23.344  1.00  0.00    -0.237 OA
ATOM     79  O   UNL A   1      46.159  18.783  25.753  1.00  0.00    -0.744 OA
ENDBRANCH  72  76
ENDBRANCH  55  69
BRANCH  56  80
ATOM     80  C   UNL A   1      47.356  30.564  28.726  1.00  0.00     0.023 A 
ATOM     81  C   UNL A   1      48.458  30.949  29.529  1.00  0.00     0.031 A 
ATOM     82  C   UNL A   1      47.340  31.052  27.402  1.00  0.00     0.131 A 
ATOM     83  C   UNL A   1      49.484  31.769  28.993  1.00  0.00     0.055 A 
ATOM     84  C   UNL A   1      48.361  31.851  26.877  1.00  0.00     0.041 A 
ATOM     85  F   UNL A   1      46.375  30.689  26.543  1.00  0.00    -0.206 F 
ATOM     86  C   UNL A   1      49.443  32.203  27.666  1.00  0.00     0.022 A 
BRANCH  83  87
ATOM     87  S   UNL A   1      50.950  32.218  29.988  1.00  0.00     0.124 S 
ATOM     88  O   UNL A   1      50.933  31.211  31.043  1.00  0.00    -0.237 OA
ATOM     89  O   UNL A   1      52.033  32.124  29.016  1.00  0.00    -0.237 OA
ATOM     90  O   UNL A   1      50.654  33.579  30.439  1.00  0.00    -0.744 OA
ENDBRANCH  83  87
ENDBRANCH  56  80
BRANCH  68  91
ATOM     91  C   UNL A   1      44.928  25.735  31.959  1.00  0.00     0.023 A 
ATOM     92  C   UNL A   1      43.802  26.500  32.346  1.00  0.00     0.031 A 
ATOM     93  C   UNL A   1      45.746  25.221  32.981  1.00  0.00     0.131 A 
ATOM     94  C   UNL A   1      43.545  26.735  33.713  1.00  0.00     0.055 A 
ATOM     95  C   UNL A   1      45.473  25.432  34.331  1.00  0.00     0.041 A 
ATOM     96  F   UNL A   1      46.821  24.474  32.680  1.00  0.00    -0.206 F 
ATOM     97  C   UNL A   1      44.374  26.197  34.703  1.00  0.00     0.022 A 
BRANCH  94  98
ATOM     98  S   UNL A   1      42.141  27.776  34.238  1.00  0.00     0.124 S 
ATOM     99  O   UNL A   1      41.377  26.901  35.120  1.00  0.00    -0.237 OA
ATOM    100  O   UNL A   1      42.806  28.906  34.881  1.00  0.00    -0.237 OA
ATOM    101  O   UNL A   1      41.470  28.104  32.978  1.00  0.00    -0.744 OA
ENDBRANCH  94  98
ENDBRANCH  68  91
ENDBRANCH  42  43
ENDBRANCH  34  37
ENDBRANCH  32  33
ENDBRANCH  31  32
ENDBRANCH  30  31
ENDBRANCH  29  30
ENDBRANCH   1  29
TORSDOF 23
ENDMDL
MODEL 3
REMARK VINA RESULT:     -10.1      5.447     11.469
REMARK SMILES CCCN(C(=O)Cc1c(C(=O)NCCCCCCNC(=O)c2ccc(-c3c4nc(c(-c5cc(S(=O)(=O)[O-])ccc5F)c5ccc([nH]5)c(-c5cc(S(=O)(=O)[O-])ccc5F)c5nc(c(-c6cc(S(=O)(=O)[O-])ccc6F)c6ccc3[nH]6)C=C5)C=C4)cc2)c(C)cn1CC)c1cccc(Cl)c1
REMARK SMILES IDX 14 1 13 2 12 3 10 4 11 5 9 7 8 8 88 9 85 10 87 11 86 12 7 13
REMARK SMILES IDX 5 14 6 15 4 16 3 17 2 18 1 19 91 20 92 21 97 22 93 23 95 24
REMARK SMILES IDX 94 25 96 26 89 27 90 28 15 29 16 30 17 31 18 32 19 33 20 34
REMARK SMILES IDX 21 36 22 37 23 38 84 39 24 40 83 41 25 42 26 43 27 44 77 45
REMARK SMILES IDX 28 46 82 47 76 48 78 49 29 50 81 51 75 52 74 53 30 55 62 56
REMARK SMILES IDX 42 57 61 58 43 59 46 60 60 61 79 62 44 63 45 64 59 66 80 67
REMARK SMILES IDX 47 68 31 69 32 70 40 71 33 72 39 73 41 74 38 75 34 76 35 77
REMARK SMILES IDX 36 78 37 79 63 80 64 81 72 82 65 83 71 84 73 85 70 86 66 87
REMARK SMILES IDX 67 88 68 89 69 90 48 91 49 92 57 93 50 94 56 95 58 96 55 97
REMARK SMILES IDX 51 98 52 99 53 100 54 101
REMARK H PARENT 12 6 19 35 78 54 46 65
REMARK Flexibility Score: inf
ROOT
ATOM      1  C   UNL A   1      40.693  34.279  30.515  1.00  0.00     0.021 C 
ENDROOT
BRANCH   1   2
ATOM      2  C   UNL A   1      40.858  34.080  32.014  1.00  0.00     0.116 C 
BRANCH   2   3
ATOM      3  N   UNL A   1      40.764  32.712  32.415  1.00  0.00    -0.352 N 
ATOM      4  C   UNL A   1      39.728  31.900  32.772  1.00  0.00     0.253 C 
ATOM      5  O   UNL A   1      40.074  30.713  32.837  1.00  0.00    -0.269 OA
ATOM      6  H   UNL A   1      41.637  32.257  32.441  1.00  0.00     0.163 HD
BRANCH   4   7
ATOM      7  C   UNL A   1      38.317  32.304  33.050  1.00  0.00     0.064 A 
ATOM      8  C   UNL A   1      37.357  32.220  32.001  1.00  0.00     0.040 A 
ATOM      9  N   UNL A   1      36.207  32.858  32.410  1.00  0.00    -0.350 N 
ATOM     10  C   UNL A   1      37.563  32.795  34.196  1.00  0.00    -0.020 A 
ATOM     11  C   UNL A   1      36.295  33.096  33.745  1.00  0.00     0.090 A 
ATOM     12  C   UNL A   1      37.867  33.040  35.634  1.00  0.00     0.047 C 
BRANCH   8  13
ATOM     13  C   UNL A   1      37.557  31.603  30.623  1.00  0.00     0.155 C 
BRANCH  13  14
ATOM     14  C   UNL A   1      37.120  30.156  30.481  1.00  0.00     0.232 C 
ATOM     15  O   UNL A   1      36.771  29.549  31.502  1.00  0.00    -0.274 OA
BRANCH  14  16
ATOM     16  N   UNL A   1      37.186  29.550  29.216  1.00  0.00    -0.312 N 
BRANCH  16  17
ATOM     17  C   UNL A   1      36.035  29.445  28.285  1.00  0.00     0.125 C 
BRANCH  17  18
ATOM     18  C   UNL A   1      35.599  30.730  27.572  1.00  0.00     0.019 C 
ATOM     19  C   UNL A   1      34.086  30.823  27.386  1.00  0.00     0.006 C 
ENDBRANCH  17  18
ENDBRANCH  16  17
BRANCH  16  20
ATOM     20  C   UNL A   1      38.381  28.840  28.878  1.00  0.00     0.045 A 
ATOM     21  C   UNL A   1      38.865  27.823  29.709  1.00  0.00     0.026 A 
ATOM     22  C   UNL A   1      39.132  29.208  27.757  1.00  0.00     0.046 A 
ATOM     23  C   UNL A   1      40.045  27.145  29.388  1.00  0.00     0.004 A 
ATOM     24  C   UNL A   1      40.302  28.524  27.434  1.00  0.00     0.043 A 
ATOM     25  C   UNL A   1      40.757  27.486  28.239  1.00  0.00     0.020 A 
ATOM     26  Cl  UNL A   1      41.194  28.981  26.035  1.00  0.00    -0.084 Cl
ENDBRANCH  16  20
ENDBRANCH  14  16
ENDBRANCH  13  14
ENDBRANCH   8  13
BRANCH   9  27
ATOM     27  C   UNL A   1      35.019  33.234  31.663  1.00  0.00     0.118 C 
ATOM     28  C   UNL A   1      34.401  34.543  32.110  1.00  0.00     0.027 C 
ENDBRANCH   9  27
ENDBRANCH   4   7
ENDBRANCH   2   3
ENDBRANCH   1   2
BRANCH   1  29
ATOM     29  C   UNL A   1      41.985  34.690  29.807  1.00  0.00     0.002 C 
BRANCH  29  30
ATOM     30  C   UNL A   1      41.858  34.980  28.301  1.00  0.00     0.002 C 
BRANCH  30  31
ATOM     31  C   UNL A   1      42.567  36.241  27.780  1.00  0.00     0.021 C 
BRANCH  31  32
ATOM     32  C   UNL A   1      44.079  36.106  27.701  1.00  0.00     0.116 C 
BRANCH  32  33
ATOM     33  N   UNL A   1      44.534  35.793  26.350  1.00  0.00    -0.352 N 
ATOM     34  C   UNL A   1      45.065  34.610  25.873  1.00  0.00     0.251 C 
ATOM     35  H   UNL A   1      44.450  36.520  25.693  1.00  0.00     0.163 HD
ATOM     36  O   UNL A   1      45.748  34.612  24.859  1.00  0.00    -0.269 OA
BRANCH  34  37
ATOM     37  C   UNL A   1      44.800  33.359  26.611  1.00  0.00     0.039 A 
ATOM     38  C   UNL A   1      43.812  32.467  26.192  1.00  0.00     0.014 A 
ATOM     39  C   UNL A   1      45.572  33.073  27.737  1.00  0.00     0.014 A 
ATOM     40  C   UNL A   1      43.675  31.254  26.867  1.00  0.00     0.010 A 
ATOM     41  C   UNL A   1      45.547  31.818  28.296  1.00  0.00     0.010 A 
ATOM     42  C   UNL A   1      44.569  30.919  27.903  1.00  0.00    -0.014 A 
BRANCH  42  43
ATOM     43  C   UNL A   1      44.586  29.574  28.478  1.00  0.00     0.031 A 
ATOM     44  C   UNL A   1      44.269  29.557  29.928  1.00  0.00     0.074 A 
ATOM     45  C   UNL A   1      44.724  28.426  27.774  1.00  0.00     0.049 A 
ATOM     46  N   UNL A   1      45.120  29.451  30.890  1.00  0.00    -0.248 NA
ATOM     47  C   UNL A   1      42.910  29.899  30.375  1.00  0.00     0.031 C 
ATOM     48  C   UNL A   1      44.808  28.251  26.320  1.00  0.00     0.029 A 
ATOM     49  N   UNL A   1      44.755  27.137  28.225  1.00  0.00    -0.354 N 
ATOM     50  C   UNL A   1      44.377  29.439  32.062  1.00  0.00     0.074 A 
ATOM     51  C   UNL A   1      43.073  29.932  31.702  1.00  0.00     0.031 C 
ATOM     52  C   UNL A   1      44.675  26.942  26.002  1.00  0.00     0.029 A 
ATOM     53  C   UNL A   1      44.673  26.162  27.227  1.00  0.00     0.049 A 
ATOM     54  H   UNL A   1      44.832  26.913  29.180  1.00  0.00     0.167 HD
ATOM     55  C   UNL A   1      44.841  28.783  33.161  1.00  0.00     0.034 A 
ATOM     56  C   UNL A   1      44.655  24.808  27.383  1.00  0.00     0.034 A 
ATOM     57  C   UNL A   1      46.234  28.429  32.990  1.00  0.00     0.049 A 
ATOM     58  C   UNL A   1      45.316  24.534  28.679  1.00  0.00     0.074 A 
ATOM     59  C   UNL A   1      47.409  29.132  32.820  1.00  0.00     0.029 A 
ATOM     60  N   UNL A   1      46.495  27.147  32.562  1.00  0.00    -0.354 N 
ATOM     61  N   UNL A   1      46.577  24.778  28.896  1.00  0.00    -0.248 NA
ATOM     62  C   UNL A   1      44.491  24.442  29.872  1.00  0.00     0.031 C 
ATOM     63  C   UNL A   1      48.166  28.369  31.882  1.00  0.00     0.029 A 
ATOM     64  C   UNL A   1      47.464  27.197  31.590  1.00  0.00     0.049 A 
ATOM     65  H   UNL A   1      46.060  26.330  32.897  1.00  0.00     0.167 HD
ATOM     66  C   UNL A   1      46.620  25.324  30.167  1.00  0.00     0.074 A 
ATOM     67  C   UNL A   1      45.331  24.977  30.765  1.00  0.00     0.031 C 
ATOM     68  C   UNL A   1      47.578  26.238  30.503  1.00  0.00     0.034 A 
BRANCH  55  69
ATOM     69  C   UNL A   1      43.983  28.102  34.202  1.00  0.00     0.023 A 
ATOM     70  C   UNL A   1      44.140  26.709  34.349  1.00  0.00     0.031 A 
ATOM     71  C   UNL A   1      42.845  28.662  34.822  1.00  0.00     0.131 A 
ATOM     72  C   UNL A   1      43.156  25.934  34.986  1.00  0.00     0.055 A 
ATOM     73  C   UNL A   1      41.901  27.894  35.510  1.00  0.00     0.041 A 
ATOM     74  F   UNL A   1      42.526  29.957  34.715  1.00  0.00    -0.206 F 
ATOM     75  C   UNL A   1      42.035  26.518  35.568  1.00  0.00     0.022 A 
BRANCH  72  76
ATOM     76  S   UNL A   1      43.284  24.130  34.885  1.00  0.00     0.124 S 
ATOM     77  O   UNL A   1      44.240  23.842  35.948  1.00  0.00    -0.237 OA
ATOM     78  O   UNL A   1      41.905  23.717  35.126  1.00  0.00    -0.237 OA
ATOM     79  O   UNL A   1      43.773  23.902  33.527  1.00  0.00    -0.744 OA
ENDBRANCH  72  76
ENDBRANCH  55  69
BRANCH  56  80
ATOM     80  C   UNL A   1      43.838  23.789  26.660  1.00  0.00     0.023 A 
ATOM     81  C   UNL A   1      44.399  22.675  25.989  1.00  0.00     0.031 A 
ATOM     82  C   UNL A   1      42.444  23.757  26.878  1.00  0.00     0.131 A 
ATOM     83  C   UNL A   1      43.576  21.592  25.585  1.00  0.00     0.055 A 
ATOM     84  C   UNL A   1      41.640  22.681  26.487  1.00  0.00     0.041 A 
ATOM     85  F   UNL A   1      41.828  24.732  27.565  1.00  0.00    -0.206 F 
ATOM     86  C   UNL A   1      42.205  21.588  25.849  1.00  0.00     0.022 A 
BRANCH  83  87
ATOM     87  S   UNL A   1      44.291  20.114  24.781  1.00  0.00     0.124 S 
ATOM     88  O   UNL A   1      44.528  20.581  23.421  1.00  0.00    -0.237 OA
ATOM     89  O   UNL A   1      45.472  19.851  25.596  1.00  0.00    -0.237 OA
ATOM     90  O   UNL A   1      43.231  19.110  24.907  1.00  0.00    -0.744 OA
ENDBRANCH  83  87
ENDBRANCH  56  80
BRANCH  68  91
ATOM     91  C   UNL A   1      48.783  26.368  29.586  1.00  0.00     0.023 A 
ATOM     92  C   UNL A   1      48.838  27.138  28.400  1.00  0.00     0.031 A 
ATOM     93  C   UNL A   1      49.964  25.726  29.998  1.00  0.00     0.131 A 
ATOM     94  C   UNL A   1      50.043  27.227  27.672  1.00  0.00     0.055 A 
ATOM     95  C   UNL A   1      51.159  25.838  29.291  1.00  0.00     0.041 A 
ATOM     96  F   UNL A   1      49.982  24.992  31.123  1.00  0.00    -0.206 F 
ATOM     97  C   UNL A   1      51.202  26.584  28.119  1.00  0.00     0.022 A 
BRANCH  94  98
ATOM     98  S   UNL A   1      50.125  28.156  26.103  1.00  0.00     0.124 S 
ATOM     99  O   UNL A   1      51.553  28.378  25.910  1.00  0.00    -0.237 OA
ATOM    100  O   UNL A   1      49.488  27.241  25.159  1.00  0.00    -0.237 OA
ATOM    101  O   UNL A   1      49.354  29.369  26.385  1.00  0.00    -0.744 OA
ENDBRANCH  94  98
ENDBRANCH  68  91
ENDBRANCH  42  43
ENDBRANCH  34  37
ENDBRANCH  32  33
ENDBRANCH  31  32
ENDBRANCH  30  31
ENDBRANCH  29  30
ENDBRANCH   1  29
TORSDOF 23
ENDMDL
