MODEL 1
REMARK VINA RESULT:     -10.4      0.000      0.000
REMARK SMILES COCc1cccc(O[C@@H](C)c2ccc(C(=O)NCCCCCCNC(=O)c3ccc(-c4c5nc(c(-c6cc(S(=O)(=O)[O-])ccc6F)c6ccc([nH]6)c(-c6cc(S(=O)(=O)[O-])ccc6F)c6nc(c(-c7cc(S(=O)(=O)[O-])ccc7F)c7ccc4[nH]7)C=C6)C=C5)cc3)o2)c1
REMARK SMILES IDX 20 1 19 2 18 3 16 4 17 5 15 7 12 8 13 9 91 10 14 11 10 12
REMARK SMILES IDX 11 13 9 14 8 15 4 16 5 17 92 18 6 19 7 20 3 21 2 22 1 23
REMARK SMILES IDX 21 24 22 25 23 26 24 27 25 28 26 29 27 31 28 32 29 33 90 34
REMARK SMILES IDX 30 35 89 36 31 37 32 38 33 39 83 40 34 41 88 42 82 43 84 44
REMARK SMILES IDX 35 45 87 46 81 47 80 48 36 50 68 51 48 52 67 53 49 54 52 55
REMARK SMILES IDX 66 56 85 57 50 58 51 59 65 61 86 62 53 63 37 64 38 65 46 66
REMARK SMILES IDX 39 67 45 68 47 69 44 70 40 71 41 72 42 73 43 74 69 75 70 76
REMARK SMILES IDX 78 77 71 78 77 79 79 80 76 81 72 82 73 83 74 84 75 85 54 86
REMARK SMILES IDX 55 87 63 88 56 89 62 90 64 91 61 92 57 93 58 94 59 95 60 96
REMARK H PARENT 18 6 25 30 84 49 52 60
REMARK Flexibility Score: inf
ROOT
ATOM      1  C   UNL A   1      39.799  23.161  27.253  1.00  0.00     0.021 C 
ENDROOT
BRANCH   1   2
ATOM      2  C   UNL A   1      38.585  22.994  26.341  1.00  0.00     0.116 C 
BRANCH   2   3
ATOM      3  N   UNL A   1      38.502  21.646  25.827  1.00  0.00    -0.349 N 
ATOM      4  C   UNL A   1      37.612  21.045  24.970  1.00  0.00     0.286 C 
ATOM      5  O   UNL A   1      37.888  19.882  24.663  1.00  0.00    -0.266 OA
ATOM      6  H   UNL A   1      39.213  21.047  26.151  1.00  0.00     0.163 HD
BRANCH   4   7
ATOM      7  C   UNL A   1      36.442  21.740  24.458  1.00  0.00     0.191 A 
ATOM      8  C   UNL A   1      34.302  22.325  24.611  1.00  0.00     0.145 A 
ATOM      9  C   UNL A   1      34.797  22.956  23.492  1.00  0.00     0.050 A 
ATOM     10  O   UNL A   1      35.274  21.539  25.153  1.00  0.00    -0.452 OA
ATOM     11  C   UNL A   1      36.175  22.631  23.430  1.00  0.00     0.057 A 
BRANCH   8  12
ATOM     12  C   UNL A   1      32.994  22.378  25.330  1.00  0.00     0.236 C 
ATOM     13  C   UNL A   1      33.099  22.213  26.845  1.00  0.00     0.062 C 
BRANCH  12  14
ATOM     14  O   UNL A   1      32.026  21.475  24.762  1.00  0.00    -0.483 OA
BRANCH  14  15
ATOM     15  C   UNL A   1      32.331  20.203  24.371  1.00  0.00     0.120 A 
ATOM     16  C   UNL A   1      33.106  17.902  24.628  1.00  0.00    -0.019 A 
ATOM     17  C   UNL A   1      32.901  17.690  23.259  1.00  0.00     0.006 A 
ATOM     18  C   UNL A   1      32.813  19.167  25.172  1.00  0.00     0.052 A 
ATOM     19  C   UNL A   1      32.440  18.724  22.449  1.00  0.00     0.004 A 
ATOM     20  C   UNL A   1      32.163  19.973  23.004  1.00  0.00     0.046 A 
BRANCH  16  21
ATOM     21  C   UNL A   1      33.646  16.802  25.511  1.00  0.00     0.195 C 
BRANCH  21  22
ATOM     22  O   UNL A   1      32.627  15.956  26.042  1.00  0.00    -0.380 OA
ATOM     23  C   UNL A   1      32.521  14.706  25.376  1.00  0.00     0.195 C 
ENDBRANCH  21  22
ENDBRANCH  16  21
ENDBRANCH  14  15
ENDBRANCH  12  14
ENDBRANCH   8  12
ENDBRANCH   4   7
ENDBRANCH   2   3
ENDBRANCH   1   2
BRANCH   1  24
ATOM     24  C   UNL A   1      40.979  22.259  26.865  1.00  0.00     0.002 C 
BRANCH  24  25
ATOM     25  C   UNL A   1      41.327  21.169  27.890  1.00  0.00     0.002 C 
BRANCH  25  26
ATOM     26  C   UNL A   1      41.746  19.822  27.290  1.00  0.00     0.021 C 
BRANCH  26  27
ATOM     27  C   UNL A   1      41.742  19.780  25.765  1.00  0.00     0.116 C 
BRANCH  27  28
ATOM     28  N   UNL A   1      43.044  19.403  25.238  1.00  0.00    -0.352 N 
ATOM     29  C   UNL A   1      44.128  20.193  24.943  1.00  0.00     0.251 C 
ATOM     30  H   UNL A   1      43.166  18.441  25.068  1.00  0.00     0.163 HD
ATOM     31  O   UNL A   1      45.052  19.731  24.279  1.00  0.00    -0.269 OA
BRANCH  29  32
ATOM     32  C   UNL A   1      44.170  21.596  25.408  1.00  0.00     0.039 A 
ATOM     33  C   UNL A   1      44.630  21.867  26.699  1.00  0.00     0.014 A 
ATOM     34  C   UNL A   1      43.739  22.638  24.583  1.00  0.00     0.014 A 
ATOM     35  C   UNL A   1      44.718  23.190  27.140  1.00  0.00     0.010 A 
ATOM     36  C   UNL A   1      43.887  23.959  24.999  1.00  0.00     0.010 A 
ATOM     37  C   UNL A   1      44.378  24.249  26.281  1.00  0.00    -0.014 A 
BRANCH  37  38
ATOM     38  C   UNL A   1      44.544  25.664  26.703  1.00  0.00     0.031 A 
ATOM     39  C   UNL A   1      45.901  26.312  26.665  1.00  0.00     0.074 A 
ATOM     40  C   UNL A   1      43.482  26.341  27.183  1.00  0.00     0.049 A 
ATOM     41  N   UNL A   1      46.260  27.504  27.068  1.00  0.00    -0.248 NA
ATOM     42  C   UNL A   1      47.002  25.501  26.128  1.00  0.00     0.031 C 
ATOM     43  C   UNL A   1      42.124  25.806  27.302  1.00  0.00     0.029 A 
ATOM     44  N   UNL A   1      43.376  27.619  27.670  1.00  0.00    -0.354 N 
ATOM     45  C   UNL A   1      47.631  27.583  26.844  1.00  0.00     0.074 A 
ATOM     46  C   UNL A   1      48.044  26.296  26.324  1.00  0.00     0.031 C 
ATOM     47  C   UNL A   1      41.320  26.753  27.810  1.00  0.00     0.029 A 
ATOM     48  C   UNL A   1      42.109  27.946  28.097  1.00  0.00     0.049 A 
ATOM     49  H   UNL A   1      44.135  28.245  27.711  1.00  0.00     0.167 HD
ATOM     50  C   UNL A   1      48.462  28.638  27.036  1.00  0.00     0.034 A 
ATOM     51  C   UNL A   1      41.641  29.072  28.671  1.00  0.00     0.034 A 
ATOM     52  C   UNL A   1      48.031  29.916  27.548  1.00  0.00     0.049 A 
ATOM     53  C   UNL A   1      42.589  30.219  28.902  1.00  0.00     0.074 A 
ATOM     54  C   UNL A   1      48.774  31.070  27.726  1.00  0.00     0.029 A 
ATOM     55  N   UNL A   1      46.742  30.209  27.976  1.00  0.00    -0.354 N 
ATOM     56  N   UNL A   1      43.873  30.295  28.638  1.00  0.00    -0.248 NA
ATOM     57  C   UNL A   1      42.024  31.433  29.505  1.00  0.00     0.031 C 
ATOM     58  C   UNL A   1      47.956  32.034  28.325  1.00  0.00     0.029 A 
ATOM     59  C   UNL A   1      46.679  31.511  28.452  1.00  0.00     0.049 A 
ATOM     60  H   UNL A   1      45.982  29.582  27.947  1.00  0.00     0.167 HD
ATOM     61  C   UNL A   1      44.262  31.577  29.018  1.00  0.00     0.074 A 
ATOM     62  C   UNL A   1      43.074  32.242  29.511  1.00  0.00     0.031 C 
ATOM     63  C   UNL A   1      45.490  32.154  28.961  1.00  0.00     0.034 A 
BRANCH  50  64
ATOM     64  C   UNL A   1      49.925  28.438  26.715  1.00  0.00     0.023 A 
ATOM     65  C   UNL A   1      50.433  28.648  25.420  1.00  0.00     0.031 A 
ATOM     66  C   UNL A   1      50.822  28.010  27.710  1.00  0.00     0.131 A 
ATOM     67  C   UNL A   1      51.776  28.357  25.137  1.00  0.00     0.055 A 
ATOM     68  C   UNL A   1      52.176  27.801  27.441  1.00  0.00     0.041 A 
ATOM     69  F   UNL A   1      50.395  27.773  28.959  1.00  0.00    -0.206 F 
ATOM     70  C   UNL A   1      52.658  27.959  26.144  1.00  0.00     0.022 A 
BRANCH  67  71
ATOM     71  S   UNL A   1      52.319  28.366  23.406  1.00  0.00     0.124 S 
ATOM     72  O   UNL A   1      51.351  29.277  22.799  1.00  0.00    -0.237 OA
ATOM     73  O   UNL A   1      53.686  28.861  23.508  1.00  0.00    -0.237 OA
ATOM     74  O   UNL A   1      52.188  26.969  22.998  1.00  0.00    -0.744 OA
ENDBRANCH  67  71
ENDBRANCH  50  64
BRANCH  51  75
ATOM     75  C   UNL A   1      40.211  29.169  29.082  1.00  0.00     0.023 A 
ATOM     76  C   UNL A   1      39.843  29.119  30.437  1.00  0.00     0.031 A 
ATOM     77  C   UNL A   1      39.187  29.274  28.124  1.00  0.00     0.131 A 
ATOM     78  C   UNL A   1      38.486  29.128  30.794  1.00  0.00     0.055 A 
ATOM     79  C   UNL A   1      37.840  29.337  28.488  1.00  0.00     0.041 A 
ATOM     80  F   UNL A   1      39.484  29.332  26.816  1.00  0.00    -0.206 F 
ATOM     81  C   UNL A   1      37.483  29.250  29.829  1.00  0.00     0.022 A 
BRANCH  78  82
ATOM     82  S   UNL A   1      38.046  28.893  32.537  1.00  0.00     0.124 S 
ATOM     83  O   UNL A   1      38.249  27.459  32.703  1.00  0.00    -0.237 OA
ATOM     84  O   UNL A   1      39.007  29.761  33.211  1.00  0.00    -0.237 OA
ATOM     85  O   UNL A   1      36.656  29.339  32.600  1.00  0.00    -0.744 OA
ENDBRANCH  78  82
ENDBRANCH  51  75
BRANCH  63  86
ATOM     86  C   UNL A   1      45.592  33.589  29.419  1.00  0.00     0.023 A 
ATOM     87  C   UNL A   1      45.424  34.662  28.526  1.00  0.00     0.031 A 
ATOM     88  C   UNL A   1      45.880  33.885  30.763  1.00  0.00     0.131 A 
ATOM     89  C   UNL A   1      45.603  35.979  28.974  1.00  0.00     0.055 A 
ATOM     90  C   UNL A   1      45.997  35.200  31.216  1.00  0.00     0.041 A 
ATOM     91  F   UNL A   1      46.055  32.900  31.658  1.00  0.00    -0.206 F 
ATOM     92  C   UNL A   1      45.872  36.256  30.318  1.00  0.00     0.022 A 
BRANCH  89  93
ATOM     93  S   UNL A   1      45.574  37.324  27.758  1.00  0.00     0.124 S 
ATOM     94  O   UNL A   1      44.264  37.920  27.995  1.00  0.00    -0.237 OA
ATOM     95  O   UNL A   1      46.724  38.130  28.157  1.00  0.00    -0.237 OA
ATOM     96  O   UNL A   1      45.719  36.632  26.478  1.00  0.00    -0.744 OA
ENDBRANCH  89  93
ENDBRANCH  63  86
ENDBRANCH  37  38
ENDBRANCH  29  32
ENDBRANCH  27  28
ENDBRANCH  26  27
ENDBRANCH  25  26
ENDBRANCH  24  25
ENDBRANCH   1  24
TORSDOF 21
ENDMDL
MODEL 2
REMARK VINA RESULT:      -9.9      6.075     11.553
REMARK SMILES COCc1cccc(O[C@@H](C)c2ccc(C(=O)NCCCCCCNC(=O)c3ccc(-c4c5nc(c(-c6cc(S(=O)(=O)[O-])ccc6F)c6ccc([nH]6)c(-c6cc(S(=O)(=O)[O-])ccc6F)c6nc(c(-c7cc(S(=O)(=O)[O-])ccc7F)c7ccc4[nH]7)C=C6)C=C5)cc3)o2)c1
REMARK SMILES IDX 20 1 19 2 18 3 16 4 17 5 15 7 12 8 13 9 91 10 14 11 10 12
REMARK SMILES IDX 11 13 9 14 8 15 4 16 5 17 92 18 6 19 7 20 3 21 2 22 1 23
REMARK SMILES IDX 21 24 22 25 23 26 24 27 25 28 26 29 27 31 28 32 29 33 90 34
REMARK SMILES IDX 30 35 89 36 31 37 32 38 33 39 83 40 34 41 88 42 82 43 84 44
REMARK SMILES IDX 35 45 87 46 81 47 80 48 36 50 68 51 48 52 67 53 49 54 52 55
REMARK SMILES IDX 66 56 85 57 50 58 51 59 65 61 86 62 53 63 37 64 38 65 46 66
REMARK SMILES IDX 39 67 45 68 47 69 44 70 40 71 41 72 42 73 43 74 69 75 70 76
REMARK SMILES IDX 78 77 71 78 77 79 79 80 76 81 72 82 73 83 74 84 75 85 54 86
REMARK SMILES IDX 55 87 63 88 56 89 62 90 64 91 61 92 57 93 58 94 59 95 60 96
REMARK H PARENT 18 6 25 30 84 49 52 60
REMARK Flexibility Score: inf
ROOT
ATOM      1  C   UNL A   1      35.254  30.308  27.819  1.00  0.00     0.021 C 
ENDROOT
BRANCH   1   2
ATOM      2  C   UNL A   1      34.371  29.173  27.304  1.00  0.00     0.116 C 
BRANCH   2   3
ATOM      3  N   UNL A   1      34.050  29.354  25.907  1.00  0.00    -0.349 N 
ATOM      4  C   UNL A   1      33.285  28.614  25.039  1.00  0.00     0.286 C 
ATOM      5  O   UNL A   1      33.143  29.109  23.917  1.00  0.00    -0.266 OA
ATOM      6  H   UNL A   1      34.455  30.156  25.502  1.00  0.00     0.163 HD
BRANCH   4   7
ATOM      7  C   UNL A   1      32.681  27.349  25.425  1.00  0.00     0.191 A 
ATOM      8  C   UNL A   1      32.762  25.138  25.640  1.00  0.00     0.145 A 
ATOM      9  C   UNL A   1      31.551  25.533  26.162  1.00  0.00     0.050 A 
ATOM     10  O   UNL A   1      33.412  26.223  25.135  1.00  0.00    -0.452 OA
ATOM     11  C   UNL A   1      31.527  26.948  26.079  1.00  0.00     0.057 A 
BRANCH   8  12
ATOM     12  C   UNL A   1      33.477  23.828  25.574  1.00  0.00     0.236 C 
ATOM     13  C   UNL A   1      34.819  23.804  26.304  1.00  0.00     0.062 C 
BRANCH  12  14
ATOM     14  O   UNL A   1      33.597  23.342  24.224  1.00  0.00    -0.483 OA
BRANCH  14  15
ATOM     15  C   UNL A   1      33.164  22.108  23.833  1.00  0.00     0.120 A 
ATOM     16  C   UNL A   1      32.882  19.686  23.958  1.00  0.00    -0.019 A 
ATOM     17  C   UNL A   1      32.172  19.716  22.751  1.00  0.00     0.006 A 
ATOM     18  C   UNL A   1      33.371  20.894  24.489  1.00  0.00     0.052 A 
ATOM     19  C   UNL A   1      31.977  20.919  22.079  1.00  0.00     0.004 A 
ATOM     20  C   UNL A   1      32.476  22.105  22.617  1.00  0.00     0.046 A 
BRANCH  16  21
ATOM     21  C   UNL A   1      33.137  18.382  24.675  1.00  0.00     0.195 C 
BRANCH  21  22
ATOM     22  O   UNL A   1      32.854  17.235  23.875  1.00  0.00    -0.380 OA
ATOM     23  C   UNL A   1      34.016  16.533  23.456  1.00  0.00     0.195 C 
ENDBRANCH  21  22
ENDBRANCH  16  21
ENDBRANCH  14  15
ENDBRANCH  12  14
ENDBRANCH   8  12
ENDBRANCH   4   7
ENDBRANCH   2   3
ENDBRANCH   1   2
BRANCH   1  24
ATOM     24  C   UNL A   1      34.505  31.640  27.968  1.00  0.00     0.002 C 
BRANCH  24  25
ATOM     25  C   UNL A   1      35.386  32.895  27.877  1.00  0.00     0.002 C 
BRANCH  25  26
ATOM     26  C   UNL A   1      34.634  34.227  27.970  1.00  0.00     0.021 C 
BRANCH  26  27
ATOM     27  C   UNL A   1      33.185  34.104  28.431  1.00  0.00     0.116 C 
BRANCH  27  28
ATOM     28  N   UNL A   1      32.889  35.027  29.516  1.00  0.00    -0.352 N 
ATOM     29  C   UNL A   1      33.392  35.061  30.793  1.00  0.00     0.251 C 
ATOM     30  H   UNL A   1      32.233  35.729  29.303  1.00  0.00     0.163 HD
ATOM     31  O   UNL A   1      32.846  35.761  31.641  1.00  0.00    -0.269 OA
BRANCH  29  32
ATOM     32  C   UNL A   1      34.574  34.246  31.145  1.00  0.00     0.039 A 
ATOM     33  C   UNL A   1      35.848  34.799  30.995  1.00  0.00     0.014 A 
ATOM     34  C   UNL A   1      34.429  32.933  31.603  1.00  0.00     0.014 A 
ATOM     35  C   UNL A   1      36.974  34.059  31.364  1.00  0.00     0.010 A 
ATOM     36  C   UNL A   1      35.546  32.219  32.031  1.00  0.00     0.010 A 
ATOM     37  C   UNL A   1      36.830  32.775  31.917  1.00  0.00    -0.014 A 
BRANCH  37  38
ATOM     38  C   UNL A   1      38.009  32.006  32.392  1.00  0.00     0.031 A 
ATOM     39  C   UNL A   1      38.635  32.325  33.722  1.00  0.00     0.074 A 
ATOM     40  C   UNL A   1      38.553  31.067  31.593  1.00  0.00     0.049 A 
ATOM     41  N   UNL A   1      39.713  31.824  34.271  1.00  0.00    -0.248 NA
ATOM     42  C   UNL A   1      37.977  33.363  34.527  1.00  0.00     0.031 C 
ATOM     43  C   UNL A   1      38.056  30.696  30.266  1.00  0.00     0.029 A 
ATOM     44  N   UNL A   1      39.649  30.260  31.771  1.00  0.00    -0.354 N 
ATOM     45  C   UNL A   1      39.869  32.492  35.480  1.00  0.00     0.074 A 
ATOM     46  C   UNL A   1      38.807  33.475  35.554  1.00  0.00     0.031 C 
ATOM     47  C   UNL A   1      38.832  29.724  29.761  1.00  0.00     0.029 A 
ATOM     48  C   UNL A   1      39.907  29.434  30.702  1.00  0.00     0.049 A 
ATOM     49  H   UNL A   1      40.199  30.272  32.588  1.00  0.00     0.167 HD
ATOM     50  C   UNL A   1      40.799  32.292  36.446  1.00  0.00     0.034 A 
ATOM     51  C   UNL A   1      40.909  28.555  30.495  1.00  0.00     0.034 A 
ATOM     52  C   UNL A   1      41.847  31.303  36.358  1.00  0.00     0.049 A 
ATOM     53  C   UNL A   1      41.948  28.372  31.570  1.00  0.00     0.074 A 
ATOM     54  C   UNL A   1      42.804  30.974  37.302  1.00  0.00     0.029 A 
ATOM     55  N   UNL A   1      42.082  30.488  35.258  1.00  0.00    -0.354 N 
ATOM     56  N   UNL A   1      42.052  28.976  32.731  1.00  0.00    -0.248 NA
ATOM     57  C   UNL A   1      43.002  27.382  31.309  1.00  0.00     0.031 C 
ATOM     58  C   UNL A   1      43.659  30.015  36.747  1.00  0.00     0.029 A 
ATOM     59  C   UNL A   1      43.191  29.686  35.485  1.00  0.00     0.049 A 
ATOM     60  H   UNL A   1      41.541  30.482  34.435  1.00  0.00     0.167 HD
ATOM     61  C   UNL A   1      43.169  28.420  33.348  1.00  0.00     0.074 A 
ATOM     62  C   UNL A   1      43.691  27.420  32.440  1.00  0.00     0.031 C 
ATOM     63  C   UNL A   1      43.713  28.707  34.559  1.00  0.00     0.034 A 
BRANCH  50  64
ATOM     64  C   UNL A   1      40.738  33.181  37.667  1.00  0.00     0.023 A 
ATOM     65  C   UNL A   1      39.894  32.889  38.753  1.00  0.00     0.031 A 
ATOM     66  C   UNL A   1      41.517  34.350  37.737  1.00  0.00     0.131 A 
ATOM     67  C   UNL A   1      39.790  33.788  39.824  1.00  0.00     0.055 A 
ATOM     68  C   UNL A   1      41.470  35.201  38.844  1.00  0.00     0.041 A 
ATOM     69  F   UNL A   1      42.326  34.695  36.724  1.00  0.00    -0.206 F 
ATOM     70  C   UNL A   1      40.592  34.931  39.889  1.00  0.00     0.022 A 
BRANCH  67  71
ATOM     71  S   UNL A   1      38.489  33.521  41.059  1.00  0.00     0.124 S 
ATOM     72  O   UNL A   1      37.580  32.631  40.340  1.00  0.00    -0.237 OA
ATOM     73  O   UNL A   1      39.225  32.923  42.167  1.00  0.00    -0.237 OA
ATOM     74  O   UNL A   1      37.968  34.863  41.306  1.00  0.00    -0.744 OA
ENDBRANCH  67  71
ENDBRANCH  50  64
BRANCH  51  75
ATOM     75  C   UNL A   1      40.990  27.792  29.217  1.00  0.00     0.023 A 
ATOM     76  C   UNL A   1      41.962  28.100  28.252  1.00  0.00     0.031 A 
ATOM     77  C   UNL A   1      40.071  26.769  28.924  1.00  0.00     0.131 A 
ATOM     78  C   UNL A   1      41.965  27.424  27.021  1.00  0.00     0.055 A 
ATOM     79  C   UNL A   1      40.111  26.062  27.720  1.00  0.00     0.041 A 
ATOM     80  F   UNL A   1      39.124  26.430  29.815  1.00  0.00    -0.206 F 
ATOM     81  C   UNL A   1      41.054  26.399  26.755  1.00  0.00     0.022 A 
BRANCH  78  82
ATOM     82  S   UNL A   1      43.126  27.964  25.738  1.00  0.00     0.124 S 
ATOM     83  O   UNL A   1      43.322  29.367  26.086  1.00  0.00    -0.237 OA
ATOM     84  O   UNL A   1      44.264  27.080  25.968  1.00  0.00    -0.237 OA
ATOM     85  O   UNL A   1      42.395  27.724  24.495  1.00  0.00    -0.744 OA
ENDBRANCH  78  82
ENDBRANCH  51  75
BRANCH  63  86
ATOM     86  C   UNL A   1      44.918  27.899  34.975  1.00  0.00     0.023 A 
ATOM     87  C   UNL A   1      44.788  26.684  35.670  1.00  0.00     0.031 A 
ATOM     88  C   UNL A   1      46.215  28.362  34.689  1.00  0.00     0.131 A 
ATOM     89  C   UNL A   1      45.934  26.003  36.107  1.00  0.00     0.055 A 
ATOM     90  C   UNL A   1      47.351  27.648  35.073  1.00  0.00     0.041 A 
ATOM     91  F   UNL A   1      46.398  29.518  34.031  1.00  0.00    -0.206 F 
ATOM     92  C   UNL A   1      47.215  26.468  35.797  1.00  0.00     0.022 A 
BRANCH  89  93
ATOM     93  S   UNL A   1      45.729  24.546  37.168  1.00  0.00     0.124 S 
ATOM     94  O   UNL A   1      44.319  24.225  36.974  1.00  0.00    -0.237 OA
ATOM     95  O   UNL A   1      46.683  23.603  36.593  1.00  0.00    -0.237 OA
ATOM     96  O   UNL A   1      46.075  25.041  38.500  1.00  0.00    -0.744 OA
ENDBRANCH  89  93
ENDBRANCH  63  86
ENDBRANCH  37  38
ENDBRANCH  29  32
ENDBRANCH  27  28
ENDBRANCH  26  27
ENDBRANCH  25  26
ENDBRANCH  24  25
ENDBRANCH   1  24
TORSDOF 21
ENDMDL
MODEL 3
REMARK VINA RESULT:      -9.6      1.953      2.195
REMARK SMILES COCc1cccc(O[C@@H](C)c2ccc(C(=O)NCCCCCCNC(=O)c3ccc(-c4c5nc(c(-c6cc(S(=O)(=O)[O-])ccc6F)c6ccc([nH]6)c(-c6cc(S(=O)(=O)[O-])ccc6F)c6nc(c(-c7cc(S(=O)(=O)[O-])ccc7F)c7ccc4[nH]7)C=C6)C=C5)cc3)o2)c1
REMARK SMILES IDX 20 1 19 2 18 3 16 4 17 5 15 7 12 8 13 9 91 10 14 11 10 12
REMARK SMILES IDX 11 13 9 14 8 15 4 16 5 17 92 18 6 19 7 20 3 21 2 22 1 23
REMARK SMILES IDX 21 24 22 25 23 26 24 27 25 28 26 29 27 31 28 32 29 33 90 34
REMARK SMILES IDX 30 35 89 36 31 37 32 38 33 39 83 40 34 41 88 42 82 43 84 44
REMARK SMILES IDX 35 45 87 46 81 47 80 48 36 50 68 51 48 52 67 53 49 54 52 55
REMARK SMILES IDX 66 56 85 57 50 58 51 59 65 61 86 62 53 63 37 64 38 65 46 66
REMARK SMILES IDX 39 67 45 68 47 69 44 70 40 71 41 72 42 73 43 74 69 75 70 76
REMARK SMILES IDX 78 77 71 78 77 79 79 80 76 81 72 82 73 83 74 84 75 85 54 86
REMARK SMILES IDX 55 87 63 88 56 89 62 90 64 91 61 92 57 93 58 94 59 95 60 96
REMARK H PARENT 18 6 25 30 84 49 52 60
REMARK Flexibility Score: inf
ROOT
ATOM      1  C   UNL A   1      39.845  23.279  27.294  1.00  0.00     0.021 C 
ENDROOT
BRANCH   1   2
ATOM      2  C   UNL A   1      38.626  23.112  26.389  1.00  0.00     0.116 C 
BRANCH   2   3
ATOM      3  N   UNL A   1      38.466  21.736  25.978  1.00  0.00    -0.349 N 
ATOM      4  C   UNL A   1      37.597  21.138  25.099  1.00  0.00     0.286 C 
ATOM      5  O   UNL A   1      37.794  19.934  24.909  1.00  0.00    -0.266 OA
ATOM      6  H   UNL A   1      39.095  21.112  26.408  1.00  0.00     0.163 HD
BRANCH   4   7
ATOM      7  C   UNL A   1      36.535  21.878  24.436  1.00  0.00     0.191 A 
ATOM      8  C   UNL A   1      34.482  22.729  24.405  1.00  0.00     0.145 A 
ATOM      9  C   UNL A   1      35.078  23.114  23.225  1.00  0.00     0.050 A 
ATOM     10  O   UNL A   1      35.335  21.928  25.103  1.00  0.00    -0.452 OA
ATOM     11  C   UNL A   1      36.406  22.621  23.274  1.00  0.00     0.057 A 
BRANCH   8  12
ATOM     12  C   UNL A   1      33.172  23.049  25.050  1.00  0.00     0.236 C 
ATOM     13  C   UNL A   1      33.214  23.089  26.577  1.00  0.00     0.062 C 
BRANCH  12  14
ATOM     14  O   UNL A   1      32.110  22.205  24.568  1.00  0.00    -0.483 OA
BRANCH  14  15
ATOM     15  C   UNL A   1      32.285  20.888  24.256  1.00  0.00     0.120 A 
ATOM     16  C   UNL A   1      32.803  18.536  24.659  1.00  0.00    -0.019 A 
ATOM     17  C   UNL A   1      32.610  18.270  23.297  1.00  0.00     0.006 A 
ATOM     18  C   UNL A   1      32.635  19.854  25.124  1.00  0.00     0.052 A 
ATOM     19  C   UNL A   1      32.282  19.299  22.419  1.00  0.00     0.004 A 
ATOM     20  C   UNL A   1      32.127  20.600  22.898  1.00  0.00     0.046 A 
BRANCH  16  21
ATOM     21  C   UNL A   1      33.201  17.437  25.615  1.00  0.00     0.195 C 
BRANCH  21  22
ATOM     22  O   UNL A   1      32.219  16.409  25.729  1.00  0.00    -0.380 OA
ATOM     23  C   UNL A   1      32.666  15.141  25.270  1.00  0.00     0.195 C 
ENDBRANCH  21  22
ENDBRANCH  16  21
ENDBRANCH  14  15
ENDBRANCH  12  14
ENDBRANCH   8  12
ENDBRANCH   4   7
ENDBRANCH   2   3
ENDBRANCH   1   2
BRANCH   1  24
ATOM     24  C   UNL A   1      41.012  22.355  26.917  1.00  0.00     0.002 C 
BRANCH  24  25
ATOM     25  C   UNL A   1      41.316  21.243  27.932  1.00  0.00     0.002 C 
BRANCH  25  26
ATOM     26  C   UNL A   1      41.642  19.876  27.323  1.00  0.00     0.021 C 
BRANCH  26  27
ATOM     27  C   UNL A   1      41.664  19.852  25.797  1.00  0.00     0.116 C 
BRANCH  27  28
ATOM     28  N   UNL A   1      42.958  19.425  25.288  1.00  0.00    -0.352 N 
ATOM     29  C   UNL A   1      44.078  20.172  25.019  1.00  0.00     0.251 C 
ATOM     30  H   UNL A   1      43.042  18.461  25.110  1.00  0.00     0.163 HD
ATOM     31  O   UNL A   1      44.994  19.678  24.366  1.00  0.00    -0.269 OA
BRANCH  29  32
ATOM     32  C   UNL A   1      44.172  21.567  25.500  1.00  0.00     0.039 A 
ATOM     33  C   UNL A   1      44.613  21.806  26.804  1.00  0.00     0.014 A 
ATOM     34  C   UNL A   1      43.807  22.635  24.675  1.00  0.00     0.014 A 
ATOM     35  C   UNL A   1      44.748  23.120  27.260  1.00  0.00     0.010 A 
ATOM     36  C   UNL A   1      44.003  23.945  25.109  1.00  0.00     0.010 A 
ATOM     37  C   UNL A   1      44.476  24.201  26.405  1.00  0.00    -0.014 A 
BRANCH  37  38
ATOM     38  C   UNL A   1      44.694  25.603  26.845  1.00  0.00     0.031 A 
ATOM     39  C   UNL A   1      46.079  26.188  26.850  1.00  0.00     0.074 A 
ATOM     40  C   UNL A   1      43.651  26.323  27.302  1.00  0.00     0.049 A 
ATOM     41  N   UNL A   1      46.482  27.359  27.274  1.00  0.00    -0.248 NA
ATOM     42  C   UNL A   1      47.157  25.333  26.334  1.00  0.00     0.031 C 
ATOM     43  C   UNL A   1      42.267  25.849  27.380  1.00  0.00     0.029 A 
ATOM     44  N   UNL A   1      43.590  27.601  27.800  1.00  0.00    -0.354 N 
ATOM     45  C   UNL A   1      47.860  27.378  27.087  1.00  0.00     0.074 A 
ATOM     46  C   UNL A   1      48.228  26.078  26.566  1.00  0.00     0.031 C 
ATOM     47  C   UNL A   1      41.494  26.828  27.876  1.00  0.00     0.029 A 
ATOM     48  C   UNL A   1      42.328  27.981  28.195  1.00  0.00     0.049 A 
ATOM     49  H   UNL A   1      44.375  28.191  27.867  1.00  0.00     0.167 HD
ATOM     50  C   UNL A   1      48.732  28.392  27.312  1.00  0.00     0.034 A 
ATOM     51  C   UNL A   1      41.895  29.122  28.767  1.00  0.00     0.034 A 
ATOM     52  C   UNL A   1      48.345  29.685  27.825  1.00  0.00     0.049 A 
ATOM     53  C   UNL A   1      42.888  30.223  29.036  1.00  0.00     0.074 A 
ATOM     54  C   UNL A   1      49.135  30.802  28.034  1.00  0.00     0.029 A 
ATOM     55  N   UNL A   1      47.060  30.032  28.221  1.00  0.00    -0.354 N 
ATOM     56  N   UNL A   1      44.181  30.243  28.806  1.00  0.00    -0.248 NA
ATOM     57  C   UNL A   1      42.363  31.456  29.635  1.00  0.00     0.031 C 
ATOM     58  C   UNL A   1      48.346  31.797  28.621  1.00  0.00     0.029 A 
ATOM     59  C   UNL A   1      47.043  31.331  28.708  1.00  0.00     0.049 A 
ATOM     60  H   UNL A   1      46.273  29.441  28.166  1.00  0.00     0.167 HD
ATOM     61  C   UNL A   1      44.617  31.502  29.209  1.00  0.00     0.074 A 
ATOM     62  C   UNL A   1      43.448  32.216  29.677  1.00  0.00     0.031 C 
ATOM     63  C   UNL A   1      45.871  32.023  29.191  1.00  0.00     0.034 A 
BRANCH  50  64
ATOM     64  C   UNL A   1      50.193  28.129  27.028  1.00  0.00     0.023 A 
ATOM     65  C   UNL A   1      51.102  27.820  28.057  1.00  0.00     0.031 A 
ATOM     66  C   UNL A   1      50.691  28.211  25.716  1.00  0.00     0.131 A 
ATOM     67  C   UNL A   1      52.467  27.681  27.769  1.00  0.00     0.055 A 
ATOM     68  C   UNL A   1      52.039  27.989  25.424  1.00  0.00     0.041 A 
ATOM     69  F   UNL A   1      49.879  28.522  24.695  1.00  0.00    -0.206 F 
ATOM     70  C   UNL A   1      52.939  27.738  26.456  1.00  0.00     0.022 A 
BRANCH  67  71
ATOM     71  S   UNL A   1      53.638  27.568  29.150  1.00  0.00     0.124 S 
ATOM     72  O   UNL A   1      52.758  27.772  30.299  1.00  0.00    -0.237 OA
ATOM     73  O   UNL A   1      54.182  26.225  28.993  1.00  0.00    -0.237 OA
ATOM     74  O   UNL A   1      54.577  28.657  28.894  1.00  0.00    -0.744 OA
ENDBRANCH  67  71
ENDBRANCH  50  64
BRANCH  51  75
ATOM     75  C   UNL A   1      40.461  29.281  29.141  1.00  0.00     0.023 A 
ATOM     76  C   UNL A   1      40.047  29.177  30.479  1.00  0.00     0.031 A 
ATOM     77  C   UNL A   1      39.477  29.500  28.161  1.00  0.00     0.131 A 
ATOM     78  C   UNL A   1      38.681  29.246  30.795  1.00  0.00     0.055 A 
ATOM     79  C   UNL A   1      38.125  29.622  28.487  1.00  0.00     0.041 A 
ATOM     80  F   UNL A   1      39.819  29.613  26.867  1.00  0.00    -0.206 F 
ATOM     81  C   UNL A   1      37.719  29.482  29.810  1.00  0.00     0.022 A 
BRANCH  78  82
ATOM     82  S   UNL A   1      38.171  28.940  32.508  1.00  0.00     0.124 S 
ATOM     83  O   UNL A   1      38.585  27.555  32.698  1.00  0.00    -0.237 OA
ATOM     84  O   UNL A   1      38.938  29.945  33.237  1.00  0.00    -0.237 OA
ATOM     85  O   UNL A   1      36.727  29.162  32.478  1.00  0.00    -0.744 OA
ENDBRANCH  78  82
ENDBRANCH  51  75
BRANCH  63  86
ATOM     86  C   UNL A   1      46.025  33.448  29.666  1.00  0.00     0.023 A 
ATOM     87  C   UNL A   1      46.302  33.752  31.010  1.00  0.00     0.031 A 
ATOM     88  C   UNL A   1      45.872  34.516  28.764  1.00  0.00     0.131 A 
ATOM     89  C   UNL A   1      46.361  35.090  31.426  1.00  0.00     0.055 A 
ATOM     90  C   UNL A   1      45.993  35.845  29.172  1.00  0.00     0.041 A 
ATOM     91  F   UNL A   1      45.603  34.284  27.470  1.00  0.00    -0.206 F 
ATOM     92  C   UNL A   1      46.226  36.139  30.512  1.00  0.00     0.022 A 
BRANCH  89  93
ATOM     93  S   UNL A   1      46.524  35.444  33.198  1.00  0.00     0.124 S 
ATOM     94  O   UNL A   1      45.643  36.596  33.359  1.00  0.00    -0.237 OA
ATOM     95  O   UNL A   1      46.068  34.200  33.809  1.00  0.00    -0.237 OA
ATOM     96  O   UNL A   1      47.950  35.727  33.361  1.00  0.00    -0.744 OA
ENDBRANCH  89  93
ENDBRANCH  63  86
ENDBRANCH  37  38
ENDBRANCH  29  32
ENDBRANCH  27  28
ENDBRANCH  26  27
ENDBRANCH  25  26
ENDBRANCH  24  25
ENDBRANCH   1  24
TORSDOF 21
ENDMDL
