MODEL 1
REMARK VINA RESULT:     -11.5      0.000      0.000
REMARK SMILES O=C(NCCCCCCNC(=O)[C@H]1C[C@H]2CCCC[C@@H]2[N@@H+]1CC[C@@H]1CCCO1)c1ccc(-c2c3nc(c(-c4cc(S(=O)(=O)[O-])ccc4F)c4ccc([nH]4)c(-c4cc(S(=O)(=O)[O-])ccc4F)c4nc(c(-c5cc(S(=O)(=O)[O-])ccc5F)c5ccc2[nH]5)C=C4)C=C3)cc1
REMARK SMILES IDX 6 1 5 2 4 3 3 4 1 5 2 6 29 8 30 9 91 10 31 11 90 12 32 13
REMARK SMILES IDX 33 14 34 15 84 16 35 17 89 18 83 19 85 20 36 21 88 22 82 23
REMARK SMILES IDX 81 24 37 26 69 27 49 28 68 29 50 30 53 31 67 32 86 33 51 34
REMARK SMILES IDX 52 35 66 37 87 38 54 39 38 40 39 41 47 42 40 43 46 44 48 45
REMARK SMILES IDX 45 46 41 47 42 48 43 49 44 50 70 51 71 52 79 53 72 54 78 55
REMARK SMILES IDX 80 56 77 57 73 58 74 59 75 60 76 61 55 62 56 63 64 64 57 65
REMARK SMILES IDX 63 66 65 67 62 68 58 69 59 70 60 71 61 72 7 73 8 74 9 75
REMARK SMILES IDX 10 76 11 77 12 79 13 80 14 81 21 82 15 83 20 84 16 86 19 87
REMARK SMILES IDX 17 88 18 89 22 90 23 91 24 92 25 93 28 94 26 95 27 96
REMARK H PARENT 3 7 85 25 53 36 10 78 21 85
REMARK Flexibility Score: inf
ROOT
ATOM      1  C   UNL A   1      32.036  27.194  25.935  1.00  0.00     0.002 C 
ENDROOT
BRANCH   1   2
ATOM      2  C   UNL A   1      32.335  28.218  24.839  1.00  0.00     0.021 C 
BRANCH   2   3
ATOM      3  C   UNL A   1      33.332  29.296  25.236  1.00  0.00     0.116 C 
BRANCH   3   4
ATOM      4  N   UNL A   1      32.680  30.504  25.714  1.00  0.00    -0.352 N 
ATOM      5  O   UNL A   1      32.257  32.169  27.177  1.00  0.00    -0.269 OA
ATOM      6  C   UNL A   1      33.006  31.280  26.805  1.00  0.00     0.251 C 
ATOM      7  H   UNL A   1      31.904  30.807  25.190  1.00  0.00     0.163 HD
BRANCH   6   8
ATOM      8  C   UNL A   1      34.272  31.009  27.528  1.00  0.00     0.039 A 
ATOM      9  C   UNL A   1      34.574  29.715  27.956  1.00  0.00     0.014 A 
ATOM     10  C   UNL A   1      35.159  32.059  27.781  1.00  0.00     0.014 A 
ATOM     11  C   UNL A   1      35.692  29.495  28.749  1.00  0.00     0.010 A 
ATOM     12  C   UNL A   1      36.334  31.817  28.502  1.00  0.00     0.010 A 
ATOM     13  C   UNL A   1      36.600  30.535  29.009  1.00  0.00    -0.014 A 
BRANCH  13  14
ATOM     14  C   UNL A   1      37.858  30.215  29.732  1.00  0.00     0.031 A 
ATOM     15  C   UNL A   1      38.097  30.681  31.141  1.00  0.00     0.074 A 
ATOM     16  C   UNL A   1      38.765  29.437  29.107  1.00  0.00     0.049 A 
ATOM     17  N   UNL A   1      39.118  30.440  31.924  1.00  0.00    -0.248 NA
ATOM     18  C   UNL A   1      37.064  31.533  31.749  1.00  0.00     0.031 C 
ATOM     19  C   UNL A   1      38.636  28.942  27.732  1.00  0.00     0.029 A 
ATOM     20  N   UNL A   1      39.947  28.898  29.540  1.00  0.00    -0.354 N 
ATOM     21  C   UNL A   1      38.858  31.112  33.113  1.00  0.00     0.074 A 
ATOM     22  C   UNL A   1      37.595  31.799  32.934  1.00  0.00     0.031 C 
ATOM     23  C   UNL A   1      39.663  28.127  27.458  1.00  0.00     0.029 A 
ATOM     24  C   UNL A   1      40.562  28.098  28.605  1.00  0.00     0.049 A 
ATOM     25  H   UNL A   1      40.321  29.067  30.434  1.00  0.00     0.167 HD
ATOM     26  C   UNL A   1      39.602  31.142  34.247  1.00  0.00     0.034 A 
ATOM     27  C   UNL A   1      41.729  27.428  28.654  1.00  0.00     0.034 A 
ATOM     28  C   UNL A   1      40.863  30.452  34.402  1.00  0.00     0.049 A 
ATOM     29  C   UNL A   1      42.539  27.497  29.919  1.00  0.00     0.074 A 
ATOM     30  C   UNL A   1      41.697  30.414  35.506  1.00  0.00     0.029 A 
ATOM     31  N   UNL A   1      41.476  29.681  33.421  1.00  0.00    -0.354 N 
ATOM     32  N   UNL A   1      42.272  28.134  31.036  1.00  0.00    -0.248 NA
ATOM     33  C   UNL A   1      43.804  26.755  29.932  1.00  0.00     0.031 C 
ATOM     34  C   UNL A   1      42.836  29.669  35.176  1.00  0.00     0.029 A 
ATOM     35  C   UNL A   1      42.684  29.183  33.887  1.00  0.00     0.049 A 
ATOM     36  H   UNL A   1      41.106  29.512  32.524  1.00  0.00     0.167 HD
ATOM     37  C   UNL A   1      43.337  27.863  31.887  1.00  0.00     0.074 A 
ATOM     38  C   UNL A   1      44.224  26.970  31.168  1.00  0.00     0.031 C 
ATOM     39  C   UNL A   1      43.570  28.317  33.146  1.00  0.00     0.034 A 
BRANCH  26  40
ATOM     40  C   UNL A   1      39.092  31.977  35.397  1.00  0.00     0.023 A 
ATOM     41  C   UNL A   1      38.471  31.396  36.516  1.00  0.00     0.031 A 
ATOM     42  C   UNL A   1      39.237  33.377  35.379  1.00  0.00     0.131 A 
ATOM     43  C   UNL A   1      37.974  32.212  37.546  1.00  0.00     0.055 A 
ATOM     44  C   UNL A   1      38.801  34.178  36.437  1.00  0.00     0.041 A 
ATOM     45  F   UNL A   1      39.805  33.990  34.329  1.00  0.00    -0.206 F 
ATOM     46  C   UNL A   1      38.156  33.596  37.524  1.00  0.00     0.022 A 
BRANCH  43  47
ATOM     47  S   UNL A   1      36.994  31.448  38.867  1.00  0.00     0.124 S 
ATOM     48  O   UNL A   1      37.859  31.641  40.028  1.00  0.00    -0.237 OA
ATOM     49  O   UNL A   1      35.767  32.235  38.846  1.00  0.00    -0.237 OA
ATOM     50  O   UNL A   1      36.851  30.060  38.430  1.00  0.00    -0.744 OA
ENDBRANCH  43  47
ENDBRANCH  26  40
BRANCH  27  51
ATOM     51  C   UNL A   1      42.216  26.673  27.465  1.00  0.00     0.023 A 
ATOM     52  C   UNL A   1      41.958  25.303  27.314  1.00  0.00     0.031 A 
ATOM     53  C   UNL A   1      42.989  27.312  26.476  1.00  0.00     0.131 A 
ATOM     54  C   UNL A   1      42.508  24.604  26.228  1.00  0.00     0.055 A 
ATOM     55  C   UNL A   1      43.481  26.626  25.365  1.00  0.00     0.041 A 
ATOM     56  F   UNL A   1      43.265  28.623  26.569  1.00  0.00    -0.206 F 
ATOM     57  C   UNL A   1      43.254  25.259  25.245  1.00  0.00     0.022 A 
BRANCH  54  58
ATOM     58  S   UNL A   1      42.320  22.801  26.171  1.00  0.00     0.124 S 
ATOM     59  O   UNL A   1      42.909  22.480  24.876  1.00  0.00    -0.237 OA
ATOM     60  O   UNL A   1      43.081  22.382  27.343  1.00  0.00    -0.237 OA
ATOM     61  O   UNL A   1      40.875  22.607  26.265  1.00  0.00    -0.744 OA
ENDBRANCH  54  58
ENDBRANCH  27  51
BRANCH  39  62
ATOM     62  C   UNL A   1      44.833  27.830  33.808  1.00  0.00     0.023 A 
ATOM     63  C   UNL A   1      44.830  26.701  34.648  1.00  0.00     0.031 A 
ATOM     64  C   UNL A   1      46.039  28.533  33.649  1.00  0.00     0.131 A 
ATOM     65  C   UNL A   1      45.990  26.355  35.356  1.00  0.00     0.055 A 
ATOM     66  C   UNL A   1      47.207  28.144  34.306  1.00  0.00     0.041 A 
ATOM     67  F   UNL A   1      46.097  29.620  32.861  1.00  0.00    -0.206 F 
ATOM     68  C   UNL A   1      47.183  27.060  35.179  1.00  0.00     0.022 A 
BRANCH  65  69
ATOM     69  S   UNL A   1      45.885  25.042  36.604  1.00  0.00     0.124 S 
ATOM     70  O   UNL A   1      46.945  25.420  37.532  1.00  0.00    -0.237 OA
ATOM     71  O   UNL A   1      44.520  25.192  37.100  1.00  0.00    -0.237 OA
ATOM     72  O   UNL A   1      46.134  23.822  35.839  1.00  0.00    -0.744 OA
ENDBRANCH  65  69
ENDBRANCH  39  62
ENDBRANCH  13  14
ENDBRANCH   6   8
ENDBRANCH   3   4
ENDBRANCH   2   3
ENDBRANCH   1   2
BRANCH   1  73
ATOM     73  C   UNL A   1      30.681  26.485  25.819  1.00  0.00     0.002 C 
BRANCH  73  74
ATOM     74  C   UNL A   1      29.966  26.631  24.467  1.00  0.00     0.021 C 
BRANCH  74  75
ATOM     75  C   UNL A   1      30.128  25.428  23.538  1.00  0.00     0.116 C 
BRANCH  75  76
ATOM     76  N   UNL A   1      31.207  25.637  22.596  1.00  0.00    -0.351 N 
ATOM     77  C   UNL A   1      32.438  25.087  22.470  1.00  0.00     0.278 C 
ATOM     78  H   UNL A   1      31.006  26.313  21.909  1.00  0.00     0.163 HD
ATOM     79  O   UNL A   1      33.154  25.592  21.590  1.00  0.00    -0.268 OA
BRANCH  77  80
ATOM     80  C   UNL A   1      32.963  23.865  23.252  1.00  0.00     0.274 C 
ATOM     81  C   UNL A   1      34.181  23.282  22.486  1.00  0.00     0.085 C 
ATOM     82  N   UNL A   1      33.441  24.116  24.637  1.00  0.00    -0.322 N 
ATOM     83  C   UNL A   1      35.142  22.904  23.595  1.00  0.00     0.054 C 
ATOM     84  C   UNL A   1      34.899  24.018  24.605  1.00  0.00     0.188 C 
ATOM     85  H   UNL A   1      33.212  25.061  24.943  1.00  0.00     0.349 HD
ATOM     86  C   UNL A   1      36.616  22.745  23.274  1.00  0.00     0.010 C 
ATOM     87  C   UNL A   1      35.713  23.908  25.895  1.00  0.00     0.065 C 
ATOM     88  C   UNL A   1      37.373  22.471  24.580  1.00  0.00     0.001 C 
ATOM     89  C   UNL A   1      37.185  23.601  25.598  1.00  0.00     0.006 C 
BRANCH  82  90
ATOM     90  C   UNL A   1      32.693  23.433  25.711  1.00  0.00     0.265 C 
BRANCH  90  91
ATOM     91  C   UNL A   1      33.269  22.218  26.478  1.00  0.00     0.093 C 
BRANCH  91  92
ATOM     92  C   UNL A   1      33.076  20.863  25.813  1.00  0.00     0.123 C 
ATOM     93  C   UNL A   1      34.368  20.210  25.360  1.00  0.00     0.034 C 
ATOM     94  O   UNL A   1      32.305  20.925  24.606  1.00  0.00    -0.378 OA
ATOM     95  C   UNL A   1      33.838  19.102  24.480  1.00  0.00     0.031 C 
ATOM     96  C   UNL A   1      32.535  19.672  23.932  1.00  0.00     0.160 C 
ENDBRANCH  91  92
ENDBRANCH  90  91
ENDBRANCH  82  90
ENDBRANCH  77  80
ENDBRANCH  75  76
ENDBRANCH  74  75
ENDBRANCH  73  74
ENDBRANCH   1  73
TORSDOF 19
ENDMDL
MODEL 2
REMARK VINA RESULT:     -11.5      2.486      3.031
REMARK SMILES O=C(NCCCCCCNC(=O)[C@H]1C[C@H]2CCCC[C@@H]2[N@@H+]1CC[C@@H]1CCCO1)c1ccc(-c2c3nc(c(-c4cc(S(=O)(=O)[O-])ccc4F)c4ccc([nH]4)c(-c4cc(S(=O)(=O)[O-])ccc4F)c4nc(c(-c5cc(S(=O)(=O)[O-])ccc5F)c5ccc2[nH]5)C=C4)C=C3)cc1
REMARK SMILES IDX 6 1 5 2 4 3 3 4 1 5 2 6 29 8 30 9 91 10 31 11 90 12 32 13
REMARK SMILES IDX 33 14 34 15 84 16 35 17 89 18 83 19 85 20 36 21 88 22 82 23
REMARK SMILES IDX 81 24 37 26 69 27 49 28 68 29 50 30 53 31 67 32 86 33 51 34
REMARK SMILES IDX 52 35 66 37 87 38 54 39 38 40 39 41 47 42 40 43 46 44 48 45
REMARK SMILES IDX 45 46 41 47 42 48 43 49 44 50 70 51 71 52 79 53 72 54 78 55
REMARK SMILES IDX 80 56 77 57 73 58 74 59 75 60 76 61 55 62 56 63 64 64 57 65
REMARK SMILES IDX 63 66 65 67 62 68 58 69 59 70 60 71 61 72 7 73 8 74 9 75
REMARK SMILES IDX 10 76 11 77 12 79 13 80 14 81 21 82 15 83 20 84 16 86 19 87
REMARK SMILES IDX 17 88 18 89 22 90 23 91 24 92 25 93 28 94 26 95 27 96
REMARK H PARENT 3 7 85 25 53 36 10 78 21 85
REMARK Flexibility Score: inf
ROOT
ATOM      1  C   UNL A   1      31.836  27.817  26.574  1.00  0.00     0.002 C 
ENDROOT
BRANCH   1   2
ATOM      2  C   UNL A   1      33.348  27.592  26.552  1.00  0.00     0.021 C 
BRANCH   2   3
ATOM      3  C   UNL A   1      34.144  28.703  25.884  1.00  0.00     0.116 C 
BRANCH   3   4
ATOM      4  N   UNL A   1      33.780  30.020  26.381  1.00  0.00    -0.352 N 
ATOM      5  O   UNL A   1      33.847  31.770  27.803  1.00  0.00    -0.269 OA
ATOM      6  C   UNL A   1      34.375  30.752  27.385  1.00  0.00     0.251 C 
ATOM      7  H   UNL A   1      33.008  30.444  25.941  1.00  0.00     0.163 HD
BRANCH   6   8
ATOM      8  C   UNL A   1      35.656  30.276  27.960  1.00  0.00     0.039 A 
ATOM      9  C   UNL A   1      36.856  30.495  27.281  1.00  0.00     0.014 A 
ATOM     10  C   UNL A   1      35.653  29.602  29.184  1.00  0.00     0.014 A 
ATOM     11  C   UNL A   1      38.031  29.929  27.758  1.00  0.00     0.010 A 
ATOM     12  C   UNL A   1      36.854  29.111  29.710  1.00  0.00     0.010 A 
ATOM     13  C   UNL A   1      38.050  29.255  28.990  1.00  0.00    -0.014 A 
BRANCH  13  14
ATOM     14  C   UNL A   1      39.359  28.800  29.530  1.00  0.00     0.031 A 
ATOM     15  C   UNL A   1      39.945  29.398  30.778  1.00  0.00     0.074 A 
ATOM     16  C   UNL A   1      39.984  27.786  28.898  1.00  0.00     0.049 A 
ATOM     17  N   UNL A   1      41.048  29.074  31.403  1.00  0.00    -0.248 NA
ATOM     18  C   UNL A   1      39.206  30.505  31.402  1.00  0.00     0.031 C 
ATOM     19  C   UNL A   1      39.505  27.144  27.669  1.00  0.00     0.029 A 
ATOM     20  N   UNL A   1      41.125  27.094  29.207  1.00  0.00    -0.354 N 
ATOM     21  C   UNL A   1      41.143  29.937  32.489  1.00  0.00     0.074 A 
ATOM     22  C   UNL A   1      39.999  30.822  32.417  1.00  0.00     0.031 C 
ATOM     23  C   UNL A   1      40.311  26.119  27.365  1.00  0.00     0.029 A 
ATOM     24  C   UNL A   1      41.403  26.073  28.328  1.00  0.00     0.049 A 
ATOM     25  H   UNL A   1      41.692  27.308  29.982  1.00  0.00     0.167 HD
ATOM     26  C   UNL A   1      42.093  29.977  33.458  1.00  0.00     0.034 A 
ATOM     27  C   UNL A   1      42.432  25.205  28.288  1.00  0.00     0.034 A 
ATOM     28  C   UNL A   1      43.230  29.086  33.507  1.00  0.00     0.049 A 
ATOM     29  C   UNL A   1      43.478  25.288  29.366  1.00  0.00     0.074 A 
ATOM     30  C   UNL A   1      44.250  29.038  34.443  1.00  0.00     0.029 A 
ATOM     31  N   UNL A   1      43.502  28.086  32.580  1.00  0.00    -0.354 N 
ATOM     32  N   UNL A   1      43.545  26.109  30.388  1.00  0.00    -0.248 NA
ATOM     33  C   UNL A   1      44.582  24.326  29.286  1.00  0.00     0.031 C 
ATOM     34  C   UNL A   1      45.164  28.051  34.052  1.00  0.00     0.029 A 
ATOM     35  C   UNL A   1      44.682  27.434  32.909  1.00  0.00     0.049 A 
ATOM     36  H   UNL A   1      42.938  27.872  31.802  1.00  0.00     0.167 HD
ATOM     37  C   UNL A   1      44.700  25.756  31.078  1.00  0.00     0.074 A 
ATOM     38  C   UNL A   1      45.269  24.621  30.378  1.00  0.00     0.031 C 
ATOM     39  C   UNL A   1      45.249  26.323  32.183  1.00  0.00     0.034 A 
BRANCH  26  40
ATOM     40  C   UNL A   1      41.965  31.041  34.521  1.00  0.00     0.023 A 
ATOM     41  C   UNL A   1      42.580  32.298  34.388  1.00  0.00     0.031 A 
ATOM     42  C   UNL A   1      41.207  30.800  35.682  1.00  0.00     0.131 A 
ATOM     43  C   UNL A   1      42.469  33.246  35.419  1.00  0.00     0.055 A 
ATOM     44  C   UNL A   1      41.045  31.770  36.672  1.00  0.00     0.041 A 
ATOM     45  F   UNL A   1      40.612  29.611  35.873  1.00  0.00    -0.206 F 
ATOM     46  C   UNL A   1      41.686  32.999  36.549  1.00  0.00     0.022 A 
BRANCH  43  47
ATOM     47  S   UNL A   1      43.447  34.770  35.310  1.00  0.00     0.124 S 
ATOM     48  O   UNL A   1      44.334  34.636  36.464  1.00  0.00    -0.237 OA
ATOM     49  O   UNL A   1      44.078  34.648  34.001  1.00  0.00    -0.237 OA
ATOM     50  O   UNL A   1      42.446  35.829  35.423  1.00  0.00    -0.744 OA
ENDBRANCH  43  47
ENDBRANCH  26  40
BRANCH  27  51
ATOM     51  C   UNL A   1      42.543  24.218  27.178  1.00  0.00     0.023 A 
ATOM     52  C   UNL A   1      41.919  22.964  27.250  1.00  0.00     0.031 A 
ATOM     53  C   UNL A   1      43.318  24.505  26.037  1.00  0.00     0.131 A 
ATOM     54  C   UNL A   1      42.119  22.024  26.226  1.00  0.00     0.055 A 
ATOM     55  C   UNL A   1      43.462  23.591  24.993  1.00  0.00     0.041 A 
ATOM     56  F   UNL A   1      43.935  25.691  25.914  1.00  0.00    -0.206 F 
ATOM     57  C   UNL A   1      42.873  22.334  25.092  1.00  0.00     0.022 A 
BRANCH  54  58
ATOM     58  S   UNL A   1      41.462  20.348  26.447  1.00  0.00     0.124 S 
ATOM     59  O   UNL A   1      40.031  20.563  26.271  1.00  0.00    -0.237 OA
ATOM     60  O   UNL A   1      42.136  19.617  25.378  1.00  0.00    -0.237 OA
ATOM     61  O   UNL A   1      41.880  19.995  27.801  1.00  0.00    -0.744 OA
ENDBRANCH  54  58
ENDBRANCH  27  51
BRANCH  39  62
ATOM     62  C   UNL A   1      46.523  25.697  32.692  1.00  0.00     0.023 A 
ATOM     63  C   UNL A   1      46.501  24.690  33.674  1.00  0.00     0.031 A 
ATOM     64  C   UNL A   1      47.772  26.152  32.236  1.00  0.00     0.131 A 
ATOM     65  C   UNL A   1      47.705  24.225  34.223  1.00  0.00     0.055 A 
ATOM     66  C   UNL A   1      48.968  25.638  32.740  1.00  0.00     0.041 A 
ATOM     67  F   UNL A   1      47.850  27.113  31.302  1.00  0.00    -0.206 F 
ATOM     68  C   UNL A   1      48.938  24.682  33.753  1.00  0.00     0.022 A 
BRANCH  65  69
ATOM     69  S   UNL A   1      47.632  23.103  35.647  1.00  0.00     0.124 S 
ATOM     70  O   UNL A   1      48.084  23.964  36.735  1.00  0.00    -0.237 OA
ATOM     71  O   UNL A   1      46.222  22.727  35.675  1.00  0.00    -0.237 OA
ATOM     72  O   UNL A   1      48.552  22.027  35.283  1.00  0.00    -0.744 OA
ENDBRANCH  65  69
ENDBRANCH  39  62
ENDBRANCH  13  14
ENDBRANCH   6   8
ENDBRANCH   3   4
ENDBRANCH   2   3
ENDBRANCH   1   2
BRANCH   1  73
ATOM     73  C   UNL A   1      31.000  26.739  25.873  1.00  0.00     0.002 C 
BRANCH  73  74
ATOM     74  C   UNL A   1      30.461  27.113  24.485  1.00  0.00     0.021 C 
BRANCH  74  75
ATOM     75  C   UNL A   1      30.564  25.994  23.448  1.00  0.00     0.116 C 
BRANCH  75  76
ATOM     76  N   UNL A   1      31.701  26.192  22.575  1.00  0.00    -0.351 N 
ATOM     77  C   UNL A   1      32.883  25.543  22.441  1.00  0.00     0.278 C 
ATOM     78  H   UNL A   1      31.596  26.950  21.956  1.00  0.00     0.163 HD
ATOM     79  O   UNL A   1      33.683  26.063  21.647  1.00  0.00    -0.268 OA
BRANCH  77  80
ATOM     80  C   UNL A   1      33.256  24.204  23.111  1.00  0.00     0.274 C 
ATOM     81  C   UNL A   1      34.506  23.631  22.391  1.00  0.00     0.085 C 
ATOM     82  N   UNL A   1      33.610  24.259  24.554  1.00  0.00    -0.322 N 
ATOM     83  C   UNL A   1      35.331  23.060  23.527  1.00  0.00     0.054 C 
ATOM     84  C   UNL A   1      35.057  24.062  24.640  1.00  0.00     0.188 C 
ATOM     85  H   UNL A   1      33.410  25.176  24.951  1.00  0.00     0.349 HD
ATOM     86  C   UNL A   1      36.817  22.837  23.322  1.00  0.00     0.010 C 
ATOM     87  C   UNL A   1      35.733  23.746  25.974  1.00  0.00     0.065 C 
ATOM     88  C   UNL A   1      37.426  22.360  24.647  1.00  0.00     0.001 C 
ATOM     89  C   UNL A   1      37.207  23.374  25.776  1.00  0.00     0.006 C 
BRANCH  82  90
ATOM     90  C   UNL A   1      32.722  23.509  25.464  1.00  0.00     0.265 C 
BRANCH  90  91
ATOM     91  C   UNL A   1      31.997  22.212  25.032  1.00  0.00     0.093 C 
BRANCH  91  92
ATOM     92  C   UNL A   1      32.729  20.912  25.333  1.00  0.00     0.123 C 
ATOM     93  C   UNL A   1      33.746  20.520  24.278  1.00  0.00     0.034 C 
ATOM     94  O   UNL A   1      31.864  19.770  25.387  1.00  0.00    -0.378 OA
ATOM     95  C   UNL A   1      34.036  19.091  24.674  1.00  0.00     0.031 C 
ATOM     96  C   UNL A   1      32.729  18.621  25.302  1.00  0.00     0.160 C 
ENDBRANCH  91  92
ENDBRANCH  90  91
ENDBRANCH  82  90
ENDBRANCH  77  80
ENDBRANCH  75  76
ENDBRANCH  74  75
ENDBRANCH  73  74
ENDBRANCH   1  73
TORSDOF 19
ENDMDL
MODEL 3
REMARK VINA RESULT:     -11.4      2.017      2.701
REMARK SMILES O=C(NCCCCCCNC(=O)[C@H]1C[C@H]2CCCC[C@@H]2[N@@H+]1CC[C@@H]1CCCO1)c1ccc(-c2c3nc(c(-c4cc(S(=O)(=O)[O-])ccc4F)c4ccc([nH]4)c(-c4cc(S(=O)(=O)[O-])ccc4F)c4nc(c(-c5cc(S(=O)(=O)[O-])ccc5F)c5ccc2[nH]5)C=C4)C=C3)cc1
REMARK SMILES IDX 6 1 5 2 4 3 3 4 1 5 2 6 29 8 30 9 91 10 31 11 90 12 32 13
REMARK SMILES IDX 33 14 34 15 84 16 35 17 89 18 83 19 85 20 36 21 88 22 82 23
REMARK SMILES IDX 81 24 37 26 69 27 49 28 68 29 50 30 53 31 67 32 86 33 51 34
REMARK SMILES IDX 52 35 66 37 87 38 54 39 38 40 39 41 47 42 40 43 46 44 48 45
REMARK SMILES IDX 45 46 41 47 42 48 43 49 44 50 70 51 71 52 79 53 72 54 78 55
REMARK SMILES IDX 80 56 77 57 73 58 74 59 75 60 76 61 55 62 56 63 64 64 57 65
REMARK SMILES IDX 63 66 65 67 62 68 58 69 59 70 60 71 61 72 7 73 8 74 9 75
REMARK SMILES IDX 10 76 11 77 12 79 13 80 14 81 21 82 15 83 20 84 16 86 19 87
REMARK SMILES IDX 17 88 18 89 22 90 23 91 24 92 25 93 28 94 26 95 27 96
REMARK H PARENT 3 7 85 25 53 36 10 78 21 85
REMARK Flexibility Score: inf
ROOT
ATOM      1  C   UNL A   1      31.773  30.219  25.888  1.00  0.00     0.002 C 
ENDROOT
BRANCH   1   2
ATOM      2  C   UNL A   1      31.527  31.598  26.501  1.00  0.00     0.021 C 
BRANCH   2   3
ATOM      3  C   UNL A   1      32.721  32.185  27.239  1.00  0.00     0.116 C 
BRANCH   3   4
ATOM      4  N   UNL A   1      32.527  33.585  27.579  1.00  0.00    -0.352 N 
ATOM      5  O   UNL A   1      32.817  35.463  28.795  1.00  0.00    -0.269 OA
ATOM      6  C   UNL A   1      33.211  34.345  28.502  1.00  0.00     0.251 C 
ATOM      7  H   UNL A   1      31.815  34.050  27.084  1.00  0.00     0.163 HD
BRANCH   6   8
ATOM      8  C   UNL A   1      34.422  33.780  29.144  1.00  0.00     0.039 A 
ATOM      9  C   UNL A   1      34.303  32.792  30.123  1.00  0.00     0.014 A 
ATOM     10  C   UNL A   1      35.684  34.247  28.765  1.00  0.00     0.014 A 
ATOM     11  C   UNL A   1      35.429  32.368  30.814  1.00  0.00     0.010 A 
ATOM     12  C   UNL A   1      36.828  33.749  29.400  1.00  0.00     0.010 A 
ATOM     13  C   UNL A   1      36.707  32.819  30.444  1.00  0.00    -0.014 A 
BRANCH  13  14
ATOM     14  C   UNL A   1      37.893  32.220  31.111  1.00  0.00     0.031 A 
ATOM     15  C   UNL A   1      38.372  32.706  32.450  1.00  0.00     0.074 A 
ATOM     16  C   UNL A   1      38.497  31.177  30.506  1.00  0.00     0.049 A 
ATOM     17  N   UNL A   1      39.356  32.253  33.184  1.00  0.00    -0.248 NA
ATOM     18  C   UNL A   1      37.664  33.852  33.039  1.00  0.00     0.031 C 
ATOM     19  C   UNL A   1      38.118  30.635  29.197  1.00  0.00     0.029 A 
ATOM     20  N   UNL A   1      39.525  30.367  30.912  1.00  0.00    -0.354 N 
ATOM     21  C   UNL A   1      39.394  33.057  34.317  1.00  0.00     0.074 A 
ATOM     22  C   UNL A   1      38.352  34.050  34.156  1.00  0.00     0.031 C 
ATOM     23  C   UNL A   1      38.860  29.551  28.937  1.00  0.00     0.029 A 
ATOM     24  C   UNL A   1      39.816  29.361  30.019  1.00  0.00     0.049 A 
ATOM     25  H   UNL A   1      40.009  30.494  31.759  1.00  0.00     0.167 HD
ATOM     26  C   UNL A   1      40.217  32.966  35.392  1.00  0.00     0.034 A 
ATOM     27  C   UNL A   1      40.760  28.401  30.057  1.00  0.00     0.034 A 
ATOM     28  C   UNL A   1      41.254  31.969  35.530  1.00  0.00     0.049 A 
ATOM     29  C   UNL A   1      41.668  28.339  31.254  1.00  0.00     0.074 A 
ATOM     30  C   UNL A   1      42.142  31.785  36.577  1.00  0.00     0.029 A 
ATOM     31  N   UNL A   1      41.548  30.987  34.590  1.00  0.00    -0.354 N 
ATOM     32  N   UNL A   1      41.683  29.107  32.319  1.00  0.00    -0.248 NA
ATOM     33  C   UNL A   1      42.683  27.280  31.255  1.00  0.00     0.031 C 
ATOM     34  C   UNL A   1      43.005  30.733  36.246  1.00  0.00     0.029 A 
ATOM     35  C   UNL A   1      42.614  30.212  35.023  1.00  0.00     0.049 A 
ATOM     36  H   UNL A   1      41.067  30.860  33.740  1.00  0.00     0.167 HD
ATOM     37  C   UNL A   1      42.707  28.618  33.121  1.00  0.00     0.074 A 
ATOM     38  C   UNL A   1      43.254  27.463  32.435  1.00  0.00     0.031 C 
ATOM     39  C   UNL A   1      43.165  29.083  34.312  1.00  0.00     0.034 A 
BRANCH  26  40
ATOM     40  C   UNL A   1      40.054  33.993  36.487  1.00  0.00     0.023 A 
ATOM     41  C   UNL A   1      39.546  33.652  37.753  1.00  0.00     0.031 A 
ATOM     42  C   UNL A   1      40.422  35.333  36.266  1.00  0.00     0.131 A 
ATOM     43  C   UNL A   1      39.373  34.646  38.730  1.00  0.00     0.055 A 
ATOM     44  C   UNL A   1      40.310  36.304  37.264  1.00  0.00     0.041 A 
ATOM     45  F   UNL A   1      40.896  35.722  35.071  1.00  0.00    -0.206 F 
ATOM     46  C   UNL A   1      39.774  35.964  38.502  1.00  0.00     0.022 A 
BRANCH  43  47
ATOM     47  S   UNL A   1      38.521  34.213  40.271  1.00  0.00     0.124 S 
ATOM     48  O   UNL A   1      37.377  33.451  39.773  1.00  0.00    -0.237 OA
ATOM     49  O   UNL A   1      39.533  33.449  40.990  1.00  0.00    -0.237 OA
ATOM     50  O   UNL A   1      38.187  35.510  40.856  1.00  0.00    -0.744 OA
ENDBRANCH  43  47
ENDBRANCH  26  40
BRANCH  27  51
ATOM     51  C   UNL A   1      40.918  27.455  28.916  1.00  0.00     0.023 A 
ATOM     52  C   UNL A   1      41.922  27.635  27.953  1.00  0.00     0.031 A 
ATOM     53  C   UNL A   1      40.033  26.372  28.753  1.00  0.00     0.131 A 
ATOM     54  C   UNL A   1      41.986  26.777  26.844  1.00  0.00     0.055 A 
ATOM     55  C   UNL A   1      40.141  25.485  27.682  1.00  0.00     0.041 A 
ATOM     56  F   UNL A   1      39.056  26.151  29.647  1.00  0.00    -0.206 F 
ATOM     57  C   UNL A   1      41.113  25.695  26.709  1.00  0.00     0.022 A 
BRANCH  54  58
ATOM     58  S   UNL A   1      43.167  27.158  25.520  1.00  0.00     0.124 S 
ATOM     59  O   UNL A   1      42.359  27.978  24.626  1.00  0.00    -0.237 OA
ATOM     60  O   UNL A   1      44.223  27.852  26.249  1.00  0.00    -0.237 OA
ATOM     61  O   UNL A   1      43.531  25.841  25.001  1.00  0.00    -0.744 OA
ENDBRANCH  54  58
ENDBRANCH  27  51
BRANCH  39  62
ATOM     62  C   UNL A   1      44.304  28.318  34.935  1.00  0.00     0.023 A 
ATOM     63  C   UNL A   1      44.072  27.201  35.758  1.00  0.00     0.031 A 
ATOM     64  C   UNL A   1      45.631  28.743  34.755  1.00  0.00     0.131 A 
ATOM     65  C   UNL A   1      45.143  26.594  36.430  1.00  0.00     0.055 A 
ATOM     66  C   UNL A   1      46.700  28.094  35.375  1.00  0.00     0.041 A 
ATOM     67  F   UNL A   1      45.910  29.806  33.982  1.00  0.00    -0.206 F 
ATOM     68  C   UNL A   1      46.457  27.025  36.233  1.00  0.00     0.022 A 
BRANCH  65  69
ATOM     69  S   UNL A   1      44.779  25.312  37.661  1.00  0.00     0.124 S 
ATOM     70  O   UNL A   1      43.383  25.001  37.372  1.00  0.00    -0.237 OA
ATOM     71  O   UNL A   1      45.747  24.273  37.323  1.00  0.00    -0.237 OA
ATOM     72  O   UNL A   1      45.014  25.985  38.936  1.00  0.00    -0.744 OA
ENDBRANCH  65  69
ENDBRANCH  39  62
ENDBRANCH  13  14
ENDBRANCH   6   8
ENDBRANCH   3   4
ENDBRANCH   2   3
ENDBRANCH   1   2
BRANCH   1  73
ATOM     73  C   UNL A   1      33.160  29.619  26.155  1.00  0.00     0.002 C 
BRANCH  73  74
ATOM     74  C   UNL A   1      33.373  28.185  25.648  1.00  0.00     0.021 C 
BRANCH  74  75
ATOM     75  C   UNL A   1      32.240  27.654  24.770  1.00  0.00     0.116 C 
BRANCH  75  76
ATOM     76  N   UNL A   1      32.718  27.319  23.446  1.00  0.00    -0.351 N 
ATOM     77  C   UNL A   1      33.303  26.210  22.932  1.00  0.00     0.278 C 
ATOM     78  H   UNL A   1      32.594  28.039  22.787  1.00  0.00     0.163 HD
ATOM     79  O   UNL A   1      33.687  26.313  21.755  1.00  0.00    -0.268 OA
BRANCH  77  80
ATOM     80  C   UNL A   1      33.441  24.850  23.648  1.00  0.00     0.274 C 
ATOM     81  C   UNL A   1      34.335  23.928  22.776  1.00  0.00     0.085 C 
ATOM     82  N   UNL A   1      34.071  24.868  24.994  1.00  0.00    -0.322 N 
ATOM     83  C   UNL A   1      35.189  23.204  23.798  1.00  0.00     0.054 C 
ATOM     84  C   UNL A   1      35.406  24.290  24.843  1.00  0.00     0.188 C 
ATOM     85  H   UNL A   1      34.195  25.821  25.334  1.00  0.00     0.349 HD
ATOM     86  C   UNL A   1      36.498  22.578  23.356  1.00  0.00     0.010 C 
ATOM     87  C   UNL A   1      36.224  23.860  26.061  1.00  0.00     0.065 C 
ATOM     88  C   UNL A   1      37.208  22.011  24.591  1.00  0.00     0.001 C 
ATOM     89  C   UNL A   1      37.483  23.093  25.641  1.00  0.00     0.006 C 
BRANCH  82  90
ATOM     90  C   UNL A   1      33.214  24.427  26.113  1.00  0.00     0.265 C 
BRANCH  90  91
ATOM     91  C   UNL A   1      31.889  23.660  25.889  1.00  0.00     0.093 C 
BRANCH  91  92
ATOM     92  C   UNL A   1      32.014  22.150  25.744  1.00  0.00     0.123 C 
ATOM     93  C   UNL A   1      33.292  21.580  26.327  1.00  0.00     0.034 C 
ATOM     94  O   UNL A   1      32.057  21.710  24.380  1.00  0.00    -0.378 OA
ATOM     95  C   UNL A   1      33.275  20.184  25.749  1.00  0.00     0.031 C 
ATOM     96  C   UNL A   1      32.543  20.354  24.423  1.00  0.00     0.160 C 
ENDBRANCH  91  92
ENDBRANCH  90  91
ENDBRANCH  82  90
ENDBRANCH  77  80
ENDBRANCH  75  76
ENDBRANCH  74  75
ENDBRANCH  73  74
ENDBRANCH   1  73
TORSDOF 19
ENDMDL
