MODEL 1
REMARK VINA RESULT:     -11.0      0.000      0.000
REMARK SMILES CCSc1cccc(-c2ccc([C@@H](C)C(=O)NCCCCCCNC(=O)c3ccc(-c4c5nc(c(-c6cc(S(=O)(=O)[O-])ccc6F)c6ccc([nH]6)c(-c6cc(S(=O)(=O)[O-])ccc6F)c6nc(c(-c7cc(S(=O)(=O)[O-])ccc7F)c7ccc4[nH]7)C=C6)C=C5)cc3)cc2)c1
REMARK SMILES IDX 20 1 19 2 18 3 17 4 15 5 16 6 13 8 14 9 12 10 9 11 10 12
REMARK SMILES IDX 91 13 11 14 90 15 8 16 4 17 5 18 92 19 6 20 7 21 3 22 2 23
REMARK SMILES IDX 1 24 21 25 22 26 23 27 24 28 25 29 26 31 27 32 28 33 89 34
REMARK SMILES IDX 29 35 88 36 30 37 31 38 32 39 82 40 33 41 87 42 81 43 83 44
REMARK SMILES IDX 34 45 86 46 80 47 79 48 35 50 67 51 47 52 66 53 48 54 51 55
REMARK SMILES IDX 65 56 84 57 49 58 50 59 64 61 85 62 52 63 36 64 37 65 45 66
REMARK SMILES IDX 38 67 44 68 46 69 43 70 39 71 40 72 41 73 42 74 68 75 69 76
REMARK SMILES IDX 77 77 70 78 76 79 78 80 75 81 71 82 72 83 73 84 74 85 53 86
REMARK SMILES IDX 54 87 62 88 55 89 61 90 63 91 60 92 56 93 57 94 58 95 59 96
REMARK H PARENT 17 7 24 30 83 49 51 60
REMARK Flexibility Score: inf
ROOT
ATOM      1  C   UNL A   1      34.459  24.729  24.952  1.00  0.00     0.002 C 
ENDROOT
BRANCH   1   2
ATOM      2  C   UNL A   1      34.113  25.866  25.918  1.00  0.00     0.021 C 
BRANCH   2   3
ATOM      3  C   UNL A   1      33.213  26.943  25.308  1.00  0.00     0.116 C 
BRANCH   3   4
ATOM      4  N   UNL A   1      33.770  27.477  24.083  1.00  0.00    -0.356 N 
ATOM      5  C   UNL A   1      33.342  27.408  22.792  1.00  0.00     0.227 C 
ATOM      6  O   UNL A   1      34.088  27.899  21.937  1.00  0.00    -0.274 OA
ATOM      7  H   UNL A   1      34.607  27.981  24.204  1.00  0.00     0.163 HD
BRANCH   5   8
ATOM      8  C   UNL A   1      32.002  26.783  22.371  1.00  0.00     0.105 C 
ATOM      9  C   UNL A   1      30.778  27.482  22.962  1.00  0.00     0.023 C 
BRANCH   8  10
ATOM     10  C   UNL A   1      31.996  25.263  22.423  1.00  0.00    -0.036 A 
ATOM     11  C   UNL A   1      32.142  22.411  22.578  1.00  0.00    -0.018 A 
ATOM     12  C   UNL A   1      31.172  23.138  23.281  1.00  0.00     0.009 A 
ATOM     13  C   UNL A   1      33.022  23.147  21.766  1.00  0.00     0.009 A 
ATOM     14  C   UNL A   1      31.078  24.531  23.178  1.00  0.00     0.005 A 
ATOM     15  C   UNL A   1      32.963  24.546  21.706  1.00  0.00     0.005 A 
BRANCH  11  16
ATOM     16  C   UNL A   1      32.227  20.936  22.695  1.00  0.00    -0.017 A 
ATOM     17  C   UNL A   1      32.544  18.914  24.046  1.00  0.00     0.008 A 
ATOM     18  C   UNL A   1      32.358  18.119  22.916  1.00  0.00     0.015 A 
ATOM     19  C   UNL A   1      32.447  20.308  23.936  1.00  0.00     0.023 A 
ATOM     20  C   UNL A   1      32.129  18.713  21.678  1.00  0.00     0.002 A 
ATOM     21  C   UNL A   1      32.081  20.104  21.570  1.00  0.00     0.009 A 
BRANCH  17  22
ATOM     22  S   UNL A   1      32.914  18.121  25.602  1.00  0.00    -0.126 SA
BRANCH  22  23
ATOM     23  C   UNL A   1      33.354  16.442  25.033  1.00  0.00     0.071 C 
ATOM     24  C   UNL A   1      34.785  16.058  25.378  1.00  0.00     0.016 C 
ENDBRANCH  22  23
ENDBRANCH  17  22
ENDBRANCH  11  16
ENDBRANCH   8  10
ENDBRANCH   5   8
ENDBRANCH   3   4
ENDBRANCH   2   3
ENDBRANCH   1   2
BRANCH   1  25
ATOM     25  C   UNL A   1      34.214  23.315  25.496  1.00  0.00     0.002 C 
BRANCH  25  26
ATOM     26  C   UNL A   1      35.434  22.627  26.119  1.00  0.00     0.021 C 
BRANCH  26  27
ATOM     27  C   UNL A   1      36.778  23.258  25.761  1.00  0.00     0.116 C 
BRANCH  27  28
ATOM     28  N   UNL A   1      37.886  22.363  26.051  1.00  0.00    -0.352 N 
ATOM     29  C   UNL A   1      39.175  22.653  26.428  1.00  0.00     0.251 C 
ATOM     30  H   UNL A   1      37.682  21.404  25.964  1.00  0.00     0.163 HD
ATOM     31  O   UNL A   1      40.031  21.775  26.377  1.00  0.00    -0.269 OA
BRANCH  29  32
ATOM     32  C   UNL A   1      39.531  24.016  26.883  1.00  0.00     0.039 A 
ATOM     33  C   UNL A   1      39.313  24.361  28.220  1.00  0.00     0.014 A 
ATOM     34  C   UNL A   1      40.042  24.963  25.990  1.00  0.00     0.014 A 
ATOM     35  C   UNL A   1      39.663  25.635  28.674  1.00  0.00     0.010 A 
ATOM     36  C   UNL A   1      40.451  26.210  26.459  1.00  0.00     0.010 A 
ATOM     37  C   UNL A   1      40.264  26.560  27.805  1.00  0.00    -0.014 A 
BRANCH  37  38
ATOM     38  C   UNL A   1      40.706  27.895  28.290  1.00  0.00     0.031 A 
ATOM     39  C   UNL A   1      42.172  28.204  28.429  1.00  0.00     0.074 A 
ATOM     40  C   UNL A   1      39.783  28.805  28.661  1.00  0.00     0.049 A 
ATOM     41  N   UNL A   1      42.750  29.282  28.896  1.00  0.00    -0.248 NA
ATOM     42  C   UNL A   1      43.112  27.151  28.015  1.00  0.00     0.031 C 
ATOM     43  C   UNL A   1      38.333  28.603  28.611  1.00  0.00     0.029 A 
ATOM     44  N   UNL A   1      39.923  30.074  29.164  1.00  0.00    -0.354 N 
ATOM     45  C   UNL A   1      44.118  29.032  28.846  1.00  0.00     0.074 A 
ATOM     46  C   UNL A   1      44.277  27.680  28.355  1.00  0.00     0.031 C 
ATOM     47  C   UNL A   1      37.719  29.715  29.046  1.00  0.00     0.029 A 
ATOM     48  C   UNL A   1      38.725  30.692  29.447  1.00  0.00     0.049 A 
ATOM     49  H   UNL A   1      40.797  30.503  29.307  1.00  0.00     0.167 HD
ATOM     50  C   UNL A   1      45.144  29.862  29.161  1.00  0.00     0.034 A 
ATOM     51  C   UNL A   1      38.468  31.902  29.983  1.00  0.00     0.034 A 
ATOM     52  C   UNL A   1      44.966  31.214  29.636  1.00  0.00     0.049 A 
ATOM     53  C   UNL A   1      39.625  32.801  30.337  1.00  0.00     0.074 A 
ATOM     54  C   UNL A   1      45.933  32.161  29.922  1.00  0.00     0.029 A 
ATOM     55  N   UNL A   1      43.739  31.809  29.904  1.00  0.00    -0.354 N 
ATOM     56  N   UNL A   1      40.914  32.571  30.227  1.00  0.00    -0.248 NA
ATOM     57  C   UNL A   1      39.293  34.127  30.875  1.00  0.00     0.031 C 
ATOM     58  C   UNL A   1      45.297  33.301  30.429  1.00  0.00     0.029 A 
ATOM     59  C   UNL A   1      43.928  33.096  30.385  1.00  0.00     0.049 A 
ATOM     60  H   UNL A   1      42.863  31.378  29.772  1.00  0.00     0.167 HD
ATOM     61  C   UNL A   1      41.543  33.737  30.655  1.00  0.00     0.074 A 
ATOM     62  C   UNL A   1      40.494  34.670  31.007  1.00  0.00     0.031 C 
ATOM     63  C   UNL A   1      42.871  34.012  30.745  1.00  0.00     0.034 A 
BRANCH  50  64
ATOM     64  C   UNL A   1      46.548  29.319  29.028  1.00  0.00     0.023 A 
ATOM     65  C   UNL A   1      47.185  29.210  27.780  1.00  0.00     0.031 A 
ATOM     66  C   UNL A   1      47.256  28.892  30.166  1.00  0.00     0.131 A 
ATOM     67  C   UNL A   1      48.456  28.622  27.690  1.00  0.00     0.055 A 
ATOM     68  C   UNL A   1      48.552  28.383  30.080  1.00  0.00     0.041 A 
ATOM     69  F   UNL A   1      46.694  28.954  31.384  1.00  0.00    -0.206 F 
ATOM     70  C   UNL A   1      49.155  28.231  28.834  1.00  0.00     0.022 A 
BRANCH  67  71
ATOM     71  S   UNL A   1      49.125  28.250  26.046  1.00  0.00     0.124 S 
ATOM     72  O   UNL A   1      49.539  26.858  26.203  1.00  0.00    -0.237 OA
ATOM     73  O   UNL A   1      47.975  28.480  25.178  1.00  0.00    -0.237 OA
ATOM     74  O   UNL A   1      50.220  29.206  25.897  1.00  0.00    -0.744 OA
ENDBRANCH  67  71
ENDBRANCH  50  64
BRANCH  51  75
ATOM     75  C   UNL A   1      37.062  32.333  30.234  1.00  0.00     0.023 A 
ATOM     76  C   UNL A   1      36.337  33.041  29.262  1.00  0.00     0.031 A 
ATOM     77  C   UNL A   1      36.437  32.080  31.469  1.00  0.00     0.131 A 
ATOM     78  C   UNL A   1      35.049  33.513  29.557  1.00  0.00     0.055 A 
ATOM     79  C   UNL A   1      35.135  32.505  31.737  1.00  0.00     0.041 A 
ATOM     80  F   UNL A   1      37.083  31.403  32.430  1.00  0.00    -0.206 F 
ATOM     81  C   UNL A   1      34.438  33.239  30.783  1.00  0.00     0.022 A 
BRANCH  78  82
ATOM     82  S   UNL A   1      34.214  34.574  28.345  1.00  0.00     0.124 S 
ATOM     83  O   UNL A   1      34.992  34.316  27.138  1.00  0.00    -0.237 OA
ATOM     84  O   UNL A   1      32.857  34.038  28.361  1.00  0.00    -0.237 OA
ATOM     85  O   UNL A   1      34.359  35.914  28.909  1.00  0.00    -0.744 OA
ENDBRANCH  78  82
ENDBRANCH  51  75
BRANCH  63  86
ATOM     86  C   UNL A   1      43.252  35.398  31.207  1.00  0.00     0.023 A 
ATOM     87  C   UNL A   1      43.481  36.444  30.296  1.00  0.00     0.031 A 
ATOM     88  C   UNL A   1      43.404  35.670  32.578  1.00  0.00     0.131 A 
ATOM     89  C   UNL A   1      43.904  37.697  30.764  1.00  0.00     0.055 A 
ATOM     90  C   UNL A   1      43.764  36.935  33.042  1.00  0.00     0.041 A 
ATOM     91  F   UNL A   1      43.202  34.707  33.492  1.00  0.00    -0.206 F 
ATOM     92  C   UNL A   1      44.031  37.954  32.132  1.00  0.00     0.022 A 
BRANCH  89  93
ATOM     93  S   UNL A   1      44.382  38.963  29.554  1.00  0.00     0.124 S 
ATOM     94  O   UNL A   1      43.173  39.776  29.473  1.00  0.00    -0.237 OA
ATOM     95  O   UNL A   1      45.530  39.591  30.196  1.00  0.00    -0.237 OA
ATOM     96  O   UNL A   1      44.690  38.189  28.353  1.00  0.00    -0.744 OA
ENDBRANCH  89  93
ENDBRANCH  63  86
ENDBRANCH  37  38
ENDBRANCH  29  32
ENDBRANCH  27  28
ENDBRANCH  26  27
ENDBRANCH  25  26
ENDBRANCH   1  25
TORSDOF 20
ENDMDL
MODEL 2
REMARK VINA RESULT:     -10.8      5.444      8.066
REMARK SMILES CCSc1cccc(-c2ccc([C@@H](C)C(=O)NCCCCCCNC(=O)c3ccc(-c4c5nc(c(-c6cc(S(=O)(=O)[O-])ccc6F)c6ccc([nH]6)c(-c6cc(S(=O)(=O)[O-])ccc6F)c6nc(c(-c7cc(S(=O)(=O)[O-])ccc7F)c7ccc4[nH]7)C=C6)C=C5)cc3)cc2)c1
REMARK SMILES IDX 20 1 19 2 18 3 17 4 15 5 16 6 13 8 14 9 12 10 9 11 10 12
REMARK SMILES IDX 91 13 11 14 90 15 8 16 4 17 5 18 92 19 6 20 7 21 3 22 2 23
REMARK SMILES IDX 1 24 21 25 22 26 23 27 24 28 25 29 26 31 27 32 28 33 89 34
REMARK SMILES IDX 29 35 88 36 30 37 31 38 32 39 82 40 33 41 87 42 81 43 83 44
REMARK SMILES IDX 34 45 86 46 80 47 79 48 35 50 67 51 47 52 66 53 48 54 51 55
REMARK SMILES IDX 65 56 84 57 49 58 50 59 64 61 85 62 52 63 36 64 37 65 45 66
REMARK SMILES IDX 38 67 44 68 46 69 43 70 39 71 40 72 41 73 42 74 68 75 69 76
REMARK SMILES IDX 77 77 70 78 76 79 78 80 75 81 71 82 72 83 73 84 74 85 53 86
REMARK SMILES IDX 54 87 62 88 55 89 61 90 63 91 60 92 56 93 57 94 58 95 59 96
REMARK H PARENT 17 7 24 30 83 49 51 60
REMARK Flexibility Score: inf
ROOT
ATOM      1  C   UNL A   1      32.079  29.555  27.179  1.00  0.00     0.002 C 
ENDROOT
BRANCH   1   2
ATOM      2  C   UNL A   1      33.571  29.219  27.264  1.00  0.00     0.021 C 
BRANCH   2   3
ATOM      3  C   UNL A   1      34.018  28.140  26.275  1.00  0.00     0.116 C 
BRANCH   3   4
ATOM      4  N   UNL A   1      34.151  28.665  24.932  1.00  0.00    -0.356 N 
ATOM      5  C   UNL A   1      33.565  28.299  23.759  1.00  0.00     0.227 C 
ATOM      6  O   UNL A   1      33.949  28.892  22.743  1.00  0.00    -0.274 OA
ATOM      7  H   UNL A   1      34.775  29.423  24.853  1.00  0.00     0.163 HD
BRANCH   5   8
ATOM      8  C   UNL A   1      32.467  27.230  23.651  1.00  0.00     0.105 C 
ATOM      9  C   UNL A   1      31.182  27.580  24.403  1.00  0.00     0.023 C 
BRANCH   8  10
ATOM     10  C   UNL A   1      32.980  25.810  23.830  1.00  0.00    -0.036 A 
ATOM     11  C   UNL A   1      33.791  23.094  24.220  1.00  0.00    -0.018 A 
ATOM     12  C   UNL A   1      33.888  23.720  22.970  1.00  0.00     0.009 A 
ATOM     13  C   UNL A   1      33.307  23.874  25.283  1.00  0.00     0.009 A 
ATOM     14  C   UNL A   1      33.524  25.059  22.786  1.00  0.00     0.005 A 
ATOM     15  C   UNL A   1      32.890  25.198  25.088  1.00  0.00     0.005 A 
BRANCH  11  16
ATOM     16  C   UNL A   1      34.184  21.677  24.399  1.00  0.00    -0.017 A 
ATOM     17  C   UNL A   1      33.633  19.288  24.375  1.00  0.00     0.008 A 
ATOM     18  C   UNL A   1      34.948  18.972  24.715  1.00  0.00     0.015 A 
ATOM     19  C   UNL A   1      33.269  20.628  24.190  1.00  0.00     0.023 A 
ATOM     20  C   UNL A   1      35.878  19.988  24.917  1.00  0.00     0.002 A 
ATOM     21  C   UNL A   1      35.492  21.323  24.777  1.00  0.00     0.009 A 
BRANCH  17  22
ATOM     22  S   UNL A   1      32.450  17.962  24.200  1.00  0.00    -0.126 SA
BRANCH  22  23
ATOM     23  C   UNL A   1      33.567  16.523  24.063  1.00  0.00     0.071 C 
ATOM     24  C   UNL A   1      33.773  15.807  25.389  1.00  0.00     0.016 C 
ENDBRANCH  22  23
ENDBRANCH  17  22
ENDBRANCH  11  16
ENDBRANCH   8  10
ENDBRANCH   5   8
ENDBRANCH   3   4
ENDBRANCH   2   3
ENDBRANCH   1   2
BRANCH   1  25
ATOM     25  C   UNL A   1      31.723  30.701  26.221  1.00  0.00     0.002 C 
BRANCH  25  26
ATOM     26  C   UNL A   1      31.561  32.079  26.871  1.00  0.00     0.021 C 
BRANCH  26  27
ATOM     27  C   UNL A   1      32.857  32.698  27.392  1.00  0.00     0.116 C 
BRANCH  27  28
ATOM     28  N   UNL A   1      32.678  34.096  27.751  1.00  0.00    -0.352 N 
ATOM     29  C   UNL A   1      33.242  34.819  28.774  1.00  0.00     0.251 C 
ATOM     30  H   UNL A   1      32.060  34.599  27.175  1.00  0.00     0.163 HD
ATOM     31  O   UNL A   1      32.771  35.914  29.069  1.00  0.00    -0.269 OA
BRANCH  29  32
ATOM     32  C   UNL A   1      34.399  34.279  29.522  1.00  0.00     0.039 A 
ATOM     33  C   UNL A   1      34.166  33.468  30.636  1.00  0.00     0.014 A 
ATOM     34  C   UNL A   1      35.709  34.598  29.150  1.00  0.00     0.014 A 
ATOM     35  C   UNL A   1      35.245  32.931  31.342  1.00  0.00     0.010 A 
ATOM     36  C   UNL A   1      36.783  34.009  29.815  1.00  0.00     0.010 A 
ATOM     37  C   UNL A   1      36.563  33.171  30.918  1.00  0.00    -0.014 A 
BRANCH  37  38
ATOM     38  C   UNL A   1      37.719  32.549  31.616  1.00  0.00     0.031 A 
ATOM     39  C   UNL A   1      38.490  31.433  30.963  1.00  0.00     0.074 A 
ATOM     40  C   UNL A   1      38.035  32.950  32.864  1.00  0.00     0.049 A 
ATOM     41  N   UNL A   1      39.481  30.723  31.438  1.00  0.00    -0.248 NA
ATOM     42  C   UNL A   1      38.071  31.047  29.607  1.00  0.00     0.031 C 
ATOM     43  C   UNL A   1      37.333  33.993  33.617  1.00  0.00     0.029 A 
ATOM     44  N   UNL A   1      39.016  32.525  33.725  1.00  0.00    -0.354 N 
ATOM     45  C   UNL A   1      39.795  29.798  30.448  1.00  0.00     0.074 A 
ATOM     46  C   UNL A   1      38.851  30.004  29.370  1.00  0.00     0.031 C 
ATOM     47  C   UNL A   1      37.919  34.138  34.816  1.00  0.00     0.029 A 
ATOM     48  C   UNL A   1      39.005  33.173  34.940  1.00  0.00     0.049 A 
ATOM     49  H   UNL A   1      39.666  31.823  33.495  1.00  0.00     0.167 HD
ATOM     50  C   UNL A   1      40.791  28.877  30.432  1.00  0.00     0.034 A 
ATOM     51  C   UNL A   1      39.775  33.000  36.033  1.00  0.00     0.034 A 
ATOM     52  C   UNL A   1      41.734  28.695  31.511  1.00  0.00     0.049 A 
ATOM     53  C   UNL A   1      40.867  31.962  35.996  1.00  0.00     0.074 A 
ATOM     54  C   UNL A   1      42.819  27.840  31.572  1.00  0.00     0.029 A 
ATOM     55  N   UNL A   1      41.698  29.375  32.722  1.00  0.00    -0.354 N 
ATOM     56  N   UNL A   1      41.189  31.135  35.027  1.00  0.00    -0.248 NA
ATOM     57  C   UNL A   1      41.708  31.842  37.194  1.00  0.00     0.031 C 
ATOM     58  C   UNL A   1      43.395  27.949  32.843  1.00  0.00     0.029 A 
ATOM     59  C   UNL A   1      42.720  28.932  33.549  1.00  0.00     0.049 A 
ATOM     60  H   UNL A   1      41.041  30.070  32.960  1.00  0.00     0.167 HD
ATOM     61  C   UNL A   1      42.288  30.419  35.491  1.00  0.00     0.074 A 
ATOM     62  C   UNL A   1      42.584  30.923  36.815  1.00  0.00     0.031 C 
ATOM     63  C   UNL A   1      42.994  29.434  34.875  1.00  0.00     0.034 A 
BRANCH  50  64
ATOM     64  C   UNL A   1      40.893  27.978  29.221  1.00  0.00     0.023 A 
ATOM     65  C   UNL A   1      41.894  28.154  28.250  1.00  0.00     0.031 A 
ATOM     66  C   UNL A   1      39.968  26.936  29.029  1.00  0.00     0.131 A 
ATOM     67  C   UNL A   1      41.903  27.352  27.098  1.00  0.00     0.055 A 
ATOM     68  C   UNL A   1      40.030  26.090  27.921  1.00  0.00     0.041 A 
ATOM     69  F   UNL A   1      38.978  26.730  29.911  1.00  0.00    -0.206 F 
ATOM     70  C   UNL A   1      40.994  26.305  26.939  1.00  0.00     0.022 A 
BRANCH  67  71
ATOM     71  S   UNL A   1      43.034  27.786  25.749  1.00  0.00     0.124 S 
ATOM     72  O   UNL A   1      43.727  26.520  25.526  1.00  0.00    -0.237 OA
ATOM     73  O   UNL A   1      42.119  28.208  24.694  1.00  0.00    -0.237 OA
ATOM     74  O   UNL A   1      43.859  28.848  26.321  1.00  0.00    -0.744 OA
ENDBRANCH  67  71
ENDBRANCH  50  64
BRANCH  51  75
ATOM     75  C   UNL A   1      39.536  33.813  37.261  1.00  0.00     0.023 A 
ATOM     76  C   UNL A   1      38.873  33.269  38.372  1.00  0.00     0.031 A 
ATOM     77  C   UNL A   1      39.930  35.162  37.323  1.00  0.00     0.131 A 
ATOM     78  C   UNL A   1      38.581  34.080  39.479  1.00  0.00     0.055 A 
ATOM     79  C   UNL A   1      39.685  35.950  38.449  1.00  0.00     0.041 A 
ATOM     80  F   UNL A   1      40.572  35.731  36.291  1.00  0.00    -0.206 F 
ATOM     81  C   UNL A   1      38.994  35.413  39.530  1.00  0.00     0.022 A 
BRANCH  78  82
ATOM     82  S   UNL A   1      37.569  33.391  40.818  1.00  0.00     0.124 S 
ATOM     83  O   UNL A   1      36.994  34.596  41.406  1.00  0.00    -0.237 OA
ATOM     84  O   UNL A   1      36.646  32.531  40.085  1.00  0.00    -0.237 OA
ATOM     85  O   UNL A   1      38.541  32.690  41.653  1.00  0.00    -0.744 OA
ENDBRANCH  78  82
ENDBRANCH  51  75
BRANCH  63  86
ATOM     86  C   UNL A   1      44.180  28.873  35.621  1.00  0.00     0.023 A 
ATOM     87  C   UNL A   1      44.055  27.774  36.489  1.00  0.00     0.031 A 
ATOM     88  C   UNL A   1      45.450  29.458  35.473  1.00  0.00     0.131 A 
ATOM     89  C   UNL A   1      45.168  27.330  37.219  1.00  0.00     0.055 A 
ATOM     90  C   UNL A   1      46.567  28.973  36.154  1.00  0.00     0.041 A 
ATOM     91  F   UNL A   1      45.627  30.512  34.660  1.00  0.00    -0.206 F 
ATOM     92  C   UNL A   1      46.427  27.912  37.044  1.00  0.00     0.022 A 
BRANCH  89  93
ATOM     93  S   UNL A   1      44.929  26.043  38.475  1.00  0.00     0.124 S 
ATOM     94  O   UNL A   1      44.005  25.134  37.806  1.00  0.00    -0.237 OA
ATOM     95  O   UNL A   1      46.285  25.543  38.672  1.00  0.00    -0.237 OA
ATOM     96  O   UNL A   1      44.368  26.772  39.611  1.00  0.00    -0.744 OA
ENDBRANCH  89  93
ENDBRANCH  63  86
ENDBRANCH  37  38
ENDBRANCH  29  32
ENDBRANCH  27  28
ENDBRANCH  26  27
ENDBRANCH  25  26
ENDBRANCH   1  25
TORSDOF 20
ENDMDL
MODEL 3
REMARK VINA RESULT:     -10.6      4.262      9.786
REMARK SMILES CCSc1cccc(-c2ccc([C@@H](C)C(=O)NCCCCCCNC(=O)c3ccc(-c4c5nc(c(-c6cc(S(=O)(=O)[O-])ccc6F)c6ccc([nH]6)c(-c6cc(S(=O)(=O)[O-])ccc6F)c6nc(c(-c7cc(S(=O)(=O)[O-])ccc7F)c7ccc4[nH]7)C=C6)C=C5)cc3)cc2)c1
REMARK SMILES IDX 20 1 19 2 18 3 17 4 15 5 16 6 13 8 14 9 12 10 9 11 10 12
REMARK SMILES IDX 91 13 11 14 90 15 8 16 4 17 5 18 92 19 6 20 7 21 3 22 2 23
REMARK SMILES IDX 1 24 21 25 22 26 23 27 24 28 25 29 26 31 27 32 28 33 89 34
REMARK SMILES IDX 29 35 88 36 30 37 31 38 32 39 82 40 33 41 87 42 81 43 83 44
REMARK SMILES IDX 34 45 86 46 80 47 79 48 35 50 67 51 47 52 66 53 48 54 51 55
REMARK SMILES IDX 65 56 84 57 49 58 50 59 64 61 85 62 52 63 36 64 37 65 45 66
REMARK SMILES IDX 38 67 44 68 46 69 43 70 39 71 40 72 41 73 42 74 68 75 69 76
REMARK SMILES IDX 77 77 70 78 76 79 78 80 75 81 71 82 72 83 73 84 74 85 53 86
REMARK SMILES IDX 54 87 62 88 55 89 61 90 63 91 60 92 56 93 57 94 58 95 59 96
REMARK H PARENT 17 7 24 30 83 49 51 60
REMARK Flexibility Score: inf
ROOT
ATOM      1  C   UNL A   1      32.042  26.852  26.961  1.00  0.00     0.002 C 
ENDROOT
BRANCH   1   2
ATOM      2  C   UNL A   1      31.912  25.402  26.483  1.00  0.00     0.021 C 
BRANCH   2   3
ATOM      3  C   UNL A   1      33.217  24.808  25.951  1.00  0.00     0.116 C 
BRANCH   3   4
ATOM      4  N   UNL A   1      33.079  23.400  25.643  1.00  0.00    -0.356 N 
ATOM      5  C   UNL A   1      32.877  22.750  24.463  1.00  0.00     0.227 C 
ATOM      6  O   UNL A   1      32.713  21.525  24.531  1.00  0.00    -0.274 OA
ATOM      7  H   UNL A   1      33.144  22.805  26.425  1.00  0.00     0.163 HD
BRANCH   5   8
ATOM      8  C   UNL A   1      32.867  23.449  23.096  1.00  0.00     0.105 C 
ATOM      9  C   UNL A   1      34.258  23.692  22.511  1.00  0.00     0.023 C 
BRANCH   8  10
ATOM     10  C   UNL A   1      31.895  24.617  23.016  1.00  0.00    -0.036 A 
ATOM     11  C   UNL A   1      30.049  26.802  23.035  1.00  0.00    -0.018 A 
ATOM     12  C   UNL A   1      31.350  26.941  22.534  1.00  0.00     0.009 A 
ATOM     13  C   UNL A   1      29.681  25.528  23.499  1.00  0.00     0.009 A 
ATOM     14  C   UNL A   1      32.242  25.863  22.492  1.00  0.00     0.005 A 
ATOM     15  C   UNL A   1      30.592  24.463  23.509  1.00  0.00     0.005 A 
BRANCH  11  16
ATOM     16  C   UNL A   1      29.115  27.952  23.068  1.00  0.00    -0.017 A 
ATOM     17  C   UNL A   1      28.672  30.352  22.833  1.00  0.00     0.008 A 
ATOM     18  C   UNL A   1      27.321  30.139  23.107  1.00  0.00     0.015 A 
ATOM     19  C   UNL A   1      29.550  29.261  22.785  1.00  0.00     0.023 A 
ATOM     20  C   UNL A   1      26.862  28.854  23.379  1.00  0.00     0.002 A 
ATOM     21  C   UNL A   1      27.753  27.779  23.377  1.00  0.00     0.009 A 
BRANCH  17  22
ATOM     22  S   UNL A   1      29.239  32.024  22.565  1.00  0.00    -0.126 SA
BRANCH  22  23
ATOM     23  C   UNL A   1      27.953  32.642  21.424  1.00  0.00     0.071 C 
ATOM     24  C   UNL A   1      28.016  31.988  20.053  1.00  0.00     0.016 C 
ENDBRANCH  22  23
ENDBRANCH  17  22
ENDBRANCH  11  16
ENDBRANCH   8  10
ENDBRANCH   5   8
ENDBRANCH   3   4
ENDBRANCH   2   3
ENDBRANCH   1   2
BRANCH   1  25
ATOM     25  C   UNL A   1      31.783  27.917  25.886  1.00  0.00     0.002 C 
BRANCH  25  26
ATOM     26  C   UNL A   1      33.033  28.496  25.215  1.00  0.00     0.021 C 
BRANCH  26  27
ATOM     27  C   UNL A   1      34.124  28.957  26.180  1.00  0.00     0.116 C 
BRANCH  27  28
ATOM     28  N   UNL A   1      33.838  30.275  26.724  1.00  0.00    -0.352 N 
ATOM     29  C   UNL A   1      34.451  30.955  27.747  1.00  0.00     0.251 C 
ATOM     30  H   UNL A   1      33.092  30.751  26.293  1.00  0.00     0.163 HD
ATOM     31  O   UNL A   1      33.904  31.944  28.228  1.00  0.00    -0.269 OA
BRANCH  29  32
ATOM     32  C   UNL A   1      35.755  30.495  28.274  1.00  0.00     0.039 A 
ATOM     33  C   UNL A   1      35.780  29.730  29.444  1.00  0.00     0.014 A 
ATOM     34  C   UNL A   1      36.951  30.844  27.641  1.00  0.00     0.014 A 
ATOM     35  C   UNL A   1      36.999  29.267  29.945  1.00  0.00     0.010 A 
ATOM     36  C   UNL A   1      38.160  30.328  28.105  1.00  0.00     0.010 A 
ATOM     37  C   UNL A   1      38.197  29.536  29.262  1.00  0.00    -0.014 A 
BRANCH  37  38
ATOM     38  C   UNL A   1      39.494  28.991  29.745  1.00  0.00     0.031 A 
ATOM     39  C   UNL A   1      40.240  29.680  30.855  1.00  0.00     0.074 A 
ATOM     40  C   UNL A   1      40.027  27.911  29.139  1.00  0.00     0.049 A 
ATOM     41  N   UNL A   1      41.411  29.397  31.366  1.00  0.00    -0.248 NA
ATOM     42  C   UNL A   1      39.595  30.860  31.451  1.00  0.00     0.031 C 
ATOM     43  C   UNL A   1      39.416  27.184  28.023  1.00  0.00     0.029 A 
ATOM     44  N   UNL A   1      41.203  27.241  29.365  1.00  0.00    -0.354 N 
ATOM     45  C   UNL A   1      41.651  30.370  32.331  1.00  0.00     0.074 A 
ATOM     46  C   UNL A   1      40.527  31.281  32.293  1.00  0.00     0.031 C 
ATOM     47  C   UNL A   1      40.213  26.161  27.677  1.00  0.00     0.029 A 
ATOM     48  C   UNL A   1      41.410  26.182  28.511  1.00  0.00     0.049 A 
ATOM     49  H   UNL A   1      41.840  27.495  30.072  1.00  0.00     0.167 HD
ATOM     50  C   UNL A   1      42.702  30.480  33.182  1.00  0.00     0.034 A 
ATOM     51  C   UNL A   1      42.451  25.332  28.402  1.00  0.00     0.034 A 
ATOM     52  C   UNL A   1      43.809  29.553  33.215  1.00  0.00     0.049 A 
ATOM     53  C   UNL A   1      43.613  25.483  29.351  1.00  0.00     0.074 A 
ATOM     54  C   UNL A   1      44.890  29.532  34.077  1.00  0.00     0.029 A 
ATOM     55  N   UNL A   1      43.981  28.487  32.340  1.00  0.00    -0.354 N 
ATOM     56  N   UNL A   1      43.796  26.374  30.299  1.00  0.00    -0.248 NA
ATOM     57  C   UNL A   1      44.703  24.506  29.224  1.00  0.00     0.031 C 
ATOM     58  C   UNL A   1      45.750  28.501  33.682  1.00  0.00     0.029 A 
ATOM     59  C   UNL A   1      45.168  27.826  32.621  1.00  0.00     0.049 A 
ATOM     60  H   UNL A   1      43.352  28.238  31.624  1.00  0.00     0.167 HD
ATOM     61  C   UNL A   1      45.008  26.044  30.899  1.00  0.00     0.074 A 
ATOM     62  C   UNL A   1      45.501  24.865  30.218  1.00  0.00     0.031 C 
ATOM     63  C   UNL A   1      45.654  26.658  31.924  1.00  0.00     0.034 A 
BRANCH  50  64
ATOM     64  C   UNL A   1      42.716  31.659  34.127  1.00  0.00     0.023 A 
ATOM     65  C   UNL A   1      42.234  31.560  35.444  1.00  0.00     0.031 A 
ATOM     66  C   UNL A   1      43.207  32.907  33.700  1.00  0.00     0.131 A 
ATOM     67  C   UNL A   1      42.186  32.699  36.261  1.00  0.00     0.055 A 
ATOM     68  C   UNL A   1      43.231  34.018  34.545  1.00  0.00     0.041 A 
ATOM     69  F   UNL A   1      43.663  33.070  32.448  1.00  0.00    -0.206 F 
ATOM     70  C   UNL A   1      42.705  33.921  35.830  1.00  0.00     0.022 A 
BRANCH  67  71
ATOM     71  S   UNL A   1      41.311  32.592  37.846  1.00  0.00     0.124 S 
ATOM     72  O   UNL A   1      39.953  32.272  37.413  1.00  0.00    -0.237 OA
ATOM     73  O   UNL A   1      42.031  31.525  38.532  1.00  0.00    -0.237 OA
ATOM     74  O   UNL A   1      41.476  33.926  38.420  1.00  0.00    -0.744 OA
ENDBRANCH  67  71
ENDBRANCH  50  64
BRANCH  51  75
ATOM     75  C   UNL A   1      42.456  24.274  27.351  1.00  0.00     0.023 A 
ATOM     76  C   UNL A   1      41.775  23.061  27.540  1.00  0.00     0.031 A 
ATOM     77  C   UNL A   1      43.181  24.444  26.157  1.00  0.00     0.131 A 
ATOM     78  C   UNL A   1      41.871  22.047  26.575  1.00  0.00     0.055 A 
ATOM     79  C   UNL A   1      43.228  23.453  25.176  1.00  0.00     0.041 A 
ATOM     80  F   UNL A   1      43.845  25.587  25.923  1.00  0.00    -0.206 F 
ATOM     81  C   UNL A   1      42.582  22.240  25.388  1.00  0.00     0.022 A 
BRANCH  78  82
ATOM     82  S   UNL A   1      41.126  20.433  26.935  1.00  0.00     0.124 S 
ATOM     83  O   UNL A   1      42.207  19.520  26.578  1.00  0.00    -0.237 OA
ATOM     84  O   UNL A   1      40.827  20.550  28.358  1.00  0.00    -0.237 OA
ATOM     85  O   UNL A   1      39.959  20.393  26.056  1.00  0.00    -0.744 OA
ENDBRANCH  78  82
ENDBRANCH  51  75
BRANCH  63  86
ATOM     86  C   UNL A   1      46.946  26.033  32.392  1.00  0.00     0.023 A 
ATOM     87  C   UNL A   1      48.178  26.340  31.788  1.00  0.00     0.031 A 
ATOM     88  C   UNL A   1      46.940  25.103  33.447  1.00  0.00     0.131 A 
ATOM     89  C   UNL A   1      49.344  25.680  32.206  1.00  0.00     0.055 A 
ATOM     90  C   UNL A   1      48.112  24.498  33.901  1.00  0.00     0.041 A 
ATOM     91  F   UNL A   1      45.791  24.771  34.058  1.00  0.00    -0.206 F 
ATOM     92  C   UNL A   1      49.321  24.774  33.270  1.00  0.00     0.022 A 
BRANCH  89  93
ATOM     93  S   UNL A   1      50.878  25.951  31.276  1.00  0.00     0.124 S 
ATOM     94  O   UNL A   1      50.701  25.060  30.134  1.00  0.00    -0.237 OA
ATOM     95  O   UNL A   1      50.819  27.379  30.985  1.00  0.00    -0.237 OA
ATOM     96  O   UNL A   1      51.924  25.553  32.216  1.00  0.00    -0.744 OA
ENDBRANCH  89  93
ENDBRANCH  63  86
ENDBRANCH  37  38
ENDBRANCH  29  32
ENDBRANCH  27  28
ENDBRANCH  26  27
ENDBRANCH  25  26
ENDBRANCH   1  25
TORSDOF 20
ENDMDL
