MODEL 1
REMARK VINA RESULT:     -10.7      0.000      0.000
REMARK SMILES O=C(Cc1cccnc1Cl)NCCCCCCNC(=O)c1ccc(-c2c3nc(c(-c4cc(S(=O)(=O)[O-])ccc4F)c4ccc([nH]4)c(-c4cc(S(=O)(=O)[O-])ccc4F)c4nc(c(-c5cc(S(=O)(=O)[O-])ccc5F)c5ccc2[nH]5)C=C4)C=C3)cc1
REMARK SMILES IDX 15 1 14 2 13 3 12 4 11 5 1 6 2 7 3 9 4 10 5 11 9 12 6 13
REMARK SMILES IDX 8 14 10 15 7 16 16 17 17 18 18 19 19 20 20 22 21 23 22 24
REMARK SMILES IDX 83 25 23 26 82 27 24 28 25 29 26 30 76 31 27 32 81 33 75 34
REMARK SMILES IDX 77 35 28 36 80 37 74 38 73 39 29 41 61 42 41 43 60 44 42 45
REMARK SMILES IDX 45 46 59 47 78 48 43 49 44 50 58 52 79 53 46 54 30 55 31 56
REMARK SMILES IDX 39 57 32 58 38 59 40 60 37 61 33 62 34 63 35 64 36 65 62 66
REMARK SMILES IDX 63 67 71 68 64 69 70 70 72 71 69 72 65 73 66 74 67 75 68 76
REMARK SMILES IDX 47 77 48 78 56 79 49 80 55 81 57 82 54 83 50 84 51 85 52 86
REMARK SMILES IDX 53 87
REMARK H PARENT 11 8 18 21 77 40 45 51
REMARK Flexibility Score: inf
ROOT
ATOM      1  C   UNL A   1      31.928  30.373  26.161  1.00  0.00     0.002 C 
ENDROOT
BRANCH   1   2
ATOM      2  C   UNL A   1      31.851  29.345  27.294  1.00  0.00     0.002 C 
BRANCH   2   3
ATOM      3  C   UNL A   1      32.290  27.921  26.919  1.00  0.00     0.021 C 
BRANCH   3   4
ATOM      4  C   UNL A   1      32.515  27.684  25.425  1.00  0.00     0.116 C 
BRANCH   4   5
ATOM      5  N   UNL A   1      31.253  27.645  24.715  1.00  0.00    -0.356 N 
ATOM      6  O   UNL A   1      32.048  27.954  22.580  1.00  0.00    -0.275 OA
ATOM      7  C   UNL A   1      31.112  27.806  23.359  1.00  0.00     0.224 C 
ATOM      8  H   UNL A   1      30.438  27.491  25.243  1.00  0.00     0.163 HD
BRANCH   7   9
ATOM      9  C   UNL A   1      29.661  27.828  22.901  1.00  0.00     0.138 C 
BRANCH   9  10
ATOM     10  C   UNL A   1      28.999  29.172  23.049  1.00  0.00    -0.001 A 
ATOM     11  C   UNL A   1      29.757  30.340  22.898  1.00  0.00     0.009 A 
ATOM     12  C   UNL A   1      27.644  29.343  23.328  1.00  0.00     0.132 A 
ATOM     13  C   UNL A   1      29.149  31.587  23.020  1.00  0.00     0.020 A 
ATOM     14  N   UNL A   1      27.026  30.538  23.439  1.00  0.00    -0.244 NA
ATOM     15  Cl  UNL A   1      26.571  28.034  23.641  1.00  0.00    -0.062 Cl
ATOM     16  C   UNL A   1      27.791  31.634  23.275  1.00  0.00     0.113 A 
ENDBRANCH   9  10
ENDBRANCH   7   9
ENDBRANCH   4   5
ENDBRANCH   3   4
ENDBRANCH   2   3
ENDBRANCH   1   2
BRANCH   1  17
ATOM     17  C   UNL A   1      31.696  31.822  26.593  1.00  0.00     0.021 C 
BRANCH  17  18
ATOM     18  C   UNL A   1      32.859  32.456  27.349  1.00  0.00     0.116 C 
BRANCH  18  19
ATOM     19  N   UNL A   1      32.632  33.862  27.644  1.00  0.00    -0.352 N 
ATOM     20  C   UNL A   1      33.227  34.647  28.603  1.00  0.00     0.251 C 
ATOM     21  H   UNL A   1      31.962  34.311  27.082  1.00  0.00     0.163 HD
ATOM     22  O   UNL A   1      32.790  35.773  28.828  1.00  0.00    -0.269 OA
BRANCH  20  23
ATOM     23  C   UNL A   1      34.372  34.119  29.379  1.00  0.00     0.039 A 
ATOM     24  C   UNL A   1      34.122  33.300  30.483  1.00  0.00     0.014 A 
ATOM     25  C   UNL A   1      35.687  34.424  29.017  1.00  0.00     0.014 A 
ATOM     26  C   UNL A   1      35.193  32.743  31.188  1.00  0.00     0.010 A 
ATOM     27  C   UNL A   1      36.749  33.806  29.671  1.00  0.00     0.010 A 
ATOM     28  C   UNL A   1      36.516  32.965  30.771  1.00  0.00    -0.014 A 
BRANCH  28  29
ATOM     29  C   UNL A   1      37.667  32.355  31.490  1.00  0.00     0.031 A 
ATOM     30  C   UNL A   1      38.444  31.237  30.844  1.00  0.00     0.074 A 
ATOM     31  C   UNL A   1      37.985  32.769  32.733  1.00  0.00     0.049 A 
ATOM     32  N   UNL A   1      39.416  30.512  31.336  1.00  0.00    -0.248 NA
ATOM     33  C   UNL A   1      38.058  30.869  29.473  1.00  0.00     0.031 C 
ATOM     34  C   UNL A   1      37.293  33.824  33.477  1.00  0.00     0.029 A 
ATOM     35  N   UNL A   1      38.968  32.352  33.597  1.00  0.00    -0.354 N 
ATOM     36  C   UNL A   1      39.757  29.605  30.337  1.00  0.00     0.074 A 
ATOM     37  C   UNL A   1      38.838  29.824  29.241  1.00  0.00     0.031 C 
ATOM     38  C   UNL A   1      37.884  33.983  34.671  1.00  0.00     0.029 A 
ATOM     39  C   UNL A   1      38.963  33.009  34.806  1.00  0.00     0.049 A 
ATOM     40  H   UNL A   1      39.617  31.645  33.372  1.00  0.00     0.167 HD
ATOM     41  C   UNL A   1      40.763  28.697  30.321  1.00  0.00     0.034 A 
ATOM     42  C   UNL A   1      39.729  32.836  35.904  1.00  0.00     0.034 A 
ATOM     43  C   UNL A   1      41.679  28.494  31.415  1.00  0.00     0.049 A 
ATOM     44  C   UNL A   1      40.812  31.784  35.877  1.00  0.00     0.074 A 
ATOM     45  C   UNL A   1      42.741  27.610  31.497  1.00  0.00     0.029 A 
ATOM     46  N   UNL A   1      41.646  29.183  32.620  1.00  0.00    -0.354 N 
ATOM     47  N   UNL A   1      41.135  30.954  34.911  1.00  0.00    -0.248 NA
ATOM     48  C   UNL A   1      41.646  31.656  37.080  1.00  0.00     0.031 C 
ATOM     49  C   UNL A   1      43.309  27.720  32.769  1.00  0.00     0.029 A 
ATOM     50  C   UNL A   1      42.657  28.733  33.454  1.00  0.00     0.049 A 
ATOM     51  H   UNL A   1      40.999  29.889  32.848  1.00  0.00     0.167 HD
ATOM     52  C   UNL A   1      42.239  30.241  35.376  1.00  0.00     0.074 A 
ATOM     53  C   UNL A   1      42.533  30.750  36.698  1.00  0.00     0.031 C 
ATOM     54  C   UNL A   1      42.948  29.258  34.766  1.00  0.00     0.034 A 
BRANCH  41  55
ATOM     55  C   UNL A   1      40.919  27.851  29.080  1.00  0.00     0.023 A 
ATOM     56  C   UNL A   1      41.954  28.085  28.158  1.00  0.00     0.031 A 
ATOM     57  C   UNL A   1      40.028  26.796  28.816  1.00  0.00     0.131 A 
ATOM     58  C   UNL A   1      42.037  27.316  26.988  1.00  0.00     0.055 A 
ATOM     59  C   UNL A   1      40.165  25.983  27.688  1.00  0.00     0.041 A 
ATOM     60  F   UNL A   1      39.006  26.539  29.647  1.00  0.00    -0.206 F 
ATOM     61  C   UNL A   1      41.167  26.248  26.761  1.00  0.00     0.022 A 
BRANCH  58  62
ATOM     62  S   UNL A   1      43.223  27.811  25.709  1.00  0.00     0.124 S 
ATOM     63  O   UNL A   1      42.351  27.989  24.551  1.00  0.00    -0.237 OA
ATOM     64  O   UNL A   1      43.800  29.029  26.267  1.00  0.00    -0.237 OA
ATOM     65  O   UNL A   1      44.134  26.671  25.626  1.00  0.00    -0.744 OA
ENDBRANCH  58  62
ENDBRANCH  41  55
BRANCH  42  66
ATOM     66  C   UNL A   1      39.498  33.649  37.138  1.00  0.00     0.023 A 
ATOM     67  C   UNL A   1      40.235  34.819  37.384  1.00  0.00     0.031 A 
ATOM     68  C   UNL A   1      38.601  33.217  38.132  1.00  0.00     0.131 A 
ATOM     69  C   UNL A   1      40.125  35.468  38.623  1.00  0.00     0.055 A 
ATOM     70  C   UNL A   1      38.441  33.911  39.334  1.00  0.00     0.041 A 
ATOM     71  F   UNL A   1      37.868  32.107  37.953  1.00  0.00    -0.206 F 
ATOM     72  C   UNL A   1      39.221  35.032  39.594  1.00  0.00     0.022 A 
BRANCH  69  73
ATOM     73  S   UNL A   1      41.289  36.807  39.005  1.00  0.00     0.124 S 
ATOM     74  O   UNL A   1      42.015  36.933  37.747  1.00  0.00    -0.237 OA
ATOM     75  O   UNL A   1      40.388  37.904  39.341  1.00  0.00    -0.237 OA
ATOM     76  O   UNL A   1      42.064  36.274  40.123  1.00  0.00    -0.744 OA
ENDBRANCH  69  73
ENDBRANCH  42  66
BRANCH  54  77
ATOM     77  C   UNL A   1      44.160  28.725  35.494  1.00  0.00     0.023 A 
ATOM     78  C   UNL A   1      44.104  27.572  36.294  1.00  0.00     0.031 A 
ATOM     79  C   UNL A   1      45.393  29.395  35.386  1.00  0.00     0.131 A 
ATOM     80  C   UNL A   1      45.240  27.159  37.007  1.00  0.00     0.055 A 
ATOM     81  C   UNL A   1      46.537  28.940  36.041  1.00  0.00     0.041 A 
ATOM     82  F   UNL A   1      45.505  30.503  34.636  1.00  0.00    -0.206 F 
ATOM     83  C   UNL A   1      46.461  27.826  36.870  1.00  0.00     0.022 A 
BRANCH  80  84
ATOM     84  S   UNL A   1      45.077  25.801  38.197  1.00  0.00     0.124 S 
ATOM     85  O   UNL A   1      46.364  25.125  38.065  1.00  0.00    -0.237 OA
ATOM     86  O   UNL A   1      44.857  26.512  39.453  1.00  0.00    -0.237 OA
ATOM     87  O   UNL A   1      43.927  25.047  37.703  1.00  0.00    -0.744 OA
ENDBRANCH  80  84
ENDBRANCH  54  77
ENDBRANCH  28  29
ENDBRANCH  20  23
ENDBRANCH  18  19
ENDBRANCH  17  18
ENDBRANCH   1  17
TORSDOF 17
ENDMDL
MODEL 2
REMARK VINA RESULT:     -10.6      4.795     10.451
REMARK SMILES O=C(Cc1cccnc1Cl)NCCCCCCNC(=O)c1ccc(-c2c3nc(c(-c4cc(S(=O)(=O)[O-])ccc4F)c4ccc([nH]4)c(-c4cc(S(=O)(=O)[O-])ccc4F)c4nc(c(-c5cc(S(=O)(=O)[O-])ccc5F)c5ccc2[nH]5)C=C4)C=C3)cc1
REMARK SMILES IDX 15 1 14 2 13 3 12 4 11 5 1 6 2 7 3 9 4 10 5 11 9 12 6 13
REMARK SMILES IDX 8 14 10 15 7 16 16 17 17 18 18 19 19 20 20 22 21 23 22 24
REMARK SMILES IDX 83 25 23 26 82 27 24 28 25 29 26 30 76 31 27 32 81 33 75 34
REMARK SMILES IDX 77 35 28 36 80 37 74 38 73 39 29 41 61 42 41 43 60 44 42 45
REMARK SMILES IDX 45 46 59 47 78 48 43 49 44 50 58 52 79 53 46 54 30 55 31 56
REMARK SMILES IDX 39 57 32 58 38 59 40 60 37 61 33 62 34 63 35 64 36 65 62 66
REMARK SMILES IDX 63 67 71 68 64 69 70 70 72 71 69 72 65 73 66 74 67 75 68 76
REMARK SMILES IDX 47 77 48 78 56 79 49 80 55 81 57 82 54 83 50 84 51 85 52 86
REMARK SMILES IDX 53 87
REMARK H PARENT 11 8 18 21 77 40 45 51
REMARK Flexibility Score: inf
ROOT
ATOM      1  C   UNL A   1      37.157  33.435  28.891  1.00  0.00     0.002 C 
ENDROOT
BRANCH   1   2
ATOM      2  C   UNL A   1      37.339  32.888  30.310  1.00  0.00     0.002 C 
BRANCH   2   3
ATOM      3  C   UNL A   1      38.373  33.629  31.172  1.00  0.00     0.021 C 
BRANCH   3   4
ATOM      4  C   UNL A   1      37.784  34.575  32.220  1.00  0.00     0.116 C 
BRANCH   4   5
ATOM      5  N   UNL A   1      36.340  34.615  32.124  1.00  0.00    -0.356 N 
ATOM      6  O   UNL A   1      35.839  34.455  34.361  1.00  0.00    -0.275 OA
ATOM      7  C   UNL A   1      35.480  34.528  33.191  1.00  0.00     0.224 C 
ATOM      8  H   UNL A   1      35.946  34.713  31.228  1.00  0.00     0.163 HD
BRANCH   7   9
ATOM      9  C   UNL A   1      34.015  34.488  32.785  1.00  0.00     0.138 C 
BRANCH   9  10
ATOM     10  C   UNL A   1      33.659  35.472  31.704  1.00  0.00    -0.001 A 
ATOM     11  C   UNL A   1      33.416  35.017  30.402  1.00  0.00     0.009 A 
ATOM     12  C   UNL A   1      33.544  36.846  31.912  1.00  0.00     0.132 A 
ATOM     13  C   UNL A   1      33.073  35.920  29.399  1.00  0.00     0.020 A 
ATOM     14  N   UNL A   1      33.200  37.743  30.963  1.00  0.00    -0.244 NA
ATOM     15  Cl  UNL A   1      33.895  37.607  33.416  1.00  0.00    -0.062 Cl
ATOM     16  C   UNL A   1      32.965  37.259  29.728  1.00  0.00     0.113 A 
ENDBRANCH   9  10
ENDBRANCH   7   9
ENDBRANCH   4   5
ENDBRANCH   3   4
ENDBRANCH   2   3
ENDBRANCH   1   2
BRANCH   1  17
ATOM     17  C   UNL A   1      35.743  33.292  28.325  1.00  0.00     0.021 C 
BRANCH  17  18
ATOM     18  C   UNL A   1      34.795  32.457  29.179  1.00  0.00     0.116 C 
BRANCH  18  19
ATOM     19  N   UNL A   1      34.167  31.382  28.427  1.00  0.00    -0.352 N 
ATOM     20  C   UNL A   1      34.733  30.233  27.932  1.00  0.00     0.251 C 
ATOM     21  H   UNL A   1      33.206  31.494  28.249  1.00  0.00     0.163 HD
ATOM     22  O   UNL A   1      34.091  29.515  27.168  1.00  0.00    -0.269 OA
BRANCH  20  23
ATOM     23  C   UNL A   1      36.124  29.882  28.297  1.00  0.00     0.039 A 
ATOM     24  C   UNL A   1      36.375  29.324  29.553  1.00  0.00     0.014 A 
ATOM     25  C   UNL A   1      37.177  30.096  27.403  1.00  0.00     0.014 A 
ATOM     26  C   UNL A   1      37.673  28.930  29.888  1.00  0.00     0.010 A 
ATOM     27  C   UNL A   1      38.454  29.631  27.709  1.00  0.00     0.010 A 
ATOM     28  C   UNL A   1      38.720  29.051  28.959  1.00  0.00    -0.014 A 
BRANCH  28  29
ATOM     29  C   UNL A   1      40.102  28.607  29.287  1.00  0.00     0.031 A 
ATOM     30  C   UNL A   1      40.898  29.353  30.326  1.00  0.00     0.074 A 
ATOM     31  C   UNL A   1      40.655  27.570  28.627  1.00  0.00     0.049 A 
ATOM     32  N   UNL A   1      42.144  29.187  30.692  1.00  0.00    -0.248 NA
ATOM     33  C   UNL A   1      40.210  30.448  31.028  1.00  0.00     0.031 C 
ATOM     34  C   UNL A   1      39.996  26.785  27.581  1.00  0.00     0.029 A 
ATOM     35  N   UNL A   1      41.901  27.000  28.729  1.00  0.00    -0.354 N 
ATOM     36  C   UNL A   1      42.387  30.153  31.663  1.00  0.00     0.074 A 
ATOM     37  C   UNL A   1      41.182  30.947  31.776  1.00  0.00     0.031 C 
ATOM     38  C   UNL A   1      40.834  25.826  27.156  1.00  0.00     0.029 A 
ATOM     39  C   UNL A   1      42.108  25.957  27.854  1.00  0.00     0.049 A 
ATOM     40  H   UNL A   1      42.583  27.309  29.369  1.00  0.00     0.167 HD
ATOM     41  C   UNL A   1      43.499  30.341  32.416  1.00  0.00     0.034 A 
ATOM     42  C   UNL A   1      43.205  25.203  27.631  1.00  0.00     0.034 A 
ATOM     43  C   UNL A   1      44.690  29.538  32.302  1.00  0.00     0.049 A 
ATOM     44  C   UNL A   1      44.447  25.465  28.450  1.00  0.00     0.074 A 
ATOM     45  C   UNL A   1      45.867  29.635  33.024  1.00  0.00     0.029 A 
ATOM     46  N   UNL A   1      44.861  28.487  31.410  1.00  0.00    -0.354 N 
ATOM     47  N   UNL A   1      44.648  26.367  29.384  1.00  0.00    -0.248 NA
ATOM     48  C   UNL A   1      45.606  24.596  28.199  1.00  0.00     0.031 C 
ATOM     49  C   UNL A   1      46.768  28.688  32.528  1.00  0.00     0.029 A 
ATOM     50  C   UNL A   1      46.126  27.940  31.554  1.00  0.00     0.049 A 
ATOM     51  H   UNL A   1      44.181  28.175  30.769  1.00  0.00     0.167 HD
ATOM     52  C   UNL A   1      45.937  26.141  29.860  1.00  0.00     0.074 A 
ATOM     53  C   UNL A   1      46.458  25.009  29.124  1.00  0.00     0.031 C 
ATOM     54  C   UNL A   1      46.629  26.803  30.822  1.00  0.00     0.034 A 
BRANCH  41  55
ATOM     55  C   UNL A   1      43.477  31.464  33.424  1.00  0.00     0.023 A 
ATOM     56  C   UNL A   1      42.929  31.288  34.707  1.00  0.00     0.031 A 
ATOM     57  C   UNL A   1      44.013  32.724  33.105  1.00  0.00     0.131 A 
ATOM     58  C   UNL A   1      42.874  32.368  35.600  1.00  0.00     0.055 A 
ATOM     59  C   UNL A   1      44.028  33.772  34.028  1.00  0.00     0.041 A 
ATOM     60  F   UNL A   1      44.529  32.960  31.888  1.00  0.00    -0.206 F 
ATOM     61  C   UNL A   1      43.446  33.600  35.280  1.00  0.00     0.022 A 
BRANCH  58  62
ATOM     62  S   UNL A   1      41.937  32.172  37.139  1.00  0.00     0.124 S 
ATOM     63  O   UNL A   1      40.561  32.294  36.663  1.00  0.00    -0.237 OA
ATOM     64  O   UNL A   1      42.341  30.845  37.589  1.00  0.00    -0.237 OA
ATOM     65  O   UNL A   1      42.403  33.281  37.969  1.00  0.00    -0.744 OA
ENDBRANCH  58  62
ENDBRANCH  41  55
BRANCH  42  66
ATOM     66  C   UNL A   1      43.208  24.145  26.575  1.00  0.00     0.023 A 
ATOM     67  C   UNL A   1      42.518  22.935  26.759  1.00  0.00     0.031 A 
ATOM     68  C   UNL A   1      43.976  24.290  25.405  1.00  0.00     0.131 A 
ATOM     69  C   UNL A   1      42.675  21.891  25.834  1.00  0.00     0.055 A 
ATOM     70  C   UNL A   1      44.068  23.275  24.451  1.00  0.00     0.041 A 
ATOM     71  F   UNL A   1      44.656  25.424  25.173  1.00  0.00    -0.206 F 
ATOM     72  C   UNL A   1      43.432  22.058  24.673  1.00  0.00     0.022 A 
BRANCH  69  73
ATOM     73  S   UNL A   1      41.993  20.260  26.245  1.00  0.00     0.124 S 
ATOM     74  O   UNL A   1      42.488  20.069  27.604  1.00  0.00    -0.237 OA
ATOM     75  O   UNL A   1      40.559  20.490  26.110  1.00  0.00    -0.237 OA
ATOM     76  O   UNL A   1      42.582  19.383  25.237  1.00  0.00    -0.744 OA
ENDBRANCH  69  73
ENDBRANCH  42  66
BRANCH  54  77
ATOM     77  C   UNL A   1      47.994  26.269  31.186  1.00  0.00     0.023 A 
ATOM     78  C   UNL A   1      48.185  25.363  32.242  1.00  0.00     0.031 A 
ATOM     79  C   UNL A   1      49.126  26.685  30.460  1.00  0.00     0.131 A 
ATOM     80  C   UNL A   1      49.483  24.953  32.586  1.00  0.00     0.055 A 
ATOM     81  C   UNL A   1      50.406  26.220  30.761  1.00  0.00     0.041 A 
ATOM     82  F   UNL A   1      49.004  27.551  29.441  1.00  0.00    -0.206 F 
ATOM     83  C   UNL A   1      50.591  25.361  31.840  1.00  0.00     0.022 A 
BRANCH  80  84
ATOM     84  S   UNL A   1      49.715  23.960  34.085  1.00  0.00     0.124 S 
ATOM     85  O   UNL A   1      50.546  22.864  33.599  1.00  0.00    -0.237 OA
ATOM     86  O   UNL A   1      50.369  24.904  34.986  1.00  0.00    -0.237 OA
ATOM     87  O   UNL A   1      48.353  23.586  34.464  1.00  0.00    -0.744 OA
ENDBRANCH  80  84
ENDBRANCH  54  77
ENDBRANCH  28  29
ENDBRANCH  20  23
ENDBRANCH  18  19
ENDBRANCH  17  18
ENDBRANCH   1  17
TORSDOF 17
ENDMDL
MODEL 3
REMARK VINA RESULT:     -10.5      1.610      7.983
REMARK SMILES O=C(Cc1cccnc1Cl)NCCCCCCNC(=O)c1ccc(-c2c3nc(c(-c4cc(S(=O)(=O)[O-])ccc4F)c4ccc([nH]4)c(-c4cc(S(=O)(=O)[O-])ccc4F)c4nc(c(-c5cc(S(=O)(=O)[O-])ccc5F)c5ccc2[nH]5)C=C4)C=C3)cc1
REMARK SMILES IDX 15 1 14 2 13 3 12 4 11 5 1 6 2 7 3 9 4 10 5 11 9 12 6 13
REMARK SMILES IDX 8 14 10 15 7 16 16 17 17 18 18 19 19 20 20 22 21 23 22 24
REMARK SMILES IDX 83 25 23 26 82 27 24 28 25 29 26 30 76 31 27 32 81 33 75 34
REMARK SMILES IDX 77 35 28 36 80 37 74 38 73 39 29 41 61 42 41 43 60 44 42 45
REMARK SMILES IDX 45 46 59 47 78 48 43 49 44 50 58 52 79 53 46 54 30 55 31 56
REMARK SMILES IDX 39 57 32 58 38 59 40 60 37 61 33 62 34 63 35 64 36 65 62 66
REMARK SMILES IDX 63 67 71 68 64 69 70 70 72 71 69 72 65 73 66 74 67 75 68 76
REMARK SMILES IDX 47 77 48 78 56 79 49 80 55 81 57 82 54 83 50 84 51 85 52 86
REMARK SMILES IDX 53 87
REMARK H PARENT 11 8 18 21 77 40 45 51
REMARK Flexibility Score: inf
ROOT
ATOM      1  C   UNL A   1      31.681  30.447  26.000  1.00  0.00     0.002 C 
ENDROOT
BRANCH   1   2
ATOM      2  C   UNL A   1      31.832  29.322  27.028  1.00  0.00     0.002 C 
BRANCH   2   3
ATOM      3  C   UNL A   1      33.229  28.686  27.106  1.00  0.00     0.021 C 
BRANCH   3   4
ATOM      4  C   UNL A   1      33.985  28.618  25.777  1.00  0.00     0.116 C 
BRANCH   4   5
ATOM      5  N   UNL A   1      33.194  27.944  24.770  1.00  0.00    -0.356 N 
ATOM      6  O   UNL A   1      34.089  28.943  22.902  1.00  0.00    -0.275 OA
ATOM      7  C   UNL A   1      33.286  28.172  23.419  1.00  0.00     0.224 C 
ATOM      8  H   UNL A   1      32.543  27.273  25.075  1.00  0.00     0.163 HD
BRANCH   7   9
ATOM      9  C   UNL A   1      32.258  27.402  22.604  1.00  0.00     0.138 C 
BRANCH   9  10
ATOM     10  C   UNL A   1      30.859  27.943  22.728  1.00  0.00    -0.001 A 
ATOM     11  C   UNL A   1      30.580  29.251  22.314  1.00  0.00     0.009 A 
ATOM     12  C   UNL A   1      29.786  27.211  23.234  1.00  0.00     0.132 A 
ATOM     13  C   UNL A   1      29.286  29.755  22.414  1.00  0.00     0.020 A 
ATOM     14  N   UNL A   1      28.519  27.668  23.330  1.00  0.00    -0.244 NA
ATOM     15  Cl  UNL A   1      29.945  25.623  23.879  1.00  0.00    -0.062 Cl
ATOM     16  C   UNL A   1      28.295  28.928  22.910  1.00  0.00     0.113 A 
ENDBRANCH   9  10
ENDBRANCH   7   9
ENDBRANCH   4   5
ENDBRANCH   3   4
ENDBRANCH   2   3
ENDBRANCH   1   2
BRANCH   1  17
ATOM     17  C   UNL A   1      31.504  31.843  26.598  1.00  0.00     0.021 C 
BRANCH  17  18
ATOM     18  C   UNL A   1      32.739  32.398  27.300  1.00  0.00     0.116 C 
BRANCH  18  19
ATOM     19  N   UNL A   1      32.590  33.796  27.669  1.00  0.00    -0.352 N 
ATOM     20  C   UNL A   1      33.258  34.507  28.638  1.00  0.00     0.251 C 
ATOM     21  H   UNL A   1      31.921  34.303  27.155  1.00  0.00     0.163 HD
ATOM     22  O   UNL A   1      32.882  35.640  28.932  1.00  0.00    -0.269 OA
BRANCH  20  23
ATOM     23  C   UNL A   1      34.404  33.891  29.343  1.00  0.00     0.039 A 
ATOM     24  C   UNL A   1      34.158  33.003  30.393  1.00  0.00     0.014 A 
ATOM     25  C   UNL A   1      35.718  34.182  28.967  1.00  0.00     0.014 A 
ATOM     26  C   UNL A   1      35.228  32.366  31.027  1.00  0.00     0.010 A 
ATOM     27  C   UNL A   1      36.777  33.487  29.546  1.00  0.00     0.010 A 
ATOM     28  C   UNL A   1      36.546  32.577  30.589  1.00  0.00    -0.014 A 
BRANCH  28  29
ATOM     29  C   UNL A   1      37.695  31.883  31.231  1.00  0.00     0.031 A 
ATOM     30  C   UNL A   1      38.171  32.327  32.590  1.00  0.00     0.074 A 
ATOM     31  C   UNL A   1      38.335  30.890  30.581  1.00  0.00     0.049 A 
ATOM     32  N   UNL A   1      39.206  31.918  33.279  1.00  0.00    -0.248 NA
ATOM     33  C   UNL A   1      37.396  33.390  33.249  1.00  0.00     0.031 C 
ATOM     34  C   UNL A   1      37.986  30.387  29.251  1.00  0.00     0.029 A 
ATOM     35  N   UNL A   1      39.419  30.128  30.946  1.00  0.00    -0.354 N 
ATOM     36  C   UNL A   1      39.205  32.672  34.449  1.00  0.00     0.074 A 
ATOM     37  C   UNL A   1      38.111  33.613  34.341  1.00  0.00     0.031 C 
ATOM     38  C   UNL A   1      38.824  29.390  28.923  1.00  0.00     0.029 A 
ATOM     39  C   UNL A   1      39.804  29.215  29.990  1.00  0.00     0.049 A 
ATOM     40  H   UNL A   1      39.878  30.226  31.812  1.00  0.00     0.167 HD
ATOM     41  C   UNL A   1      40.021  32.569  35.528  1.00  0.00     0.034 A 
ATOM     42  C   UNL A   1      40.837  28.348  29.969  1.00  0.00     0.034 A 
ATOM     43  C   UNL A   1      41.102  31.622  35.628  1.00  0.00     0.049 A 
ATOM     44  C   UNL A   1      41.759  28.286  31.164  1.00  0.00     0.074 A 
ATOM     45  C   UNL A   1      41.979  31.425  36.681  1.00  0.00     0.029 A 
ATOM     46  N   UNL A   1      41.457  30.710  34.643  1.00  0.00    -0.354 N 
ATOM     47  N   UNL A   1      41.725  28.990  32.273  1.00  0.00    -0.248 NA
ATOM     48  C   UNL A   1      42.849  27.302  31.114  1.00  0.00     0.031 C 
ATOM     49  C   UNL A   1      42.900  30.441  36.309  1.00  0.00     0.029 A 
ATOM     50  C   UNL A   1      42.547  29.961  35.058  1.00  0.00     0.049 A 
ATOM     51  H   UNL A   1      41.000  30.609  33.777  1.00  0.00     0.167 HD
ATOM     52  C   UNL A   1      42.759  28.498  33.067  1.00  0.00     0.074 A 
ATOM     53  C   UNL A   1      43.385  27.430  32.319  1.00  0.00     0.031 C 
ATOM     54  C   UNL A   1      43.154  28.890  34.306  1.00  0.00     0.034 A 
BRANCH  41  55
ATOM     55  C   UNL A   1      39.773  33.511  36.681  1.00  0.00     0.023 A 
ATOM     56  C   UNL A   1      39.199  33.063  37.884  1.00  0.00     0.031 A 
ATOM     57  C   UNL A   1      40.118  34.870  36.583  1.00  0.00     0.131 A 
ATOM     58  C   UNL A   1      38.932  33.975  38.915  1.00  0.00     0.055 A 
ATOM     59  C   UNL A   1      39.923  35.757  37.644  1.00  0.00     0.041 A 
ATOM     60  F   UNL A   1      40.647  35.361  35.451  1.00  0.00    -0.206 F 
ATOM     61  C   UNL A   1      39.317  35.313  38.815  1.00  0.00     0.022 A 
BRANCH  58  62
ATOM     62  S   UNL A   1      37.965  33.411  40.341  1.00  0.00     0.124 S 
ATOM     63  O   UNL A   1      38.665  32.181  40.703  1.00  0.00    -0.237 OA
ATOM     64  O   UNL A   1      38.100  34.522  41.276  1.00  0.00    -0.237 OA
ATOM     65  O   UNL A   1      36.624  33.218  39.791  1.00  0.00    -0.744 OA
ENDBRANCH  58  62
ENDBRANCH  41  55
BRANCH  42  66
ATOM     66  C   UNL A   1      41.088  27.479  28.778  1.00  0.00     0.023 A 
ATOM     67  C   UNL A   1      42.129  27.763  27.880  1.00  0.00     0.031 A 
ATOM     68  C   UNL A   1      40.231  26.407  28.471  1.00  0.00     0.131 A 
ATOM     69  C   UNL A   1      42.238  27.040  26.682  1.00  0.00     0.055 A 
ATOM     70  C   UNL A   1      40.390  25.642  27.313  1.00  0.00     0.041 A 
ATOM     71  F   UNL A   1      39.218  26.087  29.292  1.00  0.00    -0.206 F 
ATOM     72  C   UNL A   1      41.386  25.971  26.400  1.00  0.00     0.022 A 
BRANCH  69  73
ATOM     73  S   UNL A   1      43.419  27.613  25.429  1.00  0.00     0.124 S 
ATOM     74  O   UNL A   1      44.011  28.771  26.091  1.00  0.00    -0.237 OA
ATOM     75  O   UNL A   1      44.284  26.449  25.275  1.00  0.00    -0.237 OA
ATOM     76  O   UNL A   1      42.572  27.917  24.278  1.00  0.00    -0.744 OA
ENDBRANCH  69  73
ENDBRANCH  42  66
BRANCH  54  77
ATOM     77  C   UNL A   1      44.267  28.104  34.957  1.00  0.00     0.023 A 
ATOM     78  C   UNL A   1      44.026  26.920  35.674  1.00  0.00     0.031 A 
ATOM     79  C   UNL A   1      45.596  28.559  34.862  1.00  0.00     0.131 A 
ATOM     80  C   UNL A   1      45.086  26.266  36.322  1.00  0.00     0.055 A 
ATOM     81  C   UNL A   1      46.655  27.867  35.449  1.00  0.00     0.041 A 
ATOM     82  F   UNL A   1      45.886  29.686  34.191  1.00  0.00    -0.206 F 
ATOM     83  C   UNL A   1      46.401  26.722  36.198  1.00  0.00     0.022 A 
BRANCH  80  84
ATOM     84  S   UNL A   1      44.710  24.869  37.415  1.00  0.00     0.124 S 
ATOM     85  O   UNL A   1      43.264  24.989  37.576  1.00  0.00    -0.237 OA
ATOM     86  O   UNL A   1      45.172  23.727  36.632  1.00  0.00    -0.237 OA
ATOM     87  O   UNL A   1      45.493  25.153  38.617  1.00  0.00    -0.744 OA
ENDBRANCH  80  84
ENDBRANCH  54  77
ENDBRANCH  28  29
ENDBRANCH  20  23
ENDBRANCH  18  19
ENDBRANCH  17  18
ENDBRANCH   1  17
TORSDOF 17
ENDMDL
