MODEL 1
REMARK VINA RESULT:     -12.4      0.000      0.000
REMARK SMILES CCNC(=O)c1cccc(-c2ccc(Cl)c(C(=O)NCCCCCCNC(=O)c3ccc(-c4c5nc(c(-c6cc(S(=O)(=O)[O-])ccc6F)c6ccc([nH]6)c(-c6cc(S(=O)(=O)[O-])ccc6F)c6nc(c(-c7cc(S(=O)(=O)[O-])ccc7F)c7ccc4[nH]7)C=C6)C=C5)cc3)c2)c1
REMARK SMILES IDX 22 1 21 2 20 3 19 4 17 5 18 6 16 8 11 9 12 10 92 11 13 12
REMARK SMILES IDX 14 13 15 14 10 15 6 16 7 17 93 18 8 19 9 20 4 21 3 22 5 24
REMARK SMILES IDX 2 25 1 26 23 27 24 28 25 29 26 30 27 31 28 33 29 34 30 35
REMARK SMILES IDX 91 36 31 37 90 38 32 39 33 40 34 41 84 42 35 43 89 44 83 45
REMARK SMILES IDX 85 46 36 47 88 48 82 49 81 50 37 52 69 53 49 54 68 55 50 56
REMARK SMILES IDX 53 57 67 58 86 59 51 60 52 61 66 63 87 64 54 65 38 66 39 67
REMARK SMILES IDX 47 68 40 69 46 70 48 71 45 72 41 73 42 74 43 75 44 76 70 77
REMARK SMILES IDX 71 78 79 79 72 80 78 81 80 82 77 83 73 84 74 85 75 86 76 87
REMARK SMILES IDX 55 88 56 89 64 90 57 91 63 92 65 93 62 94 58 95 59 96 60 97
REMARK SMILES IDX 61 98
REMARK H PARENT 19 7 3 23 26 32 85 51 53 62
REMARK Flexibility Score: inf
ROOT
ATOM      1  C   UNL A   1      33.905  24.680  25.857  1.00  0.00     0.002 C 
ENDROOT
BRANCH   1   2
ATOM      2  C   UNL A   1      33.074  25.936  25.609  1.00  0.00     0.021 C 
BRANCH   2   3
ATOM      3  C   UNL A   1      31.755  26.042  26.359  1.00  0.00     0.116 C 
BRANCH   3   4
ATOM      4  N   UNL A   1      30.576  26.229  25.520  1.00  0.00    -0.352 N 
ATOM      5  C   UNL A   1      30.199  25.685  24.304  1.00  0.00     0.252 C 
ATOM      6  O   UNL A   1      29.074  25.952  23.890  1.00  0.00    -0.269 OA
ATOM      7  H   UNL A   1      29.922  26.865  25.891  1.00  0.00     0.163 HD
BRANCH   5   8
ATOM      8  C   UNL A   1      31.112  24.815  23.502  1.00  0.00     0.059 A 
ATOM      9  C   UNL A   1      32.242  22.637  23.345  1.00  0.00    -0.017 A 
ATOM     10  C   UNL A   1      33.036  23.139  22.313  1.00  0.00     0.010 A 
ATOM     11  C   UNL A   1      31.204  23.456  23.818  1.00  0.00     0.024 A 
ATOM     12  C   UNL A   1      32.845  24.443  21.845  1.00  0.00     0.022 A 
ATOM     13  C   UNL A   1      31.918  25.296  22.462  1.00  0.00     0.053 A 
ATOM     14  Cl  UNL A   1      31.883  26.924  21.885  1.00  0.00    -0.083 Cl
BRANCH   9  15
ATOM     15  C   UNL A   1      32.519  21.353  24.019  1.00  0.00    -0.018 A 
ATOM     16  C   UNL A   1      32.729  18.919  23.926  1.00  0.00     0.040 A 
ATOM     17  C   UNL A   1      32.822  18.857  25.316  1.00  0.00     0.014 A 
ATOM     18  C   UNL A   1      32.531  20.152  23.296  1.00  0.00     0.022 A 
ATOM     19  C   UNL A   1      32.787  20.032  26.061  1.00  0.00     0.001 A 
ATOM     20  C   UNL A   1      32.653  21.268  25.416  1.00  0.00     0.009 A 
BRANCH  16  21
ATOM     21  C   UNL A   1      32.744  17.669  23.138  1.00  0.00     0.251 C 
ATOM     22  N   UNL A   1      33.145  16.484  23.703  1.00  0.00    -0.352 N 
ATOM     23  H   UNL A   1      33.230  15.734  23.071  1.00  0.00     0.163 HD
ATOM     24  O   UNL A   1      32.404  17.703  21.959  1.00  0.00    -0.269 OA
BRANCH  22  25
ATOM     25  C   UNL A   1      33.467  16.154  25.082  1.00  0.00     0.112 C 
ATOM     26  C   UNL A   1      32.520  15.115  25.645  1.00  0.00     0.027 C 
ENDBRANCH  22  25
ENDBRANCH  16  21
ENDBRANCH   9  15
ENDBRANCH   5   8
ENDBRANCH   3   4
ENDBRANCH   2   3
ENDBRANCH   1   2
BRANCH   1  27
ATOM     27  C   UNL A   1      35.168  24.516  25.007  1.00  0.00     0.002 C 
BRANCH  27  28
ATOM     28  C   UNL A   1      35.660  23.084  24.788  1.00  0.00     0.021 C 
BRANCH  28  29
ATOM     29  C   UNL A   1      36.026  22.310  26.050  1.00  0.00     0.116 C 
BRANCH  29  30
ATOM     30  N   UNL A   1      36.958  21.226  25.791  1.00  0.00    -0.352 N 
ATOM     31  C   UNL A   1      38.334  21.245  25.792  1.00  0.00     0.251 C 
ATOM     32  H   UNL A   1      36.547  20.354  25.585  1.00  0.00     0.163 HD
ATOM     33  O   UNL A   1      38.959  20.279  25.379  1.00  0.00    -0.269 OA
BRANCH  31  34
ATOM     34  C   UNL A   1      39.047  22.451  26.273  1.00  0.00     0.039 A 
ATOM     35  C   UNL A   1      40.059  22.311  27.227  1.00  0.00     0.014 A 
ATOM     36  C   UNL A   1      38.720  23.716  25.777  1.00  0.00     0.014 A 
ATOM     37  C   UNL A   1      40.786  23.433  27.636  1.00  0.00     0.010 A 
ATOM     38  C   UNL A   1      39.495  24.818  26.127  1.00  0.00     0.010 A 
ATOM     39  C   UNL A   1      40.532  24.691  27.066  1.00  0.00    -0.014 A 
BRANCH  39  40
ATOM     40  C   UNL A   1      41.300  25.903  27.456  1.00  0.00     0.031 A 
ATOM     41  C   UNL A   1      40.639  26.955  28.303  1.00  0.00     0.074 A 
ATOM     42  C   UNL A   1      42.549  26.097  26.990  1.00  0.00     0.049 A 
ATOM     43  N   UNL A   1      41.064  28.148  28.631  1.00  0.00    -0.248 NA
ATOM     44  C   UNL A   1      39.302  26.630  28.821  1.00  0.00     0.031 C 
ATOM     45  C   UNL A   1      43.293  25.156  26.150  1.00  0.00     0.029 A 
ATOM     46  N   UNL A   1      43.407  27.157  27.141  1.00  0.00    -0.354 N 
ATOM     47  C   UNL A   1      40.038  28.724  29.375  1.00  0.00     0.074 A 
ATOM     48  C   UNL A   1      38.947  27.771  29.387  1.00  0.00     0.031 C 
ATOM     49  C   UNL A   1      44.502  25.674  25.879  1.00  0.00     0.029 A 
ATOM     50  C   UNL A   1      44.599  27.004  26.471  1.00  0.00     0.049 A 
ATOM     51  H   UNL A   1      43.190  27.952  27.679  1.00  0.00     0.167 HD
ATOM     52  C   UNL A   1      40.017  29.924  30.008  1.00  0.00     0.034 A 
ATOM     53  C   UNL A   1      45.640  27.850  26.330  1.00  0.00     0.034 A 
ATOM     54  C   UNL A   1      41.117  30.857  29.983  1.00  0.00     0.049 A 
ATOM     55  C   UNL A   1      45.573  29.207  26.986  1.00  0.00     0.074 A 
ATOM     56  C   UNL A   1      41.220  32.086  30.612  1.00  0.00     0.029 A 
ATOM     57  N   UNL A   1      42.304  30.671  29.284  1.00  0.00    -0.354 N 
ATOM     58  N   UNL A   1      44.606  29.733  27.703  1.00  0.00    -0.248 NA
ATOM     59  C   UNL A   1      46.740  30.083  26.820  1.00  0.00     0.031 C 
ATOM     60  C   UNL A   1      42.430  32.673  30.232  1.00  0.00     0.029 A 
ATOM     61  C   UNL A   1      43.129  31.773  29.442  1.00  0.00     0.049 A 
ATOM     62  H   UNL A   1      42.526  29.872  28.753  1.00  0.00     0.167 HD
ATOM     63  C   UNL A   1      45.070  30.980  28.112  1.00  0.00     0.074 A 
ATOM     64  C   UNL A   1      46.399  31.130  27.558  1.00  0.00     0.031 C 
ATOM     65  C   UNL A   1      44.457  31.910  28.889  1.00  0.00     0.034 A 
BRANCH  52  66
ATOM     66  C   UNL A   1      38.750  30.295  30.743  1.00  0.00     0.023 A 
ATOM     67  C   UNL A   1      37.739  31.060  30.131  1.00  0.00     0.031 A 
ATOM     68  C   UNL A   1      38.569  29.931  32.089  1.00  0.00     0.131 A 
ATOM     69  C   UNL A   1      36.652  31.520  30.889  1.00  0.00     0.055 A 
ATOM     70  C   UNL A   1      37.434  30.308  32.810  1.00  0.00     0.041 A 
ATOM     71  F   UNL A   1      39.505  29.220  32.737  1.00  0.00    -0.206 F 
ATOM     72  C   UNL A   1      36.477  31.126  32.217  1.00  0.00     0.022 A 
BRANCH  69  73
ATOM     73  S   UNL A   1      35.577  32.792  30.169  1.00  0.00     0.124 S 
ATOM     74  O   UNL A   1      34.401  32.705  31.031  1.00  0.00    -0.237 OA
ATOM     75  O   UNL A   1      36.383  34.000  30.307  1.00  0.00    -0.237 OA
ATOM     76  O   UNL A   1      35.369  32.331  28.798  1.00  0.00    -0.744 OA
ENDBRANCH  69  73
ENDBRANCH  52  66
BRANCH  53  77
ATOM     77  C   UNL A   1      46.834  27.448  25.531  1.00  0.00     0.023 A 
ATOM     78  C   UNL A   1      46.982  27.863  24.198  1.00  0.00     0.031 A 
ATOM     79  C   UNL A   1      47.829  26.616  26.075  1.00  0.00     0.131 A 
ATOM     80  C   UNL A   1      48.074  27.413  23.441  1.00  0.00     0.055 A 
ATOM     81  C   UNL A   1      48.943  26.216  25.336  1.00  0.00     0.041 A 
ATOM     82  F   UNL A   1      47.737  26.189  27.344  1.00  0.00    -0.206 F 
ATOM     83  C   UNL A   1      49.064  26.606  24.005  1.00  0.00     0.022 A 
BRANCH  80  84
ATOM     84  S   UNL A   1      48.142  27.832  21.678  1.00  0.00     0.124 S 
ATOM     85  O   UNL A   1      46.859  28.495  21.482  1.00  0.00    -0.237 OA
ATOM     86  O   UNL A   1      49.324  28.686  21.613  1.00  0.00    -0.237 OA
ATOM     87  O   UNL A   1      48.279  26.532  21.023  1.00  0.00    -0.744 OA
ENDBRANCH  80  84
ENDBRANCH  53  77
BRANCH  65  88
ATOM     88  C   UNL A   1      45.250  33.142  29.257  1.00  0.00     0.023 A 
ATOM     89  C   UNL A   1      45.198  34.325  28.500  1.00  0.00     0.031 A 
ATOM     90  C   UNL A   1      46.056  33.130  30.411  1.00  0.00     0.131 A 
ATOM     91  C   UNL A   1      45.970  35.433  28.884  1.00  0.00     0.055 A 
ATOM     92  C   UNL A   1      46.773  34.253  30.820  1.00  0.00     0.041 A 
ATOM     93  F   UNL A   1      46.147  32.024  31.169  1.00  0.00    -0.206 F 
ATOM     94  C   UNL A   1      46.741  35.411  30.050  1.00  0.00     0.022 A 
BRANCH  91  95
ATOM     95  S   UNL A   1      46.015  36.887  27.800  1.00  0.00     0.124 S 
ATOM     96  O   UNL A   1      44.825  37.618  28.223  1.00  0.00    -0.237 OA
ATOM     97  O   UNL A   1      47.295  37.496  28.147  1.00  0.00    -0.237 OA
ATOM     98  O   UNL A   1      45.947  36.316  26.456  1.00  0.00    -0.744 OA
ENDBRANCH  91  95
ENDBRANCH  65  88
ENDBRANCH  39  40
ENDBRANCH  31  34
ENDBRANCH  29  30
ENDBRANCH  28  29
ENDBRANCH  27  28
ENDBRANCH   1  27
TORSDOF 19
ENDMDL
MODEL 2
REMARK VINA RESULT:     -12.2      5.177     10.315
REMARK SMILES CCNC(=O)c1cccc(-c2ccc(Cl)c(C(=O)NCCCCCCNC(=O)c3ccc(-c4c5nc(c(-c6cc(S(=O)(=O)[O-])ccc6F)c6ccc([nH]6)c(-c6cc(S(=O)(=O)[O-])ccc6F)c6nc(c(-c7cc(S(=O)(=O)[O-])ccc7F)c7ccc4[nH]7)C=C6)C=C5)cc3)c2)c1
REMARK SMILES IDX 22 1 21 2 20 3 19 4 17 5 18 6 16 8 11 9 12 10 92 11 13 12
REMARK SMILES IDX 14 13 15 14 10 15 6 16 7 17 93 18 8 19 9 20 4 21 3 22 5 24
REMARK SMILES IDX 2 25 1 26 23 27 24 28 25 29 26 30 27 31 28 33 29 34 30 35
REMARK SMILES IDX 91 36 31 37 90 38 32 39 33 40 34 41 84 42 35 43 89 44 83 45
REMARK SMILES IDX 85 46 36 47 88 48 82 49 81 50 37 52 69 53 49 54 68 55 50 56
REMARK SMILES IDX 53 57 67 58 86 59 51 60 52 61 66 63 87 64 54 65 38 66 39 67
REMARK SMILES IDX 47 68 40 69 46 70 48 71 45 72 41 73 42 74 43 75 44 76 70 77
REMARK SMILES IDX 71 78 79 79 72 80 78 81 80 82 77 83 73 84 74 85 75 86 76 87
REMARK SMILES IDX 55 88 56 89 64 90 57 91 63 92 65 93 62 94 58 95 59 96 60 97
REMARK SMILES IDX 61 98
REMARK H PARENT 19 7 3 23 26 32 85 51 53 62
REMARK Flexibility Score: inf
ROOT
ATOM      1  C   UNL A   1      34.041  26.568  25.117  1.00  0.00     0.002 C 
ENDROOT
BRANCH   1   2
ATOM      2  C   UNL A   1      34.339  25.180  24.556  1.00  0.00     0.021 C 
BRANCH   2   3
ATOM      3  C   UNL A   1      33.938  24.927  23.110  1.00  0.00     0.116 C 
BRANCH   3   4
ATOM      4  N   UNL A   1      33.338  23.623  22.850  1.00  0.00    -0.352 N 
ATOM      5  C   UNL A   1      32.121  23.066  23.207  1.00  0.00     0.252 C 
ATOM      6  O   UNL A   1      31.843  21.967  22.737  1.00  0.00    -0.269 OA
ATOM      7  H   UNL A   1      33.908  23.023  22.318  1.00  0.00     0.163 HD
BRANCH   5   8
ATOM      8  C   UNL A   1      31.173  23.752  24.138  1.00  0.00     0.059 A 
ATOM      9  C   UNL A   1      29.556  25.583  24.423  1.00  0.00    -0.017 A 
ATOM     10  C   UNL A   1      29.574  25.365  25.801  1.00  0.00     0.010 A 
ATOM     11  C   UNL A   1      30.258  24.672  23.616  1.00  0.00     0.024 A 
ATOM     12  C   UNL A   1      30.340  24.328  26.343  1.00  0.00     0.022 A 
ATOM     13  C   UNL A   1      31.172  23.549  25.524  1.00  0.00     0.053 A 
ATOM     14  Cl  UNL A   1      32.176  22.401  26.334  1.00  0.00    -0.083 Cl
BRANCH   9  15
ATOM     15  C   UNL A   1      28.935  26.772  23.806  1.00  0.00    -0.018 A 
ATOM     16  C   UNL A   1      29.159  28.920  22.660  1.00  0.00     0.040 A 
ATOM     17  C   UNL A   1      27.795  29.166  22.818  1.00  0.00     0.014 A 
ATOM     18  C   UNL A   1      29.723  27.757  23.194  1.00  0.00     0.022 A 
ATOM     19  C   UNL A   1      26.993  28.216  23.446  1.00  0.00     0.001 A 
ATOM     20  C   UNL A   1      27.557  27.025  23.920  1.00  0.00     0.009 A 
BRANCH  16  21
ATOM     21  C   UNL A   1      30.012  29.938  22.014  1.00  0.00     0.251 C 
ATOM     22  N   UNL A   1      29.617  31.251  21.949  1.00  0.00    -0.352 N 
ATOM     23  H   UNL A   1      30.197  31.829  21.402  1.00  0.00     0.163 HD
ATOM     24  O   UNL A   1      31.082  29.594  21.520  1.00  0.00    -0.269 OA
BRANCH  22  25
ATOM     25  C   UNL A   1      28.483  31.929  22.555  1.00  0.00     0.112 C 
ATOM     26  C   UNL A   1      28.848  33.322  23.025  1.00  0.00     0.027 C 
ENDBRANCH  22  25
ENDBRANCH  16  21
ENDBRANCH   9  15
ENDBRANCH   5   8
ENDBRANCH   3   4
ENDBRANCH   2   3
ENDBRANCH   1   2
BRANCH   1  27
ATOM     27  C   UNL A   1      32.868  26.672  26.095  1.00  0.00     0.002 C 
BRANCH  27  28
ATOM     28  C   UNL A   1      32.266  28.066  26.289  1.00  0.00     0.021 C 
BRANCH  28  29
ATOM     29  C   UNL A   1      33.027  29.212  25.632  1.00  0.00     0.116 C 
BRANCH  29  30
ATOM     30  N   UNL A   1      32.516  30.517  26.017  1.00  0.00    -0.352 N 
ATOM     31  C   UNL A   1      32.985  31.384  26.977  1.00  0.00     0.251 C 
ATOM     32  H   UNL A   1      31.721  30.823  25.521  1.00  0.00     0.163 HD
ATOM     33  O   UNL A   1      32.325  32.365  27.289  1.00  0.00    -0.269 OA
BRANCH  31  34
ATOM     34  C   UNL A   1      34.278  31.105  27.643  1.00  0.00     0.039 A 
ATOM     35  C   UNL A   1      35.214  32.135  27.773  1.00  0.00     0.014 A 
ATOM     36  C   UNL A   1      34.561  29.832  28.145  1.00  0.00     0.014 A 
ATOM     37  C   UNL A   1      36.408  31.902  28.462  1.00  0.00     0.010 A 
ATOM     38  C   UNL A   1      35.713  29.625  28.896  1.00  0.00     0.010 A 
ATOM     39  C   UNL A   1      36.654  30.655  29.057  1.00  0.00    -0.014 A 
BRANCH  39  40
ATOM     40  C   UNL A   1      37.900  30.377  29.819  1.00  0.00     0.031 A 
ATOM     41  C   UNL A   1      38.908  29.410  29.259  1.00  0.00     0.074 A 
ATOM     42  C   UNL A   1      38.090  30.922  31.036  1.00  0.00     0.049 A 
ATOM     43  N   UNL A   1      39.979  28.908  29.818  1.00  0.00    -0.248 NA
ATOM     44  C   UNL A   1      38.651  28.916  27.899  1.00  0.00     0.031 C 
ATOM     45  C   UNL A   1      37.181  31.864  31.692  1.00  0.00     0.029 A 
ATOM     46  N   UNL A   1      39.103  30.750  31.947  1.00  0.00    -0.354 N 
ATOM     47  C   UNL A   1      40.513  28.025  28.885  1.00  0.00     0.074 A 
ATOM     48  C   UNL A   1      39.605  28.011  27.757  1.00  0.00     0.031 C 
ATOM     49  C   UNL A   1      37.687  32.200  32.889  1.00  0.00     0.029 A 
ATOM     50  C   UNL A   1      38.922  31.455  33.115  1.00  0.00     0.049 A 
ATOM     51  H   UNL A   1      39.884  30.175  31.781  1.00  0.00     0.167 HD
ATOM     52  C   UNL A   1      41.664  27.309  28.954  1.00  0.00     0.034 A 
ATOM     53  C   UNL A   1      39.657  31.480  34.246  1.00  0.00     0.034 A 
ATOM     54  C   UNL A   1      42.555  27.338  30.088  1.00  0.00     0.049 A 
ATOM     55  C   UNL A   1      40.899  30.628  34.330  1.00  0.00     0.074 A 
ATOM     56  C   UNL A   1      43.761  26.681  30.255  1.00  0.00     0.029 A 
ATOM     57  N   UNL A   1      42.332  28.058  31.256  1.00  0.00    -0.354 N 
ATOM     58  N   UNL A   1      41.403  29.811  33.434  1.00  0.00    -0.248 NA
ATOM     59  C   UNL A   1      41.674  30.706  35.574  1.00  0.00     0.031 C 
ATOM     60  C   UNL A   1      44.227  26.940  31.547  1.00  0.00     0.029 A 
ATOM     61  C   UNL A   1      43.363  27.836  32.157  1.00  0.00     0.049 A 
ATOM     62  H   UNL A   1      41.555  28.640  31.420  1.00  0.00     0.167 HD
ATOM     63  C   UNL A   1      42.580  29.316  33.991  1.00  0.00     0.074 A 
ATOM     64  C   UNL A   1      42.707  29.922  35.300  1.00  0.00     0.031 C 
ATOM     65  C   UNL A   1      43.481  28.451  33.459  1.00  0.00     0.034 A 
BRANCH  52  66
ATOM     66  C   UNL A   1      41.991  26.413  27.780  1.00  0.00     0.023 A 
ATOM     67  C   UNL A   1      41.554  25.077  27.728  1.00  0.00     0.031 A 
ATOM     68  C   UNL A   1      42.797  26.879  26.726  1.00  0.00     0.131 A 
ATOM     69  C   UNL A   1      42.008  24.230  26.706  1.00  0.00     0.055 A 
ATOM     70  C   UNL A   1      43.161  26.058  25.658  1.00  0.00     0.041 A 
ATOM     71  F   UNL A   1      43.264  28.138  26.726  1.00  0.00    -0.206 F 
ATOM     72  C   UNL A   1      42.785  24.718  25.654  1.00  0.00     0.022 A 
BRANCH  69  73
ATOM     73  S   UNL A   1      41.725  22.446  26.875  1.00  0.00     0.124 S 
ATOM     74  O   UNL A   1      42.784  22.067  27.807  1.00  0.00    -0.237 OA
ATOM     75  O   UNL A   1      40.364  22.391  27.396  1.00  0.00    -0.237 OA
ATOM     76  O   UNL A   1      41.894  21.941  25.514  1.00  0.00    -0.744 OA
ENDBRANCH  69  73
ENDBRANCH  52  66
BRANCH  53  77
ATOM     77  C   UNL A   1      39.239  32.334  35.395  1.00  0.00     0.023 A 
ATOM     78  C   UNL A   1      39.709  33.652  35.522  1.00  0.00     0.031 A 
ATOM     79  C   UNL A   1      38.391  31.839  36.402  1.00  0.00     0.131 A 
ATOM     80  C   UNL A   1      39.363  34.413  36.649  1.00  0.00     0.055 A 
ATOM     81  C   UNL A   1      38.004  32.619  37.493  1.00  0.00     0.041 A 
ATOM     82  F   UNL A   1      37.914  30.587  36.331  1.00  0.00    -0.206 F 
ATOM     83  C   UNL A   1      38.501  33.912  37.627  1.00  0.00     0.022 A 
BRANCH  80  84
ATOM     84  S   UNL A   1      40.124  36.046  36.862  1.00  0.00     0.124 S 
ATOM     85  O   UNL A   1      39.432  36.542  38.045  1.00  0.00    -0.237 OA
ATOM     86  O   UNL A   1      41.532  35.705  37.037  1.00  0.00    -0.237 OA
ATOM     87  O   UNL A   1      39.803  36.737  35.615  1.00  0.00    -0.744 OA
ENDBRANCH  80  84
ENDBRANCH  53  77
BRANCH  65  88
ATOM     88  C   UNL A   1      44.731  28.168  34.259  1.00  0.00     0.023 A 
ATOM     89  C   UNL A   1      44.824  27.089  35.154  1.00  0.00     0.031 A 
ATOM     90  C   UNL A   1      45.861  28.992  34.096  1.00  0.00     0.131 A 
ATOM     91  C   UNL A   1      46.008  26.886  35.882  1.00  0.00     0.055 A 
ATOM     92  C   UNL A   1      47.054  28.749  34.776  1.00  0.00     0.041 A 
ATOM     93  F   UNL A   1      45.826  30.041  33.257  1.00  0.00    -0.206 F 
ATOM     94  C   UNL A   1      47.130  27.697  35.683  1.00  0.00     0.022 A 
BRANCH  91  95
ATOM     95  S   UNL A   1      46.045  25.591  37.152  1.00  0.00     0.124 S 
ATOM     96  O   UNL A   1      45.587  26.313  38.335  1.00  0.00    -0.237 OA
ATOM     97  O   UNL A   1      45.121  24.598  36.614  1.00  0.00    -0.237 OA
ATOM     98  O   UNL A   1      47.447  25.178  37.181  1.00  0.00    -0.744 OA
ENDBRANCH  91  95
ENDBRANCH  65  88
ENDBRANCH  39  40
ENDBRANCH  31  34
ENDBRANCH  29  30
ENDBRANCH  28  29
ENDBRANCH  27  28
ENDBRANCH   1  27
TORSDOF 19
ENDMDL
MODEL 3
REMARK VINA RESULT:     -11.7      4.944      7.044
REMARK SMILES CCNC(=O)c1cccc(-c2ccc(Cl)c(C(=O)NCCCCCCNC(=O)c3ccc(-c4c5nc(c(-c6cc(S(=O)(=O)[O-])ccc6F)c6ccc([nH]6)c(-c6cc(S(=O)(=O)[O-])ccc6F)c6nc(c(-c7cc(S(=O)(=O)[O-])ccc7F)c7ccc4[nH]7)C=C6)C=C5)cc3)c2)c1
REMARK SMILES IDX 22 1 21 2 20 3 19 4 17 5 18 6 16 8 11 9 12 10 92 11 13 12
REMARK SMILES IDX 14 13 15 14 10 15 6 16 7 17 93 18 8 19 9 20 4 21 3 22 5 24
REMARK SMILES IDX 2 25 1 26 23 27 24 28 25 29 26 30 27 31 28 33 29 34 30 35
REMARK SMILES IDX 91 36 31 37 90 38 32 39 33 40 34 41 84 42 35 43 89 44 83 45
REMARK SMILES IDX 85 46 36 47 88 48 82 49 81 50 37 52 69 53 49 54 68 55 50 56
REMARK SMILES IDX 53 57 67 58 86 59 51 60 52 61 66 63 87 64 54 65 38 66 39 67
REMARK SMILES IDX 47 68 40 69 46 70 48 71 45 72 41 73 42 74 43 75 44 76 70 77
REMARK SMILES IDX 71 78 79 79 72 80 78 81 80 82 77 83 73 84 74 85 75 86 76 87
REMARK SMILES IDX 55 88 56 89 64 90 57 91 63 92 65 93 62 94 58 95 59 96 60 97
REMARK SMILES IDX 61 98
REMARK H PARENT 19 7 3 23 26 32 85 51 53 62
REMARK Flexibility Score: inf
ROOT
ATOM      1  C   UNL A   1      31.137  28.056  25.110  1.00  0.00     0.002 C 
ENDROOT
BRANCH   1   2
ATOM      2  C   UNL A   1      30.376  27.381  23.972  1.00  0.00     0.021 C 
BRANCH   2   3
ATOM      3  C   UNL A   1      30.721  27.828  22.559  1.00  0.00     0.116 C 
BRANCH   3   4
ATOM      4  N   UNL A   1      32.131  28.120  22.326  1.00  0.00    -0.352 N 
ATOM      5  C   UNL A   1      33.210  27.316  22.000  1.00  0.00     0.252 C 
ATOM      6  O   UNL A   1      34.275  27.875  21.750  1.00  0.00    -0.269 OA
ATOM      7  H   UNL A   1      32.359  29.074  22.417  1.00  0.00     0.163 HD
BRANCH   5   8
ATOM      8  C   UNL A   1      33.111  25.825  21.960  1.00  0.00     0.059 A 
ATOM      9  C   UNL A   1      33.615  23.713  23.113  1.00  0.00    -0.017 A 
ATOM     10  C   UNL A   1      33.301  23.016  21.945  1.00  0.00     0.010 A 
ATOM     11  C   UNL A   1      33.377  25.097  23.123  1.00  0.00     0.024 A 
ATOM     12  C   UNL A   1      32.852  23.704  20.812  1.00  0.00     0.022 A 
ATOM     13  C   UNL A   1      32.797  25.106  20.800  1.00  0.00     0.053 A 
ATOM     14  Cl  UNL A   1      32.367  25.836  19.295  1.00  0.00    -0.083 Cl
BRANCH   9  15
ATOM     15  C   UNL A   1      34.279  23.080  24.269  1.00  0.00    -0.018 A 
ATOM     16  C   UNL A   1      35.558  21.226  25.219  1.00  0.00     0.040 A 
ATOM     17  C   UNL A   1      35.366  21.730  26.505  1.00  0.00     0.014 A 
ATOM     18  C   UNL A   1      34.977  21.873  24.125  1.00  0.00     0.022 A 
ATOM     19  C   UNL A   1      34.654  22.914  26.682  1.00  0.00     0.001 A 
ATOM     20  C   UNL A   1      34.130  23.588  25.572  1.00  0.00     0.009 A 
BRANCH  16  21
ATOM     21  C   UNL A   1      36.295  19.958  25.037  1.00  0.00     0.251 C 
ATOM     22  N   UNL A   1      35.627  18.782  24.805  1.00  0.00    -0.352 N 
ATOM     23  H   UNL A   1      36.196  17.978  24.811  1.00  0.00     0.163 HD
ATOM     24  O   UNL A   1      37.520  19.966  25.107  1.00  0.00    -0.269 OA
BRANCH  22  25
ATOM     25  C   UNL A   1      34.218  18.527  24.554  1.00  0.00     0.112 C 
ATOM     26  C   UNL A   1      33.851  17.086  24.839  1.00  0.00     0.027 C 
ENDBRANCH  22  25
ENDBRANCH  16  21
ENDBRANCH   9  15
ENDBRANCH   5   8
ENDBRANCH   3   4
ENDBRANCH   2   3
ENDBRANCH   1   2
BRANCH   1  27
ATOM     27  C   UNL A   1      32.065  27.163  25.936  1.00  0.00     0.002 C 
BRANCH  27  28
ATOM     28  C   UNL A   1      33.168  27.873  26.725  1.00  0.00     0.021 C 
BRANCH  28  29
ATOM     29  C   UNL A   1      33.956  28.927  25.956  1.00  0.00     0.116 C 
BRANCH  29  30
ATOM     30  N   UNL A   1      33.640  30.281  26.379  1.00  0.00    -0.352 N 
ATOM     31  C   UNL A   1      34.219  31.037  27.372  1.00  0.00     0.251 C 
ATOM     32  H   UNL A   1      32.909  30.719  25.885  1.00  0.00     0.163 HD
ATOM     33  O   UNL A   1      33.709  32.096  27.710  1.00  0.00    -0.269 OA
BRANCH  31  34
ATOM     34  C   UNL A   1      35.445  30.547  28.043  1.00  0.00     0.039 A 
ATOM     35  C   UNL A   1      35.327  29.668  29.123  1.00  0.00     0.014 A 
ATOM     36  C   UNL A   1      36.708  30.948  27.600  1.00  0.00     0.014 A 
ATOM     37  C   UNL A   1      36.478  29.144  29.719  1.00  0.00     0.010 A 
ATOM     38  C   UNL A   1      37.849  30.366  28.143  1.00  0.00     0.010 A 
ATOM     39  C   UNL A   1      37.748  29.463  29.214  1.00  0.00    -0.014 A 
BRANCH  39  40
ATOM     40  C   UNL A   1      38.994  28.906  29.804  1.00  0.00     0.031 A 
ATOM     41  C   UNL A   1      39.532  29.491  31.081  1.00  0.00     0.074 A 
ATOM     42  C   UNL A   1      39.680  27.942  29.160  1.00  0.00     0.049 A 
ATOM     43  N   UNL A   1      40.671  29.266  31.684  1.00  0.00    -0.248 NA
ATOM     44  C   UNL A   1      38.685  30.491  31.747  1.00  0.00     0.031 C 
ATOM     45  C   UNL A   1      39.268  27.303  27.909  1.00  0.00     0.029 A 
ATOM     46  N   UNL A   1      40.878  27.341  29.460  1.00  0.00    -0.354 N 
ATOM     47  C   UNL A   1      40.686  30.111  32.790  1.00  0.00     0.074 A 
ATOM     48  C   UNL A   1      39.473  30.900  32.728  1.00  0.00     0.031 C 
ATOM     49  C   UNL A   1      40.188  26.388  27.561  1.00  0.00     0.029 A 
ATOM     50  C   UNL A   1      41.282  26.415  28.526  1.00  0.00     0.049 A 
ATOM     51  H   UNL A   1      41.399  27.553  30.268  1.00  0.00     0.167 HD
ATOM     52  C   UNL A   1      41.614  30.204  33.776  1.00  0.00     0.034 A 
ATOM     53  C   UNL A   1      42.415  25.688  28.447  1.00  0.00     0.034 A 
ATOM     54  C   UNL A   1      42.816  29.407  33.818  1.00  0.00     0.049 A 
ATOM     55  C   UNL A   1      43.466  25.852  29.517  1.00  0.00     0.074 A 
ATOM     56  C   UNL A   1      43.809  29.394  34.781  1.00  0.00     0.029 A 
ATOM     57  N   UNL A   1      43.194  28.487  32.848  1.00  0.00    -0.354 N 
ATOM     58  N   UNL A   1      43.461  26.641  30.567  1.00  0.00    -0.248 NA
ATOM     59  C   UNL A   1      44.672  25.024  29.395  1.00  0.00     0.031 C 
ATOM     60  C   UNL A   1      44.820  28.527  34.358  1.00  0.00     0.029 A 
ATOM     61  C   UNL A   1      44.418  27.924  33.176  1.00  0.00     0.049 A 
ATOM     62  H   UNL A   1      42.670  28.266  32.044  1.00  0.00     0.167 HD
ATOM     63  C   UNL A   1      44.640  26.366  31.255  1.00  0.00     0.074 A 
ATOM     64  C   UNL A   1      45.333  25.345  30.498  1.00  0.00     0.031 C 
ATOM     65  C   UNL A   1      45.099  26.901  32.416  1.00  0.00     0.034 A 
BRANCH  52  66
ATOM     66  C   UNL A   1      41.369  31.230  34.859  1.00  0.00     0.023 A 
ATOM     67  C   UNL A   1      40.289  31.115  35.754  1.00  0.00     0.031 A 
ATOM     68  C   UNL A   1      42.189  32.367  34.967  1.00  0.00     0.131 A 
ATOM     69  C   UNL A   1      39.999  32.162  36.640  1.00  0.00     0.055 A 
ATOM     70  C   UNL A   1      41.953  33.359  35.921  1.00  0.00     0.041 A 
ATOM     71  F   UNL A   1      43.223  32.548  34.130  1.00  0.00    -0.206 F 
ATOM     72  C   UNL A   1      40.839  33.271  36.751  1.00  0.00     0.022 A 
BRANCH  69  73
ATOM     73  S   UNL A   1      38.405  32.140  37.507  1.00  0.00     0.124 S 
ATOM     74  O   UNL A   1      37.739  33.304  36.928  1.00  0.00    -0.237 OA
ATOM     75  O   UNL A   1      37.861  30.840  37.133  1.00  0.00    -0.237 OA
ATOM     76  O   UNL A   1      38.777  32.281  38.914  1.00  0.00    -0.744 OA
ENDBRANCH  69  73
ENDBRANCH  52  66
BRANCH  53  77
ATOM     77  C   UNL A   1      42.625  24.743  27.311  1.00  0.00     0.023 A 
ATOM     78  C   UNL A   1      42.088  23.446  27.346  1.00  0.00     0.031 A 
ATOM     79  C   UNL A   1      43.390  25.109  26.190  1.00  0.00     0.131 A 
ATOM     80  C   UNL A   1      42.359  22.548  26.302  1.00  0.00     0.055 A 
ATOM     81  C   UNL A   1      43.610  24.231  25.127  1.00  0.00     0.041 A 
ATOM     82  F   UNL A   1      43.926  26.336  26.105  1.00  0.00    -0.206 F 
ATOM     83  C   UNL A   1      43.102  22.936  25.185  1.00  0.00     0.022 A 
BRANCH  80  84
ATOM     84  S   UNL A   1      41.793  20.832  26.462  1.00  0.00     0.124 S 
ATOM     85  O   UNL A   1      42.561  20.169  25.415  1.00  0.00    -0.237 OA
ATOM     86  O   UNL A   1      42.170  20.514  27.836  1.00  0.00    -0.237 OA
ATOM     87  O   UNL A   1      40.355  20.924  26.219  1.00  0.00    -0.744 OA
ENDBRANCH  80  84
ENDBRANCH  53  77
BRANCH  65  88
ATOM     88  C   UNL A   1      46.377  26.333  32.987  1.00  0.00     0.023 A 
ATOM     89  C   UNL A   1      46.394  25.190  33.804  1.00  0.00     0.031 A 
ATOM     90  C   UNL A   1      47.606  26.946  32.681  1.00  0.00     0.131 A 
ATOM     91  C   UNL A   1      47.612  24.719  34.319  1.00  0.00     0.055 A 
ATOM     92  C   UNL A   1      48.818  26.438  33.146  1.00  0.00     0.041 A 
ATOM     93  F   UNL A   1      47.648  28.045  31.909  1.00  0.00    -0.206 F 
ATOM     94  C   UNL A   1      48.826  25.323  33.978  1.00  0.00     0.022 A 
BRANCH  91  95
ATOM     95  S   UNL A   1      47.590  23.345  35.504  1.00  0.00     0.124 S 
ATOM     96  O   UNL A   1      48.709  23.682  36.379  1.00  0.00    -0.237 OA
ATOM     97  O   UNL A   1      46.261  23.462  36.095  1.00  0.00    -0.237 OA
ATOM     98  O   UNL A   1      47.792  22.165  34.666  1.00  0.00    -0.744 OA
ENDBRANCH  91  95
ENDBRANCH  65  88
ENDBRANCH  39  40
ENDBRANCH  31  34
ENDBRANCH  29  30
ENDBRANCH  28  29
ENDBRANCH  27  28
ENDBRANCH   1  27
TORSDOF 19
ENDMDL
