MODEL 1
REMARK VINA RESULT:     -11.2      0.000      0.000
REMARK SMILES O=C(NCCCCCCNC(=O)c1cccnc1SCC(=O)c1ccccc1Cl)c1ccc(-c2c3nc(c(-c4cc(S(=O)(=O)[O-])ccc4F)c4ccc([nH]4)c(-c4cc(S(=O)(=O)[O-])ccc4F)c4nc(c(-c5cc(S(=O)(=O)[O-])ccc5F)c5ccc2[nH]5)C=C4)C=C3)cc1
REMARK SMILES IDX 7 1 6 2 5 3 4 4 3 5 1 6 2 7 30 9 31 10 92 11 32 12 91 13
REMARK SMILES IDX 33 14 34 15 35 16 85 17 36 18 90 19 84 20 86 21 37 22 89 23
REMARK SMILES IDX 83 24 82 25 38 27 70 28 50 29 69 30 51 31 54 32 68 33 87 34
REMARK SMILES IDX 52 35 53 36 67 38 88 39 55 40 39 41 40 42 48 43 41 44 47 45
REMARK SMILES IDX 49 46 46 47 42 48 43 49 44 50 45 51 71 52 72 53 80 54 73 55
REMARK SMILES IDX 79 56 81 57 78 58 74 59 75 60 76 61 77 62 56 63 57 64 65 65
REMARK SMILES IDX 58 66 64 67 66 68 63 69 59 70 60 71 61 72 62 73 8 74 9 75
REMARK SMILES IDX 10 76 11 77 12 79 13 80 14 81 18 82 15 83 17 84 16 85 19 86
REMARK SMILES IDX 20 87 21 88 22 89 23 90 24 91 28 92 25 93 27 94 29 95 26 96
REMARK H PARENT 3 8 86 26 54 37 10 78
REMARK Flexibility Score: inf
ROOT
ATOM      1  C   UNL A   1      33.529  29.938  27.200  1.00  0.00     0.002 C 
ENDROOT
BRANCH   1   2
ATOM      2  C   UNL A   1      32.064  30.305  26.951  1.00  0.00     0.002 C 
BRANCH   2   3
ATOM      3  C   UNL A   1      31.719  31.795  26.937  1.00  0.00     0.021 C 
BRANCH   3   4
ATOM      4  C   UNL A   1      32.900  32.756  26.974  1.00  0.00     0.116 C 
BRANCH   4   5
ATOM      5  N   UNL A   1      32.586  34.017  27.620  1.00  0.00    -0.352 N 
ATOM      6  O   UNL A   1      32.641  35.594  29.228  1.00  0.00    -0.269 OA
ATOM      7  C   UNL A   1      33.127  34.568  28.758  1.00  0.00     0.251 C 
ATOM      8  H   UNL A   1      31.887  34.555  27.182  1.00  0.00     0.163 HD
BRANCH   7   9
ATOM      9  C   UNL A   1      34.277  33.918  29.432  1.00  0.00     0.039 A 
ATOM     10  C   UNL A   1      34.087  32.887  30.357  1.00  0.00     0.014 A 
ATOM     11  C   UNL A   1      35.574  34.331  29.107  1.00  0.00     0.014 A 
ATOM     12  C   UNL A   1      35.180  32.353  31.036  1.00  0.00     0.010 A 
ATOM     13  C   UNL A   1      36.675  33.746  29.741  1.00  0.00     0.010 A 
ATOM     14  C   UNL A   1      36.486  32.765  30.727  1.00  0.00    -0.014 A 
BRANCH  14  15
ATOM     15  C   UNL A   1      37.640  32.108  31.395  1.00  0.00     0.031 A 
ATOM     16  C   UNL A   1      38.409  31.008  30.716  1.00  0.00     0.074 A 
ATOM     17  C   UNL A   1      37.997  32.525  32.626  1.00  0.00     0.049 A 
ATOM     18  N   UNL A   1      39.440  30.332  31.154  1.00  0.00    -0.248 NA
ATOM     19  C   UNL A   1      37.957  30.610  29.375  1.00  0.00     0.031 C 
ATOM     20  C   UNL A   1      37.314  33.573  33.388  1.00  0.00     0.029 A 
ATOM     21  N   UNL A   1      39.020  32.131  33.449  1.00  0.00    -0.354 N 
ATOM     22  C   UNL A   1      39.756  29.419  30.153  1.00  0.00     0.074 A 
ATOM     23  C   UNL A   1      38.787  29.614  29.094  1.00  0.00     0.031 C 
ATOM     24  C   UNL A   1      37.955  33.761  34.551  1.00  0.00     0.029 A 
ATOM     25  C   UNL A   1      39.059  32.812  34.643  1.00  0.00     0.049 A 
ATOM     26  H   UNL A   1      39.666  31.428  33.208  1.00  0.00     0.167 HD
ATOM     27  C   UNL A   1      40.761  28.508  30.123  1.00  0.00     0.034 A 
ATOM     28  C   UNL A   1      39.877  32.677  35.705  1.00  0.00     0.034 A 
ATOM     29  C   UNL A   1      41.723  28.331  31.185  1.00  0.00     0.049 A 
ATOM     30  C   UNL A   1      40.971  31.647  35.649  1.00  0.00     0.074 A 
ATOM     31  C   UNL A   1      42.805  27.467  31.234  1.00  0.00     0.029 A 
ATOM     32  N   UNL A   1      41.716  29.021  32.390  1.00  0.00    -0.354 N 
ATOM     33  N   UNL A   1      41.269  30.812  34.682  1.00  0.00    -0.248 NA
ATOM     34  C   UNL A   1      41.841  31.545  36.828  1.00  0.00     0.031 C 
ATOM     35  C   UNL A   1      43.417  27.596  32.486  1.00  0.00     0.029 A 
ATOM     36  C   UNL A   1      42.754  28.583  33.199  1.00  0.00     0.049 A 
ATOM     37  H   UNL A   1      41.067  29.720  32.635  1.00  0.00     0.167 HD
ATOM     38  C   UNL A   1      42.370  30.091  35.132  1.00  0.00     0.074 A 
ATOM     39  C   UNL A   1      42.697  30.608  36.446  1.00  0.00     0.031 C 
ATOM     40  C   UNL A   1      43.052  29.093  34.515  1.00  0.00     0.034 A 
BRANCH  27  41
ATOM     41  C   UNL A   1      40.847  27.604  28.919  1.00  0.00     0.023 A 
ATOM     42  C   UNL A   1      41.810  27.797  27.913  1.00  0.00     0.031 A 
ATOM     43  C   UNL A   1      39.952  26.528  28.779  1.00  0.00     0.131 A 
ATOM     44  C   UNL A   1      41.825  26.957  26.789  1.00  0.00     0.055 A 
ATOM     45  C   UNL A   1      40.011  25.659  27.688  1.00  0.00     0.041 A 
ATOM     46  F   UNL A   1      39.001  26.307  29.700  1.00  0.00    -0.206 F 
ATOM     47  C   UNL A   1      40.945  25.876  26.679  1.00  0.00     0.022 A 
BRANCH  44  48
ATOM     48  S   UNL A   1      42.946  27.354  25.420  1.00  0.00     0.124 S 
ATOM     49  O   UNL A   1      42.196  28.389  24.713  1.00  0.00    -0.237 OA
ATOM     50  O   UNL A   1      44.148  27.801  26.115  1.00  0.00    -0.237 OA
ATOM     51  O   UNL A   1      43.076  26.087  24.702  1.00  0.00    -0.744 OA
ENDBRANCH  44  48
ENDBRANCH  27  41
BRANCH  28  52
ATOM     52  C   UNL A   1      39.671  33.512  36.920  1.00  0.00     0.023 A 
ATOM     53  C   UNL A   1      39.073  32.981  38.072  1.00  0.00     0.031 A 
ATOM     54  C   UNL A   1      40.047  34.867  36.933  1.00  0.00     0.131 A 
ATOM     55  C   UNL A   1      38.834  33.810  39.179  1.00  0.00     0.055 A 
ATOM     56  C   UNL A   1      39.850  35.676  38.052  1.00  0.00     0.041 A 
ATOM     57  F   UNL A   1      40.628  35.420  35.857  1.00  0.00    -0.206 F 
ATOM     58  C   UNL A   1      39.230  35.151  39.181  1.00  0.00     0.022 A 
BRANCH  55  59
ATOM     59  S   UNL A   1      37.926  33.130  40.594  1.00  0.00     0.124 S 
ATOM     60  O   UNL A   1      36.551  33.153  40.107  1.00  0.00    -0.237 OA
ATOM     61  O   UNL A   1      38.535  31.811  40.736  1.00  0.00    -0.237 OA
ATOM     62  O   UNL A   1      38.223  34.070  41.672  1.00  0.00    -0.744 OA
ENDBRANCH  55  59
ENDBRANCH  28  52
BRANCH  40  63
ATOM     63  C   UNL A   1      44.230  28.524  35.260  1.00  0.00     0.023 A 
ATOM     64  C   UNL A   1      44.072  27.502  36.212  1.00  0.00     0.031 A 
ATOM     65  C   UNL A   1      45.520  29.036  35.041  1.00  0.00     0.131 A 
ATOM     66  C   UNL A   1      45.179  27.063  36.953  1.00  0.00     0.055 A 
ATOM     67  C   UNL A   1      46.626  28.559  35.745  1.00  0.00     0.041 A 
ATOM     68  F   UNL A   1      45.724  30.014  34.144  1.00  0.00    -0.206 F 
ATOM     69  C   UNL A   1      46.457  27.576  36.717  1.00  0.00     0.022 A 
BRANCH  66  70
ATOM     70  S   UNL A   1      44.912  25.869  38.293  1.00  0.00     0.124 S 
ATOM     71  O   UNL A   1      46.224  25.831  38.931  1.00  0.00    -0.237 OA
ATOM     72  O   UNL A   1      43.846  26.500  39.065  1.00  0.00    -0.237 OA
ATOM     73  O   UNL A   1      44.528  24.646  37.591  1.00  0.00    -0.744 OA
ENDBRANCH  66  70
ENDBRANCH  40  63
ENDBRANCH  14  15
ENDBRANCH   7   9
ENDBRANCH   4   5
ENDBRANCH   3   4
ENDBRANCH   2   3
ENDBRANCH   1   2
BRANCH   1  74
ATOM     74  C   UNL A   1      34.050  28.654  26.550  1.00  0.00     0.021 C 
BRANCH  74  75
ATOM     75  C   UNL A   1      33.035  27.815  25.783  1.00  0.00     0.116 C 
BRANCH  75  76
ATOM     76  N   UNL A   1      33.492  27.380  24.476  1.00  0.00    -0.352 N 
ATOM     77  C   UNL A   1      32.846  27.578  23.287  1.00  0.00     0.254 C 
ATOM     78  H   UNL A   1      34.350  26.897  24.443  1.00  0.00     0.163 HD
ATOM     79  O   UNL A   1      33.439  27.626  22.211  1.00  0.00    -0.269 OA
BRANCH  77  80
ATOM     80  C   UNL A   1      31.417  27.836  23.278  1.00  0.00     0.072 A 
ATOM     81  C   UNL A   1      31.052  29.192  23.211  1.00  0.00     0.018 A 
ATOM     82  C   UNL A   1      30.438  26.856  23.340  1.00  0.00     0.109 A 
ATOM     83  C   UNL A   1      29.713  29.550  23.241  1.00  0.00     0.021 A 
ATOM     84  N   UNL A   1      29.122  27.223  23.339  1.00  0.00    -0.249 NA
ATOM     85  C   UNL A   1      28.788  28.532  23.300  1.00  0.00     0.112 A 
BRANCH  82  86
ATOM     86  S   UNL A   1      30.545  25.118  23.648  1.00  0.00    -0.097 SA
BRANCH  86  87
ATOM     87  C   UNL A   1      30.652  24.652  25.381  1.00  0.00     0.157 C 
BRANCH  87  88
ATOM     88  C   UNL A   1      31.875  24.216  26.131  1.00  0.00     0.174 C 
ATOM     89  O   UNL A   1      31.732  24.010  27.348  1.00  0.00    -0.293 OA
BRANCH  88  90
ATOM     90  C   UNL A   1      33.153  23.702  25.514  1.00  0.00     0.037 A 
ATOM     91  C   UNL A   1      34.322  24.369  25.963  1.00  0.00     0.013 A 
ATOM     92  C   UNL A   1      33.337  22.662  24.596  1.00  0.00     0.051 A 
ATOM     93  C   UNL A   1      35.604  24.034  25.516  1.00  0.00     0.001 A 
ATOM     94  C   UNL A   1      34.630  22.345  24.128  1.00  0.00     0.021 A 
ATOM     95  Cl  UNL A   1      32.095  21.666  23.954  1.00  0.00    -0.084 Cl
ATOM     96  C   UNL A   1      35.757  23.023  24.584  1.00  0.00     0.002 A 
ENDBRANCH  88  90
ENDBRANCH  87  88
ENDBRANCH  86  87
ENDBRANCH  82  86
ENDBRANCH  77  80
ENDBRANCH  75  76
ENDBRANCH  74  75
ENDBRANCH   1  74
TORSDOF 20
ENDMDL
MODEL 2
REMARK VINA RESULT:     -10.9      3.962      8.916
REMARK SMILES O=C(NCCCCCCNC(=O)c1cccnc1SCC(=O)c1ccccc1Cl)c1ccc(-c2c3nc(c(-c4cc(S(=O)(=O)[O-])ccc4F)c4ccc([nH]4)c(-c4cc(S(=O)(=O)[O-])ccc4F)c4nc(c(-c5cc(S(=O)(=O)[O-])ccc5F)c5ccc2[nH]5)C=C4)C=C3)cc1
REMARK SMILES IDX 7 1 6 2 5 3 4 4 3 5 1 6 2 7 30 9 31 10 92 11 32 12 91 13
REMARK SMILES IDX 33 14 34 15 35 16 85 17 36 18 90 19 84 20 86 21 37 22 89 23
REMARK SMILES IDX 83 24 82 25 38 27 70 28 50 29 69 30 51 31 54 32 68 33 87 34
REMARK SMILES IDX 52 35 53 36 67 38 88 39 55 40 39 41 40 42 48 43 41 44 47 45
REMARK SMILES IDX 49 46 46 47 42 48 43 49 44 50 45 51 71 52 72 53 80 54 73 55
REMARK SMILES IDX 79 56 81 57 78 58 74 59 75 60 76 61 77 62 56 63 57 64 65 65
REMARK SMILES IDX 58 66 64 67 66 68 63 69 59 70 60 71 61 72 62 73 8 74 9 75
REMARK SMILES IDX 10 76 11 77 12 79 13 80 14 81 18 82 15 83 17 84 16 85 19 86
REMARK SMILES IDX 20 87 21 88 22 89 23 90 24 91 28 92 25 93 27 94 29 95 26 96
REMARK H PARENT 3 8 86 26 54 37 10 78
REMARK Flexibility Score: inf
ROOT
ATOM      1  C   UNL A   1      32.564  25.532  26.235  1.00  0.00     0.002 C 
ENDROOT
BRANCH   1   2
ATOM      2  C   UNL A   1      32.410  27.051  26.122  1.00  0.00     0.002 C 
BRANCH   2   3
ATOM      3  C   UNL A   1      33.405  27.906  26.907  1.00  0.00     0.021 C 
BRANCH   3   4
ATOM      4  C   UNL A   1      34.067  29.040  26.136  1.00  0.00     0.116 C 
BRANCH   4   5
ATOM      5  N   UNL A   1      33.791  30.348  26.703  1.00  0.00    -0.352 N 
ATOM      6  O   UNL A   1      34.008  32.076  28.131  1.00  0.00    -0.269 OA
ATOM      7  C   UNL A   1      34.468  31.026  27.690  1.00  0.00     0.251 C 
ATOM      8  H   UNL A   1      33.011  30.817  26.328  1.00  0.00     0.163 HD
BRANCH   7   9
ATOM      9  C   UNL A   1      35.734  30.483  28.240  1.00  0.00     0.039 A 
ATOM     10  C   UNL A   1      35.743  29.670  29.375  1.00  0.00     0.014 A 
ATOM     11  C   UNL A   1      36.936  30.773  27.582  1.00  0.00     0.014 A 
ATOM     12  C   UNL A   1      36.953  29.244  29.917  1.00  0.00     0.010 A 
ATOM     13  C   UNL A   1      38.146  30.288  28.090  1.00  0.00     0.010 A 
ATOM     14  C   UNL A   1      38.167  29.536  29.274  1.00  0.00    -0.014 A 
BRANCH  14  15
ATOM     15  C   UNL A   1      39.436  28.985  29.818  1.00  0.00     0.031 A 
ATOM     16  C   UNL A   1      40.075  29.570  31.047  1.00  0.00     0.074 A 
ATOM     17  C   UNL A   1      40.005  27.935  29.192  1.00  0.00     0.049 A 
ATOM     18  N   UNL A   1      41.176  29.208  31.655  1.00  0.00    -0.248 NA
ATOM     19  C   UNL A   1      39.393  30.713  31.672  1.00  0.00     0.031 C 
ATOM     20  C   UNL A   1      39.483  27.296  27.982  1.00  0.00     0.029 A 
ATOM     21  N   UNL A   1      41.135  27.216  29.485  1.00  0.00    -0.354 N 
ATOM     22  C   UNL A   1      41.331  30.084  32.725  1.00  0.00     0.074 A 
ATOM     23  C   UNL A   1      40.219  31.011  32.666  1.00  0.00     0.031 C 
ATOM     24  C   UNL A   1      40.271  26.262  27.654  1.00  0.00     0.029 A 
ATOM     25  C   UNL A   1      41.383  26.196  28.596  1.00  0.00     0.049 A 
ATOM     26  H   UNL A   1      41.712  27.410  30.258  1.00  0.00     0.167 HD
ATOM     27  C   UNL A   1      42.308  30.107  33.666  1.00  0.00     0.034 A 
ATOM     28  C   UNL A   1      42.402  25.318  28.531  1.00  0.00     0.034 A 
ATOM     29  C   UNL A   1      43.406  29.171  33.714  1.00  0.00     0.049 A 
ATOM     30  C   UNL A   1      43.479  25.379  29.578  1.00  0.00     0.074 A 
ATOM     31  C   UNL A   1      44.424  29.081  34.651  1.00  0.00     0.029 A 
ATOM     32  N   UNL A   1      43.639  28.167  32.783  1.00  0.00    -0.354 N 
ATOM     33  N   UNL A   1      43.593  26.199  30.597  1.00  0.00    -0.248 NA
ATOM     34  C   UNL A   1      44.564  24.394  29.468  1.00  0.00     0.031 C 
ATOM     35  C   UNL A   1      45.299  28.063  34.256  1.00  0.00     0.029 A 
ATOM     36  C   UNL A   1      44.798  27.475  33.105  1.00  0.00     0.049 A 
ATOM     37  H   UNL A   1      43.066  27.976  32.006  1.00  0.00     0.167 HD
ATOM     38  C   UNL A   1      44.757  25.820  31.257  1.00  0.00     0.074 A 
ATOM     39  C   UNL A   1      45.295  24.683  30.534  1.00  0.00     0.031 C 
ATOM     40  C   UNL A   1      45.331  26.361  32.362  1.00  0.00     0.034 A 
BRANCH  27  41
ATOM     41  C   UNL A   1      42.256  31.206  34.698  1.00  0.00     0.023 A 
ATOM     42  C   UNL A   1      42.831  32.467  34.469  1.00  0.00     0.031 A 
ATOM     43  C   UNL A   1      41.614  30.986  35.931  1.00  0.00     0.131 A 
ATOM     44  C   UNL A   1      42.796  33.445  35.475  1.00  0.00     0.055 A 
ATOM     45  C   UNL A   1      41.529  31.983  36.904  1.00  0.00     0.041 A 
ATOM     46  F   UNL A   1      41.062  29.795  36.210  1.00  0.00    -0.206 F 
ATOM     47  C   UNL A   1      42.131  33.219  36.684  1.00  0.00     0.022 A 
BRANCH  44  48
ATOM     48  S   UNL A   1      43.718  34.986  35.224  1.00  0.00     0.124 S 
ATOM     49  O   UNL A   1      44.924  34.505  34.554  1.00  0.00    -0.237 OA
ATOM     50  O   UNL A   1      42.804  35.773  34.404  1.00  0.00    -0.237 OA
ATOM     51  O   UNL A   1      43.926  35.489  36.581  1.00  0.00    -0.744 OA
ENDBRANCH  44  48
ENDBRANCH  27  41
BRANCH  28  52
ATOM     52  C   UNL A   1      42.470  24.332  27.418  1.00  0.00     0.023 A 
ATOM     53  C   UNL A   1      41.687  23.168  27.430  1.00  0.00     0.031 A 
ATOM     54  C   UNL A   1      43.347  24.529  26.336  1.00  0.00     0.131 A 
ATOM     55  C   UNL A   1      41.821  22.227  26.398  1.00  0.00     0.055 A 
ATOM     56  C   UNL A   1      43.443  23.613  25.288  1.00  0.00     0.041 A 
ATOM     57  F   UNL A   1      44.114  25.629  26.276  1.00  0.00    -0.206 F 
ATOM     58  C   UNL A   1      42.685  22.447  25.321  1.00  0.00     0.022 A 
BRANCH  55  59
ATOM     59  S   UNL A   1      40.903  20.667  26.521  1.00  0.00     0.124 S 
ATOM     60  O   UNL A   1      39.604  21.039  25.973  1.00  0.00    -0.237 OA
ATOM     61  O   UNL A   1      41.715  19.775  25.698  1.00  0.00    -0.237 OA
ATOM     62  O   UNL A   1      40.918  20.376  27.953  1.00  0.00    -0.744 OA
ENDBRANCH  55  59
ENDBRANCH  28  52
BRANCH  40  63
ATOM     63  C   UNL A   1      46.592  25.701  32.855  1.00  0.00     0.023 A 
ATOM     64  C   UNL A   1      47.844  25.997  32.289  1.00  0.00     0.031 A 
ATOM     65  C   UNL A   1      46.534  24.737  33.876  1.00  0.00     0.131 A 
ATOM     66  C   UNL A   1      48.983  25.295  32.711  1.00  0.00     0.055 A 
ATOM     67  C   UNL A   1      47.678  24.079  34.327  1.00  0.00     0.041 A 
ATOM     68  F   UNL A   1      45.361  24.417  34.447  1.00  0.00    -0.206 F 
ATOM     69  C   UNL A   1      48.910  24.346  33.735  1.00  0.00     0.022 A 
BRANCH  66  70
ATOM     70  S   UNL A   1      50.550  25.576  31.843  1.00  0.00     0.124 S 
ATOM     71  O   UNL A   1      51.515  25.535  32.937  1.00  0.00    -0.237 OA
ATOM     72  O   UNL A   1      50.596  24.454  30.910  1.00  0.00    -0.237 OA
ATOM     73  O   UNL A   1      50.370  26.887  31.224  1.00  0.00    -0.744 OA
ENDBRANCH  66  70
ENDBRANCH  40  63
ENDBRANCH  14  15
ENDBRANCH   7   9
ENDBRANCH   4   5
ENDBRANCH   3   4
ENDBRANCH   2   3
ENDBRANCH   1   2
BRANCH   1  74
ATOM     74  C   UNL A   1      31.345  24.737  26.710  1.00  0.00     0.021 C 
BRANCH  74  75
ATOM     75  C   UNL A   1      31.456  23.218  26.657  1.00  0.00     0.116 C 
BRANCH  75  76
ATOM     76  N   UNL A   1      32.701  22.696  27.191  1.00  0.00    -0.352 N 
ATOM     77  C   UNL A   1      33.611  21.928  26.519  1.00  0.00     0.254 C 
ATOM     78  H   UNL A   1      32.910  22.917  28.128  1.00  0.00     0.163 HD
ATOM     79  O   UNL A   1      34.804  21.902  26.814  1.00  0.00    -0.269 OA
BRANCH  77  80
ATOM     80  C   UNL A   1      33.194  21.178  25.347  1.00  0.00     0.072 A 
ATOM     81  C   UNL A   1      32.809  19.848  25.590  1.00  0.00     0.018 A 
ATOM     82  C   UNL A   1      33.167  21.684  24.056  1.00  0.00     0.109 A 
ATOM     83  C   UNL A   1      32.436  19.033  24.533  1.00  0.00     0.021 A 
ATOM     84  N   UNL A   1      32.768  20.876  23.029  1.00  0.00    -0.249 NA
ATOM     85  C   UNL A   1      32.426  19.592  23.275  1.00  0.00     0.112 A 
BRANCH  82  86
ATOM     86  S   UNL A   1      33.778  23.200  23.383  1.00  0.00    -0.097 SA
BRANCH  86  87
ATOM     87  C   UNL A   1      32.626  24.092  22.331  1.00  0.00     0.157 C 
BRANCH  87  88
ATOM     88  C   UNL A   1      32.739  25.509  21.854  1.00  0.00     0.174 C 
ATOM     89  O   UNL A   1      33.243  25.675  20.731  1.00  0.00    -0.293 OA
BRANCH  88  90
ATOM     90  C   UNL A   1      32.026  26.700  22.447  1.00  0.00     0.037 A 
ATOM     91  C   UNL A   1      30.692  26.434  22.851  1.00  0.00     0.013 A 
ATOM     92  C   UNL A   1      32.503  27.997  22.670  1.00  0.00     0.051 A 
ATOM     93  C   UNL A   1      29.870  27.405  23.431  1.00  0.00     0.001 A 
ATOM     94  C   UNL A   1      31.659  28.980  23.230  1.00  0.00     0.021 A 
ATOM     95  Cl  UNL A   1      34.093  28.548  22.330  1.00  0.00    -0.084 Cl
ATOM     96  C   UNL A   1      30.353  28.689  23.611  1.00  0.00     0.002 A 
ENDBRANCH  88  90
ENDBRANCH  87  88
ENDBRANCH  86  87
ENDBRANCH  82  86
ENDBRANCH  77  80
ENDBRANCH  75  76
ENDBRANCH  74  75
ENDBRANCH   1  74
TORSDOF 20
ENDMDL
MODEL 3
REMARK VINA RESULT:     -10.8      5.593     11.370
REMARK SMILES O=C(NCCCCCCNC(=O)c1cccnc1SCC(=O)c1ccccc1Cl)c1ccc(-c2c3nc(c(-c4cc(S(=O)(=O)[O-])ccc4F)c4ccc([nH]4)c(-c4cc(S(=O)(=O)[O-])ccc4F)c4nc(c(-c5cc(S(=O)(=O)[O-])ccc5F)c5ccc2[nH]5)C=C4)C=C3)cc1
REMARK SMILES IDX 7 1 6 2 5 3 4 4 3 5 1 6 2 7 30 9 31 10 92 11 32 12 91 13
REMARK SMILES IDX 33 14 34 15 35 16 85 17 36 18 90 19 84 20 86 21 37 22 89 23
REMARK SMILES IDX 83 24 82 25 38 27 70 28 50 29 69 30 51 31 54 32 68 33 87 34
REMARK SMILES IDX 52 35 53 36 67 38 88 39 55 40 39 41 40 42 48 43 41 44 47 45
REMARK SMILES IDX 49 46 46 47 42 48 43 49 44 50 45 51 71 52 72 53 80 54 73 55
REMARK SMILES IDX 79 56 81 57 78 58 74 59 75 60 76 61 77 62 56 63 57 64 65 65
REMARK SMILES IDX 58 66 64 67 66 68 63 69 59 70 60 71 61 72 62 73 8 74 9 75
REMARK SMILES IDX 10 76 11 77 12 79 13 80 14 81 18 82 15 83 17 84 16 85 19 86
REMARK SMILES IDX 20 87 21 88 22 89 23 90 24 91 28 92 25 93 27 94 29 95 26 96
REMARK H PARENT 3 8 86 26 54 37 10 78
REMARK Flexibility Score: inf
ROOT
ATOM      1  C   UNL A   1      37.359  21.726  24.760  1.00  0.00     0.002 C 
ENDROOT
BRANCH   1   2
ATOM      2  C   UNL A   1      37.069  20.223  24.793  1.00  0.00     0.002 C 
BRANCH   2   3
ATOM      3  C   UNL A   1      38.159  19.323  25.376  1.00  0.00     0.021 C 
BRANCH   3   4
ATOM      4  C   UNL A   1      39.462  20.012  25.760  1.00  0.00     0.116 C 
BRANCH   4   5
ATOM      5  N   UNL A   1      40.551  19.080  25.988  1.00  0.00    -0.352 N 
ATOM      6  O   UNL A   1      42.679  18.418  26.315  1.00  0.00    -0.269 OA
ATOM      7  C   UNL A   1      41.869  19.341  26.282  1.00  0.00     0.251 C 
ATOM      8  H   UNL A   1      40.314  18.127  25.923  1.00  0.00     0.163 HD
BRANCH   7   9
ATOM      9  C   UNL A   1      42.320  20.731  26.536  1.00  0.00     0.039 A 
ATOM     10  C   UNL A   1      42.468  21.220  27.836  1.00  0.00     0.014 A 
ATOM     11  C   UNL A   1      42.629  21.551  25.444  1.00  0.00     0.014 A 
ATOM     12  C   UNL A   1      42.811  22.554  28.043  1.00  0.00     0.010 A 
ATOM     13  C   UNL A   1      43.040  22.872  25.656  1.00  0.00     0.010 A 
ATOM     14  C   UNL A   1      43.114  23.392  26.958  1.00  0.00    -0.014 A 
BRANCH  14  15
ATOM     15  C   UNL A   1      43.575  24.782  27.210  1.00  0.00     0.031 A 
ATOM     16  C   UNL A   1      42.639  25.824  27.757  1.00  0.00     0.074 A 
ATOM     17  C   UNL A   1      44.860  25.094  26.949  1.00  0.00     0.049 A 
ATOM     18  N   UNL A   1      42.878  27.080  28.039  1.00  0.00    -0.248 NA
ATOM     19  C   UNL A   1      41.254  25.406  28.016  1.00  0.00     0.031 C 
ATOM     20  C   UNL A   1      45.854  24.167  26.401  1.00  0.00     0.029 A 
ATOM     21  N   UNL A   1      45.554  26.264  27.115  1.00  0.00    -0.354 N 
ATOM     22  C   UNL A   1      41.675  27.608  28.494  1.00  0.00     0.074 A 
ATOM     23  C   UNL A   1      40.700  26.539  28.427  1.00  0.00     0.031 C 
ATOM     24  C   UNL A   1      47.035  24.795  26.306  1.00  0.00     0.029 A 
ATOM     25  C   UNL A   1      46.873  26.180  26.733  1.00  0.00     0.049 A 
ATOM     26  H   UNL A   1      45.148  27.086  27.474  1.00  0.00     0.167 HD
ATOM     27  C   UNL A   1      41.413  28.867  28.929  1.00  0.00     0.034 A 
ATOM     28  C   UNL A   1      47.841  27.116  26.708  1.00  0.00     0.034 A 
ATOM     29  C   UNL A   1      42.398  29.920  28.996  1.00  0.00     0.049 A 
ATOM     30  C   UNL A   1      47.516  28.507  27.180  1.00  0.00     0.074 A 
ATOM     31  C   UNL A   1      42.245  31.217  29.462  1.00  0.00     0.029 A 
ATOM     32  N   UNL A   1      43.717  29.806  28.577  1.00  0.00    -0.354 N 
ATOM     33  N   UNL A   1      46.378  28.979  27.631  1.00  0.00    -0.248 NA
ATOM     34  C   UNL A   1      48.607  29.488  27.141  1.00  0.00     0.031 C 
ATOM     35  C   UNL A   1      43.453  31.898  29.273  1.00  0.00     0.029 A 
ATOM     36  C   UNL A   1      44.379  31.013  28.746  1.00  0.00     0.049 A 
ATOM     37  H   UNL A   1      44.123  28.986  28.213  1.00  0.00     0.167 HD
ATOM     38  C   UNL A   1      46.620  30.313  27.942  1.00  0.00     0.074 A 
ATOM     39  C   UNL A   1      48.018  30.561  27.650  1.00  0.00     0.031 C 
ATOM     40  C   UNL A   1      45.766  31.249  28.427  1.00  0.00     0.034 A 
BRANCH  27  41
ATOM     41  C   UNL A   1      39.993  29.185  29.328  1.00  0.00     0.023 A 
ATOM     42  C   UNL A   1      39.601  29.262  30.675  1.00  0.00     0.031 A 
ATOM     43  C   UNL A   1      39.019  29.420  28.341  1.00  0.00     0.131 A 
ATOM     44  C   UNL A   1      38.259  29.518  30.999  1.00  0.00     0.055 A 
ATOM     45  C   UNL A   1      37.699  29.735  28.670  1.00  0.00     0.041 A 
ATOM     46  F   UNL A   1      39.334  29.342  27.039  1.00  0.00    -0.206 F 
ATOM     47  C   UNL A   1      37.310  29.776  30.006  1.00  0.00     0.022 A 
BRANCH  44  48
ATOM     48  S   UNL A   1      37.748  29.414  32.736  1.00  0.00     0.124 S 
ATOM     49  O   UNL A   1      36.506  30.182  32.726  1.00  0.00    -0.237 OA
ATOM     50  O   UNL A   1      37.606  27.976  32.938  1.00  0.00    -0.237 OA
ATOM     51  O   UNL A   1      38.854  30.038  33.459  1.00  0.00    -0.744 OA
ENDBRANCH  44  48
ENDBRANCH  27  41
BRANCH  28  52
ATOM     52  C   UNL A   1      49.194  26.780  26.188  1.00  0.00     0.023 A 
ATOM     53  C   UNL A   1      49.648  27.288  24.962  1.00  0.00     0.031 A 
ATOM     54  C   UNL A   1      50.045  25.919  26.903  1.00  0.00     0.131 A 
ATOM     55  C   UNL A   1      50.903  26.902  24.468  1.00  0.00     0.055 A 
ATOM     56  C   UNL A   1      51.312  25.574  26.431  1.00  0.00     0.041 A 
ATOM     57  F   UNL A   1      49.660  25.411  28.084  1.00  0.00    -0.206 F 
ATOM     58  C   UNL A   1      51.743  26.058  25.200  1.00  0.00     0.022 A 
BRANCH  55  59
ATOM     59  S   UNL A   1      51.394  27.458  22.813  1.00  0.00     0.124 S 
ATOM     60  O   UNL A   1      52.762  26.962  22.723  1.00  0.00    -0.237 OA
ATOM     61  O   UNL A   1      50.411  26.787  21.967  1.00  0.00    -0.237 OA
ATOM     62  O   UNL A   1      51.260  28.911  22.888  1.00  0.00    -0.744 OA
ENDBRANCH  55  59
ENDBRANCH  28  52
BRANCH  40  63
ATOM     63  C   UNL A   1      46.344  32.615  28.688  1.00  0.00     0.023 A 
ATOM     64  C   UNL A   1      46.350  33.610  27.696  1.00  0.00     0.031 A 
ATOM     65  C   UNL A   1      46.928  32.911  29.931  1.00  0.00     0.131 A 
ATOM     66  C   UNL A   1      46.980  34.838  27.945  1.00  0.00     0.055 A 
ATOM     67  C   UNL A   1      47.509  34.153  30.190  1.00  0.00     0.041 A 
ATOM     68  F   UNL A   1      46.950  31.993  30.911  1.00  0.00    -0.206 F 
ATOM     69  C   UNL A   1      47.549  35.121  29.190  1.00  0.00     0.022 A 
BRANCH  66  70
ATOM     70  S   UNL A   1      47.124  36.035  26.588  1.00  0.00     0.124 S 
ATOM     71  O   UNL A   1      45.725  36.327  26.293  1.00  0.00    -0.237 OA
ATOM     72  O   UNL A   1      47.885  37.117  27.205  1.00  0.00    -0.237 OA
ATOM     73  O   UNL A   1      47.835  35.292  25.550  1.00  0.00    -0.744 OA
ENDBRANCH  66  70
ENDBRANCH  40  63
ENDBRANCH  14  15
ENDBRANCH   7   9
ENDBRANCH   4   5
ENDBRANCH   3   4
ENDBRANCH   2   3
ENDBRANCH   1   2
BRANCH   1  74
ATOM     74  C   UNL A   1      37.019  22.478  23.471  1.00  0.00     0.021 C 
BRANCH  74  75
ATOM     75  C   UNL A   1      35.698  23.238  23.450  1.00  0.00     0.116 C 
BRANCH  75  76
ATOM     76  N   UNL A   1      35.495  24.102  24.599  1.00  0.00    -0.352 N 
ATOM     77  C   UNL A   1      34.396  24.878  24.842  1.00  0.00     0.254 C 
ATOM     78  H   UNL A   1      36.218  24.131  25.267  1.00  0.00     0.163 HD
ATOM     79  O   UNL A   1      34.054  25.207  25.977  1.00  0.00    -0.269 OA
BRANCH  77  80
ATOM     80  C   UNL A   1      33.529  25.263  23.743  1.00  0.00     0.072 A 
ATOM     81  C   UNL A   1      33.943  26.393  23.016  1.00  0.00     0.018 A 
ATOM     82  C   UNL A   1      32.358  24.606  23.394  1.00  0.00     0.109 A 
ATOM     83  C   UNL A   1      33.164  26.870  21.975  1.00  0.00     0.021 A 
ATOM     84  N   UNL A   1      31.615  25.072  22.346  1.00  0.00    -0.249 NA
ATOM     85  C   UNL A   1      32.015  26.174  21.674  1.00  0.00     0.112 A 
BRANCH  82  86
ATOM     86  S   UNL A   1      31.453  23.324  24.208  1.00  0.00    -0.097 SA
BRANCH  86  87
ATOM     87  C   UNL A   1      30.651  23.807  25.743  1.00  0.00     0.157 C 
BRANCH  87  88
ATOM     88  C   UNL A   1      30.000  25.122  26.054  1.00  0.00     0.174 C 
ATOM     89  O   UNL A   1      29.093  25.101  26.903  1.00  0.00    -0.293 OA
BRANCH  88  90
ATOM     90  C   UNL A   1      30.540  26.483  25.688  1.00  0.00     0.037 A 
ATOM     91  C   UNL A   1      31.580  26.941  26.537  1.00  0.00     0.013 A 
ATOM     92  C   UNL A   1      30.175  27.324  24.630  1.00  0.00     0.051 A 
ATOM     93  C   UNL A   1      32.216  28.173  26.357  1.00  0.00     0.001 A 
ATOM     94  C   UNL A   1      30.801  28.579  24.470  1.00  0.00     0.021 A 
ATOM     95  Cl  UNL A   1      28.996  26.971  23.434  1.00  0.00    -0.084 Cl
ATOM     96  C   UNL A   1      31.816  29.002  25.323  1.00  0.00     0.002 A 
ENDBRANCH  88  90
ENDBRANCH  87  88
ENDBRANCH  86  87
ENDBRANCH  82  86
ENDBRANCH  77  80
ENDBRANCH  75  76
ENDBRANCH  74  75
ENDBRANCH   1  74
TORSDOF 20
ENDMDL
