MODEL 1
REMARK VINA RESULT:     -11.6      0.000      0.000
REMARK SMILES O=C(Nc1nc(C2CC2)cs1)N[C@@H]1C=C[C@@H](C(=O)NCCCCCCNC(=O)c2ccc(-c3c4nc(c(-c5cc(S(=O)(=O)[O-])ccc5F)c5ccc([nH]5)c(-c5cc(S(=O)(=O)[O-])ccc5F)c5nc(c(-c6cc(S(=O)(=O)[O-])ccc6F)c6ccc3[nH]6)C=C5)C=C4)cc2)C1
REMARK SMILES IDX 22 1 21 2 20 3 19 4 17 5 18 6 16 8 13 9 14 10 92 11 15 12
REMARK SMILES IDX 12 13 1 14 2 15 3 16 4 19 5 20 11 21 6 22 10 23 7 24 8 25
REMARK SMILES IDX 9 26 23 27 24 28 25 29 26 30 27 31 28 33 29 34 30 35 91 36
REMARK SMILES IDX 31 37 90 38 32 39 33 40 34 41 84 42 35 43 89 44 83 45 85 46
REMARK SMILES IDX 36 47 88 48 82 49 81 50 37 52 69 53 49 54 68 55 50 56 53 57
REMARK SMILES IDX 67 58 86 59 51 60 52 61 66 63 87 64 54 65 38 66 39 67 47 68
REMARK SMILES IDX 40 69 46 70 48 71 45 72 41 73 42 74 43 75 44 76 70 77 71 78
REMARK SMILES IDX 79 79 72 80 78 81 80 82 77 83 73 84 74 85 75 86 76 87 55 88
REMARK SMILES IDX 56 89 64 90 57 91 63 92 65 93 62 94 58 95 59 96 60 97 61 98
REMARK H PARENT 19 7 3 17 12 18 26 32 85 51 53 62
REMARK Flexibility Score: inf
ROOT
ATOM      1  C   UNL A   1      33.938  29.453  26.639  1.00  0.00     0.002 C 
ENDROOT
BRANCH   1   2
ATOM      2  C   UNL A   1      32.760  29.470  25.661  1.00  0.00     0.021 C 
BRANCH   2   3
ATOM      3  C   UNL A   1      33.157  29.229  24.207  1.00  0.00     0.116 C 
BRANCH   3   4
ATOM      4  N   UNL A   1      31.988  29.058  23.364  1.00  0.00    -0.356 N 
ATOM      5  C   UNL A   1      31.365  27.933  22.920  1.00  0.00     0.227 C 
ATOM      6  O   UNL A   1      30.368  28.085  22.207  1.00  0.00    -0.274 OA
ATOM      7  H   UNL A   1      31.576  29.899  23.063  1.00  0.00     0.163 HD
BRANCH   5   8
ATOM      8  C   UNL A   1      31.838  26.524  23.288  1.00  0.00     0.103 C 
ATOM      9  C   UNL A   1      30.798  24.689  24.570  1.00  0.00     0.107 C 
ATOM     10  C   UNL A   1      30.718  24.476  23.089  1.00  0.00    -0.006 C 
ATOM     11  C   UNL A   1      31.485  26.059  24.708  1.00  0.00     0.047 C 
ATOM     12  C   UNL A   1      31.272  25.470  22.390  1.00  0.00    -0.016 C 
BRANCH   9  13
ATOM     13  N   UNL A   1      31.581  23.623  25.129  1.00  0.00    -0.332 N 
ATOM     14  O   UNL A   1      31.180  24.122  27.317  1.00  0.00    -0.248 OA
ATOM     15  C   UNL A   1      31.662  23.378  26.466  1.00  0.00     0.321 C 
ATOM     16  N   UNL A   1      32.207  22.185  26.840  1.00  0.00    -0.284 N 
ATOM     17  H   UNL A   1      32.161  21.942  27.792  1.00  0.00     0.174 HD
ATOM     18  H   UNL A   1      32.084  23.040  24.514  1.00  0.00     0.165 HD
BRANCH  16  19
ATOM     19  C   UNL A   1      32.810  21.304  25.992  1.00  0.00     0.191 A 
ATOM     20  N   UNL A   1      32.249  20.311  25.344  1.00  0.00    -0.225 NA
ATOM     21  S   UNL A   1      34.493  21.486  25.815  1.00  0.00    -0.105 S 
ATOM     22  C   UNL A   1      33.226  19.609  24.672  1.00  0.00     0.057 A 
ATOM     23  C   UNL A   1      34.520  20.037  24.886  1.00  0.00     0.092 A 
BRANCH  22  24
ATOM     24  C   UNL A   1      32.884  18.445  23.753  1.00  0.00     0.039 C 
ATOM     25  C   UNL A   1      33.947  17.410  23.451  1.00  0.00     0.011 C 
ATOM     26  C   UNL A   1      32.823  17.064  24.370  1.00  0.00     0.011 C 
ENDBRANCH  22  24
ENDBRANCH  16  19
ENDBRANCH   9  13
ENDBRANCH   5   8
ENDBRANCH   3   4
ENDBRANCH   2   3
ENDBRANCH   1   2
BRANCH   1  27
ATOM     27  C   UNL A   1      33.964  30.615  27.638  1.00  0.00     0.002 C 
BRANCH  27  28
ATOM     28  C   UNL A   1      33.607  31.982  27.049  1.00  0.00     0.021 C 
BRANCH  28  29
ATOM     29  C   UNL A   1      32.346  32.613  27.629  1.00  0.00     0.116 C 
BRANCH  29  30
ATOM     30  N   UNL A   1      32.494  34.048  27.813  1.00  0.00    -0.352 N 
ATOM     31  C   UNL A   1      33.369  34.732  28.618  1.00  0.00     0.251 C 
ATOM     32  H   UNL A   1      31.880  34.608  27.286  1.00  0.00     0.163 HD
ATOM     33  O   UNL A   1      33.204  35.935  28.815  1.00  0.00    -0.269 OA
BRANCH  31  34
ATOM     34  C   UNL A   1      34.490  34.016  29.262  1.00  0.00     0.039 A 
ATOM     35  C   UNL A   1      35.778  34.165  28.746  1.00  0.00     0.014 A 
ATOM     36  C   UNL A   1      34.271  33.201  30.377  1.00  0.00     0.014 A 
ATOM     37  C   UNL A   1      36.855  33.544  29.383  1.00  0.00     0.010 A 
ATOM     38  C   UNL A   1      35.354  32.649  31.057  1.00  0.00     0.010 A 
ATOM     39  C   UNL A   1      36.658  32.811  30.565  1.00  0.00    -0.014 A 
BRANCH  39  40
ATOM     40  C   UNL A   1      37.801  32.201  31.295  1.00  0.00     0.031 A 
ATOM     41  C   UNL A   1      38.556  31.050  30.687  1.00  0.00     0.074 A 
ATOM     42  C   UNL A   1      38.127  32.650  32.524  1.00  0.00     0.049 A 
ATOM     43  N   UNL A   1      39.534  30.341  31.191  1.00  0.00    -0.248 NA
ATOM     44  C   UNL A   1      38.133  30.621  29.345  1.00  0.00     0.031 C 
ATOM     45  C   UNL A   1      37.450  33.740  33.231  1.00  0.00     0.029 A 
ATOM     46  N   UNL A   1      39.102  32.244  33.399  1.00  0.00    -0.354 N 
ATOM     47  C   UNL A   1      39.840  29.379  30.234  1.00  0.00     0.074 A 
ATOM     48  C   UNL A   1      38.894  29.554  29.151  1.00  0.00     0.031 C 
ATOM     49  C   UNL A   1      38.052  33.936  34.414  1.00  0.00     0.029 A 
ATOM     50  C   UNL A   1      39.118  32.955  34.577  1.00  0.00     0.049 A 
ATOM     51  H   UNL A   1      39.732  31.514  33.203  1.00  0.00     0.167 HD
ATOM     52  C   UNL A   1      40.833  28.455  30.244  1.00  0.00     0.034 A 
ATOM     53  C   UNL A   1      39.895  32.821  35.672  1.00  0.00     0.034 A 
ATOM     54  C   UNL A   1      41.766  28.296  31.332  1.00  0.00     0.049 A 
ATOM     55  C   UNL A   1      40.956  31.748  35.684  1.00  0.00     0.074 A 
ATOM     56  C   UNL A   1      42.834  27.421  31.430  1.00  0.00     0.029 A 
ATOM     57  N   UNL A   1      41.738  29.019  32.519  1.00  0.00    -0.354 N 
ATOM     58  N   UNL A   1      41.262  30.876  34.751  1.00  0.00    -0.248 NA
ATOM     59  C   UNL A   1      41.780  31.648  36.895  1.00  0.00     0.031 C 
ATOM     60  C   UNL A   1      43.399  27.558  32.703  1.00  0.00     0.029 A 
ATOM     61  C   UNL A   1      42.746  28.583  33.367  1.00  0.00     0.049 A 
ATOM     62  H   UNL A   1      41.096  29.735  32.727  1.00  0.00     0.167 HD
ATOM     63  C   UNL A   1      42.341  30.150  35.250  1.00  0.00     0.074 A 
ATOM     64  C   UNL A   1      42.638  30.697  36.558  1.00  0.00     0.031 C 
ATOM     65  C   UNL A   1      43.028  29.129  34.675  1.00  0.00     0.034 A 
BRANCH  52  66
ATOM     66  C   UNL A   1      40.934  27.532  29.051  1.00  0.00     0.023 A 
ATOM     67  C   UNL A   1      41.878  27.743  28.031  1.00  0.00     0.031 A 
ATOM     68  C   UNL A   1      40.053  26.444  28.913  1.00  0.00     0.131 A 
ATOM     69  C   UNL A   1      41.866  26.935  26.884  1.00  0.00     0.055 A 
ATOM     70  C   UNL A   1      40.107  25.587  27.811  1.00  0.00     0.041 A 
ATOM     71  F   UNL A   1      39.114  26.201  29.841  1.00  0.00    -0.206 F 
ATOM     72  C   UNL A   1      41.005  25.841  26.779  1.00  0.00     0.022 A 
BRANCH  69  73
ATOM     73  S   UNL A   1      42.875  27.437  25.463  1.00  0.00     0.124 S 
ATOM     74  O   UNL A   1      42.805  26.248  24.616  1.00  0.00    -0.237 OA
ATOM     75  O   UNL A   1      42.167  28.613  24.973  1.00  0.00    -0.237 OA
ATOM     76  O   UNL A   1      44.188  27.697  26.050  1.00  0.00    -0.744 OA
ENDBRANCH  69  73
ENDBRANCH  52  66
BRANCH  53  77
ATOM     77  C   UNL A   1      39.700  33.711  36.854  1.00  0.00     0.023 A 
ATOM     78  C   UNL A   1      39.094  33.232  38.026  1.00  0.00     0.031 A 
ATOM     79  C   UNL A   1      40.073  35.066  36.813  1.00  0.00     0.131 A 
ATOM     80  C   UNL A   1      38.828  34.112  39.087  1.00  0.00     0.055 A 
ATOM     81  C   UNL A   1      39.864  35.923  37.894  1.00  0.00     0.041 A 
ATOM     82  F   UNL A   1      40.659  35.577  35.717  1.00  0.00    -0.206 F 
ATOM     83  C   UNL A   1      39.224  35.450  39.035  1.00  0.00     0.022 A 
BRANCH  80  84
ATOM     84  S   UNL A   1      37.865  33.505  40.499  1.00  0.00     0.124 S 
ATOM     85  O   UNL A   1      36.633  33.070  39.851  1.00  0.00    -0.237 OA
ATOM     86  O   UNL A   1      38.725  32.447  41.019  1.00  0.00    -0.237 OA
ATOM     87  O   UNL A   1      37.738  34.681  41.356  1.00  0.00    -0.744 OA
ENDBRANCH  80  84
ENDBRANCH  53  77
BRANCH  65  88
ATOM     88  C   UNL A   1      44.206  28.574  35.442  1.00  0.00     0.023 A 
ATOM     89  C   UNL A   1      44.062  27.543  36.387  1.00  0.00     0.031 A 
ATOM     90  C   UNL A   1      45.496  29.095  35.226  1.00  0.00     0.131 A 
ATOM     91  C   UNL A   1      45.175  27.109  37.124  1.00  0.00     0.055 A 
ATOM     92  C   UNL A   1      46.610  28.610  35.911  1.00  0.00     0.041 A 
ATOM     93  F   UNL A   1      45.693  30.083  34.339  1.00  0.00    -0.206 F 
ATOM     94  C   UNL A   1      46.451  27.621  36.877  1.00  0.00     0.022 A 
BRANCH  91  95
ATOM     95  S   UNL A   1      44.917  25.935  38.482  1.00  0.00     0.124 S 
ATOM     96  O   UNL A   1      46.255  25.835  39.056  1.00  0.00    -0.237 OA
ATOM     97  O   UNL A   1      43.922  26.619  39.302  1.00  0.00    -0.237 OA
ATOM     98  O   UNL A   1      44.439  24.730  37.808  1.00  0.00    -0.744 OA
ENDBRANCH  91  95
ENDBRANCH  65  88
ENDBRANCH  39  40
ENDBRANCH  31  34
ENDBRANCH  29  30
ENDBRANCH  28  29
ENDBRANCH  27  28
ENDBRANCH   1  27
TORSDOF 19
ENDMDL
MODEL 2
REMARK VINA RESULT:     -11.4      1.488      7.592
REMARK SMILES O=C(Nc1nc(C2CC2)cs1)N[C@@H]1C=C[C@@H](C(=O)NCCCCCCNC(=O)c2ccc(-c3c4nc(c(-c5cc(S(=O)(=O)[O-])ccc5F)c5ccc([nH]5)c(-c5cc(S(=O)(=O)[O-])ccc5F)c5nc(c(-c6cc(S(=O)(=O)[O-])ccc6F)c6ccc3[nH]6)C=C5)C=C4)cc2)C1
REMARK SMILES IDX 22 1 21 2 20 3 19 4 17 5 18 6 16 8 13 9 14 10 92 11 15 12
REMARK SMILES IDX 12 13 1 14 2 15 3 16 4 19 5 20 11 21 6 22 10 23 7 24 8 25
REMARK SMILES IDX 9 26 23 27 24 28 25 29 26 30 27 31 28 33 29 34 30 35 91 36
REMARK SMILES IDX 31 37 90 38 32 39 33 40 34 41 84 42 35 43 89 44 83 45 85 46
REMARK SMILES IDX 36 47 88 48 82 49 81 50 37 52 69 53 49 54 68 55 50 56 53 57
REMARK SMILES IDX 67 58 86 59 51 60 52 61 66 63 87 64 54 65 38 66 39 67 47 68
REMARK SMILES IDX 40 69 46 70 48 71 45 72 41 73 42 74 43 75 44 76 70 77 71 78
REMARK SMILES IDX 79 79 72 80 78 81 80 82 77 83 73 84 74 85 75 86 76 87 55 88
REMARK SMILES IDX 56 89 64 90 57 91 63 92 65 93 62 94 58 95 59 96 60 97 61 98
REMARK H PARENT 19 7 3 17 12 18 26 32 85 51 53 62
REMARK Flexibility Score: inf
ROOT
ATOM      1  C   UNL A   1      33.893  28.999  26.676  1.00  0.00     0.002 C 
ENDROOT
BRANCH   1   2
ATOM      2  C   UNL A   1      32.774  29.155  25.641  1.00  0.00     0.021 C 
BRANCH   2   3
ATOM      3  C   UNL A   1      33.229  28.945  24.199  1.00  0.00     0.116 C 
BRANCH   3   4
ATOM      4  N   UNL A   1      32.095  28.803  23.306  1.00  0.00    -0.356 N 
ATOM      5  C   UNL A   1      31.474  27.693  22.822  1.00  0.00     0.227 C 
ATOM      6  O   UNL A   1      30.510  27.869  22.069  1.00  0.00    -0.274 OA
ATOM      7  H   UNL A   1      31.708  29.654  22.997  1.00  0.00     0.163 HD
BRANCH   5   8
ATOM      8  C   UNL A   1      31.909  26.273  23.193  1.00  0.00     0.103 C 
ATOM      9  C   UNL A   1      30.856  24.498  24.547  1.00  0.00     0.107 C 
ATOM     10  C   UNL A   1      30.706  24.266  23.074  1.00  0.00    -0.006 C 
ATOM     11  C   UNL A   1      31.599  25.842  24.634  1.00  0.00     0.047 C 
ATOM     12  C   UNL A   1      31.267  25.228  22.337  1.00  0.00    -0.016 C 
BRANCH   9  13
ATOM     13  N   UNL A   1      31.621  23.411  25.090  1.00  0.00    -0.332 N 
ATOM     14  O   UNL A   1      31.452  24.037  27.276  1.00  0.00    -0.248 OA
ATOM     15  C   UNL A   1      31.809  23.224  26.426  1.00  0.00     0.321 C 
ATOM     16  N   UNL A   1      32.313  22.018  26.813  1.00  0.00    -0.284 N 
ATOM     17  H   UNL A   1      32.339  21.824  27.777  1.00  0.00     0.174 HD
ATOM     18  H   UNL A   1      32.030  22.769  24.465  1.00  0.00     0.165 HD
BRANCH  16  19
ATOM     19  C   UNL A   1      32.782  21.062  25.963  1.00  0.00     0.191 A 
ATOM     20  N   UNL A   1      32.109  20.070  25.429  1.00  0.00    -0.225 NA
ATOM     21  S   UNL A   1      34.447  21.136  25.616  1.00  0.00    -0.105 S 
ATOM     22  C   UNL A   1      32.977  19.279  24.708  1.00  0.00     0.057 A 
ATOM     23  C   UNL A   1      34.306  19.642  24.773  1.00  0.00     0.092 A 
BRANCH  22  24
ATOM     24  C   UNL A   1      32.486  18.091  23.893  1.00  0.00     0.039 C 
ATOM     25  C   UNL A   1      32.383  18.224  22.389  1.00  0.00     0.011 C 
ATOM     26  C   UNL A   1      33.485  17.411  22.981  1.00  0.00     0.011 C 
ENDBRANCH  22  24
ENDBRANCH  16  19
ENDBRANCH   9  13
ENDBRANCH   5   8
ENDBRANCH   3   4
ENDBRANCH   2   3
ENDBRANCH   1   2
BRANCH   1  27
ATOM     27  C   UNL A   1      34.163  30.246  27.525  1.00  0.00     0.002 C 
BRANCH  27  28
ATOM     28  C   UNL A   1      33.702  31.566  26.902  1.00  0.00     0.021 C 
BRANCH  28  29
ATOM     29  C   UNL A   1      32.471  32.180  27.559  1.00  0.00     0.116 C 
BRANCH  29  30
ATOM     30  N   UNL A   1      32.576  33.627  27.659  1.00  0.00    -0.352 N 
ATOM     31  C   UNL A   1      33.437  34.383  28.415  1.00  0.00     0.251 C 
ATOM     32  H   UNL A   1      31.941  34.137  27.106  1.00  0.00     0.163 HD
ATOM     33  O   UNL A   1      33.236  35.590  28.544  1.00  0.00    -0.269 OA
BRANCH  31  34
ATOM     34  C   UNL A   1      34.584  33.739  29.089  1.00  0.00     0.039 A 
ATOM     35  C   UNL A   1      34.345  32.878  30.161  1.00  0.00     0.014 A 
ATOM     36  C   UNL A   1      35.893  33.984  28.662  1.00  0.00     0.014 A 
ATOM     37  C   UNL A   1      35.416  32.214  30.766  1.00  0.00     0.010 A 
ATOM     38  C   UNL A   1      36.948  33.262  29.213  1.00  0.00     0.010 A 
ATOM     39  C   UNL A   1      36.723  32.372  30.274  1.00  0.00    -0.014 A 
BRANCH  39  40
ATOM     40  C   UNL A   1      37.864  31.621  30.862  1.00  0.00     0.031 A 
ATOM     41  C   UNL A   1      38.335  31.935  32.256  1.00  0.00     0.074 A 
ATOM     42  C   UNL A   1      38.506  30.694  30.122  1.00  0.00     0.049 A 
ATOM     43  N   UNL A   1      39.351  31.442  32.918  1.00  0.00    -0.248 NA
ATOM     44  C   UNL A   1      37.581  32.962  32.990  1.00  0.00     0.031 C 
ATOM     45  C   UNL A   1      38.161  30.323  28.748  1.00  0.00     0.029 A 
ATOM     46  N   UNL A   1      39.585  29.900  30.417  1.00  0.00    -0.354 N 
ATOM     47  C   UNL A   1      39.362  32.101  34.142  1.00  0.00     0.074 A 
ATOM     48  C   UNL A   1      38.295  33.079  34.099  1.00  0.00     0.031 C 
ATOM     49  C   UNL A   1      38.990  29.352  28.334  1.00  0.00     0.029 A 
ATOM     50  C   UNL A   1      39.959  29.069  29.387  1.00  0.00     0.049 A 
ATOM     51  H   UNL A   1      40.048  29.921  31.287  1.00  0.00     0.167 HD
ATOM     52  C   UNL A   1      40.169  31.893  35.213  1.00  0.00     0.034 A 
ATOM     53  C   UNL A   1      40.977  28.190  29.294  1.00  0.00     0.034 A 
ATOM     54  C   UNL A   1      41.228  30.914  35.237  1.00  0.00     0.049 A 
ATOM     55  C   UNL A   1      41.898  28.016  30.477  1.00  0.00     0.074 A 
ATOM     56  C   UNL A   1      42.080  30.592  36.280  1.00  0.00     0.029 A 
ATOM     57  N   UNL A   1      41.593  30.106  34.166  1.00  0.00    -0.354 N 
ATOM     58  N   UNL A   1      41.867  28.614  31.645  1.00  0.00    -0.248 NA
ATOM     59  C   UNL A   1      42.986  27.041  30.330  1.00  0.00     0.031 C 
ATOM     60  C   UNL A   1      43.006  29.651  35.816  1.00  0.00     0.029 A 
ATOM     61  C   UNL A   1      42.678  29.315  34.513  1.00  0.00     0.049 A 
ATOM     62  H   UNL A   1      41.145  30.098  33.290  1.00  0.00     0.167 HD
ATOM     63  C   UNL A   1      42.909  28.058  32.384  1.00  0.00     0.074 A 
ATOM     64  C   UNL A   1      43.536  27.069  31.534  1.00  0.00     0.031 C 
ATOM     65  C   UNL A   1      43.304  28.336  33.653  1.00  0.00     0.034 A 
BRANCH  52  66
ATOM     66  C   UNL A   1      39.948  32.765  36.428  1.00  0.00     0.023 A 
ATOM     67  C   UNL A   1      39.129  32.352  37.493  1.00  0.00     0.031 A 
ATOM     68  C   UNL A   1      40.539  34.038  36.512  1.00  0.00     0.131 A 
ATOM     69  C   UNL A   1      38.854  33.233  38.550  1.00  0.00     0.055 A 
ATOM     70  C   UNL A   1      40.335  34.875  37.612  1.00  0.00     0.041 A 
ATOM     71  F   UNL A   1      41.315  34.500  35.518  1.00  0.00    -0.206 F 
ATOM     72  C   UNL A   1      39.473  34.482  38.630  1.00  0.00     0.022 A 
BRANCH  69  73
ATOM     73  S   UNL A   1      37.548  32.790  39.728  1.00  0.00     0.124 S 
ATOM     74  O   UNL A   1      36.374  32.734  38.860  1.00  0.00    -0.237 OA
ATOM     75  O   UNL A   1      38.016  31.512  40.251  1.00  0.00    -0.237 OA
ATOM     76  O   UNL A   1      37.556  33.897  40.682  1.00  0.00    -0.744 OA
ENDBRANCH  69  73
ENDBRANCH  52  66
BRANCH  53  77
ATOM     77  C   UNL A   1      41.195  27.410  28.040  1.00  0.00     0.023 A 
ATOM     78  C   UNL A   1      40.909  26.037  27.984  1.00  0.00     0.031 A 
ATOM     79  C   UNL A   1      41.739  28.016  26.893  1.00  0.00     0.131 A 
ATOM     80  C   UNL A   1      41.218  25.304  26.828  1.00  0.00     0.055 A 
ATOM     81  C   UNL A   1      41.986  27.295  25.724  1.00  0.00     0.041 A 
ATOM     82  F   UNL A   1      42.030  29.327  26.889  1.00  0.00    -0.206 F 
ATOM     83  C   UNL A   1      41.739  25.926  25.692  1.00  0.00     0.022 A 
BRANCH  80  84
ATOM     84  S   UNL A   1      41.022  23.501  26.866  1.00  0.00     0.124 S 
ATOM     85  O   UNL A   1      41.883  23.087  25.764  1.00  0.00    -0.237 OA
ATOM     86  O   UNL A   1      41.493  23.173  28.207  1.00  0.00    -0.237 OA
ATOM     87  O   UNL A   1      39.591  23.309  26.645  1.00  0.00    -0.744 OA
ENDBRANCH  80  84
ENDBRANCH  53  77
BRANCH  65  88
ATOM     88  C   UNL A   1      44.442  27.515  34.215  1.00  0.00     0.023 A 
ATOM     89  C   UNL A   1      44.218  26.350  34.971  1.00  0.00     0.031 A 
ATOM     90  C   UNL A   1      45.773  27.913  33.995  1.00  0.00     0.131 A 
ATOM     91  C   UNL A   1      45.305  25.660  35.529  1.00  0.00     0.055 A 
ATOM     92  C   UNL A   1      46.852  27.183  34.494  1.00  0.00     0.041 A 
ATOM     93  F   UNL A   1      46.047  29.019  33.285  1.00  0.00    -0.206 F 
ATOM     94  C   UNL A   1      46.621  26.057  35.279  1.00  0.00     0.022 A 
BRANCH  91  95
ATOM     95  S   UNL A   1      44.974  24.292  36.674  1.00  0.00     0.124 S 
ATOM     96  O   UNL A   1      46.275  24.104  37.306  1.00  0.00    -0.237 OA
ATOM     97  O   UNL A   1      43.925  24.844  37.525  1.00  0.00    -0.237 OA
ATOM     98  O   UNL A   1      44.548  23.205  35.795  1.00  0.00    -0.744 OA
ENDBRANCH  91  95
ENDBRANCH  65  88
ENDBRANCH  39  40
ENDBRANCH  31  34
ENDBRANCH  29  30
ENDBRANCH  28  29
ENDBRANCH  27  28
ENDBRANCH   1  27
TORSDOF 19
ENDMDL
MODEL 3
REMARK VINA RESULT:     -11.1      1.585      2.098
REMARK SMILES O=C(Nc1nc(C2CC2)cs1)N[C@@H]1C=C[C@@H](C(=O)NCCCCCCNC(=O)c2ccc(-c3c4nc(c(-c5cc(S(=O)(=O)[O-])ccc5F)c5ccc([nH]5)c(-c5cc(S(=O)(=O)[O-])ccc5F)c5nc(c(-c6cc(S(=O)(=O)[O-])ccc6F)c6ccc3[nH]6)C=C5)C=C4)cc2)C1
REMARK SMILES IDX 22 1 21 2 20 3 19 4 17 5 18 6 16 8 13 9 14 10 92 11 15 12
REMARK SMILES IDX 12 13 1 14 2 15 3 16 4 19 5 20 11 21 6 22 10 23 7 24 8 25
REMARK SMILES IDX 9 26 23 27 24 28 25 29 26 30 27 31 28 33 29 34 30 35 91 36
REMARK SMILES IDX 31 37 90 38 32 39 33 40 34 41 84 42 35 43 89 44 83 45 85 46
REMARK SMILES IDX 36 47 88 48 82 49 81 50 37 52 69 53 49 54 68 55 50 56 53 57
REMARK SMILES IDX 67 58 86 59 51 60 52 61 66 63 87 64 54 65 38 66 39 67 47 68
REMARK SMILES IDX 40 69 46 70 48 71 45 72 41 73 42 74 43 75 44 76 70 77 71 78
REMARK SMILES IDX 79 79 72 80 78 81 80 82 77 83 73 84 74 85 75 86 76 87 55 88
REMARK SMILES IDX 56 89 64 90 57 91 63 92 65 93 62 94 58 95 59 96 60 97 61 98
REMARK H PARENT 19 7 3 17 12 18 26 32 85 51 53 62
REMARK Flexibility Score: inf
ROOT
ATOM      1  C   UNL A   1      34.019  28.511  25.263  1.00  0.00     0.002 C 
ENDROOT
BRANCH   1   2
ATOM      2  C   UNL A   1      33.456  29.493  24.230  1.00  0.00     0.021 C 
BRANCH   2   3
ATOM      3  C   UNL A   1      33.352  28.918  22.820  1.00  0.00     0.116 C 
BRANCH   3   4
ATOM      4  N   UNL A   1      31.970  28.675  22.452  1.00  0.00    -0.356 N 
ATOM      5  C   UNL A   1      31.200  27.560  22.566  1.00  0.00     0.227 C 
ATOM      6  O   UNL A   1      30.032  27.638  22.170  1.00  0.00    -0.274 OA
ATOM      7  H   UNL A   1      31.512  29.449  22.052  1.00  0.00     0.163 HD
BRANCH   5   8
ATOM      8  C   UNL A   1      31.717  26.255  23.177  1.00  0.00     0.103 C 
ATOM      9  C   UNL A   1      30.773  24.692  24.837  1.00  0.00     0.107 C 
ATOM     10  C   UNL A   1      30.631  24.194  23.432  1.00  0.00    -0.006 C 
ATOM     11  C   UNL A   1      31.438  26.070  24.675  1.00  0.00     0.047 C 
ATOM     12  C   UNL A   1      31.133  25.040  22.528  1.00  0.00    -0.016 C 
BRANCH   9  13
ATOM     13  N   UNL A   1      31.602  23.763  25.554  1.00  0.00    -0.332 N 
ATOM     14  O   UNL A   1      30.169  23.420  27.293  1.00  0.00    -0.248 OA
ATOM     15  C   UNL A   1      31.210  23.143  26.702  1.00  0.00     0.321 C 
ATOM     16  N   UNL A   1      31.969  22.093  27.123  1.00  0.00    -0.284 N 
ATOM     17  H   UNL A   1      31.631  21.560  27.878  1.00  0.00     0.174 HD
ATOM     18  H   UNL A   1      32.498  23.564  25.197  1.00  0.00     0.165 HD
BRANCH  16  19
ATOM     19  C   UNL A   1      33.160  21.723  26.574  1.00  0.00     0.191 A 
ATOM     20  N   UNL A   1      34.306  22.358  26.654  1.00  0.00    -0.225 NA
ATOM     21  S   UNL A   1      33.129  20.310  25.626  1.00  0.00    -0.105 S 
ATOM     22  C   UNL A   1      35.236  21.698  25.880  1.00  0.00     0.057 A 
ATOM     23  C   UNL A   1      34.759  20.620  25.165  1.00  0.00     0.092 A 
BRANCH  22  24
ATOM     24  C   UNL A   1      36.692  22.139  25.833  1.00  0.00     0.039 C 
ATOM     25  C   UNL A   1      37.310  22.494  24.497  1.00  0.00     0.011 C 
ATOM     26  C   UNL A   1      36.972  23.580  25.462  1.00  0.00     0.011 C 
ENDBRANCH  22  24
ENDBRANCH  16  19
ENDBRANCH   9  13
ENDBRANCH   5   8
ENDBRANCH   3   4
ENDBRANCH   2   3
ENDBRANCH   1   2
BRANCH   1  27
ATOM     27  C   UNL A   1      34.032  29.030  26.705  1.00  0.00     0.002 C 
BRANCH  27  28
ATOM     28  C   UNL A   1      33.955  30.552  26.846  1.00  0.00     0.021 C 
BRANCH  28  29
ATOM     29  C   UNL A   1      32.595  31.078  27.290  1.00  0.00     0.116 C 
BRANCH  29  30
ATOM     30  N   UNL A   1      32.523  32.529  27.210  1.00  0.00    -0.352 N 
ATOM     31  C   UNL A   1      33.237  33.470  27.907  1.00  0.00     0.251 C 
ATOM     32  H   UNL A   1      31.871  32.885  26.566  1.00  0.00     0.163 HD
ATOM     33  O   UNL A   1      32.889  34.650  27.872  1.00  0.00    -0.269 OA
BRANCH  31  34
ATOM     34  C   UNL A   1      34.405  33.060  28.716  1.00  0.00     0.039 A 
ATOM     35  C   UNL A   1      34.196  32.539  29.994  1.00  0.00     0.014 A 
ATOM     36  C   UNL A   1      35.703  33.186  28.212  1.00  0.00     0.014 A 
ATOM     37  C   UNL A   1      35.286  32.089  30.743  1.00  0.00     0.010 A 
ATOM     38  C   UNL A   1      36.778  32.664  28.927  1.00  0.00     0.010 A 
ATOM     39  C   UNL A   1      36.582  32.113  30.202  1.00  0.00    -0.014 A 
BRANCH  39  40
ATOM     40  C   UNL A   1      37.744  31.575  30.959  1.00  0.00     0.031 A 
ATOM     41  C   UNL A   1      38.588  30.479  30.366  1.00  0.00     0.074 A 
ATOM     42  C   UNL A   1      38.007  32.037  32.198  1.00  0.00     0.049 A 
ATOM     43  N   UNL A   1      39.596  29.832  30.893  1.00  0.00    -0.248 NA
ATOM     44  C   UNL A   1      38.229  30.032  29.012  1.00  0.00     0.031 C 
ATOM     45  C   UNL A   1      37.243  33.076  32.891  1.00  0.00     0.029 A 
ATOM     46  N   UNL A   1      38.983  31.690  33.097  1.00  0.00    -0.354 N 
ATOM     47  C   UNL A   1      39.989  28.898  29.940  1.00  0.00     0.074 A 
ATOM     48  C   UNL A   1      39.062  29.018  28.834  1.00  0.00     0.031 C 
ATOM     49  C   UNL A   1      37.800  33.304  34.091  1.00  0.00     0.029 A 
ATOM     50  C   UNL A   1      38.923  32.393  34.278  1.00  0.00     0.049 A 
ATOM     51  H   UNL A   1      39.665  31.003  32.914  1.00  0.00     0.167 HD
ATOM     52  C   UNL A   1      41.039  28.041  29.972  1.00  0.00     0.034 A 
ATOM     53  C   UNL A   1      39.678  32.303  35.392  1.00  0.00     0.034 A 
ATOM     54  C   UNL A   1      41.952  27.936  31.084  1.00  0.00     0.049 A 
ATOM     55  C   UNL A   1      40.806  31.301  35.428  1.00  0.00     0.074 A 
ATOM     56  C   UNL A   1      43.072  27.131  31.206  1.00  0.00     0.029 A 
ATOM     57  N   UNL A   1      41.846  28.648  32.273  1.00  0.00    -0.354 N 
ATOM     58  N   UNL A   1      41.193  30.457  34.499  1.00  0.00    -0.248 NA
ATOM     59  C   UNL A   1      41.603  31.248  36.659  1.00  0.00     0.031 C 
ATOM     60  C   UNL A   1      43.594  27.298  32.494  1.00  0.00     0.029 A 
ATOM     61  C   UNL A   1      42.858  28.273  33.145  1.00  0.00     0.049 A 
ATOM     62  H   UNL A   1      41.154  29.320  32.467  1.00  0.00     0.167 HD
ATOM     63  C   UNL A   1      42.303  29.799  35.024  1.00  0.00     0.074 A 
ATOM     64  C   UNL A   1      42.530  30.357  36.341  1.00  0.00     0.031 C 
ATOM     65  C   UNL A   1      43.070  28.829  34.463  1.00  0.00     0.034 A 
BRANCH  52  66
ATOM     66  C   UNL A   1      41.231  27.133  28.778  1.00  0.00     0.023 A 
ATOM     67  C   UNL A   1      42.256  27.352  27.841  1.00  0.00     0.031 A 
ATOM     68  C   UNL A   1      40.359  26.053  28.554  1.00  0.00     0.131 A 
ATOM     69  C   UNL A   1      42.332  26.560  26.685  1.00  0.00     0.055 A 
ATOM     70  C   UNL A   1      40.497  25.210  27.448  1.00  0.00     0.041 A 
ATOM     71  F   UNL A   1      39.346  25.803  29.400  1.00  0.00    -0.206 F 
ATOM     72  C   UNL A   1      41.476  25.473  26.496  1.00  0.00     0.022 A 
BRANCH  69  73
ATOM     73  S   UNL A   1      43.456  27.074  25.358  1.00  0.00     0.124 S 
ATOM     74  O   UNL A   1      43.870  25.786  24.806  1.00  0.00    -0.237 OA
ATOM     75  O   UNL A   1      42.591  27.885  24.509  1.00  0.00    -0.237 OA
ATOM     76  O   UNL A   1      44.506  27.807  26.063  1.00  0.00    -0.744 OA
ENDBRANCH  69  73
ENDBRANCH  52  66
BRANCH  53  77
ATOM     77  C   UNL A   1      39.395  33.172  36.573  1.00  0.00     0.023 A 
ATOM     78  C   UNL A   1      40.062  34.395  36.745  1.00  0.00     0.031 A 
ATOM     79  C   UNL A   1      38.490  32.770  37.571  1.00  0.00     0.131 A 
ATOM     80  C   UNL A   1      39.857  35.146  37.913  1.00  0.00     0.055 A 
ATOM     81  C   UNL A   1      38.242  33.550  38.701  1.00  0.00     0.041 A 
ATOM     82  F   UNL A   1      37.823  31.609  37.457  1.00  0.00    -0.206 F 
ATOM     83  C   UNL A   1      38.939  34.740  38.884  1.00  0.00     0.022 A 
BRANCH  80  84
ATOM     84  S   UNL A   1      40.883  36.615  38.192  1.00  0.00     0.124 S 
ATOM     85  O   UNL A   1      41.017  37.144  36.840  1.00  0.00    -0.237 OA
ATOM     86  O   UNL A   1      40.056  37.393  39.107  1.00  0.00    -0.237 OA
ATOM     87  O   UNL A   1      42.108  36.069  38.772  1.00  0.00    -0.744 OA
ENDBRANCH  80  84
ENDBRANCH  53  77
BRANCH  65  88
ATOM     88  C   UNL A   1      44.261  28.347  35.258  1.00  0.00     0.023 A 
ATOM     89  C   UNL A   1      44.149  27.340  36.232  1.00  0.00     0.031 A 
ATOM     90  C   UNL A   1      45.530  28.915  35.039  1.00  0.00     0.131 A 
ATOM     91  C   UNL A   1      45.271  26.975  36.993  1.00  0.00     0.055 A 
ATOM     92  C   UNL A   1      46.656  28.498  35.750  1.00  0.00     0.041 A 
ATOM     93  F   UNL A   1      45.697  29.884  34.125  1.00  0.00    -0.206 F 
ATOM     94  C   UNL A   1      46.527  27.532  36.744  1.00  0.00     0.022 A 
BRANCH  91  95
ATOM     95  S   UNL A   1      45.046  25.832  38.383  1.00  0.00     0.124 S 
ATOM     96  O   UNL A   1      46.389  25.780  38.953  1.00  0.00    -0.237 OA
ATOM     97  O   UNL A   1      44.038  26.513  39.189  1.00  0.00    -0.237 OA
ATOM     98  O   UNL A   1      44.596  24.597  37.744  1.00  0.00    -0.744 OA
ENDBRANCH  91  95
ENDBRANCH  65  88
ENDBRANCH  39  40
ENDBRANCH  31  34
ENDBRANCH  29  30
ENDBRANCH  28  29
ENDBRANCH  27  28
ENDBRANCH   1  27
TORSDOF 19
ENDMDL
