MODEL 1
REMARK VINA RESULT:     -12.3      0.000      0.000
REMARK SMILES O=C(NCCCCCCNC(=O)[C@@H]1CN(c2nccc(N3CCC(O)CC3)n2)CC[NH2+]1)c1ccc(-c2c3nc(c(-c4cc(S(=O)(=O)[O-])ccc4F)c4ccc([nH]4)c(-c4cc(S(=O)(=O)[O-])ccc4F)c4nc(c(-c5cc(S(=O)(=O)[O-])ccc5F)c5ccc2[nH]5)C=C4)C=C3)cc1
REMARK SMILES IDX 6 1 5 2 4 3 3 4 1 5 2 6 32 8 33 9 94 10 34 11 93 12 35 13
REMARK SMILES IDX 36 14 37 15 87 16 38 17 92 18 86 19 88 20 39 21 91 22 85 23
REMARK SMILES IDX 84 24 40 26 72 27 52 28 71 29 53 30 56 31 70 32 89 33 54 34
REMARK SMILES IDX 55 35 69 37 90 38 57 39 41 40 42 41 50 42 43 43 49 44 51 45
REMARK SMILES IDX 48 46 44 47 45 48 46 49 47 50 73 51 74 52 82 53 75 54 81 55
REMARK SMILES IDX 83 56 80 57 76 58 77 59 78 60 79 61 58 62 59 63 67 64 60 65
REMARK SMILES IDX 66 66 68 67 65 68 61 69 62 70 63 71 64 72 7 73 8 74 9 75
REMARK SMILES IDX 10 76 11 77 12 79 13 80 14 81 31 82 15 83 30 84 29 87 16 88
REMARK SMILES IDX 17 89 28 90 18 91 20 92 19 93 21 94 22 95 27 96 23 97 26 98
REMARK SMILES IDX 24 99 25 100
REMARK H PARENT 3 7 88 25 56 36 10 78 31 85 31 86 25 101
REMARK Flexibility Score: inf
ROOT
ATOM      1  C   UNL A   1      30.916  28.580  23.830  1.00  0.00     0.002 C 
ENDROOT
BRANCH   1   2
ATOM      2  C   UNL A   1      31.422  28.580  25.274  1.00  0.00     0.021 C 
BRANCH   2   3
ATOM      3  C   UNL A   1      32.622  29.487  25.516  1.00  0.00     0.116 C 
BRANCH   3   4
ATOM      4  N   UNL A   1      32.216  30.843  25.847  1.00  0.00    -0.352 N 
ATOM      5  O   UNL A   1      32.064  32.684  27.137  1.00  0.00    -0.269 OA
ATOM      6  C   UNL A   1      32.667  31.657  26.859  1.00  0.00     0.251 C 
ATOM      7  H   UNL A   1      31.523  31.232  25.266  1.00  0.00     0.163 HD
BRANCH   6   8
ATOM      8  C   UNL A   1      33.881  31.271  27.609  1.00  0.00     0.039 A 
ATOM      9  C   UNL A   1      34.809  32.242  27.992  1.00  0.00     0.014 A 
ATOM     10  C   UNL A   1      34.086  29.930  27.939  1.00  0.00     0.014 A 
ATOM     11  C   UNL A   1      36.003  31.860  28.590  1.00  0.00     0.010 A 
ATOM     12  C   UNL A   1      35.247  29.558  28.623  1.00  0.00     0.010 A 
ATOM     13  C   UNL A   1      36.223  30.517  28.937  1.00  0.00    -0.014 A 
BRANCH  13  14
ATOM     14  C   UNL A   1      37.450  30.154  29.691  1.00  0.00     0.031 A 
ATOM     15  C   UNL A   1      38.509  29.281  29.081  1.00  0.00     0.074 A 
ATOM     16  C   UNL A   1      37.603  30.642  30.938  1.00  0.00     0.049 A 
ATOM     17  N   UNL A   1      39.627  28.853  29.606  1.00  0.00    -0.248 NA
ATOM     18  C   UNL A   1      38.275  28.820  27.704  1.00  0.00     0.031 C 
ATOM     19  C   UNL A   1      36.637  31.502  31.628  1.00  0.00     0.029 A 
ATOM     20  N   UNL A   1      38.623  30.501  31.842  1.00  0.00    -0.354 N 
ATOM     21  C   UNL A   1      40.230  28.062  28.635  1.00  0.00     0.074 A 
ATOM     22  C   UNL A   1      39.329  28.041  27.499  1.00  0.00     0.031 C 
ATOM     23  C   UNL A   1      37.129  31.845  32.826  1.00  0.00     0.029 A 
ATOM     24  C   UNL A   1      38.403  31.166  33.027  1.00  0.00     0.049 A 
ATOM     25  H   UNL A   1      39.436  29.974  31.663  1.00  0.00     0.167 HD
ATOM     26  C   UNL A   1      41.426  27.422  28.686  1.00  0.00     0.034 A 
ATOM     27  C   UNL A   1      39.127  31.201  34.161  1.00  0.00     0.034 A 
ATOM     28  C   UNL A   1      42.302  27.451  29.835  1.00  0.00     0.049 A 
ATOM     29  C   UNL A   1      40.417  30.429  34.215  1.00  0.00     0.074 A 
ATOM     30  C   UNL A   1      43.544  26.858  29.988  1.00  0.00     0.029 A 
ATOM     31  N   UNL A   1      42.024  28.095  31.036  1.00  0.00    -0.354 N 
ATOM     32  N   UNL A   1      40.981  29.698  33.281  1.00  0.00    -0.248 NA
ATOM     33  C   UNL A   1      41.169  30.489  35.472  1.00  0.00     0.031 C 
ATOM     34  C   UNL A   1      43.979  27.077  31.299  1.00  0.00     0.029 A 
ATOM     35  C   UNL A   1      43.053  27.884  31.942  1.00  0.00     0.049 A 
ATOM     36  H   UNL A   1      41.214  28.624  31.217  1.00  0.00     0.167 HD
ATOM     37  C   UNL A   1      42.169  29.231  33.833  1.00  0.00     0.074 A 
ATOM     38  C   UNL A   1      42.248  29.781  35.171  1.00  0.00     0.031 C 
ATOM     39  C   UNL A   1      43.112  28.424  33.281  1.00  0.00     0.034 A 
BRANCH  26  40
ATOM     40  C   UNL A   1      41.829  26.601  27.483  1.00  0.00     0.023 A 
ATOM     41  C   UNL A   1      41.542  25.228  27.391  1.00  0.00     0.031 A 
ATOM     42  C   UNL A   1      42.532  27.196  26.418  1.00  0.00     0.131 A 
ATOM     43  C   UNL A   1      42.016  24.481  26.300  1.00  0.00     0.055 A 
ATOM     44  C   UNL A   1      42.928  26.466  25.296  1.00  0.00     0.041 A 
ATOM     45  F   UNL A   1      42.855  28.498  26.455  1.00  0.00    -0.206 F 
ATOM     46  C   UNL A   1      42.685  25.097  25.239  1.00  0.00     0.022 A 
BRANCH  43  47
ATOM     47  S   UNL A   1      41.874  22.674  26.361  1.00  0.00     0.124 S 
ATOM     48  O   UNL A   1      40.426  22.484  26.292  1.00  0.00    -0.237 OA
ATOM     49  O   UNL A   1      42.625  22.255  25.182  1.00  0.00    -0.237 OA
ATOM     50  O   UNL A   1      42.480  22.324  27.644  1.00  0.00    -0.744 OA
ENDBRANCH  43  47
ENDBRANCH  26  40
BRANCH  27  51
ATOM     51  C   UNL A   1      38.630  31.959  35.344  1.00  0.00     0.023 A 
ATOM     52  C   UNL A   1      38.177  31.294  36.493  1.00  0.00     0.031 A 
ATOM     53  C   UNL A   1      38.579  33.366  35.332  1.00  0.00     0.131 A 
ATOM     54  C   UNL A   1      37.653  32.032  37.565  1.00  0.00     0.055 A 
ATOM     55  C   UNL A   1      38.114  34.098  36.424  1.00  0.00     0.041 A 
ATOM     56  F   UNL A   1      39.004  34.052  34.258  1.00  0.00    -0.206 F 
ATOM     57  C   UNL A   1      37.634  33.429  37.545  1.00  0.00     0.022 A 
BRANCH  54  58
ATOM     58  S   UNL A   1      36.914  31.133  38.955  1.00  0.00     0.124 S 
ATOM     59  O   UNL A   1      36.757  29.797  38.394  1.00  0.00    -0.237 OA
ATOM     60  O   UNL A   1      37.935  31.281  39.987  1.00  0.00    -0.237 OA
ATOM     61  O   UNL A   1      35.669  31.858  39.204  1.00  0.00    -0.744 OA
ENDBRANCH  54  58
ENDBRANCH  27  51
BRANCH  39  62
ATOM     62  C   UNL A   1      44.332  28.130  34.122  1.00  0.00     0.023 A 
ATOM     63  C   UNL A   1      44.397  27.012  34.971  1.00  0.00     0.031 A 
ATOM     64  C   UNL A   1      45.437  28.999  34.087  1.00  0.00     0.131 A 
ATOM     65  C   UNL A   1      45.517  26.825  35.795  1.00  0.00     0.055 A 
ATOM     66  C   UNL A   1      46.576  28.772  34.858  1.00  0.00     0.041 A 
ATOM     67  F   UNL A   1      45.427  30.087  33.299  1.00  0.00    -0.206 F 
ATOM     68  C   UNL A   1      46.615  27.687  35.730  1.00  0.00     0.022 A 
BRANCH  65  69
ATOM     69  S   UNL A   1      45.478  25.498  37.030  1.00  0.00     0.124 S 
ATOM     70  O   UNL A   1      46.829  24.953  36.930  1.00  0.00    -0.237 OA
ATOM     71  O   UNL A   1      45.176  26.224  38.259  1.00  0.00    -0.237 OA
ATOM     72  O   UNL A   1      44.416  24.616  36.553  1.00  0.00    -0.744 OA
ENDBRANCH  65  69
ENDBRANCH  39  62
ENDBRANCH  13  14
ENDBRANCH   6   8
ENDBRANCH   3   4
ENDBRANCH   2   3
ENDBRANCH   1   2
BRANCH   1  73
ATOM     73  C   UNL A   1      29.986  27.416  23.465  1.00  0.00     0.002 C 
BRANCH  73  74
ATOM     74  C   UNL A   1      30.341  26.071  24.110  1.00  0.00     0.021 C 
BRANCH  74  75
ATOM     75  C   UNL A   1      30.577  24.951  23.101  1.00  0.00     0.116 C 
BRANCH  75  76
ATOM     76  N   UNL A   1      31.512  25.361  22.066  1.00  0.00    -0.351 N 
ATOM     77  C   UNL A   1      32.859  25.485  21.952  1.00  0.00     0.280 C 
ATOM     78  H   UNL A   1      31.050  25.614  21.235  1.00  0.00     0.163 HD
ATOM     79  O   UNL A   1      33.234  25.874  20.834  1.00  0.00    -0.268 OA
BRANCH  77  80
ATOM     80  C   UNL A   1      33.911  25.214  23.061  1.00  0.00     0.292 C 
ATOM     81  C   UNL A   1      34.208  23.747  23.377  1.00  0.00     0.195 C 
ATOM     82  N   UNL A   1      33.538  25.994  24.294  1.00  0.00    -0.333 N 
ATOM     83  N   UNL A   1      35.187  23.621  24.455  1.00  0.00    -0.329 N 
ATOM     84  C   UNL A   1      34.560  25.782  25.347  1.00  0.00     0.283 C 
ATOM     85  H   UNL A   1      32.630  25.676  24.634  1.00  0.00     0.347 HD
ATOM     86  H   UNL A   1      33.489  26.986  24.064  1.00  0.00     0.347 HD
ATOM     87  C   UNL A   1      34.825  24.292  25.689  1.00  0.00     0.181 C 
BRANCH  83  88
ATOM     88  C   UNL A   1      35.768  22.375  24.475  1.00  0.00     0.227 A 
ATOM     89  N   UNL A   1      37.097  22.248  24.445  1.00  0.00    -0.221 NA
ATOM     90  N   UNL A   1      34.922  21.347  24.643  1.00  0.00    -0.196 NA
ATOM     91  C   UNL A   1      37.572  21.006  24.665  1.00  0.00     0.119 A 
ATOM     92  C   UNL A   1      35.414  20.114  24.830  1.00  0.00     0.134 A 
ATOM     93  C   UNL A   1      36.773  19.907  24.885  1.00  0.00     0.067 A 
BRANCH  92  94
ATOM     94  N   UNL A   1      34.517  19.070  24.910  1.00  0.00    -0.356 N 
ATOM     95  C   UNL A   1      33.080  19.300  24.978  1.00  0.00     0.121 C 
ATOM     96  C   UNL A   1      35.003  17.725  24.629  1.00  0.00     0.121 C 
ATOM     97  C   UNL A   1      32.392  18.711  23.740  1.00  0.00     0.053 C 
ATOM     98  C   UNL A   1      34.365  17.174  23.363  1.00  0.00     0.053 C 
ATOM     99  C   UNL A   1      32.845  17.285  23.422  1.00  0.00     0.118 C 
BRANCH  99 100
ATOM    100  O   UNL A   1      32.326  16.343  24.363  1.00  0.00    -0.393 OA
ATOM    101  H   UNL A   1      31.577  15.870  23.968  1.00  0.00     0.210 HD
ENDBRANCH  99 100
ENDBRANCH  92  94
ENDBRANCH  83  88
ENDBRANCH  77  80
ENDBRANCH  75  76
ENDBRANCH  74  75
ENDBRANCH  73  74
ENDBRANCH   1  73
TORSDOF 19
ENDMDL
MODEL 2
REMARK VINA RESULT:     -12.2      5.735     11.420
REMARK SMILES O=C(NCCCCCCNC(=O)[C@@H]1CN(c2nccc(N3CCC(O)CC3)n2)CC[NH2+]1)c1ccc(-c2c3nc(c(-c4cc(S(=O)(=O)[O-])ccc4F)c4ccc([nH]4)c(-c4cc(S(=O)(=O)[O-])ccc4F)c4nc(c(-c5cc(S(=O)(=O)[O-])ccc5F)c5ccc2[nH]5)C=C4)C=C3)cc1
REMARK SMILES IDX 6 1 5 2 4 3 3 4 1 5 2 6 32 8 33 9 94 10 34 11 93 12 35 13
REMARK SMILES IDX 36 14 37 15 87 16 38 17 92 18 86 19 88 20 39 21 91 22 85 23
REMARK SMILES IDX 84 24 40 26 72 27 52 28 71 29 53 30 56 31 70 32 89 33 54 34
REMARK SMILES IDX 55 35 69 37 90 38 57 39 41 40 42 41 50 42 43 43 49 44 51 45
REMARK SMILES IDX 48 46 44 47 45 48 46 49 47 50 73 51 74 52 82 53 75 54 81 55
REMARK SMILES IDX 83 56 80 57 76 58 77 59 78 60 79 61 58 62 59 63 67 64 60 65
REMARK SMILES IDX 66 66 68 67 65 68 61 69 62 70 63 71 64 72 7 73 8 74 9 75
REMARK SMILES IDX 10 76 11 77 12 79 13 80 14 81 31 82 15 83 30 84 29 87 16 88
REMARK SMILES IDX 17 89 28 90 18 91 20 92 19 93 21 94 22 95 27 96 23 97 26 98
REMARK SMILES IDX 24 99 25 100
REMARK H PARENT 3 7 88 25 56 36 10 78 31 85 31 86 25 101
REMARK Flexibility Score: inf
ROOT
ATOM      1  C   UNL A   1      37.034  20.995  24.818  1.00  0.00     0.002 C 
ENDROOT
BRANCH   1   2
ATOM      2  C   UNL A   1      38.164  19.982  25.008  1.00  0.00     0.021 C 
BRANCH   2   3
ATOM      3  C   UNL A   1      39.255  20.435  25.970  1.00  0.00     0.116 C 
BRANCH   3   4
ATOM      4  N   UNL A   1      40.342  19.472  26.045  1.00  0.00    -0.352 N 
ATOM      5  O   UNL A   1      42.485  18.783  25.952  1.00  0.00    -0.269 OA
ATOM      6  C   UNL A   1      41.695  19.701  26.121  1.00  0.00     0.251 C 
ATOM      7  H   UNL A   1      40.071  18.526  26.041  1.00  0.00     0.163 HD
BRANCH   6   8
ATOM      8  C   UNL A   1      42.181  21.069  26.401  1.00  0.00     0.039 A 
ATOM      9  C   UNL A   1      42.228  22.021  25.379  1.00  0.00     0.014 A 
ATOM     10  C   UNL A   1      42.581  21.403  27.696  1.00  0.00     0.014 A 
ATOM     11  C   UNL A   1      42.795  23.265  25.621  1.00  0.00     0.010 A 
ATOM     12  C   UNL A   1      43.067  22.687  27.958  1.00  0.00     0.010 A 
ATOM     13  C   UNL A   1      43.195  23.623  26.919  1.00  0.00    -0.014 A 
BRANCH  13  14
ATOM     14  C   UNL A   1      43.678  25.003  27.175  1.00  0.00     0.031 A 
ATOM     15  C   UNL A   1      42.773  26.046  27.768  1.00  0.00     0.074 A 
ATOM     16  C   UNL A   1      44.958  25.301  26.878  1.00  0.00     0.049 A 
ATOM     17  N   UNL A   1      43.027  27.300  28.037  1.00  0.00    -0.248 NA
ATOM     18  C   UNL A   1      41.402  25.626  28.093  1.00  0.00     0.031 C 
ATOM     19  C   UNL A   1      45.925  24.363  26.300  1.00  0.00     0.029 A 
ATOM     20  N   UNL A   1      45.673  26.460  27.029  1.00  0.00    -0.354 N 
ATOM     21  C   UNL A   1      41.848  27.829  28.551  1.00  0.00     0.074 A 
ATOM     22  C   UNL A   1      40.867  26.762  28.519  1.00  0.00     0.031 C 
ATOM     23  C   UNL A   1      47.113  24.971  26.185  1.00  0.00     0.029 A 
ATOM     24  C   UNL A   1      46.977  26.361  26.600  1.00  0.00     0.049 A 
ATOM     25  H   UNL A   1      45.291  27.286  27.406  1.00  0.00     0.167 HD
ATOM     26  C   UNL A   1      41.613  29.084  29.011  1.00  0.00     0.034 A 
ATOM     27  C   UNL A   1      47.946  27.291  26.519  1.00  0.00     0.034 A 
ATOM     28  C   UNL A   1      42.607  30.133  29.023  1.00  0.00     0.049 A 
ATOM     29  C   UNL A   1      47.641  28.691  26.974  1.00  0.00     0.074 A 
ATOM     30  C   UNL A   1      42.485  31.432  29.485  1.00  0.00     0.029 A 
ATOM     31  N   UNL A   1      43.904  30.010  28.535  1.00  0.00    -0.354 N 
ATOM     32  N   UNL A   1      46.524  29.171  27.472  1.00  0.00    -0.248 NA
ATOM     33  C   UNL A   1      48.723  29.673  26.860  1.00  0.00     0.031 C 
ATOM     34  C   UNL A   1      43.675  32.113  29.209  1.00  0.00     0.029 A 
ATOM     35  C   UNL A   1      44.577  31.218  28.655  1.00  0.00     0.049 A 
ATOM     36  H   UNL A   1      44.289  29.186  28.160  1.00  0.00     0.167 HD
ATOM     37  C   UNL A   1      46.781  30.509  27.754  1.00  0.00     0.074 A 
ATOM     38  C   UNL A   1      48.163  30.750  27.390  1.00  0.00     0.031 C 
ATOM     39  C   UNL A   1      45.951  31.451  28.272  1.00  0.00     0.034 A 
BRANCH  26  40
ATOM     40  C   UNL A   1      40.216  29.399  29.494  1.00  0.00     0.023 A 
ATOM     41  C   UNL A   1      39.899  29.460  30.862  1.00  0.00     0.031 A 
ATOM     42  C   UNL A   1      39.177  29.621  28.571  1.00  0.00     0.131 A 
ATOM     43  C   UNL A   1      38.570  29.663  31.269  1.00  0.00     0.055 A 
ATOM     44  C   UNL A   1      37.874  29.905  28.980  1.00  0.00     0.041 A 
ATOM     45  F   UNL A   1      39.411  29.556  27.251  1.00  0.00    -0.206 F 
ATOM     46  C   UNL A   1      37.560  29.912  30.337  1.00  0.00     0.022 A 
BRANCH  43  47
ATOM     47  S   UNL A   1      38.159  29.449  33.023  1.00  0.00     0.124 S 
ATOM     48  O   UNL A   1      39.484  29.379  33.635  1.00  0.00    -0.237 OA
ATOM     49  O   UNL A   1      37.387  30.651  33.318  1.00  0.00    -0.237 OA
ATOM     50  O   UNL A   1      37.402  28.199  33.048  1.00  0.00    -0.744 OA
ENDBRANCH  43  47
ENDBRANCH  26  40
BRANCH  27  51
ATOM     51  C   UNL A   1      49.278  26.937  25.950  1.00  0.00     0.023 A 
ATOM     52  C   UNL A   1      49.661  27.376  24.675  1.00  0.00     0.031 A 
ATOM     53  C   UNL A   1      50.180  26.130  26.670  1.00  0.00     0.131 A 
ATOM     54  C   UNL A   1      50.893  26.972  24.138  1.00  0.00     0.055 A 
ATOM     55  C   UNL A   1      51.430  25.781  26.157  1.00  0.00     0.041 A 
ATOM     56  F   UNL A   1      49.864  25.686  27.897  1.00  0.00    -0.206 F 
ATOM     57  C   UNL A   1      51.786  26.192  24.878  1.00  0.00     0.022 A 
BRANCH  54  58
ATOM     58  S   UNL A   1      51.276  27.410  22.422  1.00  0.00     0.124 S 
ATOM     59  O   UNL A   1      49.944  27.609  21.863  1.00  0.00    -0.237 OA
ATOM     60  O   UNL A   1      52.088  28.611  22.590  1.00  0.00    -0.237 OA
ATOM     61  O   UNL A   1      51.995  26.239  21.924  1.00  0.00    -0.744 OA
ENDBRANCH  54  58
ENDBRANCH  27  51
BRANCH  39  62
ATOM     62  C   UNL A   1      46.542  32.819  28.514  1.00  0.00     0.023 A 
ATOM     63  C   UNL A   1      46.821  33.705  27.458  1.00  0.00     0.031 A 
ATOM     64  C   UNL A   1      46.851  33.232  29.822  1.00  0.00     0.131 A 
ATOM     65  C   UNL A   1      47.447  34.932  27.724  1.00  0.00     0.055 A 
ATOM     66  C   UNL A   1      47.411  34.481  30.087  1.00  0.00     0.041 A 
ATOM     67  F   UNL A   1      46.612  32.424  30.868  1.00  0.00    -0.206 F 
ATOM     68  C   UNL A   1      47.726  35.334  29.032  1.00  0.00     0.022 A 
BRANCH  65  69
ATOM     69  S   UNL A   1      47.988  35.954  26.326  1.00  0.00     0.124 S 
ATOM     70  O   UNL A   1      46.774  36.703  26.013  1.00  0.00    -0.237 OA
ATOM     71  O   UNL A   1      49.079  36.727  26.909  1.00  0.00    -0.237 OA
ATOM     72  O   UNL A   1      48.390  34.974  25.320  1.00  0.00    -0.744 OA
ENDBRANCH  65  69
ENDBRANCH  39  62
ENDBRANCH  13  14
ENDBRANCH   6   8
ENDBRANCH   3   4
ENDBRANCH   2   3
ENDBRANCH   1   2
BRANCH   1  73
ATOM     73  C   UNL A   1      35.617  20.437  25.010  1.00  0.00     0.002 C 
BRANCH  73  74
ATOM     74  C   UNL A   1      34.655  21.352  25.775  1.00  0.00     0.021 C 
BRANCH  74  75
ATOM     75  C   UNL A   1      33.186  20.968  25.614  1.00  0.00     0.116 C 
BRANCH  75  76
ATOM     76  N   UNL A   1      32.346  21.684  26.561  1.00  0.00    -0.351 N 
ATOM     77  C   UNL A   1      31.641  22.843  26.568  1.00  0.00     0.280 C 
ATOM     78  H   UNL A   1      32.271  21.205  27.418  1.00  0.00     0.163 HD
ATOM     79  O   UNL A   1      31.038  23.058  27.632  1.00  0.00    -0.268 OA
BRANCH  77  80
ATOM     80  C   UNL A   1      31.551  23.879  25.415  1.00  0.00     0.292 C 
ATOM     81  C   UNL A   1      31.134  25.300  25.803  1.00  0.00     0.195 C 
ATOM     82  N   UNL A   1      30.690  23.317  24.314  1.00  0.00    -0.333 N 
ATOM     83  N   UNL A   1      31.056  26.170  24.632  1.00  0.00    -0.329 N 
ATOM     84  C   UNL A   1      30.634  24.277  23.185  1.00  0.00     0.283 C 
ATOM     85  H   UNL A   1      29.748  23.157  24.670  1.00  0.00     0.347 HD
ATOM     86  H   UNL A   1      31.088  22.436  23.991  1.00  0.00     0.347 HD
ATOM     87  C   UNL A   1      30.171  25.704  23.582  1.00  0.00     0.181 C 
BRANCH  83  88
ATOM     88  C   UNL A   1      31.093  27.500  24.981  1.00  0.00     0.227 A 
ATOM     89  N   UNL A   1      31.766  27.896  26.066  1.00  0.00    -0.221 NA
ATOM     90  N   UNL A   1      30.522  28.342  24.107  1.00  0.00    -0.196 NA
ATOM     91  C   UNL A   1      31.906  29.227  26.214  1.00  0.00     0.119 A 
ATOM     92  C   UNL A   1      30.647  29.664  24.289  1.00  0.00     0.134 A 
ATOM     93  C   UNL A   1      31.385  30.156  25.341  1.00  0.00     0.067 A 
BRANCH  92  94
ATOM     94  N   UNL A   1      29.973  30.499  23.424  1.00  0.00    -0.356 N 
ATOM     95  C   UNL A   1      29.794  30.159  22.019  1.00  0.00     0.121 C 
ATOM     96  C   UNL A   1      29.187  31.587  23.992  1.00  0.00     0.121 C 
ATOM     97  C   UNL A   1      28.302  29.985  21.704  1.00  0.00     0.053 C 
ATOM     98  C   UNL A   1      27.704  31.373  23.732  1.00  0.00     0.053 C 
ATOM     99  C   UNL A   1      27.437  31.122  22.251  1.00  0.00     0.118 C 
BRANCH  99 100
ATOM    100  O   UNL A   1      27.622  32.331  21.512  1.00  0.00    -0.393 OA
ATOM    101  H   UNL A   1      26.986  32.997  21.817  1.00  0.00     0.210 HD
ENDBRANCH  99 100
ENDBRANCH  92  94
ENDBRANCH  83  88
ENDBRANCH  77  80
ENDBRANCH  75  76
ENDBRANCH  74  75
ENDBRANCH  73  74
ENDBRANCH   1  73
TORSDOF 19
ENDMDL
MODEL 3
REMARK VINA RESULT:     -12.0      5.627     11.273
REMARK SMILES O=C(NCCCCCCNC(=O)[C@@H]1CN(c2nccc(N3CCC(O)CC3)n2)CC[NH2+]1)c1ccc(-c2c3nc(c(-c4cc(S(=O)(=O)[O-])ccc4F)c4ccc([nH]4)c(-c4cc(S(=O)(=O)[O-])ccc4F)c4nc(c(-c5cc(S(=O)(=O)[O-])ccc5F)c5ccc2[nH]5)C=C4)C=C3)cc1
REMARK SMILES IDX 6 1 5 2 4 3 3 4 1 5 2 6 32 8 33 9 94 10 34 11 93 12 35 13
REMARK SMILES IDX 36 14 37 15 87 16 38 17 92 18 86 19 88 20 39 21 91 22 85 23
REMARK SMILES IDX 84 24 40 26 72 27 52 28 71 29 53 30 56 31 70 32 89 33 54 34
REMARK SMILES IDX 55 35 69 37 90 38 57 39 41 40 42 41 50 42 43 43 49 44 51 45
REMARK SMILES IDX 48 46 44 47 45 48 46 49 47 50 73 51 74 52 82 53 75 54 81 55
REMARK SMILES IDX 83 56 80 57 76 58 77 59 78 60 79 61 58 62 59 63 67 64 60 65
REMARK SMILES IDX 66 66 68 67 65 68 61 69 62 70 63 71 64 72 7 73 8 74 9 75
REMARK SMILES IDX 10 76 11 77 12 79 13 80 14 81 31 82 15 83 30 84 29 87 16 88
REMARK SMILES IDX 17 89 28 90 18 91 20 92 19 93 21 94 22 95 27 96 23 97 26 98
REMARK SMILES IDX 24 99 25 100
REMARK H PARENT 3 7 88 25 56 36 10 78 31 85 31 86 25 101
REMARK Flexibility Score: inf
ROOT
ATOM      1  C   UNL A   1      37.886  21.001  24.820  1.00  0.00     0.002 C 
ENDROOT
BRANCH   1   2
ATOM      2  C   UNL A   1      38.643  19.714  25.154  1.00  0.00     0.021 C 
BRANCH   2   3
ATOM      3  C   UNL A   1      39.646  19.857  26.292  1.00  0.00     0.116 C 
BRANCH   3   4
ATOM      4  N   UNL A   1      40.779  18.960  26.128  1.00  0.00    -0.352 N 
ATOM      5  O   UNL A   1      42.903  18.404  25.621  1.00  0.00    -0.269 OA
ATOM      6  C   UNL A   1      42.109  19.267  25.969  1.00  0.00     0.251 C 
ATOM      7  H   UNL A   1      40.562  18.000  26.131  1.00  0.00     0.163 HD
BRANCH   6   8
ATOM      8  C   UNL A   1      42.564  20.652  26.218  1.00  0.00     0.039 A 
ATOM      9  C   UNL A   1      42.682  21.129  27.526  1.00  0.00     0.014 A 
ATOM     10  C   UNL A   1      42.884  21.474  25.135  1.00  0.00     0.014 A 
ATOM     11  C   UNL A   1      42.994  22.464  27.748  1.00  0.00     0.010 A 
ATOM     12  C   UNL A   1      43.287  22.792  25.365  1.00  0.00     0.010 A 
ATOM     13  C   UNL A   1      43.327  23.303  26.672  1.00  0.00    -0.014 A 
BRANCH  13  14
ATOM     14  C   UNL A   1      43.783  24.689  26.948  1.00  0.00     0.031 A 
ATOM     15  C   UNL A   1      42.842  25.721  27.503  1.00  0.00     0.074 A 
ATOM     16  C   UNL A   1      45.071  25.001  26.703  1.00  0.00     0.049 A 
ATOM     17  N   UNL A   1      43.071  26.978  27.782  1.00  0.00    -0.248 NA
ATOM     18  C   UNL A   1      41.464  25.286  27.771  1.00  0.00     0.031 C 
ATOM     19  C   UNL A   1      46.072  24.075  26.165  1.00  0.00     0.029 A 
ATOM     20  N   UNL A   1      45.766  26.169  26.883  1.00  0.00    -0.354 N 
ATOM     21  C   UNL A   1      41.866  27.493  28.246  1.00  0.00     0.074 A 
ATOM     22  C   UNL A   1      40.899  26.415  28.174  1.00  0.00     0.031 C 
ATOM     23  C   UNL A   1      47.257  24.697  26.099  1.00  0.00     0.029 A 
ATOM     24  C   UNL A   1      47.087  26.085  26.508  1.00  0.00     0.049 A 
ATOM     25  H   UNL A   1      45.359  26.990  27.244  1.00  0.00     0.167 HD
ATOM     26  C   UNL A   1      41.598  28.745  28.696  1.00  0.00     0.034 A 
ATOM     27  C   UNL A   1      48.048  27.026  26.466  1.00  0.00     0.034 A 
ATOM     28  C   UNL A   1      42.578  29.806  28.748  1.00  0.00     0.049 A 
ATOM     29  C   UNL A   1      47.708  28.423  26.908  1.00  0.00     0.074 A 
ATOM     30  C   UNL A   1      42.423  31.103  29.205  1.00  0.00     0.029 A 
ATOM     31  N   UNL A   1      43.896  29.698  28.315  1.00  0.00    -0.354 N 
ATOM     32  N   UNL A   1      46.566  28.889  27.360  1.00  0.00    -0.248 NA
ATOM     33  C   UNL A   1      48.783  29.417  26.839  1.00  0.00     0.031 C 
ATOM     34  C   UNL A   1      43.615  31.798  28.977  1.00  0.00     0.029 A 
ATOM     35  C   UNL A   1      44.549  30.913  28.461  1.00  0.00     0.049 A 
ATOM     36  H   UNL A   1      44.305  28.879  27.955  1.00  0.00     0.167 HD
ATOM     37  C   UNL A   1      46.797  30.230  27.652  1.00  0.00     0.074 A 
ATOM     38  C   UNL A   1      48.189  30.487  27.345  1.00  0.00     0.031 C 
ATOM     39  C   UNL A   1      45.935  31.163  28.135  1.00  0.00     0.034 A 
BRANCH  26  40
ATOM     40  C   UNL A   1      40.179  29.044  29.121  1.00  0.00     0.023 A 
ATOM     41  C   UNL A   1      39.794  29.051  30.473  1.00  0.00     0.031 A 
ATOM     42  C   UNL A   1      39.187  29.306  28.157  1.00  0.00     0.131 A 
ATOM     43  C   UNL A   1      38.447  29.240  30.821  1.00  0.00     0.055 A 
ATOM     44  C   UNL A   1      37.865  29.577  28.513  1.00  0.00     0.041 A 
ATOM     45  F   UNL A   1      39.486  29.293  26.849  1.00  0.00    -0.206 F 
ATOM     46  C   UNL A   1      37.484  29.529  29.851  1.00  0.00     0.022 A 
BRANCH  43  47
ATOM     47  S   UNL A   1      37.948  28.957  32.542  1.00  0.00     0.124 S 
ATOM     48  O   UNL A   1      39.015  29.632  33.279  1.00  0.00    -0.237 OA
ATOM     49  O   UNL A   1      36.636  29.592  32.603  1.00  0.00    -0.237 OA
ATOM     50  O   UNL A   1      37.943  27.501  32.664  1.00  0.00    -0.744 OA
ENDBRANCH  43  47
ENDBRANCH  26  40
BRANCH  27  51
ATOM     51  C   UNL A   1      49.406  26.687  25.953  1.00  0.00     0.023 A 
ATOM     52  C   UNL A   1      49.833  27.123  24.690  1.00  0.00     0.031 A 
ATOM     53  C   UNL A   1      50.291  25.899  26.713  1.00  0.00     0.131 A 
ATOM     54  C   UNL A   1      51.091  26.733  24.205  1.00  0.00     0.055 A 
ATOM     55  C   UNL A   1      51.564  25.565  26.252  1.00  0.00     0.041 A 
ATOM     56  F   UNL A   1      49.934  25.459  27.930  1.00  0.00    -0.206 F 
ATOM     57  C   UNL A   1      51.965  25.972  24.985  1.00  0.00     0.022 A 
BRANCH  54  58
ATOM     58  S   UNL A   1      51.533  27.165  22.501  1.00  0.00     0.124 S 
ATOM     59  O   UNL A   1      52.687  26.305  22.268  1.00  0.00    -0.237 OA
ATOM     60  O   UNL A   1      50.316  26.817  21.776  1.00  0.00    -0.237 OA
ATOM     61  O   UNL A   1      51.824  28.595  22.578  1.00  0.00    -0.744 OA
ENDBRANCH  54  58
ENDBRANCH  27  51
BRANCH  39  62
ATOM     62  C   UNL A   1      46.500  32.537  28.400  1.00  0.00     0.023 A 
ATOM     63  C   UNL A   1      46.622  33.500  27.382  1.00  0.00     0.031 A 
ATOM     64  C   UNL A   1      46.943  32.880  29.690  1.00  0.00     0.131 A 
ATOM     65  C   UNL A   1      47.229  34.734  27.658  1.00  0.00     0.055 A 
ATOM     66  C   UNL A   1      47.485  34.134  29.974  1.00  0.00     0.041 A 
ATOM     67  F   UNL A   1      46.857  31.998  30.699  1.00  0.00    -0.206 F 
ATOM     68  C   UNL A   1      47.643  35.064  28.950  1.00  0.00     0.022 A 
BRANCH  65  69
ATOM     69  S   UNL A   1      47.566  35.865  26.281  1.00  0.00     0.124 S 
ATOM     70  O   UNL A   1      47.624  34.950  25.145  1.00  0.00    -0.237 OA
ATOM     71  O   UNL A   1      46.412  36.757  26.321  1.00  0.00    -0.237 OA
ATOM     72  O   UNL A   1      48.840  36.481  26.647  1.00  0.00    -0.744 OA
ENDBRANCH  65  69
ENDBRANCH  39  62
ENDBRANCH  13  14
ENDBRANCH   6   8
ENDBRANCH   3   4
ENDBRANCH   2   3
ENDBRANCH   1   2
BRANCH   1  73
ATOM     73  C   UNL A   1      36.437  21.055  25.322  1.00  0.00     0.002 C 
BRANCH  73  74
ATOM     74  C   UNL A   1      35.859  22.464  25.493  1.00  0.00     0.021 C 
BRANCH  74  75
ATOM     75  C   UNL A   1      34.782  22.814  24.468  1.00  0.00     0.116 C 
BRANCH  75  76
ATOM     76  N   UNL A   1      33.905  21.682  24.219  1.00  0.00    -0.351 N 
ATOM     77  C   UNL A   1      32.575  21.429  24.319  1.00  0.00     0.280 C 
ATOM     78  H   UNL A   1      34.403  20.898  23.894  1.00  0.00     0.163 HD
ATOM     79  O   UNL A   1      32.255  20.281  23.972  1.00  0.00    -0.268 OA
BRANCH  77  80
ATOM     80  C   UNL A   1      31.482  22.407  24.828  1.00  0.00     0.292 C 
ATOM     81  C   UNL A   1      31.698  23.891  24.525  1.00  0.00     0.195 C 
ATOM     82  N   UNL A   1      31.243  22.158  26.294  1.00  0.00    -0.333 N 
ATOM     83  N   UNL A   1      30.623  24.710  25.080  1.00  0.00    -0.329 N 
ATOM     84  C   UNL A   1      30.167  23.053  26.783  1.00  0.00     0.283 C 
ATOM     85  H   UNL A   1      32.101  22.343  26.813  1.00  0.00     0.347 HD
ATOM     86  H   UNL A   1      30.964  21.186  26.430  1.00  0.00     0.347 HD
ATOM     87  C   UNL A   1      30.415  24.560  26.508  1.00  0.00     0.181 C 
BRANCH  83  88
ATOM     88  C   UNL A   1      30.568  25.951  24.488  1.00  0.00     0.227 A 
ATOM     89  N   UNL A   1      29.652  26.213  23.552  1.00  0.00    -0.221 NA
ATOM     90  N   UNL A   1      31.400  26.870  24.998  1.00  0.00    -0.196 NA
ATOM     91  C   UNL A   1      29.553  27.503  23.175  1.00  0.00     0.119 A 
ATOM     92  C   UNL A   1      31.306  28.143  24.588  1.00  0.00     0.134 A 
ATOM     93  C   UNL A   1      30.341  28.512  23.679  1.00  0.00     0.067 A 
BRANCH  92  94
ATOM     94  N   UNL A   1      32.234  29.043  25.066  1.00  0.00    -0.356 N 
ATOM     95  C   UNL A   1      31.835  30.230  25.810  1.00  0.00     0.121 C 
ATOM     96  C   UNL A   1      33.636  28.645  25.075  1.00  0.00     0.121 C 
ATOM     97  C   UNL A   1      32.382  30.165  27.242  1.00  0.00     0.053 C 
ATOM     98  C   UNL A   1      34.152  28.518  26.500  1.00  0.00     0.053 C 
ATOM     99  C   UNL A   1      33.862  29.782  27.302  1.00  0.00     0.118 C 
BRANCH  99 100
ATOM    100  O   UNL A   1      34.703  30.847  26.853  1.00  0.00    -0.393 OA
ATOM    101  H   UNL A   1      35.554  30.485  26.561  1.00  0.00     0.210 HD
ENDBRANCH  99 100
ENDBRANCH  92  94
ENDBRANCH  83  88
ENDBRANCH  77  80
ENDBRANCH  75  76
ENDBRANCH  74  75
ENDBRANCH  73  74
ENDBRANCH   1  73
TORSDOF 19
ENDMDL
