MODEL 1
REMARK VINA RESULT:     -12.9      0.000      0.000
REMARK SMILES O=C(CCC(=O)Nc1scc2c1c(=O)oc1ccccc12)NCCCCCCNC(=O)c1ccc(-c2c3nc(c(-c4cc(S(=O)(=O)[O-])ccc4F)c4ccc([nH]4)c(-c4cc(S(=O)(=O)[O-])ccc4F)c4nc(c(-c5cc(S(=O)(=O)[O-])ccc5F)c5ccc2[nH]5)C=C4)C=C3)cc1
REMARK SMILES IDX 25 1 24 2 23 3 22 4 1 5 2 6 3 8 4 9 5 10 6 11 7 12 8 14 9 15
REMARK SMILES IDX 12 16 10 17 11 18 13 19 21 20 14 21 15 22 16 23 20 24 17 25
REMARK SMILES IDX 19 26 18 27 26 28 27 29 28 30 29 31 30 32 31 34 32 35 33 36
REMARK SMILES IDX 94 37 34 38 93 39 35 40 36 41 37 42 87 43 38 44 92 45 86 46
REMARK SMILES IDX 88 47 39 48 91 49 85 50 84 51 40 53 72 54 52 55 71 56 53 57
REMARK SMILES IDX 56 58 70 59 89 60 54 61 55 62 69 64 90 65 57 66 41 67 42 68
REMARK SMILES IDX 50 69 43 70 49 71 51 72 48 73 44 74 45 75 46 76 47 77 73 78
REMARK SMILES IDX 74 79 82 80 75 81 81 82 83 83 80 84 76 85 77 86 78 87 79 88
REMARK SMILES IDX 58 89 59 90 67 91 60 92 66 93 68 94 65 95 61 96 62 97 63 98
REMARK SMILES IDX 64 99
REMARK H PARENT 22 7 7 13 29 33 88 52 56 63
REMARK Flexibility Score: inf
ROOT
ATOM      1  C   UNL A   1      35.129  23.369  23.330  1.00  0.00     0.002 C 
ENDROOT
BRANCH   1   2
ATOM      2  C   UNL A   1      33.788  23.578  22.638  1.00  0.00     0.021 C 
BRANCH   2   3
ATOM      3  C   UNL A   1      32.825  22.447  22.908  1.00  0.00     0.116 C 
BRANCH   3   4
ATOM      4  N   UNL A   1      31.707  22.745  23.784  1.00  0.00    -0.356 N 
ATOM      5  O   UNL A   1      31.728  20.959  25.282  1.00  0.00    -0.275 OA
ATOM      6  C   UNL A   1      31.530  22.142  25.011  1.00  0.00     0.220 C 
ATOM      7  H   UNL A   1      31.044  23.411  23.489  1.00  0.00     0.163 HD
BRANCH   6   8
ATOM      8  C   UNL A   1      31.235  23.118  26.118  1.00  0.00     0.110 C 
BRANCH   8   9
ATOM      9  C   UNL A   1      31.246  24.527  25.522  1.00  0.00     0.110 C 
BRANCH   9  10
ATOM     10  C   UNL A   1      32.543  25.220  25.831  1.00  0.00     0.225 C 
ATOM     11  O   UNL A   1      33.462  24.563  26.339  1.00  0.00    -0.275 OA
ATOM     12  N   UNL A   1      32.794  26.521  25.548  1.00  0.00    -0.317 N 
ATOM     13  H   UNL A   1      33.755  26.724  25.618  1.00  0.00     0.170 HD
BRANCH  12  14
ATOM     14  C   UNL A   1      32.070  27.637  25.189  1.00  0.00     0.110 A 
ATOM     15  S   UNL A   1      32.554  28.902  26.270  1.00  0.00    -0.125 S 
ATOM     16  C   UNL A   1      31.074  28.091  24.346  1.00  0.00     0.103 A 
ATOM     17  C   UNL A   1      31.548  30.064  25.536  1.00  0.00     0.076 A 
ATOM     18  C   UNL A   1      30.860  29.519  24.486  1.00  0.00     0.013 A 
ATOM     19  C   UNL A   1      30.061  27.498  23.469  1.00  0.00     0.347 A 
ATOM     20  C   UNL A   1      29.836  30.152  23.660  1.00  0.00     0.026 A 
ATOM     21  O   UNL A   1      29.054  26.928  23.895  1.00  0.00    -0.246 OA
ATOM     22  O   UNL A   1      30.004  28.156  22.250  1.00  0.00    -0.422 OA
ATOM     23  C   UNL A   1      29.395  29.389  22.548  1.00  0.00     0.139 A 
ATOM     24  C   UNL A   1      29.187  31.343  23.960  1.00  0.00     0.012 A 
ATOM     25  C   UNL A   1      28.323  29.790  21.760  1.00  0.00     0.048 A 
ATOM     26  C   UNL A   1      28.107  31.753  23.167  1.00  0.00     0.001 A 
ATOM     27  C   UNL A   1      27.672  30.979  22.082  1.00  0.00     0.004 A 
ENDBRANCH  12  14
ENDBRANCH   9  10
ENDBRANCH   8   9
ENDBRANCH   6   8
ENDBRANCH   3   4
ENDBRANCH   2   3
ENDBRANCH   1   2
BRANCH   1  28
ATOM     28  C   UNL A   1      35.202  22.162  24.280  1.00  0.00     0.002 C 
BRANCH  28  29
ATOM     29  C   UNL A   1      36.601  21.634  24.626  1.00  0.00     0.021 C 
BRANCH  29  30
ATOM     30  C   UNL A   1      37.415  22.503  25.585  1.00  0.00     0.116 C 
BRANCH  30  31
ATOM     31  N   UNL A   1      38.597  21.851  26.113  1.00  0.00    -0.352 N 
ATOM     32  C   UNL A   1      39.706  22.220  26.814  1.00  0.00     0.251 C 
ATOM     33  H   UNL A   1      38.601  20.888  25.911  1.00  0.00     0.163 HD
ATOM     34  O   UNL A   1      40.492  21.304  27.071  1.00  0.00    -0.269 OA
BRANCH  32  35
ATOM     35  C   UNL A   1      40.046  23.602  27.243  1.00  0.00     0.039 A 
ATOM     36  C   UNL A   1      41.156  23.971  27.998  1.00  0.00     0.014 A 
ATOM     37  C   UNL A   1      39.124  24.601  26.869  1.00  0.00     0.014 A 
ATOM     38  C   UNL A   1      41.295  25.285  28.438  1.00  0.00     0.010 A 
ATOM     39  C   UNL A   1      39.268  25.917  27.291  1.00  0.00     0.010 A 
ATOM     40  C   UNL A   1      40.332  26.251  28.119  1.00  0.00    -0.014 A 
BRANCH  40  41
ATOM     41  C   UNL A   1      40.527  27.605  28.630  1.00  0.00     0.031 A 
ATOM     42  C   UNL A   1      41.724  28.320  28.107  1.00  0.00     0.074 A 
ATOM     43  C   UNL A   1      39.680  28.234  29.469  1.00  0.00     0.049 A 
ATOM     44  N   UNL A   1      42.797  28.653  28.748  1.00  0.00    -0.248 NA
ATOM     45  C   UNL A   1      41.779  28.589  26.665  1.00  0.00     0.031 C 
ATOM     46  C   UNL A   1      38.325  27.843  29.865  1.00  0.00     0.029 A 
ATOM     47  N   UNL A   1      39.849  29.435  30.092  1.00  0.00    -0.354 N 
ATOM     48  C   UNL A   1      43.603  29.331  27.833  1.00  0.00     0.074 A 
ATOM     49  C   UNL A   1      42.987  29.140  26.543  1.00  0.00     0.031 C 
ATOM     50  C   UNL A   1      37.722  28.887  30.481  1.00  0.00     0.029 A 
ATOM     51  C   UNL A   1      38.696  29.948  30.666  1.00  0.00     0.049 A 
ATOM     52  H   UNL A   1      40.716  29.898  30.131  1.00  0.00     0.167 HD
ATOM     53  C   UNL A   1      44.630  30.140  28.228  1.00  0.00     0.034 A 
ATOM     54  C   UNL A   1      38.538  31.181  31.208  1.00  0.00     0.034 A 
ATOM     55  C   UNL A   1      44.977  29.915  29.606  1.00  0.00     0.049 A 
ATOM     56  C   UNL A   1      39.877  31.714  31.550  1.00  0.00     0.074 A 
ATOM     57  C   UNL A   1      45.489  28.851  30.321  1.00  0.00     0.029 A 
ATOM     58  N   UNL A   1      44.483  30.790  30.541  1.00  0.00    -0.354 N 
ATOM     59  N   UNL A   1      40.624  31.255  32.512  1.00  0.00    -0.248 NA
ATOM     60  C   UNL A   1      40.569  32.504  30.544  1.00  0.00     0.031 C 
ATOM     61  C   UNL A   1      44.851  28.922  31.593  1.00  0.00     0.029 A 
ATOM     62  C   UNL A   1      44.025  30.048  31.598  1.00  0.00     0.049 A 
ATOM     63  H   UNL A   1      44.463  31.772  30.465  1.00  0.00     0.167 HD
ATOM     64  C   UNL A   1      41.911  31.292  31.998  1.00  0.00     0.074 A 
ATOM     65  C   UNL A   1      41.828  32.176  30.837  1.00  0.00     0.031 C 
ATOM     66  C   UNL A   1      42.859  30.389  32.389  1.00  0.00     0.034 A 
BRANCH  53  67
ATOM     67  C   UNL A   1      45.124  31.343  27.457  1.00  0.00     0.023 A 
ATOM     68  C   UNL A   1      44.348  32.502  27.274  1.00  0.00     0.031 A 
ATOM     69  C   UNL A   1      46.478  31.448  27.075  1.00  0.00     0.131 A 
ATOM     70  C   UNL A   1      44.892  33.677  26.739  1.00  0.00     0.055 A 
ATOM     71  C   UNL A   1      47.040  32.642  26.603  1.00  0.00     0.041 A 
ATOM     72  F   UNL A   1      47.318  30.408  27.204  1.00  0.00    -0.206 F 
ATOM     73  C   UNL A   1      46.245  33.767  26.433  1.00  0.00     0.022 A 
BRANCH  70  74
ATOM     74  S   UNL A   1      43.834  35.121  26.446  1.00  0.00     0.124 S 
ATOM     75  O   UNL A   1      43.028  35.152  27.664  1.00  0.00    -0.237 OA
ATOM     76  O   UNL A   1      44.823  36.189  26.315  1.00  0.00    -0.237 OA
ATOM     77  O   UNL A   1      43.125  34.782  25.219  1.00  0.00    -0.744 OA
ENDBRANCH  70  74
ENDBRANCH  53  67
BRANCH  54  78
ATOM     78  C   UNL A   1      37.384  32.083  30.986  1.00  0.00     0.023 A 
ATOM     79  C   UNL A   1      36.702  32.615  32.096  1.00  0.00     0.031 A 
ATOM     80  C   UNL A   1      36.748  32.157  29.735  1.00  0.00     0.131 A 
ATOM     81  C   UNL A   1      35.412  33.139  31.950  1.00  0.00     0.055 A 
ATOM     82  C   UNL A   1      35.466  32.700  29.589  1.00  0.00     0.041 A 
ATOM     83  F   UNL A   1      37.329  31.635  28.644  1.00  0.00    -0.206 F 
ATOM     84  C   UNL A   1      34.785  33.180  30.704  1.00  0.00     0.022 A 
BRANCH  81  85
ATOM     85  S   UNL A   1      34.482  33.690  33.407  1.00  0.00     0.124 S 
ATOM     86  O   UNL A   1      33.194  33.026  33.219  1.00  0.00    -0.237 OA
ATOM     87  O   UNL A   1      35.304  33.173  34.495  1.00  0.00    -0.237 OA
ATOM     88  O   UNL A   1      34.453  35.143  33.265  1.00  0.00    -0.744 OA
ENDBRANCH  81  85
ENDBRANCH  54  78
BRANCH  66  89
ATOM     89  C   UNL A   1      42.571  29.491  33.575  1.00  0.00     0.023 A 
ATOM     90  C   UNL A   1      43.242  29.771  34.779  1.00  0.00     0.031 A 
ATOM     91  C   UNL A   1      41.855  28.280  33.502  1.00  0.00     0.131 A 
ATOM     92  C   UNL A   1      43.219  28.852  35.836  1.00  0.00     0.055 A 
ATOM     93  C   UNL A   1      41.773  27.399  34.585  1.00  0.00     0.041 A 
ATOM     94  F   UNL A   1      41.285  27.868  32.361  1.00  0.00    -0.206 F 
ATOM     95  C   UNL A   1      42.471  27.676  35.755  1.00  0.00     0.022 A 
BRANCH  92  96
ATOM     96  S   UNL A   1      44.291  29.086  37.276  1.00  0.00     0.124 S 
ATOM     97  O   UNL A   1      43.724  30.282  37.893  1.00  0.00    -0.237 OA
ATOM     98  O   UNL A   1      44.089  27.843  38.019  1.00  0.00    -0.237 OA
ATOM     99  O   UNL A   1      45.624  29.250  36.704  1.00  0.00    -0.744 OA
ENDBRANCH  92  96
ENDBRANCH  66  89
ENDBRANCH  40  41
ENDBRANCH  32  35
ENDBRANCH  30  31
ENDBRANCH  29  30
ENDBRANCH  28  29
ENDBRANCH   1  28
TORSDOF 19
ENDMDL
MODEL 2
REMARK VINA RESULT:     -12.7      3.435      9.482
REMARK SMILES O=C(CCC(=O)Nc1scc2c1c(=O)oc1ccccc12)NCCCCCCNC(=O)c1ccc(-c2c3nc(c(-c4cc(S(=O)(=O)[O-])ccc4F)c4ccc([nH]4)c(-c4cc(S(=O)(=O)[O-])ccc4F)c4nc(c(-c5cc(S(=O)(=O)[O-])ccc5F)c5ccc2[nH]5)C=C4)C=C3)cc1
REMARK SMILES IDX 25 1 24 2 23 3 22 4 1 5 2 6 3 8 4 9 5 10 6 11 7 12 8 14 9 15
REMARK SMILES IDX 12 16 10 17 11 18 13 19 21 20 14 21 15 22 16 23 20 24 17 25
REMARK SMILES IDX 19 26 18 27 26 28 27 29 28 30 29 31 30 32 31 34 32 35 33 36
REMARK SMILES IDX 94 37 34 38 93 39 35 40 36 41 37 42 87 43 38 44 92 45 86 46
REMARK SMILES IDX 88 47 39 48 91 49 85 50 84 51 40 53 72 54 52 55 71 56 53 57
REMARK SMILES IDX 56 58 70 59 89 60 54 61 55 62 69 64 90 65 57 66 41 67 42 68
REMARK SMILES IDX 50 69 43 70 49 71 51 72 48 73 44 74 45 75 46 76 47 77 73 78
REMARK SMILES IDX 74 79 82 80 75 81 81 82 83 83 80 84 76 85 77 86 78 87 79 88
REMARK SMILES IDX 58 89 59 90 67 91 60 92 66 93 68 94 65 95 61 96 62 97 63 98
REMARK SMILES IDX 64 99
REMARK H PARENT 22 7 7 13 29 33 88 52 56 63
REMARK Flexibility Score: inf
ROOT
ATOM      1  C   UNL A   1      31.164  27.466  25.880  1.00  0.00     0.002 C 
ENDROOT
BRANCH   1   2
ATOM      2  C   UNL A   1      30.492  26.100  25.910  1.00  0.00     0.021 C 
BRANCH   2   3
ATOM      3  C   UNL A   1      29.597  25.879  24.714  1.00  0.00     0.116 C 
BRANCH   3   4
ATOM      4  N   UNL A   1      30.119  25.020  23.667  1.00  0.00    -0.356 N 
ATOM      5  O   UNL A   1      31.472  26.463  22.435  1.00  0.00    -0.275 OA
ATOM      6  C   UNL A   1      31.210  25.353  22.893  1.00  0.00     0.220 C 
ATOM      7  H   UNL A   1      29.673  24.158  23.502  1.00  0.00     0.163 HD
BRANCH   6   8
ATOM      8  C   UNL A   1      32.224  24.247  22.786  1.00  0.00     0.110 C 
BRANCH   8   9
ATOM      9  C   UNL A   1      33.618  24.869  22.903  1.00  0.00     0.110 C 
BRANCH   9  10
ATOM     10  C   UNL A   1      34.007  25.025  24.346  1.00  0.00     0.225 C 
ATOM     11  O   UNL A   1      34.065  26.165  24.827  1.00  0.00    -0.275 OA
ATOM     12  N   UNL A   1      34.258  23.987  25.180  1.00  0.00    -0.317 N 
ATOM     13  H   UNL A   1      34.275  24.278  26.120  1.00  0.00     0.170 HD
BRANCH  12  14
ATOM     14  C   UNL A   1      34.499  22.635  25.069  1.00  0.00     0.110 A 
ATOM     15  S   UNL A   1      36.217  22.433  25.176  1.00  0.00    -0.125 S 
ATOM     16  C   UNL A   1      33.892  21.414  24.844  1.00  0.00     0.103 A 
ATOM     17  C   UNL A   1      36.135  20.736  25.057  1.00  0.00     0.076 A 
ATOM     18  C   UNL A   1      34.837  20.317  24.945  1.00  0.00     0.013 A 
ATOM     19  C   UNL A   1      32.592  20.937  24.366  1.00  0.00     0.347 A 
ATOM     20  C   UNL A   1      34.347  18.958  24.732  1.00  0.00     0.026 A 
ATOM     21  O   UNL A   1      32.239  21.014  23.187  1.00  0.00    -0.246 OA
ATOM     22  O   UNL A   1      32.122  19.892  25.147  1.00  0.00    -0.422 OA
ATOM     23  C   UNL A   1      32.939  18.801  24.799  1.00  0.00     0.139 A 
ATOM     24  C   UNL A   1      35.129  17.878  24.340  1.00  0.00     0.012 A 
ATOM     25  C   UNL A   1      32.317  17.604  24.469  1.00  0.00     0.048 A 
ATOM     26  C   UNL A   1      34.505  16.667  24.009  1.00  0.00     0.001 A 
ATOM     27  C   UNL A   1      33.111  16.534  24.063  1.00  0.00     0.004 A 
ENDBRANCH  12  14
ENDBRANCH   9  10
ENDBRANCH   8   9
ENDBRANCH   6   8
ENDBRANCH   3   4
ENDBRANCH   2   3
ENDBRANCH   1   2
BRANCH   1  28
ATOM     28  C   UNL A   1      31.514  28.062  27.255  1.00  0.00     0.002 C 
BRANCH  28  29
ATOM     29  C   UNL A   1      32.044  29.503  27.273  1.00  0.00     0.021 C 
BRANCH  29  30
ATOM     30  C   UNL A   1      33.564  29.646  27.183  1.00  0.00     0.116 C 
BRANCH  30  31
ATOM     31  N   UNL A   1      34.037  31.009  27.323  1.00  0.00    -0.352 N 
ATOM     32  C   UNL A   1      35.185  31.626  27.720  1.00  0.00     0.251 C 
ATOM     33  H   UNL A   1      33.347  31.661  27.063  1.00  0.00     0.163 HD
ATOM     34  O   UNL A   1      35.158  32.860  27.676  1.00  0.00    -0.269 OA
BRANCH  32  35
ATOM     35  C   UNL A   1      36.410  30.950  28.221  1.00  0.00     0.039 A 
ATOM     36  C   UNL A   1      37.514  31.580  28.790  1.00  0.00     0.014 A 
ATOM     37  C   UNL A   1      36.444  29.550  28.057  1.00  0.00     0.014 A 
ATOM     38  C   UNL A   1      38.652  30.842  29.108  1.00  0.00     0.010 A 
ATOM     39  C   UNL A   1      37.570  28.807  28.390  1.00  0.00     0.010 A 
ATOM     40  C   UNL A   1      38.696  29.462  28.872  1.00  0.00    -0.014 A 
BRANCH  40  41
ATOM     41  C   UNL A   1      39.928  28.751  29.207  1.00  0.00     0.031 A 
ATOM     42  C   UNL A   1      40.335  28.819  30.639  1.00  0.00     0.074 A 
ATOM     43  C   UNL A   1      40.648  28.019  28.335  1.00  0.00     0.049 A 
ATOM     44  N   UNL A   1      41.353  29.434  31.149  1.00  0.00    -0.248 NA
ATOM     45  C   UNL A   1      39.429  28.230  31.632  1.00  0.00     0.031 C 
ATOM     46  C   UNL A   1      40.283  27.580  26.986  1.00  0.00     0.029 A 
ATOM     47  N   UNL A   1      41.866  27.437  28.529  1.00  0.00    -0.354 N 
ATOM     48  C   UNL A   1      41.321  29.169  32.518  1.00  0.00     0.074 A 
ATOM     49  C   UNL A   1      40.046  28.543  32.772  1.00  0.00     0.031 C 
ATOM     50  C   UNL A   1      41.156  26.631  26.575  1.00  0.00     0.029 A 
ATOM     51  C   UNL A   1      42.224  26.520  27.553  1.00  0.00     0.049 A 
ATOM     52  H   UNL A   1      42.443  27.650  29.298  1.00  0.00     0.167 HD
ATOM     53  C   UNL A   1      42.415  29.336  33.317  1.00  0.00     0.034 A 
ATOM     54  C   UNL A   1      43.294  25.688  27.573  1.00  0.00     0.034 A 
ATOM     55  C   UNL A   1      43.427  30.124  32.666  1.00  0.00     0.049 A 
ATOM     56  C   UNL A   1      44.289  26.232  28.525  1.00  0.00     0.074 A 
ATOM     57  C   UNL A   1      43.509  31.426  32.216  1.00  0.00     0.029 A 
ATOM     58  N   UNL A   1      44.476  29.459  32.081  1.00  0.00    -0.354 N 
ATOM     59  N   UNL A   1      44.982  27.315  28.321  1.00  0.00    -0.248 NA
ATOM     60  C   UNL A   1      44.217  25.789  29.909  1.00  0.00     0.031 C 
ATOM     61  C   UNL A   1      44.297  31.357  31.031  1.00  0.00     0.029 A 
ATOM     62  C   UNL A   1      44.689  30.029  30.852  1.00  0.00     0.049 A 
ATOM     63  H   UNL A   1      44.983  28.712  32.473  1.00  0.00     0.167 HD
ATOM     64  C   UNL A   1      45.032  27.934  29.561  1.00  0.00     0.074 A 
ATOM     65  C   UNL A   1      44.650  26.895  30.515  1.00  0.00     0.031 C 
ATOM     66  C   UNL A   1      45.105  29.293  29.674  1.00  0.00     0.034 A 
BRANCH  53  67
ATOM     67  C   UNL A   1      42.694  28.540  34.572  1.00  0.00     0.023 A 
ATOM     68  C   UNL A   1      42.783  27.135  34.579  1.00  0.00     0.031 A 
ATOM     69  C   UNL A   1      43.105  29.183  35.758  1.00  0.00     0.131 A 
ATOM     70  C   UNL A   1      43.243  26.431  35.699  1.00  0.00     0.055 A 
ATOM     71  C   UNL A   1      43.629  28.485  36.854  1.00  0.00     0.041 A 
ATOM     72  F   UNL A   1      43.069  30.521  35.870  1.00  0.00    -0.206 F 
ATOM     73  C   UNL A   1      43.701  27.099  36.829  1.00  0.00     0.022 A 
BRANCH  70  74
ATOM     74  S   UNL A   1      43.264  24.617  35.692  1.00  0.00     0.124 S 
ATOM     75  O   UNL A   1      44.269  24.326  36.711  1.00  0.00    -0.237 OA
ATOM     76  O   UNL A   1      41.884  24.305  36.056  1.00  0.00    -0.237 OA
ATOM     77  O   UNL A   1      43.631  24.286  34.320  1.00  0.00    -0.744 OA
ENDBRANCH  70  74
ENDBRANCH  53  67
BRANCH  54  78
ATOM     78  C   UNL A   1      43.281  24.252  27.211  1.00  0.00     0.023 A 
ATOM     79  C   UNL A   1      44.244  23.758  26.312  1.00  0.00     0.031 A 
ATOM     80  C   UNL A   1      42.157  23.447  27.466  1.00  0.00     0.131 A 
ATOM     81  C   UNL A   1      44.043  22.538  25.657  1.00  0.00     0.055 A 
ATOM     82  C   UNL A   1      41.969  22.217  26.825  1.00  0.00     0.041 A 
ATOM     83  F   UNL A   1      41.185  23.875  28.285  1.00  0.00    -0.206 F 
ATOM     84  C   UNL A   1      42.908  21.764  25.902  1.00  0.00     0.022 A 
BRANCH  81  85
ATOM     85  S   UNL A   1      45.217  21.977  24.392  1.00  0.00     0.124 S 
ATOM     86  O   UNL A   1      45.504  23.215  23.669  1.00  0.00    -0.237 OA
ATOM     87  O   UNL A   1      46.308  21.460  25.210  1.00  0.00    -0.237 OA
ATOM     88  O   UNL A   1      44.459  20.984  23.638  1.00  0.00    -0.744 OA
ENDBRANCH  81  85
ENDBRANCH  54  78
BRANCH  66  89
ATOM     89  C   UNL A   1      45.379  30.119  28.434  1.00  0.00     0.023 A 
ATOM     90  C   UNL A   1      46.710  30.502  28.190  1.00  0.00     0.031 A 
ATOM     91  C   UNL A   1      44.381  30.707  27.632  1.00  0.00     0.131 A 
ATOM     92  C   UNL A   1      47.007  31.460  27.213  1.00  0.00     0.055 A 
ATOM     93  C   UNL A   1      44.688  31.609  26.607  1.00  0.00     0.041 A 
ATOM     94  F   UNL A   1      43.079  30.501  27.866  1.00  0.00    -0.206 F 
ATOM     95  C   UNL A   1      46.005  32.002  26.405  1.00  0.00     0.022 A 
BRANCH  92  96
ATOM     96  S   UNL A   1      48.677  32.146  27.080  1.00  0.00     0.124 S 
ATOM     97  O   UNL A   1      49.464  30.974  26.706  1.00  0.00    -0.237 OA
ATOM     98  O   UNL A   1      48.517  33.153  26.031  1.00  0.00    -0.237 OA
ATOM     99  O   UNL A   1      48.948  32.682  28.410  1.00  0.00    -0.744 OA
ENDBRANCH  92  96
ENDBRANCH  66  89
ENDBRANCH  40  41
ENDBRANCH  32  35
ENDBRANCH  30  31
ENDBRANCH  29  30
ENDBRANCH  28  29
ENDBRANCH   1  28
TORSDOF 19
ENDMDL
MODEL 3
REMARK VINA RESULT:     -12.6      1.386      1.546
REMARK SMILES O=C(CCC(=O)Nc1scc2c1c(=O)oc1ccccc12)NCCCCCCNC(=O)c1ccc(-c2c3nc(c(-c4cc(S(=O)(=O)[O-])ccc4F)c4ccc([nH]4)c(-c4cc(S(=O)(=O)[O-])ccc4F)c4nc(c(-c5cc(S(=O)(=O)[O-])ccc5F)c5ccc2[nH]5)C=C4)C=C3)cc1
REMARK SMILES IDX 25 1 24 2 23 3 22 4 1 5 2 6 3 8 4 9 5 10 6 11 7 12 8 14 9 15
REMARK SMILES IDX 12 16 10 17 11 18 13 19 21 20 14 21 15 22 16 23 20 24 17 25
REMARK SMILES IDX 19 26 18 27 26 28 27 29 28 30 29 31 30 32 31 34 32 35 33 36
REMARK SMILES IDX 94 37 34 38 93 39 35 40 36 41 37 42 87 43 38 44 92 45 86 46
REMARK SMILES IDX 88 47 39 48 91 49 85 50 84 51 40 53 72 54 52 55 71 56 53 57
REMARK SMILES IDX 56 58 70 59 89 60 54 61 55 62 69 64 90 65 57 66 41 67 42 68
REMARK SMILES IDX 50 69 43 70 49 71 51 72 48 73 44 74 45 75 46 76 47 77 73 78
REMARK SMILES IDX 74 79 82 80 75 81 81 82 83 83 80 84 76 85 77 86 78 87 79 88
REMARK SMILES IDX 58 89 59 90 67 91 60 92 66 93 68 94 65 95 61 96 62 97 63 98
REMARK SMILES IDX 64 99
REMARK H PARENT 22 7 7 13 29 33 88 52 56 63
REMARK Flexibility Score: inf
ROOT
ATOM      1  C   UNL A   1      35.676  22.972  23.454  1.00  0.00     0.002 C 
ENDROOT
BRANCH   1   2
ATOM      2  C   UNL A   1      34.295  23.282  22.891  1.00  0.00     0.021 C 
BRANCH   2   3
ATOM      3  C   UNL A   1      33.292  22.200  23.215  1.00  0.00     0.116 C 
BRANCH   3   4
ATOM      4  N   UNL A   1      32.094  22.619  23.919  1.00  0.00    -0.356 N 
ATOM      5  O   UNL A   1      31.754  20.887  25.442  1.00  0.00    -0.275 OA
ATOM      6  C   UNL A   1      31.698  22.073  25.121  1.00  0.00     0.220 C 
ATOM      7  H   UNL A   1      31.539  23.327  23.520  1.00  0.00     0.163 HD
BRANCH   6   8
ATOM      8  C   UNL A   1      31.338  23.105  26.155  1.00  0.00     0.110 C 
BRANCH   8   9
ATOM      9  C   UNL A   1      31.356  24.478  25.480  1.00  0.00     0.110 C 
BRANCH   9  10
ATOM     10  C   UNL A   1      32.664  25.174  25.732  1.00  0.00     0.225 C 
ATOM     11  O   UNL A   1      33.606  24.519  26.196  1.00  0.00    -0.275 OA
ATOM     12  N   UNL A   1      32.898  26.476  25.442  1.00  0.00    -0.317 N 
ATOM     13  H   UNL A   1      33.860  26.682  25.469  1.00  0.00     0.170 HD
BRANCH  12  14
ATOM     14  C   UNL A   1      32.155  27.591  25.119  1.00  0.00     0.110 A 
ATOM     15  S   UNL A   1      32.680  28.853  26.184  1.00  0.00    -0.125 S 
ATOM     16  C   UNL A   1      31.123  28.045  24.320  1.00  0.00     0.103 A 
ATOM     17  C   UNL A   1      31.640  30.015  25.498  1.00  0.00     0.076 A 
ATOM     18  C   UNL A   1      30.909  29.472  24.476  1.00  0.00     0.013 A 
ATOM     19  C   UNL A   1      30.075  27.452  23.486  1.00  0.00     0.347 A 
ATOM     20  C   UNL A   1      29.849  30.104  23.697  1.00  0.00     0.026 A 
ATOM     21  O   UNL A   1      29.089  26.876  23.952  1.00  0.00    -0.246 OA
ATOM     22  O   UNL A   1      29.964  28.115  22.273  1.00  0.00    -0.422 OA
ATOM     23  C   UNL A   1      29.364  29.344  22.601  1.00  0.00     0.139 A 
ATOM     24  C   UNL A   1      29.210  31.292  24.029  1.00  0.00     0.012 A 
ATOM     25  C   UNL A   1      28.257  29.745  21.862  1.00  0.00     0.048 A 
ATOM     26  C   UNL A   1      28.095  31.701  23.285  1.00  0.00     0.001 A 
ATOM     27  C   UNL A   1      27.617  30.929  22.216  1.00  0.00     0.004 A 
ENDBRANCH  12  14
ENDBRANCH   9  10
ENDBRANCH   8   9
ENDBRANCH   6   8
ENDBRANCH   3   4
ENDBRANCH   2   3
ENDBRANCH   1   2
BRANCH   1  28
ATOM     28  C   UNL A   1      35.741  21.788  24.433  1.00  0.00     0.002 C 
BRANCH  28  29
ATOM     29  C   UNL A   1      37.138  21.304  24.846  1.00  0.00     0.021 C 
BRANCH  29  30
ATOM     30  C   UNL A   1      37.979  22.311  25.631  1.00  0.00     0.116 C 
BRANCH  30  31
ATOM     31  N   UNL A   1      39.310  21.841  25.958  1.00  0.00    -0.352 N 
ATOM     32  C   UNL A   1      40.422  22.346  26.562  1.00  0.00     0.251 C 
ATOM     33  H   UNL A   1      39.447  20.910  25.668  1.00  0.00     0.163 HD
ATOM     34  O   UNL A   1      41.376  21.565  26.641  1.00  0.00    -0.269 OA
BRANCH  32  35
ATOM     35  C   UNL A   1      40.581  23.731  27.077  1.00  0.00     0.039 A 
ATOM     36  C   UNL A   1      41.634  24.192  27.863  1.00  0.00     0.014 A 
ATOM     37  C   UNL A   1      39.538  24.624  26.757  1.00  0.00     0.014 A 
ATOM     38  C   UNL A   1      41.602  25.484  28.384  1.00  0.00     0.010 A 
ATOM     39  C   UNL A   1      39.511  25.919  27.260  1.00  0.00     0.010 A 
ATOM     40  C   UNL A   1      40.522  26.335  28.116  1.00  0.00    -0.014 A 
BRANCH  40  41
ATOM     41  C   UNL A   1      40.540  27.669  28.711  1.00  0.00     0.031 A 
ATOM     42  C   UNL A   1      41.571  28.598  28.168  1.00  0.00     0.074 A 
ATOM     43  C   UNL A   1      39.669  28.102  29.644  1.00  0.00     0.049 A 
ATOM     44  N   UNL A   1      42.622  29.058  28.764  1.00  0.00    -0.248 NA
ATOM     45  C   UNL A   1      41.478  28.960  26.748  1.00  0.00     0.031 C 
ATOM     46  C   UNL A   1      38.423  27.475  30.094  1.00  0.00     0.029 A 
ATOM     47  N   UNL A   1      39.693  29.273  30.341  1.00  0.00    -0.354 N 
ATOM     48  C   UNL A   1      43.244  29.912  27.853  1.00  0.00     0.074 A 
ATOM     49  C   UNL A   1      42.574  29.704  26.593  1.00  0.00     0.031 C 
ATOM     50  C   UNL A   1      37.711  28.369  30.819  1.00  0.00     0.029 A 
ATOM     51  C   UNL A   1      38.520  29.559  31.020  1.00  0.00     0.049 A 
ATOM     52  H   UNL A   1      40.478  29.866  30.360  1.00  0.00     0.167 HD
ATOM     53  C   UNL A   1      44.159  30.849  28.241  1.00  0.00     0.034 A 
ATOM     54  C   UNL A   1      38.210  30.714  31.659  1.00  0.00     0.034 A 
ATOM     55  C   UNL A   1      44.635  30.598  29.575  1.00  0.00     0.049 A 
ATOM     56  C   UNL A   1      39.471  31.433  31.955  1.00  0.00     0.074 A 
ATOM     57  C   UNL A   1      45.357  29.588  30.178  1.00  0.00     0.029 A 
ATOM     58  N   UNL A   1      44.080  31.324  30.599  1.00  0.00    -0.354 N 
ATOM     59  N   UNL A   1      40.349  31.041  32.833  1.00  0.00    -0.248 NA
ATOM     60  C   UNL A   1      39.957  32.384  30.968  1.00  0.00     0.031 C 
ATOM     61  C   UNL A   1      44.810  29.477  31.489  1.00  0.00     0.029 A 
ATOM     62  C   UNL A   1      43.821  30.453  31.626  1.00  0.00     0.049 A 
ATOM     63  H   UNL A   1      43.901  32.292  30.596  1.00  0.00     0.167 HD
ATOM     64  C   UNL A   1      41.574  31.315  32.245  1.00  0.00     0.074 A 
ATOM     65  C   UNL A   1      41.270  32.244  31.159  1.00  0.00     0.031 C 
ATOM     66  C   UNL A   1      42.677  30.554  32.510  1.00  0.00     0.034 A 
BRANCH  53  67
ATOM     67  C   UNL A   1      44.402  32.160  27.529  1.00  0.00     0.023 A 
ATOM     68  C   UNL A   1      43.748  33.354  27.887  1.00  0.00     0.031 A 
ATOM     69  C   UNL A   1      45.469  32.299  26.617  1.00  0.00     0.131 A 
ATOM     70  C   UNL A   1      44.133  34.593  27.359  1.00  0.00     0.055 A 
ATOM     71  C   UNL A   1      45.899  33.544  26.140  1.00  0.00     0.041 A 
ATOM     72  F   UNL A   1      46.171  31.231  26.204  1.00  0.00    -0.206 F 
ATOM     73  C   UNL A   1      45.230  34.703  26.512  1.00  0.00     0.022 A 
BRANCH  70  74
ATOM     74  S   UNL A   1      43.209  36.094  27.785  1.00  0.00     0.124 S 
ATOM     75  O   UNL A   1      42.077  35.547  28.529  1.00  0.00    -0.237 OA
ATOM     76  O   UNL A   1      44.191  36.830  28.579  1.00  0.00    -0.237 OA
ATOM     77  O   UNL A   1      42.897  36.683  26.488  1.00  0.00    -0.744 OA
ENDBRANCH  70  74
ENDBRANCH  53  67
BRANCH  54  78
ATOM     78  C   UNL A   1      36.918  31.431  31.575  1.00  0.00     0.023 A 
ATOM     79  C   UNL A   1      36.304  31.602  30.320  1.00  0.00     0.031 A 
ATOM     80  C   UNL A   1      36.456  32.227  32.637  1.00  0.00     0.131 A 
ATOM     81  C   UNL A   1      35.315  32.577  30.141  1.00  0.00     0.055 A 
ATOM     82  C   UNL A   1      35.452  33.186  32.461  1.00  0.00     0.041 A 
ATOM     83  F   UNL A   1      37.024  32.139  33.850  1.00  0.00    -0.206 F 
ATOM     84  C   UNL A   1      34.888  33.376  31.202  1.00  0.00     0.022 A 
BRANCH  81  85
ATOM     85  S   UNL A   1      34.631  32.890  28.490  1.00  0.00     0.124 S 
ATOM     86  O   UNL A   1      33.941  31.635  28.200  1.00  0.00    -0.237 OA
ATOM     87  O   UNL A   1      33.768  34.038  28.741  1.00  0.00    -0.237 OA
ATOM     88  O   UNL A   1      35.813  33.147  27.673  1.00  0.00    -0.744 OA
ENDBRANCH  81  85
ENDBRANCH  54  78
BRANCH  66  89
ATOM     89  C   UNL A   1      42.618  29.550  33.643  1.00  0.00     0.023 A 
ATOM     90  C   UNL A   1      43.252  29.896  34.850  1.00  0.00     0.031 A 
ATOM     91  C   UNL A   1      42.169  28.222  33.509  1.00  0.00     0.131 A 
ATOM     92  C   UNL A   1      43.454  28.935  35.849  1.00  0.00     0.055 A 
ATOM     93  C   UNL A   1      42.306  27.284  34.538  1.00  0.00     0.041 A 
ATOM     94  F   UNL A   1      41.664  27.764  32.356  1.00  0.00    -0.206 F 
ATOM     95  C   UNL A   1      42.966  27.634  35.709  1.00  0.00     0.022 A 
BRANCH  92  96
ATOM     96  S   UNL A   1      44.497  29.308  37.281  1.00  0.00     0.124 S 
ATOM     97  O   UNL A   1      43.810  30.451  37.875  1.00  0.00    -0.237 OA
ATOM     98  O   UNL A   1      44.425  28.065  38.050  1.00  0.00    -0.237 OA
ATOM     99  O   UNL A   1      45.805  29.596  36.702  1.00  0.00    -0.744 OA
ENDBRANCH  92  96
ENDBRANCH  66  89
ENDBRANCH  40  41
ENDBRANCH  32  35
ENDBRANCH  30  31
ENDBRANCH  29  30
ENDBRANCH  28  29
ENDBRANCH   1  28
TORSDOF 19
ENDMDL
