MODEL 1
REMARK VINA RESULT:     -11.7      0.000      0.000
REMARK SMILES O=C(NCCCCCCNC(=O)c1cccc(S(=O)(=O)Nc2cccc(I)c2)c1)c1ccc(-c2c3nc(c(-c4cc(S(=O)(=O)[O-])ccc4F)c4ccc([nH]4)c(-c4cc(S(=O)(=O)[O-])ccc4F)c4nc(c(-c5cc(S(=O)(=O)[O-])ccc5F)c5ccc2[nH]5)C=C4)C=C3)cc1
REMARK SMILES IDX 6 1 5 2 4 3 3 4 1 5 2 6 30 8 31 9 92 10 32 11 91 12 33 13
REMARK SMILES IDX 34 14 35 15 85 16 36 17 90 18 84 19 86 20 37 21 89 22 83 23
REMARK SMILES IDX 82 24 38 26 70 27 50 28 69 29 51 30 54 31 68 32 87 33 52 34
REMARK SMILES IDX 53 35 67 37 88 38 55 39 39 40 40 41 48 42 41 43 47 44 49 45
REMARK SMILES IDX 46 46 42 47 43 48 44 49 45 50 71 51 72 52 80 53 73 54 79 55
REMARK SMILES IDX 81 56 78 57 74 58 75 59 76 60 77 61 56 62 57 63 65 64 58 65
REMARK SMILES IDX 64 66 66 67 63 68 59 69 60 70 61 71 62 72 7 73 8 74 9 75
REMARK SMILES IDX 10 76 11 77 12 79 13 80 14 81 29 82 15 83 17 84 16 85 18 86
REMARK SMILES IDX 19 87 20 88 21 89 22 91 23 92 28 93 24 94 26 95 25 96 27 97
REMARK H PARENT 3 7 86 25 54 36 10 78 21 90
REMARK Flexibility Score: inf
ROOT
ATOM      1  C   UNL A   1      37.316  19.511  25.020  1.00  0.00     0.002 C 
ENDROOT
BRANCH   1   2
ATOM      2  C   UNL A   1      38.791  19.892  24.877  1.00  0.00     0.021 C 
BRANCH   2   3
ATOM      3  C   UNL A   1      39.630  19.799  26.146  1.00  0.00     0.116 C 
BRANCH   3   4
ATOM      4  N   UNL A   1      40.735  18.864  26.042  1.00  0.00    -0.352 N 
ATOM      5  O   UNL A   1      42.884  18.209  25.880  1.00  0.00    -0.269 OA
ATOM      6  C   UNL A   1      42.086  19.119  26.079  1.00  0.00     0.251 C 
ATOM      7  H   UNL A   1      40.483  17.919  25.928  1.00  0.00     0.163 HD
BRANCH   6   8
ATOM      8  C   UNL A   1      42.575  20.496  26.330  1.00  0.00     0.039 A 
ATOM      9  C   UNL A   1      42.657  21.012  27.625  1.00  0.00     0.014 A 
ATOM     10  C   UNL A   1      42.970  21.279  25.240  1.00  0.00     0.014 A 
ATOM     11  C   UNL A   1      43.017  22.343  27.821  1.00  0.00     0.010 A 
ATOM     12  C   UNL A   1      43.399  22.594  25.446  1.00  0.00     0.010 A 
ATOM     13  C   UNL A   1      43.403  23.145  26.736  1.00  0.00    -0.014 A 
BRANCH  13  14
ATOM     14  C   UNL A   1      43.863  24.537  26.978  1.00  0.00     0.031 A 
ATOM     15  C   UNL A   1      42.925  25.584  27.513  1.00  0.00     0.074 A 
ATOM     16  C   UNL A   1      45.151  24.846  26.730  1.00  0.00     0.049 A 
ATOM     17  N   UNL A   1      43.159  26.843  27.782  1.00  0.00    -0.248 NA
ATOM     18  C   UNL A   1      41.542  25.160  27.772  1.00  0.00     0.031 C 
ATOM     19  C   UNL A   1      46.153  23.913  26.207  1.00  0.00     0.029 A 
ATOM     20  N   UNL A   1      45.844  26.018  26.895  1.00  0.00    -0.354 N 
ATOM     21  C   UNL A   1      41.954  27.369  28.235  1.00  0.00     0.074 A 
ATOM     22  C   UNL A   1      40.982  26.296  28.168  1.00  0.00     0.031 C 
ATOM     23  C   UNL A   1      47.337  24.536  26.133  1.00  0.00     0.029 A 
ATOM     24  C   UNL A   1      47.170  25.926  26.541  1.00  0.00     0.049 A 
ATOM     25  H   UNL A   1      45.432  26.845  27.233  1.00  0.00     0.167 HD
ATOM     26  C   UNL A   1      41.688  28.627  28.671  1.00  0.00     0.034 A 
ATOM     27  C   UNL A   1      48.140  26.859  26.528  1.00  0.00     0.034 A 
ATOM     28  C   UNL A   1      42.668  29.687  28.723  1.00  0.00     0.049 A 
ATOM     29  C   UNL A   1      47.808  28.257  26.972  1.00  0.00     0.074 A 
ATOM     30  C   UNL A   1      42.509  30.991  29.162  1.00  0.00     0.029 A 
ATOM     31  N   UNL A   1      43.990  29.570  28.312  1.00  0.00    -0.354 N 
ATOM     32  N   UNL A   1      46.663  28.735  27.399  1.00  0.00    -0.248 NA
ATOM     33  C   UNL A   1      48.898  29.238  26.930  1.00  0.00     0.031 C 
ATOM     34  C   UNL A   1      43.715  31.675  28.962  1.00  0.00     0.029 A 
ATOM     35  C   UNL A   1      44.648  30.781  28.462  1.00  0.00     0.049 A 
ATOM     36  H   UNL A   1      44.401  28.745  27.965  1.00  0.00     0.167 HD
ATOM     37  C   UNL A   1      46.900  30.074  27.692  1.00  0.00     0.074 A 
ATOM     38  C   UNL A   1      48.301  30.319  27.412  1.00  0.00     0.031 C 
ATOM     39  C   UNL A   1      46.039  31.016  28.154  1.00  0.00     0.034 A 
BRANCH  26  40
ATOM     40  C   UNL A   1      40.268  28.929  29.087  1.00  0.00     0.023 A 
ATOM     41  C   UNL A   1      39.873  28.905  30.436  1.00  0.00     0.031 A 
ATOM     42  C   UNL A   1      39.290  29.224  28.121  1.00  0.00     0.131 A 
ATOM     43  C   UNL A   1      38.526  29.103  30.777  1.00  0.00     0.055 A 
ATOM     44  C   UNL A   1      37.965  29.495  28.472  1.00  0.00     0.041 A 
ATOM     45  F   UNL A   1      39.603  29.243  26.816  1.00  0.00    -0.206 F 
ATOM     46  C   UNL A   1      37.573  29.421  29.806  1.00  0.00     0.022 A 
BRANCH  43  47
ATOM     47  S   UNL A   1      38.014  28.808  32.492  1.00  0.00     0.124 S 
ATOM     48  O   UNL A   1      38.979  29.614  33.235  1.00  0.00    -0.237 OA
ATOM     49  O   UNL A   1      36.640  29.294  32.498  1.00  0.00    -0.237 OA
ATOM     50  O   UNL A   1      38.167  27.363  32.652  1.00  0.00    -0.744 OA
ENDBRANCH  43  47
ENDBRANCH  26  40
BRANCH  27  51
ATOM     51  C   UNL A   1      49.506  26.508  26.053  1.00  0.00     0.023 A 
ATOM     52  C   UNL A   1      49.980  26.963  24.812  1.00  0.00     0.031 A 
ATOM     53  C   UNL A   1      50.354  25.698  26.829  1.00  0.00     0.131 A 
ATOM     54  C   UNL A   1      51.256  26.579  24.371  1.00  0.00     0.055 A 
ATOM     55  C   UNL A   1      51.639  25.357  26.407  1.00  0.00     0.041 A 
ATOM     56  F   UNL A   1      49.948  25.244  28.027  1.00  0.00    -0.206 F 
ATOM     57  C   UNL A   1      52.092  25.791  25.166  1.00  0.00     0.022 A 
BRANCH  54  58
ATOM     58  S   UNL A   1      51.785  27.078  22.710  1.00  0.00     0.124 S 
ATOM     59  O   UNL A   1      50.538  26.986  21.960  1.00  0.00    -0.237 OA
ATOM     60  O   UNL A   1      52.294  28.424  22.947  1.00  0.00    -0.237 OA
ATOM     61  O   UNL A   1      52.798  26.083  22.364  1.00  0.00    -0.744 OA
ENDBRANCH  54  58
ENDBRANCH  27  51
BRANCH  39  62
ATOM     62  C   UNL A   1      46.612  32.387  28.406  1.00  0.00     0.023 A 
ATOM     63  C   UNL A   1      46.710  33.343  27.379  1.00  0.00     0.031 A 
ATOM     64  C   UNL A   1      47.096  32.729  29.680  1.00  0.00     0.131 A 
ATOM     65  C   UNL A   1      47.332  34.575  27.631  1.00  0.00     0.055 A 
ATOM     66  C   UNL A   1      47.665  33.976  29.938  1.00  0.00     0.041 A 
ATOM     67  F   UNL A   1      47.029  31.850  30.694  1.00  0.00    -0.206 F 
ATOM     68  C   UNL A   1      47.798  34.903  28.907  1.00  0.00     0.022 A 
BRANCH  65  69
ATOM     69  S   UNL A   1      47.603  35.713  26.244  1.00  0.00     0.124 S 
ATOM     70  O   UNL A   1      46.315  36.393  26.154  1.00  0.00    -0.237 OA
ATOM     71  O   UNL A   1      48.721  36.523  26.718  1.00  0.00    -0.237 OA
ATOM     72  O   UNL A   1      47.914  34.823  25.127  1.00  0.00    -0.744 OA
ENDBRANCH  65  69
ENDBRANCH  39  62
ENDBRANCH  13  14
ENDBRANCH   6   8
ENDBRANCH   3   4
ENDBRANCH   2   3
ENDBRANCH   1   2
BRANCH   1  73
ATOM     73  C   UNL A   1      36.310  20.664  24.964  1.00  0.00     0.002 C 
BRANCH  73  74
ATOM     74  C   UNL A   1      36.824  21.991  24.391  1.00  0.00     0.021 C 
BRANCH  74  75
ATOM     75  C   UNL A   1      36.611  23.219  25.273  1.00  0.00     0.116 C 
BRANCH  75  76
ATOM     76  N   UNL A   1      35.667  22.965  26.344  1.00  0.00    -0.352 N 
ATOM     77  C   UNL A   1      34.298  23.032  26.341  1.00  0.00     0.251 C 
ATOM     78  H   UNL A   1      36.070  22.702  27.202  1.00  0.00     0.163 HD
ATOM     79  O   UNL A   1      33.691  22.959  27.407  1.00  0.00    -0.269 OA
BRANCH  77  80
ATOM     80  C   UNL A   1      33.526  23.161  25.079  1.00  0.00     0.041 A 
ATOM     81  C   UNL A   1      33.086  21.999  24.436  1.00  0.00     0.014 A 
ATOM     82  C   UNL A   1      33.380  24.399  24.445  1.00  0.00     0.036 A 
ATOM     83  C   UNL A   1      32.483  22.076  23.180  1.00  0.00     0.002 A 
ATOM     84  C   UNL A   1      32.836  24.472  23.162  1.00  0.00     0.088 A 
ATOM     85  C   UNL A   1      32.364  23.311  22.538  1.00  0.00     0.022 A 
BRANCH  84  86
ATOM     86  S   UNL A   1      32.818  25.979  22.205  1.00  0.00     0.261 S 
ATOM     87  O   UNL A   1      34.199  26.374  22.030  1.00  0.00    -0.201 OA
ATOM     88  O   UNL A   1      31.967  25.710  21.065  1.00  0.00    -0.201 OA
BRANCH  86  89
ATOM     89  N   UNL A   1      32.013  27.138  23.097  1.00  0.00    -0.280 N 
ATOM     90  H   UNL A   1      32.542  27.621  23.773  1.00  0.00     0.180 HD
BRANCH  89  91
ATOM     91  C   UNL A   1      30.642  27.504  22.985  1.00  0.00     0.050 A 
ATOM     92  C   UNL A   1      29.716  26.663  23.613  1.00  0.00     0.027 A 
ATOM     93  C   UNL A   1      30.197  28.701  22.415  1.00  0.00     0.041 A 
ATOM     94  C   UNL A   1      28.380  27.047  23.742  1.00  0.00     0.003 A 
ATOM     95  C   UNL A   1      28.866  29.096  22.577  1.00  0.00     0.015 A 
ATOM     96  C   UNL A   1      27.958  28.278  23.247  1.00  0.00     0.015 A 
ATOM     97  I   UNL A   1      28.259  30.962  21.889  1.00  0.00    -0.044 I 
ENDBRANCH  89  91
ENDBRANCH  86  89
ENDBRANCH  84  86
ENDBRANCH  77  80
ENDBRANCH  75  76
ENDBRANCH  74  75
ENDBRANCH  73  74
ENDBRANCH   1  73
TORSDOF 19
ENDMDL
MODEL 2
REMARK VINA RESULT:     -11.6      1.818      2.328
REMARK SMILES O=C(NCCCCCCNC(=O)c1cccc(S(=O)(=O)Nc2cccc(I)c2)c1)c1ccc(-c2c3nc(c(-c4cc(S(=O)(=O)[O-])ccc4F)c4ccc([nH]4)c(-c4cc(S(=O)(=O)[O-])ccc4F)c4nc(c(-c5cc(S(=O)(=O)[O-])ccc5F)c5ccc2[nH]5)C=C4)C=C3)cc1
REMARK SMILES IDX 6 1 5 2 4 3 3 4 1 5 2 6 30 8 31 9 92 10 32 11 91 12 33 13
REMARK SMILES IDX 34 14 35 15 85 16 36 17 90 18 84 19 86 20 37 21 89 22 83 23
REMARK SMILES IDX 82 24 38 26 70 27 50 28 69 29 51 30 54 31 68 32 87 33 52 34
REMARK SMILES IDX 53 35 67 37 88 38 55 39 39 40 40 41 48 42 41 43 47 44 49 45
REMARK SMILES IDX 46 46 42 47 43 48 44 49 45 50 71 51 72 52 80 53 73 54 79 55
REMARK SMILES IDX 81 56 78 57 74 58 75 59 76 60 77 61 56 62 57 63 65 64 58 65
REMARK SMILES IDX 64 66 66 67 63 68 59 69 60 70 61 71 62 72 7 73 8 74 9 75
REMARK SMILES IDX 10 76 11 77 12 79 13 80 14 81 29 82 15 83 17 84 16 85 18 86
REMARK SMILES IDX 19 87 20 88 21 89 22 91 23 92 28 93 24 94 26 95 25 96 27 97
REMARK H PARENT 3 7 86 25 54 36 10 78 21 90
REMARK Flexibility Score: inf
ROOT
ATOM      1  C   UNL A   1      40.801  21.934  27.993  1.00  0.00     0.002 C 
ENDROOT
BRANCH   1   2
ATOM      2  C   UNL A   1      41.130  20.489  27.617  1.00  0.00     0.021 C 
BRANCH   2   3
ATOM      3  C   UNL A   1      41.018  20.142  26.136  1.00  0.00     0.116 C 
BRANCH   3   4
ATOM      4  N   UNL A   1      42.190  19.467  25.611  1.00  0.00    -0.352 N 
ATOM      5  O   UNL A   1      44.295  19.282  24.828  1.00  0.00    -0.269 OA
ATOM      6  C   UNL A   1      43.442  19.982  25.366  1.00  0.00     0.251 C 
ATOM      7  H   UNL A   1      42.074  18.512  25.401  1.00  0.00     0.163 HD
BRANCH   6   8
ATOM      8  C   UNL A   1      43.750  21.387  25.723  1.00  0.00     0.039 A 
ATOM      9  C   UNL A   1      44.338  21.712  26.948  1.00  0.00     0.014 A 
ATOM     10  C   UNL A   1      43.454  22.397  24.802  1.00  0.00     0.014 A 
ATOM     11  C   UNL A   1      44.517  23.047  27.300  1.00  0.00     0.010 A 
ATOM     12  C   UNL A   1      43.700  23.734  25.129  1.00  0.00     0.010 A 
ATOM     13  C   UNL A   1      44.211  24.072  26.391  1.00  0.00    -0.014 A 
BRANCH  13  14
ATOM     14  C   UNL A   1      44.489  25.486  26.757  1.00  0.00     0.031 A 
ATOM     15  C   UNL A   1      43.414  26.363  27.338  1.00  0.00     0.074 A 
ATOM     16  C   UNL A   1      45.734  25.968  26.580  1.00  0.00     0.049 A 
ATOM     17  N   UNL A   1      43.483  27.615  27.711  1.00  0.00    -0.248 NA
ATOM     18  C   UNL A   1      42.088  25.755  27.514  1.00  0.00     0.031 C 
ATOM     19  C   UNL A   1      46.857  25.209  26.021  1.00  0.00     0.029 A 
ATOM     20  N   UNL A   1      46.272  27.198  26.859  1.00  0.00    -0.354 N 
ATOM     21  C   UNL A   1      42.211  27.952  28.161  1.00  0.00     0.074 A 
ATOM     22  C   UNL A   1      41.382  26.778  27.977  1.00  0.00     0.031 C 
ATOM     23  C   UNL A   1      47.957  25.975  26.038  1.00  0.00     0.029 A 
ATOM     24  C   UNL A   1      47.608  27.297  26.547  1.00  0.00     0.049 A 
ATOM     25  H   UNL A   1      45.752  27.938  27.246  1.00  0.00     0.167 HD
ATOM     26  C   UNL A   1      41.780  29.128  28.683  1.00  0.00     0.034 A 
ATOM     27  C   UNL A   1      48.455  28.340  26.641  1.00  0.00     0.034 A 
ATOM     28  C   UNL A   1      42.619  30.292  28.852  1.00  0.00     0.049 A 
ATOM     29  C   UNL A   1      47.940  29.645  27.180  1.00  0.00     0.074 A 
ATOM     30  C   UNL A   1      42.288  31.527  29.385  1.00  0.00     0.029 A 
ATOM     31  N   UNL A   1      43.955  30.371  28.481  1.00  0.00    -0.354 N 
ATOM     32  N   UNL A   1      46.734  29.945  27.602  1.00  0.00    -0.248 NA
ATOM     33  C   UNL A   1      48.900  30.752  27.253  1.00  0.00     0.031 C 
ATOM     34  C   UNL A   1      43.404  32.366  29.282  1.00  0.00     0.029 A 
ATOM     35  C   UNL A   1      44.453  31.637  28.748  1.00  0.00     0.049 A 
ATOM     36  H   UNL A   1      44.475  29.633  28.086  1.00  0.00     0.167 HD
ATOM     37  C   UNL A   1      46.795  31.274  28.006  1.00  0.00     0.074 A 
ATOM     38  C   UNL A   1      48.162  31.710  27.795  1.00  0.00     0.031 C 
ATOM     39  C   UNL A   1      45.812  32.064  28.509  1.00  0.00     0.034 A 
BRANCH  26  40
ATOM     40  C   UNL A   1      40.323  29.221  29.071  1.00  0.00     0.023 A 
ATOM     41  C   UNL A   1      39.914  29.194  30.416  1.00  0.00     0.031 A 
ATOM     42  C   UNL A   1      39.327  29.315  28.083  1.00  0.00     0.131 A 
ATOM     43  C   UNL A   1      38.547  29.192  30.734  1.00  0.00     0.055 A 
ATOM     44  C   UNL A   1      37.971  29.388  28.408  1.00  0.00     0.041 A 
ATOM     45  F   UNL A   1      39.655  29.326  26.781  1.00  0.00    -0.206 F 
ATOM     46  C   UNL A   1      37.573  29.313  29.740  1.00  0.00     0.022 A 
BRANCH  43  47
ATOM     47  S   UNL A   1      38.058  28.894  32.455  1.00  0.00     0.124 S 
ATOM     48  O   UNL A   1      38.999  29.743  33.183  1.00  0.00    -0.237 OA
ATOM     49  O   UNL A   1      36.667  29.330  32.468  1.00  0.00    -0.237 OA
ATOM     50  O   UNL A   1      38.266  27.458  32.628  1.00  0.00    -0.744 OA
ENDBRANCH  43  47
ENDBRANCH  26  40
BRANCH  27  51
ATOM     51  C   UNL A   1      49.865  28.197  26.188  1.00  0.00     0.023 A 
ATOM     52  C   UNL A   1      50.218  28.396  24.844  1.00  0.00     0.031 A 
ATOM     53  C   UNL A   1      50.881  27.845  27.095  1.00  0.00     0.131 A 
ATOM     54  C   UNL A   1      51.549  28.211  24.439  1.00  0.00     0.055 A 
ATOM     55  C   UNL A   1      52.211  27.708  26.696  1.00  0.00     0.041 A 
ATOM     56  F   UNL A   1      50.594  27.651  28.393  1.00  0.00    -0.206 F 
ATOM     57  C   UNL A   1      52.549  27.882  25.358  1.00  0.00     0.022 A 
BRANCH  54  58
ATOM     58  S   UNL A   1      51.945  28.350  22.675  1.00  0.00     0.124 S 
ATOM     59  O   UNL A   1      53.396  28.499  22.706  1.00  0.00    -0.237 OA
ATOM     60  O   UNL A   1      51.441  27.085  22.152  1.00  0.00    -0.237 OA
ATOM     61  O   UNL A   1      51.203  29.536  22.253  1.00  0.00    -0.744 OA
ENDBRANCH  54  58
ENDBRANCH  27  51
BRANCH  39  62
ATOM     62  C   UNL A   1      46.204  33.469  28.886  1.00  0.00     0.023 A 
ATOM     63  C   UNL A   1      46.139  34.525  27.959  1.00  0.00     0.031 A 
ATOM     64  C   UNL A   1      46.679  33.748  30.179  1.00  0.00     0.131 A 
ATOM     65  C   UNL A   1      46.598  35.800  28.322  1.00  0.00     0.055 A 
ATOM     66  C   UNL A   1      47.083  35.031  30.551  1.00  0.00     0.041 A 
ATOM     67  F   UNL A   1      46.763  32.775  31.100  1.00  0.00    -0.206 F 
ATOM     68  C   UNL A   1      47.057  36.062  29.616  1.00  0.00     0.022 A 
BRANCH  65  69
ATOM     69  S   UNL A   1      46.669  37.094  27.052  1.00  0.00     0.124 S 
ATOM     70  O   UNL A   1      46.422  36.333  25.831  1.00  0.00    -0.237 OA
ATOM     71  O   UNL A   1      45.602  37.999  27.468  1.00  0.00    -0.237 OA
ATOM     72  O   UNL A   1      48.023  37.630  27.185  1.00  0.00    -0.744 OA
ENDBRANCH  65  69
ENDBRANCH  39  62
ENDBRANCH  13  14
ENDBRANCH   6   8
ENDBRANCH   3   4
ENDBRANCH   2   3
ENDBRANCH   1   2
BRANCH   1  73
ATOM     73  C   UNL A   1      40.419  22.865  26.839  1.00  0.00     0.002 C 
BRANCH  73  74
ATOM     74  C   UNL A   1      39.148  23.701  27.030  1.00  0.00     0.021 C 
BRANCH  74  75
ATOM     75  C   UNL A   1      38.068  23.517  25.965  1.00  0.00     0.116 C 
BRANCH  75  76
ATOM     76  N   UNL A   1      38.154  22.221  25.321  1.00  0.00    -0.352 N 
ATOM     77  C   UNL A   1      37.159  21.332  25.003  1.00  0.00     0.251 C 
ATOM     78  H   UNL A   1      39.062  21.937  25.073  1.00  0.00     0.163 HD
ATOM     79  O   UNL A   1      37.462  20.202  24.627  1.00  0.00    -0.269 OA
BRANCH  77  80
ATOM     80  C   UNL A   1      35.725  21.708  25.074  1.00  0.00     0.041 A 
ATOM     81  C   UNL A   1      35.024  21.467  26.260  1.00  0.00     0.014 A 
ATOM     82  C   UNL A   1      35.033  22.138  23.938  1.00  0.00     0.036 A 
ATOM     83  C   UNL A   1      33.645  21.676  26.317  1.00  0.00     0.002 A 
ATOM     84  C   UNL A   1      33.646  22.286  23.973  1.00  0.00     0.088 A 
ATOM     85  C   UNL A   1      32.953  22.079  25.172  1.00  0.00     0.022 A 
BRANCH  84  86
ATOM     86  S   UNL A   1      32.673  22.617  22.513  1.00  0.00     0.261 S 
ATOM     87  O   UNL A   1      33.502  23.415  21.636  1.00  0.00    -0.201 OA
ATOM     88  O   UNL A   1      32.155  21.333  22.087  1.00  0.00    -0.201 OA
BRANCH  86  89
ATOM     89  N   UNL A   1      31.337  23.501  22.982  1.00  0.00    -0.280 N 
ATOM     90  H   UNL A   1      30.459  23.076  22.849  1.00  0.00     0.180 HD
BRANCH  89  91
ATOM     91  C   UNL A   1      31.332  24.805  23.555  1.00  0.00     0.050 A 
ATOM     92  C   UNL A   1      30.655  24.950  24.772  1.00  0.00     0.027 A 
ATOM     93  C   UNL A   1      32.064  25.883  23.050  1.00  0.00     0.041 A 
ATOM     94  C   UNL A   1      30.773  26.127  25.514  1.00  0.00     0.003 A 
ATOM     95  C   UNL A   1      32.206  27.045  23.812  1.00  0.00     0.015 A 
ATOM     96  C   UNL A   1      31.571  27.168  25.047  1.00  0.00     0.015 A 
ATOM     97  I   UNL A   1      33.448  28.571  23.137  1.00  0.00    -0.044 I 
ENDBRANCH  89  91
ENDBRANCH  86  89
ENDBRANCH  84  86
ENDBRANCH  77  80
ENDBRANCH  75  76
ENDBRANCH  74  75
ENDBRANCH  73  74
ENDBRANCH   1  73
TORSDOF 19
ENDMDL
MODEL 3
REMARK VINA RESULT:     -11.5      3.808      8.657
REMARK SMILES O=C(NCCCCCCNC(=O)c1cccc(S(=O)(=O)Nc2cccc(I)c2)c1)c1ccc(-c2c3nc(c(-c4cc(S(=O)(=O)[O-])ccc4F)c4ccc([nH]4)c(-c4cc(S(=O)(=O)[O-])ccc4F)c4nc(c(-c5cc(S(=O)(=O)[O-])ccc5F)c5ccc2[nH]5)C=C4)C=C3)cc1
REMARK SMILES IDX 6 1 5 2 4 3 3 4 1 5 2 6 30 8 31 9 92 10 32 11 91 12 33 13
REMARK SMILES IDX 34 14 35 15 85 16 36 17 90 18 84 19 86 20 37 21 89 22 83 23
REMARK SMILES IDX 82 24 38 26 70 27 50 28 69 29 51 30 54 31 68 32 87 33 52 34
REMARK SMILES IDX 53 35 67 37 88 38 55 39 39 40 40 41 48 42 41 43 47 44 49 45
REMARK SMILES IDX 46 46 42 47 43 48 44 49 45 50 71 51 72 52 80 53 73 54 79 55
REMARK SMILES IDX 81 56 78 57 74 58 75 59 76 60 77 61 56 62 57 63 65 64 58 65
REMARK SMILES IDX 64 66 66 67 63 68 59 69 60 70 61 71 62 72 7 73 8 74 9 75
REMARK SMILES IDX 10 76 11 77 12 79 13 80 14 81 29 82 15 83 17 84 16 85 18 86
REMARK SMILES IDX 19 87 20 88 21 89 22 91 23 92 28 93 24 94 26 95 25 96 27 97
REMARK H PARENT 3 7 86 25 54 36 10 78 21 90
REMARK Flexibility Score: inf
ROOT
ATOM      1  C   UNL A   1      35.245  21.621  26.098  1.00  0.00     0.002 C 
ENDROOT
BRANCH   1   2
ATOM      2  C   UNL A   1      35.451  23.018  25.510  1.00  0.00     0.021 C 
BRANCH   2   3
ATOM      3  C   UNL A   1      36.886  23.532  25.497  1.00  0.00     0.116 C 
BRANCH   3   4
ATOM      4  N   UNL A   1      37.865  22.524  25.860  1.00  0.00    -0.352 N 
ATOM      5  O   UNL A   1      39.827  21.724  26.625  1.00  0.00    -0.269 OA
ATOM      6  C   UNL A   1      39.082  22.688  26.479  1.00  0.00     0.251 C 
ATOM      7  H   UNL A   1      37.625  21.596  25.632  1.00  0.00     0.163 HD
BRANCH   6   8
ATOM      8  C   UNL A   1      39.505  24.032  26.940  1.00  0.00     0.039 A 
ATOM      9  C   UNL A   1      39.942  25.004  26.037  1.00  0.00     0.014 A 
ATOM     10  C   UNL A   1      39.449  24.324  28.307  1.00  0.00     0.014 A 
ATOM     11  C   UNL A   1      40.434  26.218  26.508  1.00  0.00     0.010 A 
ATOM     12  C   UNL A   1      39.877  25.571  28.772  1.00  0.00     0.010 A 
ATOM     13  C   UNL A   1      40.397  26.520  27.879  1.00  0.00    -0.014 A 
BRANCH  13  14
ATOM     14  C   UNL A   1      40.850  27.855  28.349  1.00  0.00     0.031 A 
ATOM     15  C   UNL A   1      42.303  28.240  28.309  1.00  0.00     0.074 A 
ATOM     16  C   UNL A   1      39.930  28.731  28.797  1.00  0.00     0.049 A 
ATOM     17  N   UNL A   1      42.871  29.360  28.680  1.00  0.00    -0.248 NA
ATOM     18  C   UNL A   1      43.240  27.233  27.792  1.00  0.00     0.031 C 
ATOM     19  C   UNL A   1      38.491  28.466  28.884  1.00  0.00     0.029 A 
ATOM     20  N   UNL A   1      40.057  30.019  29.248  1.00  0.00    -0.354 N 
ATOM     21  C   UNL A   1      44.232  29.194  28.450  1.00  0.00     0.074 A 
ATOM     22  C   UNL A   1      44.406  27.848  27.941  1.00  0.00     0.031 C 
ATOM     23  C   UNL A   1      37.866  29.569  29.319  1.00  0.00     0.029 A 
ATOM     24  C   UNL A   1      38.861  30.598  29.602  1.00  0.00     0.049 A 
ATOM     25  H   UNL A   1      40.921  30.485  29.312  1.00  0.00     0.167 HD
ATOM     26  C   UNL A   1      45.240  30.084  28.641  1.00  0.00     0.034 A 
ATOM     27  C   UNL A   1      38.593  31.813  30.116  1.00  0.00     0.034 A 
ATOM     28  C   UNL A   1      45.049  31.419  29.157  1.00  0.00     0.049 A 
ATOM     29  C   UNL A   1      39.732  32.764  30.360  1.00  0.00     0.074 A 
ATOM     30  C   UNL A   1      45.997  32.406  29.373  1.00  0.00     0.029 A 
ATOM     31  N   UNL A   1      43.829  31.954  29.550  1.00  0.00    -0.354 N 
ATOM     32  N   UNL A   1      41.013  32.590  30.135  1.00  0.00    -0.248 NA
ATOM     33  C   UNL A   1      39.388  34.072  30.930  1.00  0.00     0.031 C 
ATOM     34  C   UNL A   1      45.359  33.512  29.949  1.00  0.00     0.029 A 
ATOM     35  C   UNL A   1      44.003  33.244  30.030  1.00  0.00     0.049 A 
ATOM     36  H   UNL A   1      42.965  31.487  29.494  1.00  0.00     0.167 HD
ATOM     37  C   UNL A   1      41.628  33.776  30.522  1.00  0.00     0.074 A 
ATOM     38  C   UNL A   1      40.574  34.662  30.975  1.00  0.00     0.031 C 
ATOM     39  C   UNL A   1      42.945  34.105  30.502  1.00  0.00     0.034 A 
BRANCH  26  40
ATOM     40  C   UNL A   1      46.642  29.620  28.324  1.00  0.00     0.023 A 
ATOM     41  C   UNL A   1      47.467  29.040  29.303  1.00  0.00     0.031 A 
ATOM     42  C   UNL A   1      47.170  29.781  27.030  1.00  0.00     0.131 A 
ATOM     43  C   UNL A   1      48.794  28.704  28.993  1.00  0.00     0.055 A 
ATOM     44  C   UNL A   1      48.467  29.376  26.708  1.00  0.00     0.041 A 
ATOM     45  F   UNL A   1      46.436  30.346  26.058  1.00  0.00    -0.206 F 
ATOM     46  C   UNL A   1      49.293  28.846  27.696  1.00  0.00     0.022 A 
BRANCH  43  47
ATOM     47  S   UNL A   1      49.898  28.203  30.342  1.00  0.00     0.124 S 
ATOM     48  O   UNL A   1      49.409  29.024  31.448  1.00  0.00    -0.237 OA
ATOM     49  O   UNL A   1      49.639  26.773  30.448  1.00  0.00    -0.237 OA
ATOM     50  O   UNL A   1      51.226  28.564  29.851  1.00  0.00    -0.744 OA
ENDBRANCH  43  47
ENDBRANCH  26  40
BRANCH  27  51
ATOM     51  C   UNL A   1      37.193  32.187  30.458  1.00  0.00     0.023 A 
ATOM     52  C   UNL A   1      36.344  32.767  29.503  1.00  0.00     0.031 A 
ATOM     53  C   UNL A   1      36.689  31.980  31.755  1.00  0.00     0.131 A 
ATOM     54  C   UNL A   1      35.044  33.148  29.867  1.00  0.00     0.055 A 
ATOM     55  C   UNL A   1      35.380  32.319  32.099  1.00  0.00     0.041 A 
ATOM     56  F   UNL A   1      37.461  31.422  32.702  1.00  0.00    -0.206 F 
ATOM     57  C   UNL A   1      34.553  32.916  31.154  1.00  0.00     0.022 A 
BRANCH  54  58
ATOM     58  S   UNL A   1      34.020  34.011  28.645  1.00  0.00     0.124 S 
ATOM     59  O   UNL A   1      34.965  34.973  28.089  1.00  0.00    -0.237 OA
ATOM     60  O   UNL A   1      33.620  32.921  27.762  1.00  0.00    -0.237 OA
ATOM     61  O   UNL A   1      32.943  34.585  29.449  1.00  0.00    -0.744 OA
ENDBRANCH  54  58
ENDBRANCH  27  51
BRANCH  39  62
ATOM     62  C   UNL A   1      43.299  35.496  30.963  1.00  0.00     0.023 A 
ATOM     63  C   UNL A   1      43.414  36.565  30.055  1.00  0.00     0.031 A 
ATOM     64  C   UNL A   1      43.556  35.747  32.321  1.00  0.00     0.131 A 
ATOM     65  C   UNL A   1      43.833  37.823  30.511  1.00  0.00     0.055 A 
ATOM     66  C   UNL A   1      43.920  37.015  32.777  1.00  0.00     0.041 A 
ATOM     67  F   UNL A   1      43.462  34.760  33.228  1.00  0.00    -0.206 F 
ATOM     68  C   UNL A   1      44.074  38.059  31.868  1.00  0.00     0.022 A 
BRANCH  65  69
ATOM     69  S   UNL A   1      44.144  39.131  29.292  1.00  0.00     0.124 S 
ATOM     70  O   UNL A   1      44.690  40.197  30.125  1.00  0.00    -0.237 OA
ATOM     71  O   UNL A   1      45.085  38.489  28.379  1.00  0.00    -0.237 OA
ATOM     72  O   UNL A   1      42.821  39.398  28.731  1.00  0.00    -0.744 OA
ENDBRANCH  65  69
ENDBRANCH  39  62
ENDBRANCH  13  14
ENDBRANCH   6   8
ENDBRANCH   3   4
ENDBRANCH   2   3
ENDBRANCH   1   2
BRANCH   1  73
ATOM     73  C   UNL A   1      34.388  20.658  25.271  1.00  0.00     0.002 C 
BRANCH  73  74
ATOM     74  C   UNL A   1      33.448  21.295  24.240  1.00  0.00     0.021 C 
BRANCH  74  75
ATOM     75  C   UNL A   1      32.005  21.497  24.698  1.00  0.00     0.116 C 
BRANCH  75  76
ATOM     76  N   UNL A   1      31.928  21.962  26.069  1.00  0.00    -0.352 N 
ATOM     77  C   UNL A   1      31.718  23.227  26.556  1.00  0.00     0.251 C 
ATOM     78  H   UNL A   1      32.041  21.265  26.753  1.00  0.00     0.163 HD
ATOM     79  O   UNL A   1      31.875  23.441  27.756  1.00  0.00    -0.269 OA
BRANCH  77  80
ATOM     80  C   UNL A   1      31.279  24.339  25.676  1.00  0.00     0.041 A 
ATOM     81  C   UNL A   1      29.984  24.847  25.828  1.00  0.00     0.014 A 
ATOM     82  C   UNL A   1      32.065  24.764  24.602  1.00  0.00     0.036 A 
ATOM     83  C   UNL A   1      29.490  25.793  24.929  1.00  0.00     0.002 A 
ATOM     84  C   UNL A   1      31.551  25.660  23.664  1.00  0.00     0.088 A 
ATOM     85  C   UNL A   1      30.269  26.195  23.842  1.00  0.00     0.022 A 
BRANCH  84  86
ATOM     86  S   UNL A   1      32.410  26.080  22.156  1.00  0.00     0.261 S 
ATOM     87  O   UNL A   1      33.545  25.188  22.065  1.00  0.00    -0.201 OA
ATOM     88  O   UNL A   1      31.396  26.107  21.122  1.00  0.00    -0.201 OA
BRANCH  86  89
ATOM     89  N   UNL A   1      32.944  27.655  22.296  1.00  0.00    -0.280 N 
ATOM     90  H   UNL A   1      33.442  28.021  21.530  1.00  0.00     0.180 HD
BRANCH  89  91
ATOM     91  C   UNL A   1      32.755  28.528  23.405  1.00  0.00     0.050 A 
ATOM     92  C   UNL A   1      31.517  29.175  23.488  1.00  0.00     0.027 A 
ATOM     93  C   UNL A   1      33.664  28.659  24.459  1.00  0.00     0.041 A 
ATOM     94  C   UNL A   1      31.158  29.877  24.641  1.00  0.00     0.003 A 
ATOM     95  C   UNL A   1      33.287  29.334  25.623  1.00  0.00     0.015 A 
ATOM     96  C   UNL A   1      32.033  29.936  25.722  1.00  0.00     0.015 A 
ATOM     97  I   UNL A   1      34.575  29.364  27.255  1.00  0.00    -0.044 I 
ENDBRANCH  89  91
ENDBRANCH  86  89
ENDBRANCH  84  86
ENDBRANCH  77  80
ENDBRANCH  75  76
ENDBRANCH  74  75
ENDBRANCH  73  74
ENDBRANCH   1  73
TORSDOF 19
ENDMDL
