MODEL 1
REMARK VINA RESULT:     -12.4      0.000      0.000
REMARK SMILES CC(C)[C@@H](NC(=O)/C(=C\c1ccccc1F)NC(=O)c1ccccc1)C(=O)NCCCCCCNC(=O)c1ccc(-c2c3nc(c(-c4cc(S(=O)(=O)[O-])ccc4F)c4ccc([nH]4)c(-c4cc(S(=O)(=O)[O-])ccc4F)c4nc(c(-c5cc(S(=O)(=O)[O-])ccc5F)c5ccc2[nH]5)C=C4)C=C3)cc1
REMARK SMILES IDX 31 1 30 2 29 3 28 4 26 5 27 6 4 8 2 9 1 10 3 11 5 12 6 13
REMARK SMILES IDX 7 15 8 16 9 17 17 18 18 19 19 21 20 22 21 23 25 24 22 25
REMARK SMILES IDX 24 26 23 27 10 28 11 29 15 30 12 31 14 32 16 33 13 34 32 35
REMARK SMILES IDX 33 36 34 37 35 38 36 39 37 41 38 42 39 43 100 44 40 45 99 46
REMARK SMILES IDX 41 47 42 48 43 49 93 50 44 51 98 52 92 53 94 54 45 55 97 56
REMARK SMILES IDX 91 57 90 58 46 60 78 61 58 62 77 63 59 64 62 65 76 66 95 67
REMARK SMILES IDX 60 68 61 69 75 71 96 72 63 73 47 74 48 75 56 76 49 77 55 78
REMARK SMILES IDX 57 79 54 80 50 81 51 82 52 83 53 84 79 85 80 86 88 87 81 88
REMARK SMILES IDX 87 89 89 90 86 91 82 92 83 93 84 94 85 95 64 96 65 97 73 98
REMARK SMILES IDX 66 99 72 100 74 101 71 102 67 103 68 104 69 105 70 106
REMARK H PARENT 28 7 5 14 17 20 35 40 94 59 62 70
REMARK Flexibility Score: inf
ROOT
ATOM      1  C   UNL A   1      32.592  29.628  27.153  1.00  0.00     0.002 C 
ENDROOT
BRANCH   1   2
ATOM      2  C   UNL A   1      31.947  28.317  27.623  1.00  0.00     0.021 C 
BRANCH   2   3
ATOM      3  C   UNL A   1      32.147  27.189  26.621  1.00  0.00     0.116 C 
BRANCH   3   4
ATOM      4  N   UNL A   1      30.850  26.640  26.322  1.00  0.00    -0.354 N 
ATOM      5  C   UNL A   1      30.614  25.607  25.475  1.00  0.00     0.242 C 
ATOM      6  O   UNL A   1      29.706  25.745  24.653  1.00  0.00    -0.273 OA
ATOM      7  H   UNL A   1      30.072  27.046  26.769  1.00  0.00     0.163 HD
BRANCH   5   8
ATOM      8  C   UNL A   1      31.556  24.400  25.442  1.00  0.00     0.174 C 
BRANCH   8   9
ATOM      9  C   UNL A   1      31.462  23.623  26.801  1.00  0.00     0.015 C 
ATOM     10  C   UNL A   1      30.197  22.761  26.879  1.00  0.00     0.010 C 
ATOM     11  C   UNL A   1      32.672  22.710  27.075  1.00  0.00     0.010 C 
ENDBRANCH   8   9
BRANCH   8  12
ATOM     12  N   UNL A   1      31.365  23.510  24.268  1.00  0.00    -0.339 N 
ATOM     13  C   UNL A   1      32.347  22.929  23.493  1.00  0.00     0.268 C 
ATOM     14  H   UNL A   1      30.435  23.313  24.016  1.00  0.00     0.164 HD
ATOM     15  O   UNL A   1      32.343  21.704  23.364  1.00  0.00    -0.268 OA
BRANCH  13  16
ATOM     16  C   UNL A   1      33.238  23.765  22.603  1.00  0.00     0.107 C 
ATOM     17  C   UNL A   1      34.569  23.920  22.791  1.00  0.00     0.043 C 
BRANCH  16  18
ATOM     18  N   UNL A   1      32.737  24.359  21.449  1.00  0.00    -0.317 N 
ATOM     19  C   UNL A   1      32.366  25.621  21.066  1.00  0.00     0.255 C 
ATOM     20  H   UNL A   1      32.619  23.706  20.722  1.00  0.00     0.170 HD
ATOM     21  O   UNL A   1      31.880  25.770  19.942  1.00  0.00    -0.269 OA
BRANCH  19  22
ATOM     22  C   UNL A   1      32.485  26.803  21.921  1.00  0.00     0.040 A 
ATOM     23  C   UNL A   1      31.315  27.443  22.338  1.00  0.00     0.014 A 
ATOM     24  C   UNL A   1      33.736  27.362  22.188  1.00  0.00     0.014 A 
ATOM     25  C   UNL A   1      31.402  28.614  23.090  1.00  0.00     0.001 A 
ATOM     26  C   UNL A   1      33.818  28.527  22.949  1.00  0.00     0.001 A 
ATOM     27  C   UNL A   1      32.653  29.146  23.406  1.00  0.00     0.000 A 
ENDBRANCH  19  22
ENDBRANCH  16  18
BRANCH  17  28
ATOM     28  C   UNL A   1      35.450  23.483  23.880  1.00  0.00     0.012 A 
ATOM     29  C   UNL A   1      36.238  22.343  23.648  1.00  0.00     0.011 A 
ATOM     30  C   UNL A   1      35.585  24.147  25.097  1.00  0.00     0.130 A 
ATOM     31  C   UNL A   1      37.241  21.977  24.551  1.00  0.00     0.001 A 
ATOM     32  C   UNL A   1      36.574  23.779  26.007  1.00  0.00     0.040 A 
ATOM     33  F   UNL A   1      34.784  25.175  25.407  1.00  0.00    -0.206 F 
ATOM     34  C   UNL A   1      37.427  22.715  25.717  1.00  0.00     0.003 A 
ENDBRANCH  17  28
ENDBRANCH  13  16
ENDBRANCH   8  12
ENDBRANCH   5   8
ENDBRANCH   3   4
ENDBRANCH   2   3
ENDBRANCH   1   2
BRANCH   1  35
ATOM     35  C   UNL A   1      31.667  30.515  26.313  1.00  0.00     0.002 C 
BRANCH  35  36
ATOM     36  C   UNL A   1      31.452  31.917  26.884  1.00  0.00     0.021 C 
BRANCH  36  37
ATOM     37  C   UNL A   1      32.739  32.648  27.241  1.00  0.00     0.116 C 
BRANCH  37  38
ATOM     38  N   UNL A   1      32.499  34.030  27.607  1.00  0.00    -0.352 N 
ATOM     39  C   UNL A   1      33.146  34.779  28.557  1.00  0.00     0.251 C 
ATOM     40  H   UNL A   1      31.782  34.489  27.111  1.00  0.00     0.163 HD
ATOM     41  O   UNL A   1      32.720  35.883  28.866  1.00  0.00    -0.269 OA
BRANCH  39  42
ATOM     42  C   UNL A   1      34.337  34.211  29.221  1.00  0.00     0.039 A 
ATOM     43  C   UNL A   1      34.156  33.417  30.353  1.00  0.00     0.014 A 
ATOM     44  C   UNL A   1      35.621  34.436  28.708  1.00  0.00     0.014 A 
ATOM     45  C   UNL A   1      35.263  32.818  30.952  1.00  0.00     0.010 A 
ATOM     46  C   UNL A   1      36.713  33.779  29.264  1.00  0.00     0.010 A 
ATOM     47  C   UNL A   1      36.545  32.971  30.399  1.00  0.00    -0.014 A 
BRANCH  47  48
ATOM     48  C   UNL A   1      37.719  32.305  31.016  1.00  0.00     0.031 A 
ATOM     49  C   UNL A   1      38.249  32.787  32.338  1.00  0.00     0.074 A 
ATOM     50  C   UNL A   1      38.311  31.276  30.379  1.00  0.00     0.049 A 
ATOM     51  N   UNL A   1      39.271  32.347  33.025  1.00  0.00    -0.248 NA
ATOM     52  C   UNL A   1      37.555  33.927  32.958  1.00  0.00     0.031 C 
ATOM     53  C   UNL A   1      37.900  30.738  29.080  1.00  0.00     0.029 A 
ATOM     54  N   UNL A   1      39.376  30.489  30.741  1.00  0.00    -0.354 N 
ATOM     55  C   UNL A   1      39.342  33.153  34.155  1.00  0.00     0.074 A 
ATOM     56  C   UNL A   1      38.300  34.149  34.030  1.00  0.00     0.031 C 
ATOM     57  C   UNL A   1      38.669  29.680  28.779  1.00  0.00     0.029 A 
ATOM     58  C   UNL A   1      39.657  29.491  29.837  1.00  0.00     0.049 A 
ATOM     59  H   UNL A   1      39.889  30.626  31.569  1.00  0.00     0.167 HD
ATOM     60  C   UNL A   1      40.181  33.052  35.214  1.00  0.00     0.034 A 
ATOM     61  C   UNL A   1      40.604  28.532  29.856  1.00  0.00     0.034 A 
ATOM     62  C   UNL A   1      41.199  32.042  35.337  1.00  0.00     0.049 A 
ATOM     63  C   UNL A   1      41.549  28.462  31.025  1.00  0.00     0.074 A 
ATOM     64  C   UNL A   1      42.073  31.827  36.387  1.00  0.00     0.029 A 
ATOM     65  N   UNL A   1      41.482  31.077  34.380  1.00  0.00    -0.354 N 
ATOM     66  N   UNL A   1      41.597  29.229  32.090  1.00  0.00    -0.248 NA
ATOM     67  C   UNL A   1      42.568  27.404  30.998  1.00  0.00     0.031 C 
ATOM     68  C   UNL A   1      42.923  30.773  36.041  1.00  0.00     0.029 A 
ATOM     69  C   UNL A   1      42.536  30.285  34.804  1.00  0.00     0.049 A 
ATOM     70  H   UNL A   1      41.004  30.972  33.526  1.00  0.00     0.167 HD
ATOM     71  C   UNL A   1      42.636  28.732  32.868  1.00  0.00     0.074 A 
ATOM     72  C   UNL A   1      43.189  27.599  32.154  1.00  0.00     0.031 C 
ATOM     73  C   UNL A   1      43.085  29.169  34.071  1.00  0.00     0.034 A 
BRANCH  60  74
ATOM     74  C   UNL A   1      40.038  34.067  36.318  1.00  0.00     0.023 A 
ATOM     75  C   UNL A   1      39.560  33.706  37.589  1.00  0.00     0.031 A 
ATOM     76  C   UNL A   1      40.404  35.407  36.104  1.00  0.00     0.131 A 
ATOM     77  C   UNL A   1      39.417  34.683  38.586  1.00  0.00     0.055 A 
ATOM     78  C   UNL A   1      40.322  36.362  37.121  1.00  0.00     0.041 A 
ATOM     79  F   UNL A   1      40.849  35.812  34.904  1.00  0.00    -0.206 F 
ATOM     80  C   UNL A   1      39.819  36.003  38.368  1.00  0.00     0.022 A 
BRANCH  77  81
ATOM     81  S   UNL A   1      38.617  34.222  40.146  1.00  0.00     0.124 S 
ATOM     82  O   UNL A   1      39.637  33.373  40.758  1.00  0.00    -0.237 OA
ATOM     83  O   UNL A   1      38.396  35.515  40.783  1.00  0.00    -0.237 OA
ATOM     84  O   UNL A   1      37.408  33.523  39.717  1.00  0.00    -0.744 OA
ENDBRANCH  77  81
ENDBRANCH  60  74
BRANCH  61  85
ATOM     85  C   UNL A   1      40.696  27.561  28.732  1.00  0.00     0.023 A 
ATOM     86  C   UNL A   1      41.648  27.723  27.714  1.00  0.00     0.031 A 
ATOM     87  C   UNL A   1      39.847  26.441  28.674  1.00  0.00     0.131 A 
ATOM     88  C   UNL A   1      41.718  26.788  26.669  1.00  0.00     0.055 A 
ATOM     89  C   UNL A   1      39.945  25.495  27.653  1.00  0.00     0.041 A 
ATOM     90  F   UNL A   1      38.927  26.237  29.632  1.00  0.00    -0.206 F 
ATOM     91  C   UNL A   1      40.883  25.669  26.640  1.00  0.00     0.022 A 
BRANCH  88  92
ATOM     92  S   UNL A   1      42.910  27.065  25.330  1.00  0.00     0.124 S 
ATOM     93  O   UNL A   1      42.274  28.146  24.587  1.00  0.00    -0.237 OA
ATOM     94  O   UNL A   1      44.121  27.414  26.065  1.00  0.00    -0.237 OA
ATOM     95  O   UNL A   1      42.953  25.776  24.643  1.00  0.00    -0.744 OA
ENDBRANCH  88  92
ENDBRANCH  61  85
BRANCH  73  96
ATOM     96  C   UNL A   1      44.216  28.410  34.713  1.00  0.00     0.023 A 
ATOM     97  C   UNL A   1      43.979  27.287  35.521  1.00  0.00     0.031 A 
ATOM     98  C   UNL A   1      45.547  28.777  34.449  1.00  0.00     0.131 A 
ATOM     99  C   UNL A   1      45.064  26.576  36.056  1.00  0.00     0.055 A 
ATOM    100  C   UNL A   1      46.622  28.040  34.949  1.00  0.00     0.041 A 
ATOM    101  F   UNL A   1      45.823  29.840  33.678  1.00  0.00    -0.206 F 
ATOM    102  C   UNL A   1      46.382  26.934  35.760  1.00  0.00     0.022 A 
BRANCH  99 103
ATOM    103  S   UNL A   1      44.731  25.179  37.165  1.00  0.00     0.124 S 
ATOM    104  O   UNL A   1      46.012  25.021  37.843  1.00  0.00    -0.237 OA
ATOM    105  O   UNL A   1      43.633  25.680  37.985  1.00  0.00    -0.237 OA
ATOM    106  O   UNL A   1      44.374  24.095  36.252  1.00  0.00    -0.744 OA
ENDBRANCH  99 103
ENDBRANCH  73  96
ENDBRANCH  47  48
ENDBRANCH  39  42
ENDBRANCH  37  38
ENDBRANCH  36  37
ENDBRANCH  35  36
ENDBRANCH   1  35
TORSDOF 22
ENDMDL
MODEL 2
REMARK VINA RESULT:     -11.7      0.790      7.363
REMARK SMILES CC(C)[C@@H](NC(=O)/C(=C\c1ccccc1F)NC(=O)c1ccccc1)C(=O)NCCCCCCNC(=O)c1ccc(-c2c3nc(c(-c4cc(S(=O)(=O)[O-])ccc4F)c4ccc([nH]4)c(-c4cc(S(=O)(=O)[O-])ccc4F)c4nc(c(-c5cc(S(=O)(=O)[O-])ccc5F)c5ccc2[nH]5)C=C4)C=C3)cc1
REMARK SMILES IDX 31 1 30 2 29 3 28 4 26 5 27 6 4 8 2 9 1 10 3 11 5 12 6 13
REMARK SMILES IDX 7 15 8 16 9 17 17 18 18 19 19 21 20 22 21 23 25 24 22 25
REMARK SMILES IDX 24 26 23 27 10 28 11 29 15 30 12 31 14 32 16 33 13 34 32 35
REMARK SMILES IDX 33 36 34 37 35 38 36 39 37 41 38 42 39 43 100 44 40 45 99 46
REMARK SMILES IDX 41 47 42 48 43 49 93 50 44 51 98 52 92 53 94 54 45 55 97 56
REMARK SMILES IDX 91 57 90 58 46 60 78 61 58 62 77 63 59 64 62 65 76 66 95 67
REMARK SMILES IDX 60 68 61 69 75 71 96 72 63 73 47 74 48 75 56 76 49 77 55 78
REMARK SMILES IDX 57 79 54 80 50 81 51 82 52 83 53 84 79 85 80 86 88 87 81 88
REMARK SMILES IDX 87 89 89 90 86 91 82 92 83 93 84 94 85 95 64 96 65 97 73 98
REMARK SMILES IDX 66 99 72 100 74 101 71 102 67 103 68 104 69 105 70 106
REMARK H PARENT 28 7 5 14 17 20 35 40 94 59 62 70
REMARK Flexibility Score: inf
ROOT
ATOM      1  C   UNL A   1      33.350  29.188  27.534  1.00  0.00     0.002 C 
ENDROOT
BRANCH   1   2
ATOM      2  C   UNL A   1      31.997  28.484  27.359  1.00  0.00     0.021 C 
BRANCH   2   3
ATOM      3  C   UNL A   1      32.156  27.052  26.869  1.00  0.00     0.116 C 
BRANCH   3   4
ATOM      4  N   UNL A   1      30.840  26.547  26.573  1.00  0.00    -0.354 N 
ATOM      5  C   UNL A   1      30.560  25.579  25.666  1.00  0.00     0.242 C 
ATOM      6  O   UNL A   1      29.631  25.788  24.883  1.00  0.00    -0.273 OA
ATOM      7  H   UNL A   1      30.084  26.935  27.070  1.00  0.00     0.163 HD
BRANCH   5   8
ATOM      8  C   UNL A   1      31.477  24.361  25.523  1.00  0.00     0.174 C 
BRANCH   8   9
ATOM      9  C   UNL A   1      31.418  23.502  26.834  1.00  0.00     0.015 C 
ATOM     10  C   UNL A   1      30.171  22.612  26.876  1.00  0.00     0.010 C 
ATOM     11  C   UNL A   1      32.648  22.597  27.035  1.00  0.00     0.010 C 
ENDBRANCH   8   9
BRANCH   8  12
ATOM     12  N   UNL A   1      31.227  23.550  24.304  1.00  0.00    -0.339 N 
ATOM     13  C   UNL A   1      32.169  22.976  23.476  1.00  0.00     0.268 C 
ATOM     14  H   UNL A   1      30.285  23.404  24.061  1.00  0.00     0.164 HD
ATOM     15  O   UNL A   1      32.113  21.762  23.276  1.00  0.00    -0.268 OA
BRANCH  13  16
ATOM     16  C   UNL A   1      33.076  23.828  22.616  1.00  0.00     0.107 C 
ATOM     17  C   UNL A   1      34.401  23.990  22.839  1.00  0.00     0.043 C 
BRANCH  16  18
ATOM     18  N   UNL A   1      32.600  24.430  21.456  1.00  0.00    -0.317 N 
ATOM     19  C   UNL A   1      32.238  25.695  21.073  1.00  0.00     0.255 C 
ATOM     20  H   UNL A   1      32.496  23.781  20.722  1.00  0.00     0.170 HD
ATOM     21  O   UNL A   1      31.775  25.852  19.940  1.00  0.00    -0.269 OA
BRANCH  19  22
ATOM     22  C   UNL A   1      32.342  26.871  21.938  1.00  0.00     0.040 A 
ATOM     23  C   UNL A   1      33.614  27.310  22.313  1.00  0.00     0.014 A 
ATOM     24  C   UNL A   1      31.198  27.446  22.494  1.00  0.00     0.014 A 
ATOM     25  C   UNL A   1      33.740  28.381  23.197  1.00  0.00     0.001 A 
ATOM     26  C   UNL A   1      31.328  28.523  23.369  1.00  0.00     0.001 A 
ATOM     27  C   UNL A   1      32.597  28.994  23.713  1.00  0.00     0.000 A 
ENDBRANCH  19  22
ENDBRANCH  16  18
BRANCH  17  28
ATOM     28  C   UNL A   1      35.257  23.548  23.944  1.00  0.00     0.012 A 
ATOM     29  C   UNL A   1      35.964  22.346  23.767  1.00  0.00     0.011 A 
ATOM     30  C   UNL A   1      35.447  24.261  25.126  1.00  0.00     0.130 A 
ATOM     31  C   UNL A   1      36.946  21.957  24.683  1.00  0.00     0.001 A 
ATOM     32  C   UNL A   1      36.415  23.871  26.049  1.00  0.00     0.040 A 
ATOM     33  F   UNL A   1      34.721  25.356  25.386  1.00  0.00    -0.206 F 
ATOM     34  C   UNL A   1      37.191  22.738  25.810  1.00  0.00     0.003 A 
ENDBRANCH  17  28
ENDBRANCH  13  16
ENDBRANCH   8  12
ENDBRANCH   5   8
ENDBRANCH   3   4
ENDBRANCH   2   3
ENDBRANCH   1   2
BRANCH   1  35
ATOM     35  C   UNL A   1      33.450  30.540  26.820  1.00  0.00     0.002 C 
BRANCH  35  36
ATOM     36  C   UNL A   1      32.963  31.727  27.653  1.00  0.00     0.021 C 
BRANCH  36  37
ATOM     37  C   UNL A   1      33.649  33.045  27.317  1.00  0.00     0.116 C 
BRANCH  37  38
ATOM     38  N   UNL A   1      33.076  34.159  28.046  1.00  0.00    -0.352 N 
ATOM     39  C   UNL A   1      33.398  34.604  29.304  1.00  0.00     0.251 C 
ATOM     40  H   UNL A   1      32.368  34.660  27.581  1.00  0.00     0.163 HD
ATOM     41  O   UNL A   1      32.712  35.456  29.850  1.00  0.00    -0.269 OA
BRANCH  39  42
ATOM     42  C   UNL A   1      34.562  34.008  29.992  1.00  0.00     0.039 A 
ATOM     43  C   UNL A   1      34.336  33.028  30.958  1.00  0.00     0.014 A 
ATOM     44  C   UNL A   1      35.867  34.395  29.662  1.00  0.00     0.014 A 
ATOM     45  C   UNL A   1      35.424  32.407  31.569  1.00  0.00     0.010 A 
ATOM     46  C   UNL A   1      36.949  33.723  30.221  1.00  0.00     0.010 A 
ATOM     47  C   UNL A   1      36.737  32.729  31.188  1.00  0.00    -0.014 A 
BRANCH  47  48
ATOM     48  C   UNL A   1      37.896  32.045  31.813  1.00  0.00     0.031 A 
ATOM     49  C   UNL A   1      38.611  30.947  31.075  1.00  0.00     0.074 A 
ATOM     50  C   UNL A   1      38.294  32.406  33.049  1.00  0.00     0.049 A 
ATOM     51  N   UNL A   1      39.628  30.222  31.461  1.00  0.00    -0.248 NA
ATOM     52  C   UNL A   1      38.102  30.603  29.738  1.00  0.00     0.031 C 
ATOM     53  C   UNL A   1      37.662  33.441  33.871  1.00  0.00     0.029 A 
ATOM     54  N   UNL A   1      39.332  31.955  33.826  1.00  0.00    -0.354 N 
ATOM     55  C   UNL A   1      39.881  29.339  30.418  1.00  0.00     0.074 A 
ATOM     56  C   UNL A   1      38.871  29.576  29.410  1.00  0.00     0.031 C 
ATOM     57  C   UNL A   1      38.354  33.580  35.012  1.00  0.00     0.029 A 
ATOM     58  C   UNL A   1      39.451  32.616  35.026  1.00  0.00     0.049 A 
ATOM     59  H   UNL A   1      39.935  31.229  33.548  1.00  0.00     0.167 HD
ATOM     60  C   UNL A   1      40.882  28.435  30.300  1.00  0.00     0.034 A 
ATOM     61  C   UNL A   1      40.340  32.463  36.027  1.00  0.00     0.034 A 
ATOM     62  C   UNL A   1      41.896  28.225  31.301  1.00  0.00     0.049 A 
ATOM     63  C   UNL A   1      41.422  31.426  35.890  1.00  0.00     0.074 A 
ATOM     64  C   UNL A   1      42.978  27.364  31.260  1.00  0.00     0.029 A 
ATOM     65  N   UNL A   1      41.955  28.882  32.522  1.00  0.00    -0.354 N 
ATOM     66  N   UNL A   1      41.650  30.603  34.892  1.00  0.00    -0.248 NA
ATOM     67  C   UNL A   1      42.364  31.291  37.010  1.00  0.00     0.031 C 
ATOM     68  C   UNL A   1      43.655  27.455  32.480  1.00  0.00     0.029 A 
ATOM     69  C   UNL A   1      43.037  28.423  33.254  1.00  0.00     0.049 A 
ATOM     70  H   UNL A   1      41.321  29.572  32.823  1.00  0.00     0.167 HD
ATOM     71  C   UNL A   1      42.774  29.869  35.255  1.00  0.00     0.074 A 
ATOM     72  C   UNL A   1      43.180  30.345  36.563  1.00  0.00     0.031 C 
ATOM     73  C   UNL A   1      43.418  28.897  34.563  1.00  0.00     0.034 A 
BRANCH  60  74
ATOM     74  C   UNL A   1      40.925  27.598  29.048  1.00  0.00     0.023 A 
ATOM     75  C   UNL A   1      41.900  27.806  28.058  1.00  0.00     0.031 A 
ATOM     76  C   UNL A   1      39.992  26.565  28.851  1.00  0.00     0.131 A 
ATOM     77  C   UNL A   1      41.893  27.024  26.894  1.00  0.00     0.055 A 
ATOM     78  C   UNL A   1      40.031  25.745  27.721  1.00  0.00     0.041 A 
ATOM     79  F   UNL A   1      39.027  26.334  29.755  1.00  0.00    -0.206 F 
ATOM     80  C   UNL A   1      40.981  25.978  26.730  1.00  0.00     0.022 A 
BRANCH  77  81
ATOM     81  S   UNL A   1      43.040  27.447  25.556  1.00  0.00     0.124 S 
ATOM     82  O   UNL A   1      44.081  28.172  26.281  1.00  0.00    -0.237 OA
ATOM     83  O   UNL A   1      43.417  26.139  25.035  1.00  0.00    -0.237 OA
ATOM     84  O   UNL A   1      42.229  28.267  24.657  1.00  0.00    -0.744 OA
ENDBRANCH  77  81
ENDBRANCH  60  74
BRANCH  61  85
ATOM     85  C   UNL A   1      40.243  33.318  37.241  1.00  0.00     0.023 A 
ATOM     86  C   UNL A   1      39.400  32.967  38.306  1.00  0.00     0.031 A 
ATOM     87  C   UNL A   1      41.011  34.490  37.362  1.00  0.00     0.131 A 
ATOM     88  C   UNL A   1      39.332  33.788  39.442  1.00  0.00     0.055 A 
ATOM     89  C   UNL A   1      40.968  35.283  38.509  1.00  0.00     0.041 A 
ATOM     90  F   UNL A   1      41.841  34.862  36.373  1.00  0.00    -0.206 F 
ATOM     91  C   UNL A   1      40.121  34.935  39.556  1.00  0.00     0.022 A 
BRANCH  88  92
ATOM     92  S   UNL A   1      38.180  33.345  40.772  1.00  0.00     0.124 S 
ATOM     93  O   UNL A   1      37.854  34.653  41.328  1.00  0.00    -0.237 OA
ATOM     94  O   UNL A   1      37.112  32.672  40.040  1.00  0.00    -0.237 OA
ATOM     95  O   UNL A   1      38.978  32.479  41.637  1.00  0.00    -0.744 OA
ENDBRANCH  88  92
ENDBRANCH  61  85
BRANCH  73  96
ATOM     96  C   UNL A   1      44.647  28.292  35.188  1.00  0.00     0.023 A 
ATOM     97  C   UNL A   1      44.565  27.166  36.023  1.00  0.00     0.031 A 
ATOM     98  C   UNL A   1      45.918  28.809  34.883  1.00  0.00     0.131 A 
ATOM     99  C   UNL A   1      45.740  26.601  36.543  1.00  0.00     0.055 A 
ATOM    100  C   UNL A   1      47.084  28.216  35.367  1.00  0.00     0.041 A 
ATOM    101  F   UNL A   1      46.045  29.881  34.085  1.00  0.00    -0.206 F 
ATOM    102  C   UNL A   1      46.998  27.107  36.205  1.00  0.00     0.022 A 
BRANCH  99 103
ATOM    103  S   UNL A   1      45.603  25.198  37.684  1.00  0.00     0.124 S 
ATOM    104  O   UNL A   1      44.280  25.408  38.262  1.00  0.00    -0.237 OA
ATOM    105  O   UNL A   1      45.734  24.050  36.793  1.00  0.00    -0.237 OA
ATOM    106  O   UNL A   1      46.721  25.395  38.605  1.00  0.00    -0.744 OA
ENDBRANCH  99 103
ENDBRANCH  73  96
ENDBRANCH  47  48
ENDBRANCH  39  42
ENDBRANCH  37  38
ENDBRANCH  36  37
ENDBRANCH  35  36
ENDBRANCH   1  35
TORSDOF 22
ENDMDL
MODEL 3
REMARK VINA RESULT:     -11.5      1.733      2.067
REMARK SMILES CC(C)[C@@H](NC(=O)/C(=C\c1ccccc1F)NC(=O)c1ccccc1)C(=O)NCCCCCCNC(=O)c1ccc(-c2c3nc(c(-c4cc(S(=O)(=O)[O-])ccc4F)c4ccc([nH]4)c(-c4cc(S(=O)(=O)[O-])ccc4F)c4nc(c(-c5cc(S(=O)(=O)[O-])ccc5F)c5ccc2[nH]5)C=C4)C=C3)cc1
REMARK SMILES IDX 31 1 30 2 29 3 28 4 26 5 27 6 4 8 2 9 1 10 3 11 5 12 6 13
REMARK SMILES IDX 7 15 8 16 9 17 17 18 18 19 19 21 20 22 21 23 25 24 22 25
REMARK SMILES IDX 24 26 23 27 10 28 11 29 15 30 12 31 14 32 16 33 13 34 32 35
REMARK SMILES IDX 33 36 34 37 35 38 36 39 37 41 38 42 39 43 100 44 40 45 99 46
REMARK SMILES IDX 41 47 42 48 43 49 93 50 44 51 98 52 92 53 94 54 45 55 97 56
REMARK SMILES IDX 91 57 90 58 46 60 78 61 58 62 77 63 59 64 62 65 76 66 95 67
REMARK SMILES IDX 60 68 61 69 75 71 96 72 63 73 47 74 48 75 56 76 49 77 55 78
REMARK SMILES IDX 57 79 54 80 50 81 51 82 52 83 53 84 79 85 80 86 88 87 81 88
REMARK SMILES IDX 87 89 89 90 86 91 82 92 83 93 84 94 85 95 64 96 65 97 73 98
REMARK SMILES IDX 66 99 72 100 74 101 71 102 67 103 68 104 69 105 70 106
REMARK H PARENT 28 7 5 14 17 20 35 40 94 59 62 70
REMARK Flexibility Score: inf
ROOT
ATOM      1  C   UNL A   1      33.659  29.499  26.980  1.00  0.00     0.002 C 
ENDROOT
BRANCH   1   2
ATOM      2  C   UNL A   1      32.506  28.566  27.372  1.00  0.00     0.021 C 
BRANCH   2   3
ATOM      3  C   UNL A   1      32.468  27.310  26.512  1.00  0.00     0.116 C 
BRANCH   3   4
ATOM      4  N   UNL A   1      31.121  26.804  26.543  1.00  0.00    -0.354 N 
ATOM      5  C   UNL A   1      30.664  25.754  25.818  1.00  0.00     0.242 C 
ATOM      6  O   UNL A   1      29.594  25.900  25.221  1.00  0.00    -0.273 OA
ATOM      7  H   UNL A   1      30.481  27.256  27.139  1.00  0.00     0.163 HD
BRANCH   5   8
ATOM      8  C   UNL A   1      31.534  24.509  25.619  1.00  0.00     0.174 C 
BRANCH   8   9
ATOM      9  C   UNL A   1      31.524  23.647  26.930  1.00  0.00     0.015 C 
ATOM     10  C   UNL A   1      30.267  22.775  27.029  1.00  0.00     0.010 C 
ATOM     11  C   UNL A   1      32.750  22.725  27.071  1.00  0.00     0.010 C 
ENDBRANCH   8   9
BRANCH   8  12
ATOM     12  N   UNL A   1      31.191  23.711  24.415  1.00  0.00    -0.339 N 
ATOM     13  C   UNL A   1      32.065  23.080  23.554  1.00  0.00     0.268 C 
ATOM     14  H   UNL A   1      30.233  23.620  24.209  1.00  0.00     0.164 HD
ATOM     15  O   UNL A   1      31.930  21.871  23.363  1.00  0.00    -0.268 OA
BRANCH  13  16
ATOM     16  C   UNL A   1      32.986  23.875  22.656  1.00  0.00     0.107 C 
ATOM     17  C   UNL A   1      34.320  23.992  22.850  1.00  0.00     0.043 C 
BRANCH  16  18
ATOM     18  N   UNL A   1      32.511  24.465  21.489  1.00  0.00    -0.317 N 
ATOM     19  C   UNL A   1      32.197  25.734  21.078  1.00  0.00     0.255 C 
ATOM     20  H   UNL A   1      32.361  23.801  20.778  1.00  0.00     0.170 HD
ATOM     21  O   UNL A   1      31.716  25.879  19.951  1.00  0.00    -0.269 OA
BRANCH  19  22
ATOM     22  C   UNL A   1      32.373  26.928  21.905  1.00  0.00     0.040 A 
ATOM     23  C   UNL A   1      33.672  27.388  22.140  1.00  0.00     0.014 A 
ATOM     24  C   UNL A   1      31.284  27.502  22.564  1.00  0.00     0.014 A 
ATOM     25  C   UNL A   1      33.873  28.478  22.986  1.00  0.00     0.001 A 
ATOM     26  C   UNL A   1      31.490  28.597  23.401  1.00  0.00     0.001 A 
ATOM     27  C   UNL A   1      32.781  29.089  23.604  1.00  0.00     0.000 A 
ENDBRANCH  19  22
ENDBRANCH  16  18
BRANCH  17  28
ATOM     28  C   UNL A   1      35.181  23.547  23.952  1.00  0.00     0.012 A 
ATOM     29  C   UNL A   1      35.840  22.316  23.792  1.00  0.00     0.011 A 
ATOM     30  C   UNL A   1      35.418  24.281  25.111  1.00  0.00     0.130 A 
ATOM     31  C   UNL A   1      36.824  21.914  24.700  1.00  0.00     0.001 A 
ATOM     32  C   UNL A   1      36.389  23.879  26.027  1.00  0.00     0.040 A 
ATOM     33  F   UNL A   1      34.737  25.408  25.357  1.00  0.00    -0.206 F 
ATOM     34  C   UNL A   1      37.118  22.712  25.803  1.00  0.00     0.003 A 
ENDBRANCH  17  28
ENDBRANCH  13  16
ENDBRANCH   8  12
ENDBRANCH   5   8
ENDBRANCH   3   4
ENDBRANCH   2   3
ENDBRANCH   1   2
BRANCH   1  35
ATOM     35  C   UNL A   1      33.764  30.762  27.843  1.00  0.00     0.002 C 
BRANCH  35  36
ATOM     36  C   UNL A   1      32.695  31.815  27.546  1.00  0.00     0.021 C 
BRANCH  36  37
ATOM     37  C   UNL A   1      33.253  33.159  27.098  1.00  0.00     0.116 C 
BRANCH  37  38
ATOM     38  N   UNL A   1      32.841  34.240  27.972  1.00  0.00    -0.352 N 
ATOM     39  C   UNL A   1      33.310  34.540  29.226  1.00  0.00     0.251 C 
ATOM     40  H   UNL A   1      32.137  34.833  27.622  1.00  0.00     0.163 HD
ATOM     41  O   UNL A   1      32.748  35.386  29.907  1.00  0.00    -0.269 OA
BRANCH  39  42
ATOM     42  C   UNL A   1      34.478  33.799  29.745  1.00  0.00     0.039 A 
ATOM     43  C   UNL A   1      35.750  34.174  29.317  1.00  0.00     0.014 A 
ATOM     44  C   UNL A   1      34.315  32.761  30.671  1.00  0.00     0.014 A 
ATOM     45  C   UNL A   1      36.868  33.530  29.847  1.00  0.00     0.010 A 
ATOM     46  C   UNL A   1      35.433  32.171  31.251  1.00  0.00     0.010 A 
ATOM     47  C   UNL A   1      36.720  32.544  30.838  1.00  0.00    -0.014 A 
BRANCH  47  48
ATOM     48  C   UNL A   1      37.910  31.882  31.428  1.00  0.00     0.031 A 
ATOM     49  C   UNL A   1      38.377  32.261  32.807  1.00  0.00     0.074 A 
ATOM     50  C   UNL A   1      38.573  30.949  30.717  1.00  0.00     0.049 A 
ATOM     51  N   UNL A   1      39.400  31.809  33.483  1.00  0.00    -0.248 NA
ATOM     52  C   UNL A   1      37.606  33.300  33.508  1.00  0.00     0.031 C 
ATOM     53  C   UNL A   1      38.228  30.517  29.360  1.00  0.00     0.029 A 
ATOM     54  N   UNL A   1      39.668  30.185  31.038  1.00  0.00    -0.354 N 
ATOM     55  C   UNL A   1      39.397  32.506  34.685  1.00  0.00     0.074 A 
ATOM     56  C   UNL A   1      38.308  33.455  34.620  1.00  0.00     0.031 C 
ATOM     57  C   UNL A   1      39.060  29.533  28.987  1.00  0.00     0.029 A 
ATOM     58  C   UNL A   1      40.026  29.293  30.054  1.00  0.00     0.049 A 
ATOM     59  H   UNL A   1      40.149  30.267  31.892  1.00  0.00     0.167 HD
ATOM     60  C   UNL A   1      40.210  32.346  35.756  1.00  0.00     0.034 A 
ATOM     61  C   UNL A   1      41.021  28.385  30.014  1.00  0.00     0.034 A 
ATOM     62  C   UNL A   1      41.277  31.380  35.818  1.00  0.00     0.049 A 
ATOM     63  C   UNL A   1      41.936  28.251  31.202  1.00  0.00     0.074 A 
ATOM     64  C   UNL A   1      42.131  31.110  36.872  1.00  0.00     0.029 A 
ATOM     65  N   UNL A   1      41.636  30.527  34.784  1.00  0.00    -0.354 N 
ATOM     66  N   UNL A   1      41.913  28.914  32.335  1.00  0.00    -0.248 NA
ATOM     67  C   UNL A   1      43.009  27.252  31.109  1.00  0.00     0.031 C 
ATOM     68  C   UNL A   1      43.044  30.138  36.455  1.00  0.00     0.029 A 
ATOM     69  C   UNL A   1      42.718  29.751  35.166  1.00  0.00     0.049 A 
ATOM     70  H   UNL A   1      41.188  30.480  33.908  1.00  0.00     0.167 HD
ATOM     71  C   UNL A   1      42.955  28.398  33.097  1.00  0.00     0.074 A 
ATOM     72  C   UNL A   1      43.587  27.367  32.298  1.00  0.00     0.031 C 
ATOM     73  C   UNL A   1      43.346  28.739  34.350  1.00  0.00     0.034 A 
BRANCH  60  74
ATOM     74  C   UNL A   1      39.983  33.242  36.946  1.00  0.00     0.023 A 
ATOM     75  C   UNL A   1      40.752  34.400  37.150  1.00  0.00     0.031 A 
ATOM     76  C   UNL A   1      38.973  32.945  37.878  1.00  0.00     0.131 A 
ATOM     77  C   UNL A   1      40.530  35.197  38.283  1.00  0.00     0.055 A 
ATOM     78  C   UNL A   1      38.712  33.778  38.968  1.00  0.00     0.041 A 
ATOM     79  F   UNL A   1      38.222  31.841  37.743  1.00  0.00    -0.206 F 
ATOM     80  C   UNL A   1      39.498  34.908  39.179  1.00  0.00     0.022 A 
BRANCH  77  81
ATOM     81  S   UNL A   1      41.664  36.571  38.615  1.00  0.00     0.124 S 
ATOM     82  O   UNL A   1      42.384  36.669  37.348  1.00  0.00    -0.237 OA
ATOM     83  O   UNL A   1      40.753  37.668  38.918  1.00  0.00    -0.237 OA
ATOM     84  O   UNL A   1      42.461  36.092  39.743  1.00  0.00    -0.744 OA
ENDBRANCH  77  81
ENDBRANCH  60  74
BRANCH  61  85
ATOM     85  C   UNL A   1      41.196  27.532  28.808  1.00  0.00     0.023 A 
ATOM     86  C   UNL A   1      42.163  27.840  27.839  1.00  0.00     0.031 A 
ATOM     87  C   UNL A   1      40.413  26.379  28.618  1.00  0.00     0.131 A 
ATOM     88  C   UNL A   1      42.312  27.014  26.714  1.00  0.00     0.055 A 
ATOM     89  C   UNL A   1      40.589  25.542  27.517  1.00  0.00     0.041 A 
ATOM     90  F   UNL A   1      39.481  26.037  29.524  1.00  0.00    -0.206 F 
ATOM     91  C   UNL A   1      41.542  25.860  26.554  1.00  0.00     0.022 A 
BRANCH  88  92
ATOM     92  S   UNL A   1      43.521  27.480  25.444  1.00  0.00     0.124 S 
ATOM     93  O   UNL A   1      42.654  27.930  24.362  1.00  0.00    -0.237 OA
ATOM     94  O   UNL A   1      44.295  28.514  26.122  1.00  0.00    -0.237 OA
ATOM     95  O   UNL A   1      44.242  26.234  25.190  1.00  0.00    -0.744 OA
ENDBRANCH  88  92
ENDBRANCH  61  85
BRANCH  73  96
ATOM     96  C   UNL A   1      44.497  27.980  34.954  1.00  0.00     0.023 A 
ATOM     97  C   UNL A   1      45.817  28.444  34.848  1.00  0.00     0.031 A 
ATOM     98  C   UNL A   1      44.255  26.816  35.705  1.00  0.00     0.131 A 
ATOM     99  C   UNL A   1      46.855  27.734  35.470  1.00  0.00     0.055 A 
ATOM    100  C   UNL A   1      45.284  26.139  36.358  1.00  0.00     0.041 A 
ATOM    101  F   UNL A   1      43.007  26.337  35.839  1.00  0.00    -0.206 F 
ATOM    102  C   UNL A   1      46.594  26.596  36.239  1.00  0.00     0.022 A 
BRANCH  99 103
ATOM    103  S   UNL A   1      48.561  28.307  35.249  1.00  0.00     0.124 S 
ATOM    104  O   UNL A   1      48.540  28.793  33.874  1.00  0.00    -0.237 OA
ATOM    105  O   UNL A   1      48.688  29.329  36.283  1.00  0.00    -0.237 OA
ATOM    106  O   UNL A   1      49.360  27.103  35.470  1.00  0.00    -0.744 OA
ENDBRANCH  99 103
ENDBRANCH  73  96
ENDBRANCH  47  48
ENDBRANCH  39  42
ENDBRANCH  37  38
ENDBRANCH  36  37
ENDBRANCH  35  36
ENDBRANCH   1  35
TORSDOF 22
ENDMDL
