MODEL 1
REMARK VINA RESULT:      -8.2      0.000      0.000
REMARK SMILES CCOC(=O)c1c(-c2cccc3ccccc23)csc1NC(=O)[C@H]1CC=CC[C@H]1C(=O)NCCCCCCNC(=O)c1ccc(-c2c3nc(c(-c4cc(S(=O)(=O)[O-])ccc4F)c4ccc([nH]4)c(-c4cc(S(=O)(=O)[O-])ccc4F)c4nc(c(-c5cc(S(=O)(=O)[O-])ccc5F)c5ccc2[nH]5)C=C4)C=C3)cc1
REMARK SMILES IDX 34 1 33 2 32 3 30 4 31 5 29 7 24 8 25 9 26 10 28 11 27 12
REMARK SMILES IDX 22 13 21 14 23 16 20 17 6 18 7 19 18 20 19 21 4 22 5 23 3 24
REMARK SMILES IDX 2 25 1 26 8 27 9 28 17 29 10 30 12 31 16 32 11 33 13 34
REMARK SMILES IDX 15 35 14 36 35 37 36 38 37 39 38 40 39 41 40 42 41 44 42 45
REMARK SMILES IDX 43 46 104 47 44 48 103 49 45 50 46 51 47 52 97 53 48 54
REMARK SMILES IDX 102 55 96 56 98 57 49 58 101 59 95 60 94 61 50 63 82 64
REMARK SMILES IDX 62 65 81 66 63 67 66 68 80 69 99 70 64 71 65 72 79 74 100 75
REMARK SMILES IDX 67 76 51 77 52 78 60 79 53 80 59 81 61 82 58 83 54 84 55 85
REMARK SMILES IDX 56 86 57 87 83 88 84 89 92 90 85 91 91 92 93 93 90 94 86 95
REMARK SMILES IDX 87 96 88 97 89 98 68 99 69 100 77 101 70 102 76 103 78 104
REMARK SMILES IDX 75 105 71 106 72 107 73 108 74 109
REMARK H PARENT 32 6 21 15 39 43 98 62 66 73
REMARK Flexibility Score: inf
ROOT
ATOM      1  C   UNL A   1      41.196  36.192  39.750  1.00  0.00     0.021 C 
ENDROOT
BRANCH   1   2
ATOM      2  C   UNL A   1      39.827  36.081  39.081  1.00  0.00     0.116 C 
BRANCH   2   3
ATOM      3  N   UNL A   1      39.899  36.458  37.683  1.00  0.00    -0.356 N 
ATOM      4  C   UNL A   1      39.527  35.830  36.544  1.00  0.00     0.224 C 
ATOM      5  O   UNL A   1      39.811  36.415  35.489  1.00  0.00    -0.275 OA
ATOM      6  H   UNL A   1      40.297  37.346  37.533  1.00  0.00     0.163 HD
BRANCH   4   7
ATOM      7  C   UNL A   1      38.837  34.473  36.475  1.00  0.00     0.095 C 
ATOM      8  C   UNL A   1      39.055  33.717  35.148  1.00  0.00     0.095 C 
ATOM      9  C   UNL A   1      38.032  32.567  35.030  1.00  0.00     0.041 C 
ATOM     10  C   UNL A   1      37.765  31.844  36.326  1.00  0.00    -0.030 C 
ATOM     11  C   UNL A   1      38.864  33.607  37.735  1.00  0.00     0.041 C 
ATOM     12  C   UNL A   1      38.151  32.298  37.529  1.00  0.00    -0.030 C 
BRANCH   8  13
ATOM     13  C   UNL A   1      40.445  33.119  34.974  1.00  0.00     0.229 C 
ATOM     14  N   UNL A   1      41.046  32.916  33.772  1.00  0.00    -0.317 N 
ATOM     15  H   UNL A   1      42.003  32.705  33.865  1.00  0.00     0.170 HD
ATOM     16  O   UNL A   1      41.118  32.803  35.963  1.00  0.00    -0.274 OA
BRANCH  14  17
ATOM     17  C   UNL A   1      40.641  32.933  32.452  1.00  0.00     0.110 A 
ATOM     18  C   UNL A   1      40.102  31.850  31.766  1.00  0.00     0.102 A 
ATOM     19  C   UNL A   1      39.589  32.258  30.475  1.00  0.00     0.010 A 
ATOM     20  C   UNL A   1      39.857  33.586  30.211  1.00  0.00     0.076 A 
ATOM     21  S   UNL A   1      40.623  34.350  31.523  1.00  0.00    -0.125 S 
BRANCH  18  22
ATOM     22  C   UNL A   1      40.003  30.510  32.351  1.00  0.00     0.341 C 
ATOM     23  O   UNL A   1      40.812  29.625  32.104  1.00  0.00    -0.246 OA
BRANCH  22  24
ATOM     24  O   UNL A   1      38.919  30.369  33.163  1.00  0.00    -0.462 OA
BRANCH  24  25
ATOM     25  C   UNL A   1      37.985  29.326  32.845  1.00  0.00     0.230 C 
ATOM     26  C   UNL A   1      36.790  29.818  32.049  1.00  0.00     0.049 C 
ENDBRANCH  24  25
ENDBRANCH  22  24
ENDBRANCH  18  22
BRANCH  19  27
ATOM     27  C   UNL A   1      38.754  31.480  29.558  1.00  0.00    -0.009 A 
ATOM     28  C   UNL A   1      39.248  30.257  29.081  1.00  0.00     0.009 A 
ATOM     29  C   UNL A   1      37.456  31.938  29.178  1.00  0.00    -0.010 A 
ATOM     30  C   UNL A   1      38.472  29.471  28.236  1.00  0.00     0.001 A 
ATOM     31  C   UNL A   1      36.674  31.112  28.336  1.00  0.00    -0.018 A 
ATOM     32  C   UNL A   1      36.890  33.172  29.590  1.00  0.00     0.009 A 
ATOM     33  C   UNL A   1      37.194  29.893  27.872  1.00  0.00     0.009 A 
ATOM     34  C   UNL A   1      35.377  31.511  27.969  1.00  0.00     0.009 A 
ATOM     35  C   UNL A   1      35.597  33.551  29.224  1.00  0.00     0.001 A 
ATOM     36  C   UNL A   1      34.839  32.717  28.417  1.00  0.00     0.001 A 
ENDBRANCH  19  27
ENDBRANCH  14  17
ENDBRANCH   8  13
ENDBRANCH   4   7
ENDBRANCH   2   3
ENDBRANCH   1   2
BRANCH   1  37
ATOM     37  C   UNL A   1      42.103  34.976  39.549  1.00  0.00     0.002 C 
BRANCH  37  38
ATOM     38  C   UNL A   1      43.099  34.703  40.680  1.00  0.00     0.002 C 
BRANCH  38  39
ATOM     39  C   UNL A   1      43.940  35.901  41.139  1.00  0.00     0.021 C 
BRANCH  39  40
ATOM     40  C   UNL A   1      44.931  36.442  40.110  1.00  0.00     0.116 C 
BRANCH  40  41
ATOM     41  N   UNL A   1      44.593  37.787  39.677  1.00  0.00    -0.352 N 
ATOM     42  C   UNL A   1      44.448  38.289  38.408  1.00  0.00     0.251 C 
ATOM     43  H   UNL A   1      44.447  38.437  40.403  1.00  0.00     0.163 HD
ATOM     44  O   UNL A   1      44.339  39.501  38.246  1.00  0.00    -0.269 OA
BRANCH  42  45
ATOM     45  C   UNL A   1      44.435  37.381  37.239  1.00  0.00     0.039 A 
ATOM     46  C   UNL A   1      45.650  37.041  36.637  1.00  0.00     0.014 A 
ATOM     47  C   UNL A   1      43.234  36.898  36.711  1.00  0.00     0.014 A 
ATOM     48  C   UNL A   1      45.667  36.179  35.539  1.00  0.00     0.010 A 
ATOM     49  C   UNL A   1      43.255  36.001  35.643  1.00  0.00     0.010 A 
ATOM     50  C   UNL A   1      44.471  35.634  35.046  1.00  0.00    -0.014 A 
BRANCH  50  51
ATOM     51  C   UNL A   1      44.472  34.685  33.903  1.00  0.00     0.031 A 
ATOM     52  C   UNL A   1      44.332  35.198  32.495  1.00  0.00     0.074 A 
ATOM     53  C   UNL A   1      44.527  33.359  34.139  1.00  0.00     0.049 A 
ATOM     54  N   UNL A   1      44.217  34.528  31.377  1.00  0.00    -0.248 NA
ATOM     55  C   UNL A   1      44.287  36.658  32.330  1.00  0.00     0.031 C 
ATOM     56  C   UNL A   1      44.621  32.740  35.463  1.00  0.00     0.029 A 
ATOM     57  N   UNL A   1      44.487  32.292  33.276  1.00  0.00    -0.354 N 
ATOM     58  C   UNL A   1      44.063  35.482  30.377  1.00  0.00     0.074 A 
ATOM     59  C   UNL A   1      44.066  36.775  31.029  1.00  0.00     0.031 C 
ATOM     60  C   UNL A   1      44.627  31.404  35.324  1.00  0.00     0.029 A 
ATOM     61  C   UNL A   1      44.505  31.070  33.908  1.00  0.00     0.049 A 
ATOM     62  H   UNL A   1      44.450  32.392  32.297  1.00  0.00     0.167 HD
ATOM     63  C   UNL A   1      43.941  35.296  29.040  1.00  0.00     0.034 A 
ATOM     64  C   UNL A   1      44.413  29.822  33.406  1.00  0.00     0.034 A 
ATOM     65  C   UNL A   1      43.967  34.002  28.401  1.00  0.00     0.049 A 
ATOM     66  C   UNL A   1      44.298  29.642  31.914  1.00  0.00     0.074 A 
ATOM     67  C   UNL A   1      43.932  33.706  27.048  1.00  0.00     0.029 A 
ATOM     68  N   UNL A   1      44.027  32.786  29.070  1.00  0.00    -0.354 N 
ATOM     69  N   UNL A   1      44.216  30.556  30.976  1.00  0.00    -0.248 NA
ATOM     70  C   UNL A   1      44.277  28.261  31.412  1.00  0.00     0.031 C 
ATOM     71  C   UNL A   1      43.917  32.314  26.902  1.00  0.00     0.029 A 
ATOM     72  C   UNL A   1      44.003  31.740  28.161  1.00  0.00     0.049 A 
ATOM     73  H   UNL A   1      44.078  32.682  30.047  1.00  0.00     0.167 HD
ATOM     74  C   UNL A   1      44.161  29.860  29.772  1.00  0.00     0.074 A 
ATOM     75  C   UNL A   1      44.232  28.451  30.102  1.00  0.00     0.031 C 
ATOM     76  C   UNL A   1      44.066  30.340  28.507  1.00  0.00     0.034 A 
BRANCH  63  77
ATOM     77  C   UNL A   1      43.735  36.518  28.181  1.00  0.00     0.023 A 
ATOM     78  C   UNL A   1      44.818  37.250  27.662  1.00  0.00     0.031 A 
ATOM     79  C   UNL A   1      42.435  36.965  27.886  1.00  0.00     0.131 A 
ATOM     80  C   UNL A   1      44.582  38.424  26.930  1.00  0.00     0.055 A 
ATOM     81  C   UNL A   1      42.206  38.094  27.098  1.00  0.00     0.041 A 
ATOM     82  F   UNL A   1      41.364  36.317  28.371  1.00  0.00    -0.206 F 
ATOM     83  C   UNL A   1      43.284  38.838  26.624  1.00  0.00     0.022 A 
BRANCH  80  84
ATOM     84  S   UNL A   1      45.996  39.465  26.476  1.00  0.00     0.124 S 
ATOM     85  O   UNL A   1      45.330  40.615  25.868  1.00  0.00    -0.237 OA
ATOM     86  O   UNL A   1      46.637  39.707  27.764  1.00  0.00    -0.237 OA
ATOM     87  O   UNL A   1      46.754  38.629  25.549  1.00  0.00    -0.744 OA
ENDBRANCH  80  84
ENDBRANCH  63  77
BRANCH  64  88
ATOM     88  C   UNL A   1      44.400  28.643  34.314  1.00  0.00     0.023 A 
ATOM     89  C   UNL A   1      43.205  28.185  34.891  1.00  0.00     0.031 A 
ATOM     90  C   UNL A   1      45.594  27.985  34.655  1.00  0.00     0.131 A 
ATOM     91  C   UNL A   1      43.235  27.130  35.816  1.00  0.00     0.055 A 
ATOM     92  C   UNL A   1      45.613  26.904  35.540  1.00  0.00     0.041 A 
ATOM     93  F   UNL A   1      46.763  28.379  34.125  1.00  0.00    -0.206 F 
ATOM     94  C   UNL A   1      44.429  26.480  36.137  1.00  0.00     0.022 A 
BRANCH  91  95
ATOM     95  S   UNL A   1      41.696  26.671  36.659  1.00  0.00     0.124 S 
ATOM     96  O   UNL A   1      40.990  27.947  36.708  1.00  0.00    -0.237 OA
ATOM     97  O   UNL A   1      41.144  25.667  35.755  1.00  0.00    -0.237 OA
ATOM     98  O   UNL A   1      42.154  26.161  37.949  1.00  0.00    -0.744 OA
ENDBRANCH  91  95
ENDBRANCH  64  88
BRANCH  76  99
ATOM     99  C   UNL A   1      44.080  29.328  27.391  1.00  0.00     0.023 A 
ATOM    100  C   UNL A   1      45.278  28.918  26.782  1.00  0.00     0.031 A 
ATOM    101  C   UNL A   1      42.873  28.780  26.921  1.00  0.00     0.131 A 
ATOM    102  C   UNL A   1      45.240  28.023  25.703  1.00  0.00     0.055 A 
ATOM    103  C   UNL A   1      42.845  27.853  25.880  1.00  0.00     0.041 A 
ATOM    104  F   UNL A   1      41.701  29.140  27.469  1.00  0.00    -0.206 F 
ATOM    105  C   UNL A   1      44.033  27.478  25.256  1.00  0.00     0.022 A 
BRANCH 102 106
ATOM    106  S   UNL A   1      46.786  27.636  24.836  1.00  0.00     0.124 S 
ATOM    107  O   UNL A   1      46.864  28.713  23.855  1.00  0.00    -0.237 OA
ATOM    108  O   UNL A   1      47.768  27.682  25.914  1.00  0.00    -0.237 OA
ATOM    109  O   UNL A   1      46.543  26.306  24.279  1.00  0.00    -0.744 OA
ENDBRANCH 102 106
ENDBRANCH  76  99
ENDBRANCH  50  51
ENDBRANCH  42  45
ENDBRANCH  40  41
ENDBRANCH  39  40
ENDBRANCH  38  39
ENDBRANCH  37  38
ENDBRANCH   1  37
TORSDOF 22
ENDMDL
MODEL 2
REMARK VINA RESULT:      -8.1      5.425     10.066
REMARK SMILES CCOC(=O)c1c(-c2cccc3ccccc23)csc1NC(=O)[C@H]1CC=CC[C@H]1C(=O)NCCCCCCNC(=O)c1ccc(-c2c3nc(c(-c4cc(S(=O)(=O)[O-])ccc4F)c4ccc([nH]4)c(-c4cc(S(=O)(=O)[O-])ccc4F)c4nc(c(-c5cc(S(=O)(=O)[O-])ccc5F)c5ccc2[nH]5)C=C4)C=C3)cc1
REMARK SMILES IDX 34 1 33 2 32 3 30 4 31 5 29 7 24 8 25 9 26 10 28 11 27 12
REMARK SMILES IDX 22 13 21 14 23 16 20 17 6 18 7 19 18 20 19 21 4 22 5 23 3 24
REMARK SMILES IDX 2 25 1 26 8 27 9 28 17 29 10 30 12 31 16 32 11 33 13 34
REMARK SMILES IDX 15 35 14 36 35 37 36 38 37 39 38 40 39 41 40 42 41 44 42 45
REMARK SMILES IDX 43 46 104 47 44 48 103 49 45 50 46 51 47 52 97 53 48 54
REMARK SMILES IDX 102 55 96 56 98 57 49 58 101 59 95 60 94 61 50 63 82 64
REMARK SMILES IDX 62 65 81 66 63 67 66 68 80 69 99 70 64 71 65 72 79 74 100 75
REMARK SMILES IDX 67 76 51 77 52 78 60 79 53 80 59 81 61 82 58 83 54 84 55 85
REMARK SMILES IDX 56 86 57 87 83 88 84 89 92 90 85 91 91 92 93 93 90 94 86 95
REMARK SMILES IDX 87 96 88 97 89 98 68 99 69 100 77 101 70 102 76 103 78 104
REMARK SMILES IDX 75 105 71 106 72 107 73 108 74 109
REMARK H PARENT 32 6 21 15 39 43 98 62 66 73
REMARK Flexibility Score: inf
ROOT
ATOM      1  C   UNL A   1      40.144  28.417  27.311  1.00  0.00     0.021 C 
ENDROOT
BRANCH   1   2
ATOM      2  C   UNL A   1      41.421  27.597  27.486  1.00  0.00     0.116 C 
BRANCH   2   3
ATOM      3  N   UNL A   1      41.688  26.793  26.310  1.00  0.00    -0.356 N 
ATOM      4  C   UNL A   1      42.279  25.590  26.137  1.00  0.00     0.224 C 
ATOM      5  O   UNL A   1      42.420  25.221  24.962  1.00  0.00    -0.275 OA
ATOM      6  H   UNL A   1      41.379  27.206  25.471  1.00  0.00     0.163 HD
BRANCH   4   7
ATOM      7  C   UNL A   1      42.804  24.700  27.259  1.00  0.00     0.095 C 
ATOM      8  C   UNL A   1      41.798  23.639  27.751  1.00  0.00     0.095 C 
ATOM      9  C   UNL A   1      42.269  23.064  29.104  1.00  0.00     0.041 C 
ATOM     10  C   UNL A   1      43.760  22.857  29.201  1.00  0.00    -0.030 C 
ATOM     11  C   UNL A   1      44.257  24.231  27.159  1.00  0.00     0.041 C 
ATOM     12  C   UNL A   1      44.643  23.361  28.325  1.00  0.00    -0.030 C 
BRANCH   8  13
ATOM     13  C   UNL A   1      41.587  22.468  26.800  1.00  0.00     0.229 C 
ATOM     14  N   UNL A   1      40.466  22.280  26.055  1.00  0.00    -0.317 N 
ATOM     15  H   UNL A   1      40.588  21.587  25.367  1.00  0.00     0.170 HD
ATOM     16  O   UNL A   1      42.475  21.621  26.644  1.00  0.00    -0.274 OA
BRANCH  14  17
ATOM     17  C   UNL A   1      39.196  22.823  26.030  1.00  0.00     0.110 A 
ATOM     18  C   UNL A   1      38.034  22.128  25.713  1.00  0.00     0.102 A 
ATOM     19  C   UNL A   1      36.861  22.929  25.987  1.00  0.00     0.010 A 
ATOM     20  C   UNL A   1      37.192  24.207  26.390  1.00  0.00     0.076 A 
ATOM     21  S   UNL A   1      38.875  24.410  26.528  1.00  0.00    -0.125 S 
BRANCH  18  22
ATOM     22  C   UNL A   1      38.043  20.736  25.256  1.00  0.00     0.341 C 
ATOM     23  O   UNL A   1      38.996  19.990  25.443  1.00  0.00    -0.246 OA
BRANCH  22  24
ATOM     24  O   UNL A   1      36.904  20.390  24.595  1.00  0.00    -0.462 OA
BRANCH  24  25
ATOM     25  C   UNL A   1      36.386  19.069  24.813  1.00  0.00     0.230 C 
ATOM     26  C   UNL A   1      34.880  18.985  24.650  1.00  0.00     0.049 C 
ENDBRANCH  24  25
ENDBRANCH  22  24
ENDBRANCH  18  22
BRANCH  19  27
ATOM     27  C   UNL A   1      35.463  22.492  26.005  1.00  0.00    -0.009 A 
ATOM     28  C   UNL A   1      34.956  21.927  27.185  1.00  0.00     0.009 A 
ATOM     29  C   UNL A   1      34.626  22.659  24.861  1.00  0.00    -0.010 A 
ATOM     30  C   UNL A   1      33.624  21.532  27.254  1.00  0.00     0.001 A 
ATOM     31  C   UNL A   1      33.268  22.271  24.961  1.00  0.00    -0.018 A 
ATOM     32  C   UNL A   1      35.063  23.194  23.621  1.00  0.00     0.009 A 
ATOM     33  C   UNL A   1      32.788  21.708  26.154  1.00  0.00     0.009 A 
ATOM     34  C   UNL A   1      32.404  22.454  23.867  1.00  0.00     0.009 A 
ATOM     35  C   UNL A   1      34.190  23.377  22.547  1.00  0.00     0.001 A 
ATOM     36  C   UNL A   1      32.858  23.011  22.672  1.00  0.00     0.001 A 
ENDBRANCH  19  27
ENDBRANCH  14  17
ENDBRANCH   8  13
ENDBRANCH   4   7
ENDBRANCH   2   3
ENDBRANCH   1   2
BRANCH   1  37
ATOM     37  C   UNL A   1      39.101  28.212  28.412  1.00  0.00     0.002 C 
BRANCH  37  38
ATOM     38  C   UNL A   1      39.618  27.556  29.696  1.00  0.00     0.002 C 
BRANCH  38  39
ATOM     39  C   UNL A   1      38.548  27.101  30.696  1.00  0.00     0.021 C 
BRANCH  39  40
ATOM     40  C   UNL A   1      38.684  27.667  32.109  1.00  0.00     0.116 C 
BRANCH  40  41
ATOM     41  N   UNL A   1      37.758  28.759  32.354  1.00  0.00    -0.352 N 
ATOM     42  C   UNL A   1      37.963  30.114  32.289  1.00  0.00     0.251 C 
ATOM     43  H   UNL A   1      36.846  28.486  32.605  1.00  0.00     0.163 HD
ATOM     44  O   UNL A   1      37.100  30.877  32.712  1.00  0.00    -0.269 OA
BRANCH  42  45
ATOM     45  C   UNL A   1      39.221  30.656  31.725  1.00  0.00     0.039 A 
ATOM     46  C   UNL A   1      39.251  31.019  30.376  1.00  0.00     0.014 A 
ATOM     47  C   UNL A   1      40.374  30.768  32.507  1.00  0.00     0.014 A 
ATOM     48  C   UNL A   1      40.422  31.542  29.821  1.00  0.00     0.010 A 
ATOM     49  C   UNL A   1      41.529  31.332  31.964  1.00  0.00     0.010 A 
ATOM     50  C   UNL A   1      41.564  31.723  30.616  1.00  0.00    -0.014 A 
BRANCH  50  51
ATOM     51  C   UNL A   1      42.807  32.313  30.054  1.00  0.00     0.031 A 
ATOM     52  C   UNL A   1      42.937  33.806  29.915  1.00  0.00     0.074 A 
ATOM     53  C   UNL A   1      43.785  31.502  29.604  1.00  0.00     0.049 A 
ATOM     54  N   UNL A   1      43.896  34.506  29.366  1.00  0.00    -0.248 NA
ATOM     55  C   UNL A   1      41.827  34.614  30.440  1.00  0.00     0.031 C 
ATOM     56  C   UNL A   1      43.754  30.038  29.645  1.00  0.00     0.029 A 
ATOM     57  N   UNL A   1      44.984  31.792  29.002  1.00  0.00    -0.354 N 
ATOM     58  C   UNL A   1      43.497  35.835  29.456  1.00  0.00     0.074 A 
ATOM     59  C   UNL A   1      42.191  35.837  30.084  1.00  0.00     0.031 C 
ATOM     60  C   UNL A   1      44.879  29.560  29.089  1.00  0.00     0.029 A 
ATOM     61  C   UNL A   1      45.695  30.677  28.622  1.00  0.00     0.049 A 
ATOM     62  H   UNL A   1      45.305  32.711  28.855  1.00  0.00     0.167 HD
ATOM     63  C   UNL A   1      44.162  36.948  29.062  1.00  0.00     0.034 A 
ATOM     64  C   UNL A   1      46.861  30.566  27.956  1.00  0.00     0.034 A 
ATOM     65  C   UNL A   1      45.474  36.933  28.462  1.00  0.00     0.049 A 
ATOM     66  C   UNL A   1      47.590  31.820  27.546  1.00  0.00     0.074 A 
ATOM     67  C   UNL A   1      46.270  38.007  28.100  1.00  0.00     0.029 A 
ATOM     68  N   UNL A   1      46.182  35.786  28.129  1.00  0.00    -0.354 N 
ATOM     69  N   UNL A   1      47.227  33.072  27.696  1.00  0.00    -0.248 NA
ATOM     70  C   UNL A   1      48.894  31.646  26.890  1.00  0.00     0.031 C 
ATOM     71  C   UNL A   1      47.433  37.510  27.501  1.00  0.00     0.029 A 
ATOM     72  C   UNL A   1      47.392  36.125  27.542  1.00  0.00     0.049 A 
ATOM     73  H   UNL A   1      45.871  34.865  28.286  1.00  0.00     0.167 HD
ATOM     74  C   UNL A   1      48.269  33.834  27.177  1.00  0.00     0.074 A 
ATOM     75  C   UNL A   1      49.280  32.901  26.722  1.00  0.00     0.031 C 
ATOM     76  C   UNL A   1      48.385  35.183  27.087  1.00  0.00     0.034 A 
BRANCH  63  77
ATOM     77  C   UNL A   1      43.466  38.275  29.237  1.00  0.00     0.023 A 
ATOM     78  C   UNL A   1      43.684  39.083  30.367  1.00  0.00     0.031 A 
ATOM     79  C   UNL A   1      42.561  38.733  28.263  1.00  0.00     0.131 A 
ATOM     80  C   UNL A   1      42.959  40.274  30.525  1.00  0.00     0.055 A 
ATOM     81  C   UNL A   1      41.896  39.953  28.393  1.00  0.00     0.041 A 
ATOM     82  F   UNL A   1      42.299  37.994  27.173  1.00  0.00    -0.206 F 
ATOM     83  C   UNL A   1      42.085  40.727  29.535  1.00  0.00     0.022 A 
BRANCH  80  84
ATOM     84  S   UNL A   1      43.092  41.170  32.096  1.00  0.00     0.124 S 
ATOM     85  O   UNL A   1      42.793  40.115  33.063  1.00  0.00    -0.237 OA
ATOM     86  O   UNL A   1      44.471  41.643  32.075  1.00  0.00    -0.237 OA
ATOM     87  O   UNL A   1      42.073  42.212  31.985  1.00  0.00    -0.744 OA
ENDBRANCH  80  84
ENDBRANCH  63  77
BRANCH  64  88
ATOM     88  C   UNL A   1      47.407  29.225  27.609  1.00  0.00     0.023 A 
ATOM     89  C   UNL A   1      47.126  28.626  26.372  1.00  0.00     0.031 A 
ATOM     90  C   UNL A   1      48.183  28.504  28.533  1.00  0.00     0.131 A 
ATOM     91  C   UNL A   1      47.576  27.323  26.108  1.00  0.00     0.055 A 
ATOM     92  C   UNL A   1      48.669  27.226  28.248  1.00  0.00     0.041 A 
ATOM     93  F   UNL A   1      48.487  29.036  29.727  1.00  0.00    -0.206 F 
ATOM     94  C   UNL A   1      48.354  26.623  27.034  1.00  0.00     0.022 A 
BRANCH  91  95
ATOM     95  S   UNL A   1      47.059  26.521  24.566  1.00  0.00     0.124 S 
ATOM     96  O   UNL A   1      47.377  27.544  23.576  1.00  0.00    -0.237 OA
ATOM     97  O   UNL A   1      47.899  25.329  24.549  1.00  0.00    -0.237 OA
ATOM     98  O   UNL A   1      45.633  26.275  24.772  1.00  0.00    -0.744 OA
ENDBRANCH  91  95
ENDBRANCH  64  88
BRANCH  76  99
ATOM     99  C   UNL A   1      49.671  35.720  26.515  1.00  0.00     0.023 A 
ATOM    100  C   UNL A   1      50.719  36.158  27.342  1.00  0.00     0.031 A 
ATOM    101  C   UNL A   1      49.840  35.810  25.122  1.00  0.00     0.131 A 
ATOM    102  C   UNL A   1      51.873  36.713  26.769  1.00  0.00     0.055 A 
ATOM    103  C   UNL A   1      51.010  36.316  24.557  1.00  0.00     0.041 A 
ATOM    104  F   UNL A   1      48.868  35.405  24.289  1.00  0.00    -0.206 F 
ATOM    105  C   UNL A   1      52.031  36.783  25.382  1.00  0.00     0.022 A 
BRANCH 102 106
ATOM    106  S   UNL A   1      53.140  37.413  27.863  1.00  0.00     0.124 S 
ATOM    107  O   UNL A   1      53.741  38.438  27.016  1.00  0.00    -0.237 OA
ATOM    108  O   UNL A   1      52.347  37.899  28.987  1.00  0.00    -0.237 OA
ATOM    109  O   UNL A   1      54.003  36.272  28.163  1.00  0.00    -0.744 OA
ENDBRANCH 102 106
ENDBRANCH  76  99
ENDBRANCH  50  51
ENDBRANCH  42  45
ENDBRANCH  40  41
ENDBRANCH  39  40
ENDBRANCH  38  39
ENDBRANCH  37  38
ENDBRANCH   1  37
TORSDOF 22
ENDMDL
MODEL 3
REMARK VINA RESULT:      -8.0      3.184      9.443
REMARK SMILES CCOC(=O)c1c(-c2cccc3ccccc23)csc1NC(=O)[C@H]1CC=CC[C@H]1C(=O)NCCCCCCNC(=O)c1ccc(-c2c3nc(c(-c4cc(S(=O)(=O)[O-])ccc4F)c4ccc([nH]4)c(-c4cc(S(=O)(=O)[O-])ccc4F)c4nc(c(-c5cc(S(=O)(=O)[O-])ccc5F)c5ccc2[nH]5)C=C4)C=C3)cc1
REMARK SMILES IDX 34 1 33 2 32 3 30 4 31 5 29 7 24 8 25 9 26 10 28 11 27 12
REMARK SMILES IDX 22 13 21 14 23 16 20 17 6 18 7 19 18 20 19 21 4 22 5 23 3 24
REMARK SMILES IDX 2 25 1 26 8 27 9 28 17 29 10 30 12 31 16 32 11 33 13 34
REMARK SMILES IDX 15 35 14 36 35 37 36 38 37 39 38 40 39 41 40 42 41 44 42 45
REMARK SMILES IDX 43 46 104 47 44 48 103 49 45 50 46 51 47 52 97 53 48 54
REMARK SMILES IDX 102 55 96 56 98 57 49 58 101 59 95 60 94 61 50 63 82 64
REMARK SMILES IDX 62 65 81 66 63 67 66 68 80 69 99 70 64 71 65 72 79 74 100 75
REMARK SMILES IDX 67 76 51 77 52 78 60 79 53 80 59 81 61 82 58 83 54 84 55 85
REMARK SMILES IDX 56 86 57 87 83 88 84 89 92 90 85 91 91 92 93 93 90 94 86 95
REMARK SMILES IDX 87 96 88 97 89 98 68 99 69 100 77 101 70 102 76 103 78 104
REMARK SMILES IDX 75 105 71 106 72 107 73 108 74 109
REMARK H PARENT 32 6 21 15 39 43 98 62 66 73
REMARK Flexibility Score: inf
ROOT
ATOM      1  C   UNL A   1      47.596  24.893  28.504  1.00  0.00     0.021 C 
ENDROOT
BRANCH   1   2
ATOM      2  C   UNL A   1      46.398  25.728  28.056  1.00  0.00     0.116 C 
BRANCH   2   3
ATOM      3  N   UNL A   1      46.137  25.548  26.642  1.00  0.00    -0.356 N 
ATOM      4  C   UNL A   1      45.085  25.040  25.961  1.00  0.00     0.224 C 
ATOM      5  O   UNL A   1      45.226  24.959  24.732  1.00  0.00    -0.275 OA
ATOM      6  H   UNL A   1      46.872  25.856  26.062  1.00  0.00     0.163 HD
BRANCH   4   7
ATOM      7  C   UNL A   1      43.791  24.538  26.591  1.00  0.00     0.095 C 
ATOM      8  C   UNL A   1      42.859  25.656  27.102  1.00  0.00     0.095 C 
ATOM      9  C   UNL A   1      41.790  25.054  28.040  1.00  0.00     0.041 C 
ATOM     10  C   UNL A   1      41.261  23.715  27.592  1.00  0.00    -0.030 C 
ATOM     11  C   UNL A   1      43.091  23.360  25.911  1.00  0.00     0.041 C 
ATOM     12  C   UNL A   1      41.829  22.969  26.632  1.00  0.00    -0.030 C 
BRANCH   8  13
ATOM     13  C   UNL A   1      42.132  26.431  26.011  1.00  0.00     0.229 C 
ATOM     14  N   UNL A   1      41.909  27.772  26.045  1.00  0.00    -0.317 N 
ATOM     15  H   UNL A   1      41.601  28.119  25.177  1.00  0.00     0.170 HD
ATOM     16  O   UNL A   1      41.721  25.850  25.000  1.00  0.00    -0.274 OA
BRANCH  14  17
ATOM     17  C   UNL A   1      42.007  28.764  27.000  1.00  0.00     0.110 A 
ATOM     18  C   UNL A   1      40.981  29.160  27.852  1.00  0.00     0.102 A 
ATOM     19  C   UNL A   1      41.473  30.067  28.867  1.00  0.00     0.010 A 
ATOM     20  C   UNL A   1      42.799  30.390  28.671  1.00  0.00     0.076 A 
ATOM     21  S   UNL A   1      43.467  29.548  27.352  1.00  0.00    -0.125 S 
BRANCH  18  22
ATOM     22  C   UNL A   1      39.620  28.627  27.754  1.00  0.00     0.341 C 
ATOM     23  O   UNL A   1      39.366  27.440  27.921  1.00  0.00    -0.246 OA
BRANCH  22  24
ATOM     24  O   UNL A   1      38.701  29.582  27.440  1.00  0.00    -0.462 OA
BRANCH  24  25
ATOM     25  C   UNL A   1      37.452  29.559  28.148  1.00  0.00     0.230 C 
ATOM     26  C   UNL A   1      36.873  30.942  28.380  1.00  0.00     0.049 C 
ENDBRANCH  24  25
ENDBRANCH  22  24
ENDBRANCH  18  22
BRANCH  19  27
ATOM     27  C   UNL A   1      40.775  30.526  30.070  1.00  0.00    -0.009 A 
ATOM     28  C   UNL A   1      40.064  31.733  30.009  1.00  0.00     0.009 A 
ATOM     29  C   UNL A   1      40.791  29.752  31.270  1.00  0.00    -0.010 A 
ATOM     30  C   UNL A   1      39.358  32.186  31.118  1.00  0.00     0.001 A 
ATOM     31  C   UNL A   1      40.048  30.220  32.380  1.00  0.00    -0.018 A 
ATOM     32  C   UNL A   1      41.506  28.536  31.428  1.00  0.00     0.009 A 
ATOM     33  C   UNL A   1      39.347  31.433  32.291  1.00  0.00     0.009 A 
ATOM     34  C   UNL A   1      40.011  29.468  33.567  1.00  0.00     0.009 A 
ATOM     35  C   UNL A   1      41.452  27.796  32.611  1.00  0.00     0.001 A 
ATOM     36  C   UNL A   1      40.700  28.260  33.679  1.00  0.00     0.001 A 
ENDBRANCH  19  27
ENDBRANCH  14  17
ENDBRANCH   8  13
ENDBRANCH   4   7
ENDBRANCH   2   3
ENDBRANCH   1   2
BRANCH   1  37
ATOM     37  C   UNL A   1      48.957  25.536  28.229  1.00  0.00     0.002 C 
BRANCH  37  38
ATOM     38  C   UNL A   1      49.618  25.141  26.905  1.00  0.00     0.002 C 
BRANCH  38  39
ATOM     39  C   UNL A   1      51.143  25.292  26.843  1.00  0.00     0.021 C 
BRANCH  39  40
ATOM     40  C   UNL A   1      51.681  26.682  27.176  1.00  0.00     0.116 C 
BRANCH  40  41
ATOM     41  N   UNL A   1      51.662  27.569  26.025  1.00  0.00    -0.352 N 
ATOM     42  C   UNL A   1      50.769  28.557  25.694  1.00  0.00     0.251 C 
ATOM     43  H   UNL A   1      52.401  27.442  25.386  1.00  0.00     0.163 HD
ATOM     44  O   UNL A   1      50.825  29.074  24.582  1.00  0.00    -0.269 OA
BRANCH  42  45
ATOM     45  C   UNL A   1      49.737  28.990  26.663  1.00  0.00     0.039 A 
ATOM     46  C   UNL A   1      50.126  29.765  27.759  1.00  0.00     0.014 A 
ATOM     47  C   UNL A   1      48.401  28.603  26.518  1.00  0.00     0.014 A 
ATOM     48  C   UNL A   1      49.171  30.196  28.682  1.00  0.00     0.010 A 
ATOM     49  C   UNL A   1      47.441  29.070  27.416  1.00  0.00     0.010 A 
ATOM     50  C   UNL A   1      47.817  29.870  28.507  1.00  0.00    -0.014 A 
BRANCH  50  51
ATOM     51  C   UNL A   1      46.780  30.350  29.457  1.00  0.00     0.031 A 
ATOM     52  C   UNL A   1      46.116  31.682  29.239  1.00  0.00     0.074 A 
ATOM     53  C   UNL A   1      46.492  29.620  30.553  1.00  0.00     0.049 A 
ATOM     54  N   UNL A   1      45.262  32.317  30.000  1.00  0.00    -0.248 NA
ATOM     55  C   UNL A   1      46.484  32.407  28.014  1.00  0.00     0.031 C 
ATOM     56  C   UNL A   1      47.101  28.333  30.895  1.00  0.00     0.029 A 
ATOM     57  N   UNL A   1      45.631  29.866  31.593  1.00  0.00    -0.354 N 
ATOM     58  C   UNL A   1      45.007  33.525  29.361  1.00  0.00     0.074 A 
ATOM     59  C   UNL A   1      45.825  33.546  28.166  1.00  0.00     0.031 C 
ATOM     60  C   UNL A   1      46.599  27.906  32.065  1.00  0.00     0.029 A 
ATOM     61  C   UNL A   1      45.658  28.900  32.572  1.00  0.00     0.049 A 
ATOM     62  H   UNL A   1      45.048  30.659  31.635  1.00  0.00     0.167 HD
ATOM     63  C   UNL A   1      44.162  34.519  29.732  1.00  0.00     0.034 A 
ATOM     64  C   UNL A   1      45.013  28.832  33.754  1.00  0.00     0.034 A 
ATOM     65  C   UNL A   1      43.333  34.472  30.912  1.00  0.00     0.049 A 
ATOM     66  C   UNL A   1      44.065  29.940  34.134  1.00  0.00     0.074 A 
ATOM     67  C   UNL A   1      42.384  35.387  31.336  1.00  0.00     0.029 A 
ATOM     68  N   UNL A   1      43.356  33.458  31.860  1.00  0.00    -0.354 N 
ATOM     69  N   UNL A   1      43.788  31.048  33.487  1.00  0.00    -0.248 NA
ATOM     70  C   UNL A   1      43.330  29.781  35.397  1.00  0.00     0.031 C 
ATOM     71  C   UNL A   1      41.874  34.954  32.566  1.00  0.00     0.029 A 
ATOM     72  C   UNL A   1      42.460  33.739  32.881  1.00  0.00     0.049 A 
ATOM     73  H   UNL A   1      43.927  32.657  31.816  1.00  0.00     0.167 HD
ATOM     74  C   UNL A   1      42.828  31.704  34.251  1.00  0.00     0.074 A 
ATOM     75  C   UNL A   1      42.565  30.862  35.400  1.00  0.00     0.031 C 
ATOM     76  C   UNL A   1      42.215  32.893  34.024  1.00  0.00     0.034 A 
BRANCH  63  77
ATOM     77  C   UNL A   1      44.118  35.755  28.869  1.00  0.00     0.023 A 
ATOM     78  C   UNL A   1      44.959  36.856  29.107  1.00  0.00     0.031 A 
ATOM     79  C   UNL A   1      43.211  35.837  27.797  1.00  0.00     0.131 A 
ATOM     80  C   UNL A   1      44.832  38.015  28.326  1.00  0.00     0.055 A 
ATOM     81  C   UNL A   1      43.139  36.965  26.979  1.00  0.00     0.041 A 
ATOM     82  F   UNL A   1      42.371  34.823  27.535  1.00  0.00    -0.206 F 
ATOM     83  C   UNL A   1      43.945  38.068  27.249  1.00  0.00     0.022 A 
BRANCH  80  84
ATOM     84  S   UNL A   1      45.766  39.493  28.806  1.00  0.00     0.124 S 
ATOM     85  O   UNL A   1      45.174  39.805  30.105  1.00  0.00    -0.237 OA
ATOM     86  O   UNL A   1      47.140  39.005  28.832  1.00  0.00    -0.237 OA
ATOM     87  O   UNL A   1      45.463  40.450  27.744  1.00  0.00    -0.744 OA
ENDBRANCH  80  84
ENDBRANCH  63  77
BRANCH  64  88
ATOM     88  C   UNL A   1      45.255  27.692  34.681  1.00  0.00     0.023 A 
ATOM     89  C   UNL A   1      44.534  26.494  34.560  1.00  0.00     0.031 A 
ATOM     90  C   UNL A   1      46.183  27.803  35.731  1.00  0.00     0.131 A 
ATOM     91  C   UNL A   1      44.716  25.471  35.504  1.00  0.00     0.055 A 
ATOM     92  C   UNL A   1      46.395  26.764  36.640  1.00  0.00     0.041 A 
ATOM     93  F   UNL A   1      46.904  28.925  35.885  1.00  0.00    -0.206 F 
ATOM     94  C   UNL A   1      45.649  25.594  36.537  1.00  0.00     0.022 A 
BRANCH  91  95
ATOM     95  S   UNL A   1      43.654  24.004  35.409  1.00  0.00     0.124 S 
ATOM     96  O   UNL A   1      44.536  22.962  35.922  1.00  0.00    -0.237 OA
ATOM     97  O   UNL A   1      42.540  24.383  36.272  1.00  0.00    -0.237 OA
ATOM     98  O   UNL A   1      43.334  23.907  33.987  1.00  0.00    -0.744 OA
ENDBRANCH  91  95
ENDBRANCH  64  88
BRANCH  76  99
ATOM     99  C   UNL A   1      41.169  33.321  35.019  1.00  0.00     0.023 A 
ATOM    100  C   UNL A   1      39.800  33.093  34.795  1.00  0.00     0.031 A 
ATOM    101  C   UNL A   1      41.549  33.982  36.201  1.00  0.00     0.131 A 
ATOM    102  C   UNL A   1      38.855  33.567  35.716  1.00  0.00     0.055 A 
ATOM    103  C   UNL A   1      40.607  34.408  37.137  1.00  0.00     0.041 A 
ATOM    104  F   UNL A   1      42.843  34.225  36.461  1.00  0.00    -0.206 F 
ATOM    105  C   UNL A   1      39.250  34.212  36.892  1.00  0.00     0.022 A 
BRANCH 102 106
ATOM    106  S   UNL A   1      37.092  33.398  35.323  1.00  0.00     0.124 S 
ATOM    107  O   UNL A   1      36.860  34.555  34.464  1.00  0.00    -0.237 OA
ATOM    108  O   UNL A   1      37.042  32.096  34.666  1.00  0.00    -0.237 OA
ATOM    109  O   UNL A   1      36.442  33.456  36.631  1.00  0.00    -0.744 OA
ENDBRANCH 102 106
ENDBRANCH  76  99
ENDBRANCH  50  51
ENDBRANCH  42  45
ENDBRANCH  40  41
ENDBRANCH  39  40
ENDBRANCH  38  39
ENDBRANCH  37  38
ENDBRANCH   1  37
TORSDOF 22
ENDMDL
