MODEL 1
REMARK VINA RESULT:     -11.0      0.000      0.000
REMARK SMILES CCSCc1cc(F)cc(/C=C/C(=O)NCCCCCCNC(=O)c2ccc(-c3c4nc(c(-c5cc(S(=O)(=O)[O-])ccc5F)c5ccc([nH]5)c(-c5cc(S(=O)(=O)[O-])ccc5F)c5nc(c(-c6cc(S(=O)(=O)[O-])ccc6F)c6ccc3[nH]6)C=C5)C=C4)cc2)c1
REMARK SMILES IDX 18 1 17 2 16 3 15 4 13 5 14 6 12 8 11 9 10 10 5 11 6 12
REMARK SMILES IDX 88 13 7 14 8 15 9 16 4 17 3 18 2 19 1 20 19 21 20 22 21 23
REMARK SMILES IDX 22 24 23 25 24 27 25 28 26 29 87 30 27 31 86 32 28 33 29 34
REMARK SMILES IDX 30 35 80 36 31 37 85 38 79 39 81 40 32 41 84 42 78 43 77 44
REMARK SMILES IDX 33 46 65 47 45 48 64 49 46 50 49 51 63 52 82 53 47 54 48 55
REMARK SMILES IDX 62 57 83 58 50 59 34 60 35 61 43 62 36 63 42 64 44 65 41 66
REMARK SMILES IDX 37 67 38 68 39 69 40 70 66 71 67 72 75 73 68 74 74 75 76 76
REMARK SMILES IDX 73 77 69 78 70 79 71 80 72 81 51 82 52 83 60 84 53 85 59 86
REMARK SMILES IDX 61 87 58 88 54 89 55 90 56 91 57 92
REMARK H PARENT 15 7 22 26 81 45 49 56
REMARK Flexibility Score: inf
ROOT
ATOM      1  C   UNL A   1      31.757  27.728  25.713  1.00  0.00     0.002 C 
ENDROOT
BRANCH   1   2
ATOM      2  C   UNL A   1      30.477  26.883  25.649  1.00  0.00     0.021 C 
BRANCH   2   3
ATOM      3  C   UNL A   1      30.740  25.406  25.350  1.00  0.00     0.116 C 
BRANCH   3   4
ATOM      4  N   UNL A   1      30.001  24.569  26.277  1.00  0.00    -0.353 N 
ATOM      5  C   UNL A   1      30.318  23.396  26.883  1.00  0.00     0.243 C 
ATOM      6  O   UNL A   1      29.523  22.888  27.672  1.00  0.00    -0.270 OA
ATOM      7  H   UNL A   1      29.109  24.914  26.509  1.00  0.00     0.163 HD
BRANCH   5   8
ATOM      8  C   UNL A   1      31.648  22.772  26.702  1.00  0.00     0.072 C 
ATOM      9  C   UNL A   1      32.058  22.109  25.611  1.00  0.00     0.014 C 
BRANCH   9  10
ATOM     10  C   UNL A   1      33.413  21.565  25.454  1.00  0.00    -0.022 A 
ATOM     11  C   UNL A   1      34.817  19.658  24.819  1.00  0.00    -0.035 A 
ATOM     12  C   UNL A   1      35.955  20.418  25.112  1.00  0.00     0.043 A 
ATOM     13  C   UNL A   1      33.551  20.240  25.006  1.00  0.00     0.013 A 
ATOM     14  C   UNL A   1      35.817  21.721  25.581  1.00  0.00     0.124 A 
ATOM     15  F   UNL A   1      36.913  22.433  25.875  1.00  0.00    -0.207 F 
ATOM     16  C   UNL A   1      34.563  22.299  25.753  1.00  0.00     0.047 A 
BRANCH  11  17
ATOM     17  C   UNL A   1      34.946  18.248  24.299  1.00  0.00     0.105 C 
BRANCH  17  18
ATOM     18  S   UNL A   1      33.354  17.378  24.166  1.00  0.00    -0.157 SA
BRANCH  18  19
ATOM     19  C   UNL A   1      33.330  16.403  25.708  1.00  0.00     0.066 C 
ATOM     20  C   UNL A   1      32.232  15.355  25.755  1.00  0.00     0.015 C 
ENDBRANCH  18  19
ENDBRANCH  17  18
ENDBRANCH  11  17
ENDBRANCH   9  10
ENDBRANCH   5   8
ENDBRANCH   3   4
ENDBRANCH   2   3
ENDBRANCH   1   2
BRANCH   1  21
ATOM     21  C   UNL A   1      31.784  28.932  24.762  1.00  0.00     0.002 C 
BRANCH  21  22
ATOM     22  C   UNL A   1      31.367  30.262  25.395  1.00  0.00     0.021 C 
BRANCH  22  23
ATOM     23  C   UNL A   1      32.184  30.655  26.621  1.00  0.00     0.116 C 
BRANCH  23  24
ATOM     24  N   UNL A   1      32.208  32.098  26.808  1.00  0.00    -0.352 N 
ATOM     25  C   UNL A   1      33.084  32.864  27.541  1.00  0.00     0.251 C 
ATOM     26  H   UNL A   1      31.496  32.597  26.347  1.00  0.00     0.163 HD
ATOM     27  O   UNL A   1      32.816  34.031  27.797  1.00  0.00    -0.269 OA
BRANCH  25  28
ATOM     28  C   UNL A   1      34.341  32.257  28.027  1.00  0.00     0.039 A 
ATOM     29  C   UNL A   1      35.470  33.063  28.186  1.00  0.00     0.014 A 
ATOM     30  C   UNL A   1      34.392  30.896  28.344  1.00  0.00     0.014 A 
ATOM     31  C   UNL A   1      36.630  32.518  28.742  1.00  0.00     0.010 A 
ATOM     32  C   UNL A   1      35.525  30.373  28.960  1.00  0.00     0.010 A 
ATOM     33  C   UNL A   1      36.650  31.182  29.179  1.00  0.00    -0.014 A 
BRANCH  33  34
ATOM     34  C   UNL A   1      37.815  30.620  29.909  1.00  0.00     0.031 A 
ATOM     35  C   UNL A   1      38.095  31.035  31.326  1.00  0.00     0.074 A 
ATOM     36  C   UNL A   1      38.663  29.796  29.262  1.00  0.00     0.049 A 
ATOM     37  N   UNL A   1      39.128  30.752  32.077  1.00  0.00    -0.248 NA
ATOM     38  C   UNL A   1      37.097  31.899  31.973  1.00  0.00     0.031 C 
ATOM     39  C   UNL A   1      38.504  29.336  27.880  1.00  0.00     0.029 A 
ATOM     40  N   UNL A   1      39.831  29.206  29.674  1.00  0.00    -0.354 N 
ATOM     41  C   UNL A   1      38.909  31.407  33.283  1.00  0.00     0.074 A 
ATOM     42  C   UNL A   1      37.668  32.138  33.145  1.00  0.00     0.031 C 
ATOM     43  C   UNL A   1      39.519  28.515  27.570  1.00  0.00     0.029 A 
ATOM     44  C   UNL A   1      40.432  28.436  28.705  1.00  0.00     0.049 A 
ATOM     45  H   UNL A   1      40.203  29.322  30.578  1.00  0.00     0.167 HD
ATOM     46  C   UNL A   1      39.668  31.385  34.405  1.00  0.00     0.034 A 
ATOM     47  C   UNL A   1      41.597  27.757  28.718  1.00  0.00     0.034 A 
ATOM     48  C   UNL A   1      40.901  30.646  34.529  1.00  0.00     0.049 A 
ATOM     49  C   UNL A   1      42.442  27.781  29.962  1.00  0.00     0.074 A 
ATOM     50  C   UNL A   1      41.729  30.535  35.634  1.00  0.00     0.029 A 
ATOM     51  N   UNL A   1      41.488  29.892  33.520  1.00  0.00    -0.354 N 
ATOM     52  N   UNL A   1      42.228  28.414  31.091  1.00  0.00    -0.248 NA
ATOM     53  C   UNL A   1      43.683  26.997  29.934  1.00  0.00     0.031 C 
ATOM     54  C   UNL A   1      42.846  29.777  35.272  1.00  0.00     0.029 A 
ATOM     55  C   UNL A   1      42.677  29.338  33.969  1.00  0.00     0.049 A 
ATOM     56  H   UNL A   1      41.113  29.770  32.618  1.00  0.00     0.167 HD
ATOM     57  C   UNL A   1      43.293  28.079  31.921  1.00  0.00     0.074 A 
ATOM     58  C   UNL A   1      44.147  27.188  31.162  1.00  0.00     0.031 C 
ATOM     59  C   UNL A   1      43.532  28.463  33.201  1.00  0.00     0.034 A 
BRANCH  46  60
ATOM     60  C   UNL A   1      39.205  32.205  35.582  1.00  0.00     0.023 A 
ATOM     61  C   UNL A   1      38.513  31.625  36.660  1.00  0.00     0.031 A 
ATOM     62  C   UNL A   1      39.485  33.582  35.641  1.00  0.00     0.131 A 
ATOM     63  C   UNL A   1      38.090  32.426  37.731  1.00  0.00     0.055 A 
ATOM     64  C   UNL A   1      39.119  34.361  36.740  1.00  0.00     0.041 A 
ATOM     65  F   UNL A   1      40.124  34.191  34.630  1.00  0.00    -0.206 F 
ATOM     66  C   UNL A   1      38.412  33.785  37.790  1.00  0.00     0.022 A 
BRANCH  63  67
ATOM     67  S   UNL A   1      37.041  31.686  39.012  1.00  0.00     0.124 S 
ATOM     68  O   UNL A   1      37.889  31.810  40.194  1.00  0.00    -0.237 OA
ATOM     69  O   UNL A   1      35.857  32.536  38.982  1.00  0.00    -0.237 OA
ATOM     70  O   UNL A   1      36.838  30.318  38.538  1.00  0.00    -0.744 OA
ENDBRANCH  63  67
ENDBRANCH  46  60
BRANCH  47  71
ATOM     71  C   UNL A   1      42.025  27.006  27.508  1.00  0.00     0.023 A 
ATOM     72  C   UNL A   1      41.867  25.614  27.430  1.00  0.00     0.031 A 
ATOM     73  C   UNL A   1      42.576  27.674  26.400  1.00  0.00     0.131 A 
ATOM     74  C   UNL A   1      42.271  24.930  26.272  1.00  0.00     0.055 A 
ATOM     75  C   UNL A   1      42.941  26.995  25.237  1.00  0.00     0.041 A 
ATOM     76  F   UNL A   1      42.732  29.007  26.421  1.00  0.00    -0.206 F 
ATOM     77  C   UNL A   1      42.794  25.613  25.171  1.00  0.00     0.022 A 
BRANCH  74  78
ATOM     78  S   UNL A   1      42.118  23.123  26.229  1.00  0.00     0.124 S 
ATOM     79  O   UNL A   1      42.839  22.736  27.435  1.00  0.00    -0.237 OA
ATOM     80  O   UNL A   1      40.671  22.939  26.256  1.00  0.00    -0.237 OA
ATOM     81  O   UNL A   1      42.763  22.759  24.968  1.00  0.00    -0.744 OA
ENDBRANCH  74  78
ENDBRANCH  47  71
BRANCH  59  82
ATOM     82  C   UNL A   1      44.744  27.883  33.885  1.00  0.00     0.023 A 
ATOM     83  C   UNL A   1      44.674  26.713  34.657  1.00  0.00     0.031 A 
ATOM     84  C   UNL A   1      45.997  28.508  33.740  1.00  0.00     0.131 A 
ATOM     85  C   UNL A   1      45.826  26.226  35.292  1.00  0.00     0.055 A 
ATOM     86  C   UNL A   1      47.150  27.987  34.326  1.00  0.00     0.041 A 
ATOM     87  F   UNL A   1      46.121  29.630  33.013  1.00  0.00    -0.206 F 
ATOM     88  C   UNL A   1      47.067  26.844  35.117  1.00  0.00     0.022 A 
BRANCH  85  89
ATOM     89  S   UNL A   1      45.671  24.807  36.412  1.00  0.00     0.124 S 
ATOM     90  O   UNL A   1      46.650  25.130  37.446  1.00  0.00    -0.237 OA
ATOM     91  O   UNL A   1      44.271  24.877  36.815  1.00  0.00    -0.237 OA
ATOM     92  O   UNL A   1      46.018  23.665  35.568  1.00  0.00    -0.744 OA
ENDBRANCH  85  89
ENDBRANCH  59  82
ENDBRANCH  33  34
ENDBRANCH  25  28
ENDBRANCH  23  24
ENDBRANCH  22  23
ENDBRANCH  21  22
ENDBRANCH   1  21
TORSDOF 20
ENDMDL
MODEL 2
REMARK VINA RESULT:     -10.9      4.601     10.716
REMARK SMILES CCSCc1cc(F)cc(/C=C/C(=O)NCCCCCCNC(=O)c2ccc(-c3c4nc(c(-c5cc(S(=O)(=O)[O-])ccc5F)c5ccc([nH]5)c(-c5cc(S(=O)(=O)[O-])ccc5F)c5nc(c(-c6cc(S(=O)(=O)[O-])ccc6F)c6ccc3[nH]6)C=C5)C=C4)cc2)c1
REMARK SMILES IDX 18 1 17 2 16 3 15 4 13 5 14 6 12 8 11 9 10 10 5 11 6 12
REMARK SMILES IDX 88 13 7 14 8 15 9 16 4 17 3 18 2 19 1 20 19 21 20 22 21 23
REMARK SMILES IDX 22 24 23 25 24 27 25 28 26 29 87 30 27 31 86 32 28 33 29 34
REMARK SMILES IDX 30 35 80 36 31 37 85 38 79 39 81 40 32 41 84 42 78 43 77 44
REMARK SMILES IDX 33 46 65 47 45 48 64 49 46 50 49 51 63 52 82 53 47 54 48 55
REMARK SMILES IDX 62 57 83 58 50 59 34 60 35 61 43 62 36 63 42 64 44 65 41 66
REMARK SMILES IDX 37 67 38 68 39 69 40 70 66 71 67 72 75 73 68 74 74 75 76 76
REMARK SMILES IDX 73 77 69 78 70 79 71 80 72 81 51 82 52 83 60 84 53 85 59 86
REMARK SMILES IDX 61 87 58 88 54 89 55 90 56 91 57 92
REMARK H PARENT 15 7 22 26 81 45 49 56
REMARK Flexibility Score: inf
ROOT
ATOM      1  C   UNL A   1      48.260  26.741  31.444  1.00  0.00     0.002 C 
ENDROOT
BRANCH   1   2
ATOM      2  C   UNL A   1      48.001  28.211  31.800  1.00  0.00     0.021 C 
BRANCH   2   3
ATOM      3  C   UNL A   1      47.987  29.137  30.582  1.00  0.00     0.116 C 
BRANCH   3   4
ATOM      4  N   UNL A   1      46.629  29.562  30.292  1.00  0.00    -0.353 N 
ATOM      5  C   UNL A   1      45.802  29.293  29.250  1.00  0.00     0.243 C 
ATOM      6  O   UNL A   1      44.661  29.751  29.248  1.00  0.00    -0.270 OA
ATOM      7  H   UNL A   1      46.237  30.152  30.975  1.00  0.00     0.163 HD
BRANCH   5   8
ATOM      8  C   UNL A   1      46.205  28.366  28.168  1.00  0.00     0.072 C 
ATOM      9  C   UNL A   1      45.949  27.049  28.132  1.00  0.00     0.014 C 
BRANCH   9  10
ATOM     10  C   UNL A   1      46.311  26.184  27.002  1.00  0.00    -0.022 A 
ATOM     11  C   UNL A   1      46.163  23.969  25.960  1.00  0.00    -0.035 A 
ATOM     12  C   UNL A   1      46.937  24.437  24.893  1.00  0.00     0.043 A 
ATOM     13  C   UNL A   1      45.868  24.851  27.015  1.00  0.00     0.013 A 
ATOM     14  C   UNL A   1      47.398  25.750  24.893  1.00  0.00     0.124 A 
ATOM     15  F   UNL A   1      48.153  26.182  23.873  1.00  0.00    -0.207 F 
ATOM     16  C   UNL A   1      47.093  26.624  25.932  1.00  0.00     0.047 A 
BRANCH  11  17
ATOM     17  C   UNL A   1      45.644  22.553  25.974  1.00  0.00     0.105 C 
BRANCH  17  18
ATOM     18  S   UNL A   1      45.374  21.866  24.311  1.00  0.00    -0.157 SA
BRANCH  18  19
ATOM     19  C   UNL A   1      45.146  20.092  24.672  1.00  0.00     0.066 C 
ATOM     20  C   UNL A   1      46.361  19.432  25.301  1.00  0.00     0.015 C 
ENDBRANCH  18  19
ENDBRANCH  17  18
ENDBRANCH  11  17
ENDBRANCH   9  10
ENDBRANCH   5   8
ENDBRANCH   3   4
ENDBRANCH   2   3
ENDBRANCH   1   2
BRANCH   1  21
ATOM     21  C   UNL A   1      47.526  25.724  32.329  1.00  0.00     0.002 C 
BRANCH  21  22
ATOM     22  C   UNL A   1      48.411  25.000  33.347  1.00  0.00     0.021 C 
BRANCH  22  23
ATOM     23  C   UNL A   1      47.639  24.161  34.361  1.00  0.00     0.116 C 
BRANCH  23  24
ATOM     24  N   UNL A   1      47.865  24.625  35.722  1.00  0.00    -0.352 N 
ATOM     25  C   UNL A   1      47.337  25.721  36.363  1.00  0.00     0.251 C 
ATOM     26  H   UNL A   1      48.482  24.078  36.259  1.00  0.00     0.163 HD
ATOM     27  O   UNL A   1      47.822  26.108  37.419  1.00  0.00    -0.269 OA
BRANCH  25  28
ATOM     28  C   UNL A   1      46.193  26.433  35.755  1.00  0.00     0.039 A 
ATOM     29  C   UNL A   1      46.408  27.664  35.133  1.00  0.00     0.014 A 
ATOM     30  C   UNL A   1      44.914  25.868  35.785  1.00  0.00     0.014 A 
ATOM     31  C   UNL A   1      45.352  28.291  34.467  1.00  0.00     0.010 A 
ATOM     32  C   UNL A   1      43.882  26.460  35.065  1.00  0.00     0.010 A 
ATOM     33  C   UNL A   1      44.094  27.670  34.386  1.00  0.00    -0.014 A 
BRANCH  33  34
ATOM     34  C   UNL A   1      42.998  28.239  33.560  1.00  0.00     0.031 A 
ATOM     35  C   UNL A   1      41.994  29.174  34.172  1.00  0.00     0.074 A 
ATOM     36  C   UNL A   1      42.867  27.845  32.277  1.00  0.00     0.049 A 
ATOM     37  N   UNL A   1      40.902  29.667  33.647  1.00  0.00    -0.248 NA
ATOM     38  C   UNL A   1      42.235  29.589  35.562  1.00  0.00     0.031 C 
ATOM     39  C   UNL A   1      43.771  26.927  31.579  1.00  0.00     0.029 A 
ATOM     40  N   UNL A   1      41.919  28.156  31.336  1.00  0.00    -0.354 N 
ATOM     41  C   UNL A   1      40.322  30.446  34.641  1.00  0.00     0.074 A 
ATOM     42  C   UNL A   1      41.160  30.321  35.815  1.00  0.00     0.031 C 
ATOM     43  C   UNL A   1      43.350  26.773  30.314  1.00  0.00     0.029 A 
ATOM     44  C   UNL A   1      42.117  27.530  30.126  1.00  0.00     0.049 A 
ATOM     45  H   UNL A   1      41.170  28.770  31.508  1.00  0.00     0.167 HD
ATOM     46  C   UNL A   1      39.202  31.205  34.573  1.00  0.00     0.034 A 
ATOM     47  C   UNL A   1      41.380  27.545  28.998  1.00  0.00     0.034 A 
ATOM     48  C   UNL A   1      38.380  31.324  33.393  1.00  0.00     0.049 A 
ATOM     49  C   UNL A   1      40.119  28.364  28.959  1.00  0.00     0.074 A 
ATOM     50  C   UNL A   1      37.242  32.092  33.213  1.00  0.00     0.029 A 
ATOM     51  N   UNL A   1      38.602  30.660  32.193  1.00  0.00    -0.354 N 
ATOM     52  N   UNL A   1      39.577  29.086  29.911  1.00  0.00    -0.248 NA
ATOM     53  C   UNL A   1      39.373  28.373  27.694  1.00  0.00     0.031 C 
ATOM     54  C   UNL A   1      36.738  31.838  31.934  1.00  0.00     0.029 A 
ATOM     55  C   UNL A   1      37.609  30.981  31.280  1.00  0.00     0.049 A 
ATOM     56  H   UNL A   1      39.356  30.052  32.016  1.00  0.00     0.167 HD
ATOM     57  C   UNL A   1      38.441  29.662  29.350  1.00  0.00     0.074 A 
ATOM     58  C   UNL A   1      38.377  29.202  27.977  1.00  0.00     0.031 C 
ATOM     59  C   UNL A   1      37.543  30.506  29.918  1.00  0.00     0.034 A 
BRANCH  46  60
ATOM     60  C   UNL A   1      38.781  31.948  35.815  1.00  0.00     0.023 A 
ATOM     61  C   UNL A   1      38.082  31.312  36.855  1.00  0.00     0.031 A 
ATOM     62  C   UNL A   1      39.107  33.307  35.973  1.00  0.00     0.131 A 
ATOM     63  C   UNL A   1      37.699  32.043  37.989  1.00  0.00     0.055 A 
ATOM     64  C   UNL A   1      38.781  34.013  37.132  1.00  0.00     0.041 A 
ATOM     65  F   UNL A   1      39.755  33.970  35.002  1.00  0.00    -0.206 F 
ATOM     66  C   UNL A   1      38.067  33.382  38.146  1.00  0.00     0.022 A 
BRANCH  63  67
ATOM     67  S   UNL A   1      36.640  31.243  39.226  1.00  0.00     0.124 S 
ATOM     68  O   UNL A   1      36.352  29.964  38.583  1.00  0.00    -0.237 OA
ATOM     69  O   UNL A   1      37.506  31.189  40.398  1.00  0.00    -0.237 OA
ATOM     70  O   UNL A   1      35.498  32.150  39.336  1.00  0.00    -0.744 OA
ENDBRANCH  63  67
ENDBRANCH  46  60
BRANCH  47  71
ATOM     71  C   UNL A   1      41.821  26.752  27.819  1.00  0.00     0.023 A 
ATOM     72  C   UNL A   1      41.501  25.390  27.705  1.00  0.00     0.031 A 
ATOM     73  C   UNL A   1      42.549  27.352  26.776  1.00  0.00     0.131 A 
ATOM     74  C   UNL A   1      41.922  24.666  26.579  1.00  0.00     0.055 A 
ATOM     75  C   UNL A   1      42.932  26.637  25.640  1.00  0.00     0.041 A 
ATOM     76  F   UNL A   1      42.866  28.655  26.832  1.00  0.00    -0.206 F 
ATOM     77  C   UNL A   1      42.623  25.284  25.540  1.00  0.00     0.022 A 
BRANCH  74  78
ATOM     78  S   UNL A   1      41.552  22.893  26.493  1.00  0.00     0.124 S 
ATOM     79  O   UNL A   1      42.208  22.514  25.248  1.00  0.00    -0.237 OA
ATOM     80  O   UNL A   1      42.164  22.394  27.721  1.00  0.00    -0.237 OA
ATOM     81  O   UNL A   1      40.091  22.852  26.470  1.00  0.00    -0.744 OA
ENDBRANCH  74  78
ENDBRANCH  47  71
BRANCH  59  82
ATOM     82  C   UNL A   1      36.434  31.031  29.041  1.00  0.00     0.023 A 
ATOM     83  C   UNL A   1      35.406  30.202  28.565  1.00  0.00     0.031 A 
ATOM     84  C   UNL A   1      36.401  32.395  28.694  1.00  0.00     0.131 A 
ATOM     85  C   UNL A   1      34.409  30.735  27.733  1.00  0.00     0.055 A 
ATOM     86  C   UNL A   1      35.376  32.930  27.915  1.00  0.00     0.041 A 
ATOM     87  F   UNL A   1      37.359  33.232  29.121  1.00  0.00    -0.206 F 
ATOM     88  C   UNL A   1      34.377  32.097  27.420  1.00  0.00     0.022 A 
BRANCH  85  89
ATOM     89  S   UNL A   1      33.188  29.608  27.003  1.00  0.00     0.124 S 
ATOM     90  O   UNL A   1      31.970  30.412  27.051  1.00  0.00    -0.237 OA
ATOM     91  O   UNL A   1      33.740  29.365  25.675  1.00  0.00    -0.237 OA
ATOM     92  O   UNL A   1      33.205  28.456  27.903  1.00  0.00    -0.744 OA
ENDBRANCH  85  89
ENDBRANCH  59  82
ENDBRANCH  33  34
ENDBRANCH  25  28
ENDBRANCH  23  24
ENDBRANCH  22  23
ENDBRANCH  21  22
ENDBRANCH   1  21
TORSDOF 20
ENDMDL
MODEL 3
REMARK VINA RESULT:     -10.2      6.427     11.638
REMARK SMILES CCSCc1cc(F)cc(/C=C/C(=O)NCCCCCCNC(=O)c2ccc(-c3c4nc(c(-c5cc(S(=O)(=O)[O-])ccc5F)c5ccc([nH]5)c(-c5cc(S(=O)(=O)[O-])ccc5F)c5nc(c(-c6cc(S(=O)(=O)[O-])ccc6F)c6ccc3[nH]6)C=C5)C=C4)cc2)c1
REMARK SMILES IDX 18 1 17 2 16 3 15 4 13 5 14 6 12 8 11 9 10 10 5 11 6 12
REMARK SMILES IDX 88 13 7 14 8 15 9 16 4 17 3 18 2 19 1 20 19 21 20 22 21 23
REMARK SMILES IDX 22 24 23 25 24 27 25 28 26 29 87 30 27 31 86 32 28 33 29 34
REMARK SMILES IDX 30 35 80 36 31 37 85 38 79 39 81 40 32 41 84 42 78 43 77 44
REMARK SMILES IDX 33 46 65 47 45 48 64 49 46 50 49 51 63 52 82 53 47 54 48 55
REMARK SMILES IDX 62 57 83 58 50 59 34 60 35 61 43 62 36 63 42 64 44 65 41 66
REMARK SMILES IDX 37 67 38 68 39 69 40 70 66 71 67 72 75 73 68 74 74 75 76 76
REMARK SMILES IDX 73 77 69 78 70 79 71 80 72 81 51 82 52 83 60 84 53 85 59 86
REMARK SMILES IDX 61 87 58 88 54 89 55 90 56 91 57 92
REMARK H PARENT 15 7 22 26 81 45 49 56
REMARK Flexibility Score: inf
ROOT
ATOM      1  C   UNL A   1      41.070  20.955  26.716  1.00  0.00     0.002 C 
ENDROOT
BRANCH   1   2
ATOM      2  C   UNL A   1      39.838  20.224  26.167  1.00  0.00     0.021 C 
BRANCH   2   3
ATOM      3  C   UNL A   1      38.838  21.153  25.477  1.00  0.00     0.116 C 
BRANCH   3   4
ATOM      4  N   UNL A   1      38.964  22.502  26.000  1.00  0.00    -0.353 N 
ATOM      5  C   UNL A   1      38.078  23.528  26.072  1.00  0.00     0.243 C 
ATOM      6  O   UNL A   1      38.418  24.584  26.604  1.00  0.00    -0.270 OA
ATOM      7  H   UNL A   1      39.852  22.709  26.370  1.00  0.00     0.163 HD
BRANCH   5   8
ATOM      8  C   UNL A   1      36.676  23.367  25.627  1.00  0.00     0.072 C 
ATOM      9  C   UNL A   1      36.255  23.380  24.353  1.00  0.00     0.014 C 
BRANCH   9  10
ATOM     10  C   UNL A   1      34.859  23.148  23.959  1.00  0.00    -0.022 A 
ATOM     11  C   UNL A   1      32.913  21.657  24.015  1.00  0.00    -0.035 A 
ATOM     12  C   UNL A   1      32.193  22.595  23.267  1.00  0.00     0.043 A 
ATOM     13  C   UNL A   1      34.250  21.941  24.343  1.00  0.00     0.013 A 
ATOM     14  C   UNL A   1      32.804  23.778  22.864  1.00  0.00     0.124 A 
ATOM     15  F   UNL A   1      32.110  24.661  22.134  1.00  0.00    -0.207 F 
ATOM     16  C   UNL A   1      34.123  24.063  23.202  1.00  0.00     0.047 A 
BRANCH  11  17
ATOM     17  C   UNL A   1      32.265  20.373  24.471  1.00  0.00     0.105 C 
BRANCH  17  18
ATOM     18  S   UNL A   1      32.462  19.004  23.290  1.00  0.00    -0.157 SA
BRANCH  18  19
ATOM     19  C   UNL A   1      33.704  17.962  24.128  1.00  0.00     0.066 C 
ATOM     20  C   UNL A   1      34.029  16.677  23.386  1.00  0.00     0.015 C 
ENDBRANCH  18  19
ENDBRANCH  17  18
ENDBRANCH  11  17
ENDBRANCH   9  10
ENDBRANCH   5   8
ENDBRANCH   3   4
ENDBRANCH   2   3
ENDBRANCH   1   2
BRANCH   1  21
ATOM     21  C   UNL A   1      42.005  20.090  27.571  1.00  0.00     0.002 C 
BRANCH  21  22
ATOM     22  C   UNL A   1      42.728  18.976  26.810  1.00  0.00     0.021 C 
BRANCH  22  23
ATOM     23  C   UNL A   1      42.853  19.222  25.309  1.00  0.00     0.116 C 
BRANCH  23  24
ATOM     24  N   UNL A   1      44.177  18.873  24.818  1.00  0.00    -0.352 N 
ATOM     25  C   UNL A   1      45.229  19.700  24.497  1.00  0.00     0.251 C 
ATOM     26  H   UNL A   1      44.345  17.911  24.698  1.00  0.00     0.163 HD
ATOM     27  O   UNL A   1      46.182  19.265  23.864  1.00  0.00    -0.269 OA
BRANCH  25  28
ATOM     28  C   UNL A   1      45.185  21.118  24.911  1.00  0.00     0.039 A 
ATOM     29  C   UNL A   1      45.438  21.448  26.244  1.00  0.00     0.014 A 
ATOM     30  C   UNL A   1      44.915  22.119  23.973  1.00  0.00     0.014 A 
ATOM     31  C   UNL A   1      45.501  22.792  26.619  1.00  0.00     0.010 A 
ATOM     32  C   UNL A   1      45.045  23.456  24.335  1.00  0.00     0.010 A 
ATOM     33  C   UNL A   1      45.354  23.806  25.657  1.00  0.00    -0.014 A 
BRANCH  33  34
ATOM     34  C   UNL A   1      45.565  25.236  25.998  1.00  0.00     0.031 A 
ATOM     35  C   UNL A   1      46.939  25.841  25.923  1.00  0.00     0.074 A 
ATOM     36  C   UNL A   1      44.526  25.966  26.451  1.00  0.00     0.049 A 
ATOM     37  N   UNL A   1      47.338  27.028  26.300  1.00  0.00    -0.248 NA
ATOM     38  C   UNL A   1      48.007  24.992  25.374  1.00  0.00     0.031 C 
ATOM     39  C   UNL A   1      43.149  25.484  26.584  1.00  0.00     0.029 A 
ATOM     40  N   UNL A   1      44.465  27.263  26.894  1.00  0.00    -0.354 N 
ATOM     41  C   UNL A   1      48.703  27.068  26.041  1.00  0.00     0.074 A 
ATOM     42  C   UNL A   1      49.070  25.769  25.519  1.00  0.00     0.031 C 
ATOM     43  C   UNL A   1      42.377  26.478  27.047  1.00  0.00     0.029 A 
ATOM     44  C   UNL A   1      43.209  27.649  27.301  1.00  0.00     0.049 A 
ATOM     45  H   UNL A   1      45.247  27.861  26.916  1.00  0.00     0.167 HD
ATOM     46  C   UNL A   1      49.564  28.100  26.212  1.00  0.00     0.034 A 
ATOM     47  C   UNL A   1      42.776  28.808  27.838  1.00  0.00     0.034 A 
ATOM     48  C   UNL A   1      49.181  29.392  26.730  1.00  0.00     0.049 A 
ATOM     49  C   UNL A   1      43.759  29.925  28.055  1.00  0.00     0.074 A 
ATOM     50  C   UNL A   1      49.973  30.512  26.913  1.00  0.00     0.029 A 
ATOM     51  N   UNL A   1      47.903  29.738  27.149  1.00  0.00    -0.354 N 
ATOM     52  N   UNL A   1      45.049  29.945  27.817  1.00  0.00    -0.248 NA
ATOM     53  C   UNL A   1      43.227  31.176  28.610  1.00  0.00     0.031 C 
ATOM     54  C   UNL A   1      49.194  31.509  27.506  1.00  0.00     0.029 A 
ATOM     55  C   UNL A   1      47.892  31.045  27.613  1.00  0.00     0.049 A 
ATOM     56  H   UNL A   1      47.119  29.143  27.120  1.00  0.00     0.167 HD
ATOM     57  C   UNL A   1      45.479  31.222  28.163  1.00  0.00     0.074 A 
ATOM     58  C   UNL A   1      44.310  31.942  28.627  1.00  0.00     0.031 C 
ATOM     59  C   UNL A   1      46.726  31.752  28.089  1.00  0.00     0.034 A 
BRANCH  46  60
ATOM     60  C   UNL A   1      51.012  27.871  25.863  1.00  0.00     0.023 A 
ATOM     61  C   UNL A   1      51.477  27.967  24.539  1.00  0.00     0.031 A 
ATOM     62  C   UNL A   1      51.948  27.580  26.872  1.00  0.00     0.131 A 
ATOM     63  C   UNL A   1      52.831  27.736  24.256  1.00  0.00     0.055 A 
ATOM     64  C   UNL A   1      53.305  27.416  26.592  1.00  0.00     0.041 A 
ATOM     65  F   UNL A   1      51.556  27.456  28.149  1.00  0.00    -0.206 F 
ATOM     66  C   UNL A   1      53.753  27.487  25.277  1.00  0.00     0.022 A 
BRANCH  63  67
ATOM     67  S   UNL A   1      53.362  27.683  22.522  1.00  0.00     0.124 S 
ATOM     68  O   UNL A   1      53.430  26.245  22.279  1.00  0.00    -0.237 OA
ATOM     69  O   UNL A   1      52.288  28.397  21.841  1.00  0.00    -0.237 OA
ATOM     70  O   UNL A   1      54.653  28.369  22.540  1.00  0.00    -0.744 OA
ENDBRANCH  63  67
ENDBRANCH  46  60
BRANCH  47  71
ATOM     71  C   UNL A   1      41.343  28.957  28.209  1.00  0.00     0.023 A 
ATOM     72  C   UNL A   1      40.942  28.955  29.553  1.00  0.00     0.031 A 
ATOM     73  C   UNL A   1      40.356  29.131  27.222  1.00  0.00     0.131 A 
ATOM     74  C   UNL A   1      39.585  29.106  29.877  1.00  0.00     0.055 A 
ATOM     75  C   UNL A   1      39.012  29.319  27.550  1.00  0.00     0.041 A 
ATOM     76  F   UNL A   1      40.692  29.155  25.923  1.00  0.00    -0.206 F 
ATOM     77  C   UNL A   1      38.620  29.302  28.885  1.00  0.00     0.022 A 
BRANCH  74  78
ATOM     78  S   UNL A   1      39.089  29.030  31.620  1.00  0.00     0.124 S 
ATOM     79  O   UNL A   1      40.099  28.137  32.175  1.00  0.00    -0.237 OA
ATOM     80  O   UNL A   1      39.176  30.429  32.023  1.00  0.00    -0.237 OA
ATOM     81  O   UNL A   1      37.734  28.485  31.563  1.00  0.00    -0.744 OA
ENDBRANCH  74  78
ENDBRANCH  47  71
BRANCH  59  82
ATOM     82  C   UNL A   1      46.888  33.201  28.473  1.00  0.00     0.023 A 
ATOM     83  C   UNL A   1      47.204  33.593  29.784  1.00  0.00     0.031 A 
ATOM     84  C   UNL A   1      46.741  34.205  27.498  1.00  0.00     0.131 A 
ATOM     85  C   UNL A   1      47.321  34.956  30.096  1.00  0.00     0.055 A 
ATOM     86  C   UNL A   1      46.916  35.555  27.802  1.00  0.00     0.041 A 
ATOM     87  F   UNL A   1      46.439  33.887  26.230  1.00  0.00    -0.206 F 
ATOM     88  C   UNL A   1      47.198  35.939  29.110  1.00  0.00     0.022 A 
BRANCH  85  89
ATOM     89  S   UNL A   1      47.569  35.436  31.828  1.00  0.00     0.124 S 
ATOM     90  O   UNL A   1      46.470  34.744  32.493  1.00  0.00    -0.237 OA
ATOM     91  O   UNL A   1      48.906  34.925  32.106  1.00  0.00    -0.237 OA
ATOM     92  O   UNL A   1      47.456  36.893  31.799  1.00  0.00    -0.744 OA
ENDBRANCH  85  89
ENDBRANCH  59  82
ENDBRANCH  33  34
ENDBRANCH  25  28
ENDBRANCH  23  24
ENDBRANCH  22  23
ENDBRANCH  21  22
ENDBRANCH   1  21
TORSDOF 20
ENDMDL
