MODEL 1
REMARK VINA RESULT:     -11.0      0.000      0.000
REMARK SMILES CC[C@@](C)(NC(=O)Nc1cccc(C[NH2+]C)c1)C(=O)NCCCCCCNC(=O)c1ccc(-c2c3nc(c(-c4cc(S(=O)(=O)[O-])ccc4F)c4ccc([nH]4)c(-c4cc(S(=O)(=O)[O-])ccc4F)c4nc(c(-c5cc(S(=O)(=O)[O-])ccc5F)c5ccc2[nH]5)C=C4)C=C3)cc1
REMARK SMILES IDX 23 1 22 2 21 3 20 4 18 5 19 6 3 8 4 9 2 10 1 11 5 12 6 13
REMARK SMILES IDX 7 15 8 16 9 18 10 19 17 20 11 21 13 22 12 23 14 24 15 25
REMARK SMILES IDX 16 26 24 29 25 30 26 31 27 32 28 33 29 35 30 36 31 37 92 38
REMARK SMILES IDX 32 39 91 40 33 41 34 42 35 43 85 44 36 45 90 46 84 47 86 48
REMARK SMILES IDX 37 49 89 50 83 51 82 52 38 54 70 55 50 56 69 57 51 58 54 59
REMARK SMILES IDX 68 60 87 61 52 62 53 63 67 65 88 66 55 67 39 68 40 69 48 70
REMARK SMILES IDX 41 71 47 72 49 73 46 74 42 75 43 76 44 77 45 78 71 79 72 80
REMARK SMILES IDX 80 81 73 82 79 83 81 84 78 85 74 86 75 87 76 88 77 89 56 90
REMARK SMILES IDX 57 91 65 92 58 93 64 94 66 95 63 96 59 97 60 98 61 99 62 100
REMARK H PARENT 20 7 5 14 8 17 15 27 15 28 27 34 86 53 54 64
REMARK Flexibility Score: inf
ROOT
ATOM      1  C   UNL A   1      33.151  29.323  27.164  1.00  0.00     0.002 C 
ENDROOT
BRANCH   1   2
ATOM      2  C   UNL A   1      33.712  28.028  26.538  1.00  0.00     0.021 C 
BRANCH   2   3
ATOM      3  C   UNL A   1      32.697  26.919  26.178  1.00  0.00     0.116 C 
BRANCH   3   4
ATOM      4  N   UNL A   1      33.322  25.638  26.373  1.00  0.00    -0.354 N 
ATOM      5  C   UNL A   1      33.932  24.778  25.477  1.00  0.00     0.245 C 
ATOM      6  O   UNL A   1      35.063  24.935  25.037  1.00  0.00    -0.272 OA
ATOM      7  H   UNL A   1      33.315  25.318  27.305  1.00  0.00     0.163 HD
BRANCH   5   8
ATOM      8  C   UNL A   1      32.916  23.731  24.961  1.00  0.00     0.117 C 
ATOM      9  C   UNL A   1      33.227  22.608  26.007  1.00  0.00     0.045 C 
BRANCH   8  10
ATOM     10  C   UNL A   1      31.383  23.896  24.953  1.00  0.00     0.035 C 
ATOM     11  C   UNL A   1      30.585  23.370  26.123  1.00  0.00     0.007 C 
ENDBRANCH   8  10
BRANCH   8  12
ATOM     12  N   UNL A   1      33.329  23.327  23.580  1.00  0.00    -0.324 N 
ATOM     13  C   UNL A   1      33.204  23.820  22.339  1.00  0.00     0.320 C 
ATOM     14  H   UNL A   1      33.824  22.476  23.584  1.00  0.00     0.166 HD
ATOM     15  O   UNL A   1      33.407  23.002  21.433  1.00  0.00    -0.248 OA
ATOM     16  N   UNL A   1      32.868  25.062  21.944  1.00  0.00    -0.308 N 
ATOM     17  H   UNL A   1      32.658  25.017  20.984  1.00  0.00     0.171 HD
BRANCH  16  18
ATOM     18  C   UNL A   1      32.692  26.411  22.353  1.00  0.00     0.043 A 
ATOM     19  C   UNL A   1      33.865  27.125  22.618  1.00  0.00     0.026 A 
ATOM     20  C   UNL A   1      31.515  27.110  22.607  1.00  0.00     0.035 A 
ATOM     21  C   UNL A   1      33.840  28.494  22.939  1.00  0.00     0.003 A 
ATOM     22  C   UNL A   1      31.451  28.509  22.751  1.00  0.00     0.008 A 
ATOM     23  C   UNL A   1      32.636  29.198  22.951  1.00  0.00     0.010 A 
BRANCH  22  24
ATOM     24  C   UNL A   1      30.135  29.204  22.446  1.00  0.00     0.297 C 
BRANCH  24  25
ATOM     25  N   UNL A   1      30.163  30.334  21.517  1.00  0.00    -0.345 N 
ATOM     26  C   UNL A   1      28.783  30.830  21.371  1.00  0.00     0.331 C 
ATOM     27  H   UNL A   1      30.520  30.029  20.612  1.00  0.00     0.346 HD
ATOM     28  H   UNL A   1      30.772  31.071  21.871  1.00  0.00     0.346 HD
ENDBRANCH  24  25
ENDBRANCH  22  24
ENDBRANCH  16  18
ENDBRANCH   8  12
ENDBRANCH   5   8
ENDBRANCH   3   4
ENDBRANCH   2   3
ENDBRANCH   1   2
BRANCH   1  29
ATOM     29  C   UNL A   1      31.867  29.868  26.543  1.00  0.00     0.002 C 
BRANCH  29  30
ATOM     30  C   UNL A   1      31.775  31.390  26.516  1.00  0.00     0.021 C 
BRANCH  30  31
ATOM     31  C   UNL A   1      32.857  32.104  27.314  1.00  0.00     0.116 C 
BRANCH  31  32
ATOM     32  N   UNL A   1      32.574  33.511  27.520  1.00  0.00    -0.352 N 
ATOM     33  C   UNL A   1      33.153  34.366  28.436  1.00  0.00     0.251 C 
ATOM     34  H   UNL A   1      31.885  33.905  26.935  1.00  0.00     0.163 HD
ATOM     35  O   UNL A   1      32.710  35.485  28.606  1.00  0.00    -0.269 OA
BRANCH  33  36
ATOM     36  C   UNL A   1      34.301  33.871  29.238  1.00  0.00     0.039 A 
ATOM     37  C   UNL A   1      34.059  32.992  30.295  1.00  0.00     0.014 A 
ATOM     38  C   UNL A   1      35.610  34.237  28.913  1.00  0.00     0.014 A 
ATOM     39  C   UNL A   1      35.137  32.436  30.989  1.00  0.00     0.010 A 
ATOM     40  C   UNL A   1      36.682  33.615  29.547  1.00  0.00     0.010 A 
ATOM     41  C   UNL A   1      36.458  32.717  30.602  1.00  0.00    -0.014 A 
BRANCH  41  42
ATOM     42  C   UNL A   1      37.618  32.119  31.317  1.00  0.00     0.031 A 
ATOM     43  C   UNL A   1      38.371  30.974  30.688  1.00  0.00     0.074 A 
ATOM     44  C   UNL A   1      37.974  32.572  32.538  1.00  0.00     0.049 A 
ATOM     45  N   UNL A   1      39.353  30.260  31.175  1.00  0.00    -0.248 NA
ATOM     46  C   UNL A   1      37.940  30.560  29.342  1.00  0.00     0.031 C 
ATOM     47  C   UNL A   1      37.308  33.654  33.265  1.00  0.00     0.029 A 
ATOM     48  N   UNL A   1      38.980  32.178  33.385  1.00  0.00    -0.354 N 
ATOM     49  C   UNL A   1      39.657  29.317  30.198  1.00  0.00     0.074 A 
ATOM     50  C   UNL A   1      38.702  29.499  29.127  1.00  0.00     0.031 C 
ATOM     51  C   UNL A   1      37.936  33.851  34.436  1.00  0.00     0.029 A 
ATOM     52  C   UNL A   1      39.018  32.881  34.569  1.00  0.00     0.049 A 
ATOM     53  H   UNL A   1      39.616  31.458  33.167  1.00  0.00     0.167 HD
ATOM     54  C   UNL A   1      40.660  28.407  30.178  1.00  0.00     0.034 A 
ATOM     55  C   UNL A   1      39.823  32.747  35.644  1.00  0.00     0.034 A 
ATOM     56  C   UNL A   1      41.614  28.241  31.246  1.00  0.00     0.049 A 
ATOM     57  C   UNL A   1      40.907  31.693  35.614  1.00  0.00     0.074 A 
ATOM     58  C   UNL A   1      42.677  27.357  31.323  1.00  0.00     0.029 A 
ATOM     59  N   UNL A   1      41.624  28.976  32.424  1.00  0.00    -0.354 N 
ATOM     60  N   UNL A   1      41.195  30.828  34.668  1.00  0.00    -0.248 NA
ATOM     61  C   UNL A   1      41.786  31.610  36.788  1.00  0.00     0.031 C 
ATOM     62  C   UNL A   1      43.290  27.515  32.569  1.00  0.00     0.029 A 
ATOM     63  C   UNL A   1      42.665  28.555  33.237  1.00  0.00     0.049 A 
ATOM     64  H   UNL A   1      40.987  29.692  32.649  1.00  0.00     0.167 HD
ATOM     65  C   UNL A   1      42.318  30.135  35.116  1.00  0.00     0.074 A 
ATOM     66  C   UNL A   1      42.662  30.693  36.407  1.00  0.00     0.031 C 
ATOM     67  C   UNL A   1      43.005  29.131  34.516  1.00  0.00     0.034 A 
BRANCH  54  68
ATOM     68  C   UNL A   1      40.773  27.520  28.962  1.00  0.00     0.023 A 
ATOM     69  C   UNL A   1      41.741  27.755  27.970  1.00  0.00     0.031 A 
ATOM     70  C   UNL A   1      39.906  26.427  28.789  1.00  0.00     0.131 A 
ATOM     71  C   UNL A   1      41.780  26.951  26.822  1.00  0.00     0.055 A 
ATOM     72  C   UNL A   1      40.002  25.579  27.683  1.00  0.00     0.041 A 
ATOM     73  F   UNL A   1      38.946  26.166  29.691  1.00  0.00    -0.206 F 
ATOM     74  C   UNL A   1      40.936  25.846  26.685  1.00  0.00     0.022 A 
BRANCH  71  75
ATOM     75  S   UNL A   1      42.864  27.442  25.456  1.00  0.00     0.124 S 
ATOM     76  O   UNL A   1      43.002  26.185  24.724  1.00  0.00    -0.237 OA
ATOM     77  O   UNL A   1      42.088  28.484  24.795  1.00  0.00    -0.237 OA
ATOM     78  O   UNL A   1      44.077  27.900  26.129  1.00  0.00    -0.744 OA
ENDBRANCH  71  75
ENDBRANCH  54  68
BRANCH  55  79
ATOM     79  C   UNL A   1      39.639  33.605  36.854  1.00  0.00     0.023 A 
ATOM     80  C   UNL A   1      39.038  33.099  38.018  1.00  0.00     0.031 A 
ATOM     81  C   UNL A   1      39.974  34.972  36.832  1.00  0.00     0.131 A 
ATOM     82  C   UNL A   1      38.717  33.966  39.076  1.00  0.00     0.055 A 
ATOM     83  C   UNL A   1      39.720  35.813  37.916  1.00  0.00     0.041 A 
ATOM     84  F   UNL A   1      40.550  35.512  35.747  1.00  0.00    -0.206 F 
ATOM     85  C   UNL A   1      39.068  35.315  39.039  1.00  0.00     0.022 A 
BRANCH  82  86
ATOM     86  S   UNL A   1      37.700  33.329  40.438  1.00  0.00     0.124 S 
ATOM     87  O   UNL A   1      37.571  34.508  41.285  1.00  0.00    -0.237 OA
ATOM     88  O   UNL A   1      36.492  32.905  39.739  1.00  0.00    -0.237 OA
ATOM     89  O   UNL A   1      38.513  32.248  40.990  1.00  0.00    -0.744 OA
ENDBRANCH  82  86
ENDBRANCH  55  79
BRANCH  67  90
ATOM     90  C   UNL A   1      44.246  28.627  35.215  1.00  0.00     0.023 A 
ATOM     91  C   UNL A   1      44.204  27.575  36.145  1.00  0.00     0.031 A 
ATOM     92  C   UNL A   1      45.492  29.223  34.947  1.00  0.00     0.131 A 
ATOM     93  C   UNL A   1      45.373  27.193  36.821  1.00  0.00     0.055 A 
ATOM     94  C   UNL A   1      46.663  28.793  35.572  1.00  0.00     0.041 A 
ATOM     95  F   UNL A   1      45.592  30.234  34.069  1.00  0.00    -0.206 F 
ATOM     96  C   UNL A   1      46.606  27.783  36.526  1.00  0.00     0.022 A 
BRANCH  93  97
ATOM     97  S   UNL A   1      45.244  25.986  38.168  1.00  0.00     0.124 S 
ATOM     98  O   UNL A   1      46.640  25.810  38.554  1.00  0.00    -0.237 OA
ATOM     99  O   UNL A   1      44.400  26.685  39.132  1.00  0.00    -0.237 OA
ATOM    100  O   UNL A   1      44.626  24.824  37.532  1.00  0.00    -0.744 OA
ENDBRANCH  93  97
ENDBRANCH  67  90
ENDBRANCH  41  42
ENDBRANCH  33  36
ENDBRANCH  31  32
ENDBRANCH  30  31
ENDBRANCH  29  30
ENDBRANCH   1  29
TORSDOF 21
ENDMDL
MODEL 2
REMARK VINA RESULT:     -10.9      1.631      3.578
REMARK SMILES CC[C@@](C)(NC(=O)Nc1cccc(C[NH2+]C)c1)C(=O)NCCCCCCNC(=O)c1ccc(-c2c3nc(c(-c4cc(S(=O)(=O)[O-])ccc4F)c4ccc([nH]4)c(-c4cc(S(=O)(=O)[O-])ccc4F)c4nc(c(-c5cc(S(=O)(=O)[O-])ccc5F)c5ccc2[nH]5)C=C4)C=C3)cc1
REMARK SMILES IDX 23 1 22 2 21 3 20 4 18 5 19 6 3 8 4 9 2 10 1 11 5 12 6 13
REMARK SMILES IDX 7 15 8 16 9 18 10 19 17 20 11 21 13 22 12 23 14 24 15 25
REMARK SMILES IDX 16 26 24 29 25 30 26 31 27 32 28 33 29 35 30 36 31 37 92 38
REMARK SMILES IDX 32 39 91 40 33 41 34 42 35 43 85 44 36 45 90 46 84 47 86 48
REMARK SMILES IDX 37 49 89 50 83 51 82 52 38 54 70 55 50 56 69 57 51 58 54 59
REMARK SMILES IDX 68 60 87 61 52 62 53 63 67 65 88 66 55 67 39 68 40 69 48 70
REMARK SMILES IDX 41 71 47 72 49 73 46 74 42 75 43 76 44 77 45 78 71 79 72 80
REMARK SMILES IDX 80 81 73 82 79 83 81 84 78 85 74 86 75 87 76 88 77 89 56 90
REMARK SMILES IDX 57 91 65 92 58 93 64 94 66 95 63 96 59 97 60 98 61 99 62 100
REMARK H PARENT 20 7 5 14 8 17 15 27 15 28 27 34 86 53 54 64
REMARK Flexibility Score: inf
ROOT
ATOM      1  C   UNL A   1      33.397  29.688  26.898  1.00  0.00     0.002 C 
ENDROOT
BRANCH   1   2
ATOM      2  C   UNL A   1      33.710  28.296  26.308  1.00  0.00     0.021 C 
BRANCH   2   3
ATOM      3  C   UNL A   1      33.669  28.155  24.769  1.00  0.00     0.116 C 
BRANCH   3   4
ATOM      4  N   UNL A   1      32.619  27.237  24.416  1.00  0.00    -0.354 N 
ATOM      5  C   UNL A   1      31.700  26.562  25.200  1.00  0.00     0.245 C 
ATOM      6  O   UNL A   1      30.693  27.074  25.671  1.00  0.00    -0.272 OA
ATOM      7  H   UNL A   1      32.541  27.058  23.450  1.00  0.00     0.163 HD
BRANCH   5   8
ATOM      8  C   UNL A   1      32.233  25.155  25.561  1.00  0.00     0.117 C 
ATOM      9  C   UNL A   1      32.076  24.505  24.146  1.00  0.00     0.045 C 
BRANCH   8  10
ATOM     10  C   UNL A   1      33.666  24.831  26.026  1.00  0.00     0.035 C 
ATOM     11  C   UNL A   1      34.742  24.618  24.986  1.00  0.00     0.007 C 
ENDBRANCH   8  10
BRANCH   8  12
ATOM     12  N   UNL A   1      31.293  24.546  26.555  1.00  0.00    -0.324 N 
ATOM     13  C   UNL A   1      30.770  23.334  26.790  1.00  0.00     0.320 C 
ATOM     14  H   UNL A   1      30.974  25.211  27.207  1.00  0.00     0.166 HD
ATOM     15  O   UNL A   1      29.771  23.332  27.521  1.00  0.00    -0.248 OA
ATOM     16  N   UNL A   1      31.162  22.132  26.329  1.00  0.00    -0.308 N 
ATOM     17  H   UNL A   1      30.436  21.494  26.518  1.00  0.00     0.171 HD
BRANCH  16  18
ATOM     18  C   UNL A   1      32.199  21.410  25.679  1.00  0.00     0.043 A 
ATOM     19  C   UNL A   1      33.491  21.623  26.171  1.00  0.00     0.026 A 
ATOM     20  C   UNL A   1      32.131  20.577  24.565  1.00  0.00     0.035 A 
ATOM     21  C   UNL A   1      34.595  20.903  25.682  1.00  0.00     0.003 A 
ATOM     22  C   UNL A   1      33.168  19.713  24.169  1.00  0.00     0.008 A 
ATOM     23  C   UNL A   1      34.425  19.908  24.720  1.00  0.00     0.010 A 
BRANCH  22  24
ATOM     24  C   UNL A   1      32.809  18.483  23.354  1.00  0.00     0.297 C 
BRANCH  24  25
ATOM     25  N   UNL A   1      33.772  17.383  23.323  1.00  0.00    -0.345 N 
ATOM     26  C   UNL A   1      33.288  16.336  24.242  1.00  0.00     0.331 C 
ATOM     27  H   UNL A   1      34.687  17.715  23.628  1.00  0.00     0.346 HD
ATOM     28  H   UNL A   1      33.861  17.013  22.377  1.00  0.00     0.346 HD
ENDBRANCH  24  25
ENDBRANCH  22  24
ENDBRANCH  16  18
ENDBRANCH   8  12
ENDBRANCH   5   8
ENDBRANCH   3   4
ENDBRANCH   2   3
ENDBRANCH   1   2
BRANCH   1  29
ATOM     29  C   UNL A   1      31.947  30.154  26.789  1.00  0.00     0.002 C 
BRANCH  29  30
ATOM     30  C   UNL A   1      31.772  31.668  26.748  1.00  0.00     0.021 C 
BRANCH  30  31
ATOM     31  C   UNL A   1      32.947  32.456  27.308  1.00  0.00     0.116 C 
BRANCH  31  32
ATOM     32  N   UNL A   1      32.618  33.839  27.595  1.00  0.00    -0.352 N 
ATOM     33  C   UNL A   1      33.152  34.652  28.575  1.00  0.00     0.251 C 
ATOM     34  H   UNL A   1      31.928  34.248  27.022  1.00  0.00     0.163 HD
ATOM     35  O   UNL A   1      32.672  35.745  28.803  1.00  0.00    -0.269 OA
BRANCH  33  36
ATOM     36  C   UNL A   1      34.300  34.142  29.367  1.00  0.00     0.039 A 
ATOM     37  C   UNL A   1      34.051  33.305  30.457  1.00  0.00     0.014 A 
ATOM     38  C   UNL A   1      35.614  34.451  29.003  1.00  0.00     0.014 A 
ATOM     39  C   UNL A   1      35.124  32.734  31.146  1.00  0.00     0.010 A 
ATOM     40  C   UNL A   1      36.677  33.812  29.635  1.00  0.00     0.010 A 
ATOM     41  C   UNL A   1      36.446  32.955  30.722  1.00  0.00    -0.014 A 
BRANCH  41  42
ATOM     42  C   UNL A   1      37.600  32.340  31.432  1.00  0.00     0.031 A 
ATOM     43  C   UNL A   1      38.335  31.187  30.797  1.00  0.00     0.074 A 
ATOM     44  C   UNL A   1      37.966  32.784  32.653  1.00  0.00     0.049 A 
ATOM     45  N   UNL A   1      39.309  30.459  31.278  1.00  0.00    -0.248 NA
ATOM     46  C   UNL A   1      37.894  30.783  29.451  1.00  0.00     0.031 C 
ATOM     47  C   UNL A   1      37.316  33.873  33.386  1.00  0.00     0.029 A 
ATOM     48  N   UNL A   1      38.969  32.374  33.496  1.00  0.00    -0.354 N 
ATOM     49  C   UNL A   1      39.597  29.514  30.298  1.00  0.00     0.074 A 
ATOM     50  C   UNL A   1      38.641  29.713  29.230  1.00  0.00     0.031 C 
ATOM     51  C   UNL A   1      37.951  34.057  34.555  1.00  0.00     0.029 A 
ATOM     52  C   UNL A   1      39.020  33.072  34.682  1.00  0.00     0.049 A 
ATOM     53  H   UNL A   1      39.594  31.647  33.273  1.00  0.00     0.167 HD
ATOM     54  C   UNL A   1      40.588  28.590  30.272  1.00  0.00     0.034 A 
ATOM     55  C   UNL A   1      39.827  32.924  35.753  1.00  0.00     0.034 A 
ATOM     56  C   UNL A   1      41.543  28.408  31.336  1.00  0.00     0.049 A 
ATOM     57  C   UNL A   1      40.896  31.856  35.717  1.00  0.00     0.074 A 
ATOM     58  C   UNL A   1      42.593  27.510  31.406  1.00  0.00     0.029 A 
ATOM     59  N   UNL A   1      41.567  29.140  32.516  1.00  0.00    -0.354 N 
ATOM     60  N   UNL A   1      41.169  30.990  34.767  1.00  0.00    -0.248 NA
ATOM     61  C   UNL A   1      41.778  31.757  36.888  1.00  0.00     0.031 C 
ATOM     62  C   UNL A   1      43.212  27.655  32.651  1.00  0.00     0.029 A 
ATOM     63  C   UNL A   1      42.604  28.702  33.325  1.00  0.00     0.049 A 
ATOM     64  H   UNL A   1      40.939  29.864  32.745  1.00  0.00     0.167 HD
ATOM     65  C   UNL A   1      42.284  30.281  35.210  1.00  0.00     0.074 A 
ATOM     66  C   UNL A   1      42.639  30.830  36.501  1.00  0.00     0.031 C 
ATOM     67  C   UNL A   1      42.956  29.269  34.604  1.00  0.00     0.034 A 
BRANCH  54  68
ATOM     68  C   UNL A   1      40.684  27.706  29.052  1.00  0.00     0.023 A 
ATOM     69  C   UNL A   1      41.632  27.950  28.043  1.00  0.00     0.031 A 
ATOM     70  C   UNL A   1      39.823  26.607  28.893  1.00  0.00     0.131 A 
ATOM     71  C   UNL A   1      41.656  27.147  26.894  1.00  0.00     0.055 A 
ATOM     72  C   UNL A   1      39.904  25.762  27.785  1.00  0.00     0.041 A 
ATOM     73  F   UNL A   1      38.881  26.338  29.813  1.00  0.00    -0.206 F 
ATOM     74  C   UNL A   1      40.818  26.037  26.771  1.00  0.00     0.022 A 
BRANCH  71  75
ATOM     75  S   UNL A   1      42.711  27.649  25.508  1.00  0.00     0.124 S 
ATOM     76  O   UNL A   1      43.968  27.947  26.189  1.00  0.00    -0.237 OA
ATOM     77  O   UNL A   1      42.708  26.462  24.662  1.00  0.00    -0.237 OA
ATOM     78  O   UNL A   1      42.020  28.811  24.954  1.00  0.00    -0.744 OA
ENDBRANCH  71  75
ENDBRANCH  54  68
BRANCH  55  79
ATOM     79  C   UNL A   1      39.657  33.781  36.967  1.00  0.00     0.023 A 
ATOM     80  C   UNL A   1      39.098  33.265  38.147  1.00  0.00     0.031 A 
ATOM     81  C   UNL A   1      39.965  35.154  36.934  1.00  0.00     0.131 A 
ATOM     82  C   UNL A   1      38.788  34.128  39.212  1.00  0.00     0.055 A 
ATOM     83  C   UNL A   1      39.724  35.992  38.023  1.00  0.00     0.041 A 
ATOM     84  F   UNL A   1      40.501  35.704  35.833  1.00  0.00    -0.206 F 
ATOM     85  C   UNL A   1      39.112  35.484  39.164  1.00  0.00     0.022 A 
BRANCH  82  86
ATOM     86  S   UNL A   1      37.821  33.474  40.601  1.00  0.00     0.124 S 
ATOM     87  O   UNL A   1      36.551  33.162  39.956  1.00  0.00    -0.237 OA
ATOM     88  O   UNL A   1      38.627  32.331  41.019  1.00  0.00    -0.237 OA
ATOM     89  O   UNL A   1      37.786  34.590  41.544  1.00  0.00    -0.744 OA
ENDBRANCH  82  86
ENDBRANCH  55  79
BRANCH  67  90
ATOM     90  C   UNL A   1      44.192  28.746  35.297  1.00  0.00     0.023 A 
ATOM     91  C   UNL A   1      44.130  27.742  36.278  1.00  0.00     0.031 A 
ATOM     92  C   UNL A   1      45.455  29.275  34.972  1.00  0.00     0.131 A 
ATOM     93  C   UNL A   1      45.299  27.343  36.944  1.00  0.00     0.055 A 
ATOM     94  C   UNL A   1      46.622  28.825  35.589  1.00  0.00     0.041 A 
ATOM     95  F   UNL A   1      45.575  30.238  34.044  1.00  0.00    -0.206 F 
ATOM     96  C   UNL A   1      46.547  27.865  36.592  1.00  0.00     0.022 A 
BRANCH  93  97
ATOM     97  S   UNL A   1      45.154  26.209  38.352  1.00  0.00     0.124 S 
ATOM     98  O   UNL A   1      43.839  26.548  38.883  1.00  0.00    -0.237 OA
ATOM     99  O   UNL A   1      45.265  24.902  37.712  1.00  0.00    -0.237 OA
ATOM    100  O   UNL A   1      46.282  26.577  39.207  1.00  0.00    -0.744 OA
ENDBRANCH  93  97
ENDBRANCH  67  90
ENDBRANCH  41  42
ENDBRANCH  33  36
ENDBRANCH  31  32
ENDBRANCH  30  31
ENDBRANCH  29  30
ENDBRANCH   1  29
TORSDOF 21
ENDMDL
MODEL 3
REMARK VINA RESULT:     -10.7      1.601      8.273
REMARK SMILES CC[C@@](C)(NC(=O)Nc1cccc(C[NH2+]C)c1)C(=O)NCCCCCCNC(=O)c1ccc(-c2c3nc(c(-c4cc(S(=O)(=O)[O-])ccc4F)c4ccc([nH]4)c(-c4cc(S(=O)(=O)[O-])ccc4F)c4nc(c(-c5cc(S(=O)(=O)[O-])ccc5F)c5ccc2[nH]5)C=C4)C=C3)cc1
REMARK SMILES IDX 23 1 22 2 21 3 20 4 18 5 19 6 3 8 4 9 2 10 1 11 5 12 6 13
REMARK SMILES IDX 7 15 8 16 9 18 10 19 17 20 11 21 13 22 12 23 14 24 15 25
REMARK SMILES IDX 16 26 24 29 25 30 26 31 27 32 28 33 29 35 30 36 31 37 92 38
REMARK SMILES IDX 32 39 91 40 33 41 34 42 35 43 85 44 36 45 90 46 84 47 86 48
REMARK SMILES IDX 37 49 89 50 83 51 82 52 38 54 70 55 50 56 69 57 51 58 54 59
REMARK SMILES IDX 68 60 87 61 52 62 53 63 67 65 88 66 55 67 39 68 40 69 48 70
REMARK SMILES IDX 41 71 47 72 49 73 46 74 42 75 43 76 44 77 45 78 71 79 72 80
REMARK SMILES IDX 80 81 73 82 79 83 81 84 78 85 74 86 75 87 76 88 77 89 56 90
REMARK SMILES IDX 57 91 65 92 58 93 64 94 66 95 63 96 59 97 60 98 61 99 62 100
REMARK H PARENT 20 7 5 14 8 17 15 27 15 28 27 34 86 53 54 64
REMARK Flexibility Score: inf
ROOT
ATOM      1  C   UNL A   1      33.005  29.702  25.710  1.00  0.00     0.002 C 
ENDROOT
BRANCH   1   2
ATOM      2  C   UNL A   1      32.321  29.043  24.493  1.00  0.00     0.021 C 
BRANCH   2   3
ATOM      3  C   UNL A   1      30.853  28.589  24.667  1.00  0.00     0.116 C 
BRANCH   3   4
ATOM      4  N   UNL A   1      30.626  27.433  23.841  1.00  0.00    -0.354 N 
ATOM      5  C   UNL A   1      29.918  26.268  24.082  1.00  0.00     0.245 C 
ATOM      6  O   UNL A   1      28.699  26.183  24.029  1.00  0.00    -0.272 OA
ATOM      7  H   UNL A   1      31.046  27.478  22.951  1.00  0.00     0.163 HD
BRANCH   5   8
ATOM      8  C   UNL A   1      30.862  25.169  24.627  1.00  0.00     0.117 C 
ATOM      9  C   UNL A   1      30.657  24.130  23.474  1.00  0.00     0.045 C 
BRANCH   8  10
ATOM     10  C   UNL A   1      32.386  25.307  24.813  1.00  0.00     0.035 C 
ATOM     11  C   UNL A   1      32.917  25.847  26.121  1.00  0.00     0.007 C 
ENDBRANCH   8  10
BRANCH   8  12
ATOM     12  N   UNL A   1      30.297  24.675  25.922  1.00  0.00    -0.324 N 
ATOM     13  C   UNL A   1      30.297  23.526  26.614  1.00  0.00     0.320 C 
ATOM     14  H   UNL A   1      29.793  25.380  26.390  1.00  0.00     0.166 HD
ATOM     15  O   UNL A   1      29.426  23.448  27.490  1.00  0.00    -0.248 OA
ATOM     16  N   UNL A   1      31.087  22.446  26.474  1.00  0.00    -0.308 N 
ATOM     17  H   UNL A   1      30.676  21.713  26.986  1.00  0.00     0.171 HD
BRANCH  16  18
ATOM     18  C   UNL A   1      32.275  21.935  25.885  1.00  0.00     0.043 A 
ATOM     19  C   UNL A   1      32.113  20.818  25.058  1.00  0.00     0.026 A 
ATOM     20  C   UNL A   1      33.596  22.333  26.072  1.00  0.00     0.035 A 
ATOM     21  C   UNL A   1      33.190  20.270  24.339  1.00  0.00     0.003 A 
ATOM     22  C   UNL A   1      34.660  21.932  25.243  1.00  0.00     0.008 A 
ATOM     23  C   UNL A   1      34.452  20.862  24.388  1.00  0.00     0.010 A 
BRANCH  22  24
ATOM     24  C   UNL A   1      35.883  22.829  25.157  1.00  0.00     0.297 C 
BRANCH  24  25
ATOM     25  N   UNL A   1      36.534  23.211  26.409  1.00  0.00    -0.345 N 
ATOM     26  C   UNL A   1      37.957  23.462  26.118  1.00  0.00     0.331 C 
ATOM     27  H   UNL A   1      36.448  22.456  27.090  1.00  0.00     0.346 HD
ATOM     28  H   UNL A   1      36.097  24.047  26.798  1.00  0.00     0.346 HD
ENDBRANCH  24  25
ENDBRANCH  22  24
ENDBRANCH  16  18
ENDBRANCH   8  12
ENDBRANCH   5   8
ENDBRANCH   3   4
ENDBRANCH   2   3
ENDBRANCH   1   2
BRANCH   1  29
ATOM     29  C   UNL A   1      32.081  30.148  26.841  1.00  0.00     0.002 C 
BRANCH  29  30
ATOM     30  C   UNL A   1      31.822  31.649  26.891  1.00  0.00     0.021 C 
BRANCH  30  31
ATOM     31  C   UNL A   1      33.025  32.486  27.302  1.00  0.00     0.116 C 
BRANCH  31  32
ATOM     32  N   UNL A   1      32.665  33.822  27.736  1.00  0.00    -0.352 N 
ATOM     33  C   UNL A   1      33.194  34.542  28.789  1.00  0.00     0.251 C 
ATOM     34  H   UNL A   1      31.957  34.270  27.218  1.00  0.00     0.163 HD
ATOM     35  O   UNL A   1      32.689  35.592  29.137  1.00  0.00    -0.269 OA
BRANCH  33  36
ATOM     36  C   UNL A   1      34.365  33.982  29.510  1.00  0.00     0.039 A 
ATOM     37  C   UNL A   1      34.149  33.078  30.552  1.00  0.00     0.014 A 
ATOM     38  C   UNL A   1      35.667  34.314  29.125  1.00  0.00     0.014 A 
ATOM     39  C   UNL A   1      35.243  32.463  31.168  1.00  0.00     0.010 A 
ATOM     40  C   UNL A   1      36.748  33.636  29.680  1.00  0.00     0.010 A 
ATOM     41  C   UNL A   1      36.551  32.712  30.717  1.00  0.00    -0.014 A 
BRANCH  41  42
ATOM     42  C   UNL A   1      37.725  32.052  31.349  1.00  0.00     0.031 A 
ATOM     43  C   UNL A   1      38.222  32.537  32.687  1.00  0.00     0.074 A 
ATOM     44  C   UNL A   1      38.367  31.049  30.714  1.00  0.00     0.049 A 
ATOM     45  N   UNL A   1      39.271  32.158  33.369  1.00  0.00    -0.248 NA
ATOM     46  C   UNL A   1      37.448  33.613  33.328  1.00  0.00     0.031 C 
ATOM     47  C   UNL A   1      38.003  30.508  29.402  1.00  0.00     0.029 A 
ATOM     48  N   UNL A   1      39.464  30.308  31.080  1.00  0.00    -0.354 N 
ATOM     49  C   UNL A   1      39.283  32.946  34.516  1.00  0.00     0.074 A 
ATOM     50  C   UNL A   1      38.182  33.877  34.397  1.00  0.00     0.031 C 
ATOM     51  C   UNL A   1      38.844  29.510  29.087  1.00  0.00     0.029 A 
ATOM     52  C   UNL A   1      39.839  29.368  30.145  1.00  0.00     0.049 A 
ATOM     53  H   UNL A   1      39.939  30.437  31.933  1.00  0.00     0.167 HD
ATOM     54  C   UNL A   1      40.111  32.878  35.587  1.00  0.00     0.034 A 
ATOM     55  C   UNL A   1      40.875  28.503  30.137  1.00  0.00     0.034 A 
ATOM     56  C   UNL A   1      41.198  31.938  35.701  1.00  0.00     0.049 A 
ATOM     57  C   UNL A   1      41.811  28.478  31.324  1.00  0.00     0.074 A 
ATOM     58  C   UNL A   1      42.091  31.776  36.746  1.00  0.00     0.029 A 
ATOM     59  N   UNL A   1      41.541  30.998  34.737  1.00  0.00    -0.354 N 
ATOM     60  N   UNL A   1      41.788  29.214  32.412  1.00  0.00    -0.248 NA
ATOM     61  C   UNL A   1      42.900  27.493  31.292  1.00  0.00     0.031 C 
ATOM     62  C   UNL A   1      43.008  30.783  36.390  1.00  0.00     0.029 A 
ATOM     63  C   UNL A   1      42.640  30.265  35.159  1.00  0.00     0.049 A 
ATOM     64  H   UNL A   1      41.072  30.870  33.881  1.00  0.00     0.167 HD
ATOM     65  C   UNL A   1      42.829  28.744  33.210  1.00  0.00     0.074 A 
ATOM     66  C   UNL A   1      43.448  27.655  32.486  1.00  0.00     0.031 C 
ATOM     67  C   UNL A   1      43.236  29.171  34.432  1.00  0.00     0.034 A 
BRANCH  54  68
ATOM     68  C   UNL A   1      39.871  33.849  36.717  1.00  0.00     0.023 A 
ATOM     69  C   UNL A   1      39.332  33.426  37.945  1.00  0.00     0.031 A 
ATOM     70  C   UNL A   1      40.183  35.211  36.570  1.00  0.00     0.131 A 
ATOM     71  C   UNL A   1      39.063  34.363  38.953  1.00  0.00     0.055 A 
ATOM     72  C   UNL A   1      39.990  36.127  37.607  1.00  0.00     0.041 A 
ATOM     73  F   UNL A   1      40.680  35.678  35.413  1.00  0.00    -0.206 F 
ATOM     74  C   UNL A   1      39.416  35.706  38.803  1.00  0.00     0.022 A 
BRANCH  71  75
ATOM     75  S   UNL A   1      38.134  33.823  40.412  1.00  0.00     0.124 S 
ATOM     76  O   UNL A   1      37.077  33.018  39.805  1.00  0.00    -0.237 OA
ATOM     77  O   UNL A   1      39.137  33.091  41.174  1.00  0.00    -0.237 OA
ATOM     78  O   UNL A   1      37.684  35.077  41.015  1.00  0.00    -0.744 OA
ENDBRANCH  71  75
ENDBRANCH  54  68
BRANCH  55  79
ATOM     79  C   UNL A   1      41.113  27.601  28.970  1.00  0.00     0.023 A 
ATOM     80  C   UNL A   1      42.130  27.869  28.039  1.00  0.00     0.031 A 
ATOM     81  C   UNL A   1      40.265  26.507  28.714  1.00  0.00     0.131 A 
ATOM     82  C   UNL A   1      42.223  27.110  26.861  1.00  0.00     0.055 A 
ATOM     83  C   UNL A   1      40.409  25.709  27.578  1.00  0.00     0.041 A 
ATOM     84  F   UNL A   1      39.275  26.201  29.567  1.00  0.00    -0.206 F 
ATOM     85  C   UNL A   1      41.379  26.023  26.632  1.00  0.00     0.022 A 
BRANCH  82  86
ATOM     86  S   UNL A   1      43.367  27.660  25.565  1.00  0.00     0.124 S 
ATOM     87  O   UNL A   1      43.855  28.918  26.117  1.00  0.00    -0.237 OA
ATOM     88  O   UNL A   1      44.327  26.561  25.523  1.00  0.00    -0.237 OA
ATOM     89  O   UNL A   1      42.511  27.784  24.387  1.00  0.00    -0.744 OA
ENDBRANCH  82  86
ENDBRANCH  55  79
BRANCH  67  90
ATOM     90  C   UNL A   1      44.356  28.404  35.096  1.00  0.00     0.023 A 
ATOM     91  C   UNL A   1      44.114  27.300  35.930  1.00  0.00     0.031 A 
ATOM     92  C   UNL A   1      45.692  28.799  34.893  1.00  0.00     0.131 A 
ATOM     93  C   UNL A   1      45.185  26.668  36.580  1.00  0.00     0.055 A 
ATOM     94  C   UNL A   1      46.757  28.124  35.488  1.00  0.00     0.041 A 
ATOM     95  F   UNL A   1      45.983  29.849  34.108  1.00  0.00    -0.206 F 
ATOM     96  C   UNL A   1      46.507  27.061  36.350  1.00  0.00     0.022 A 
BRANCH  93  97
ATOM     97  S   UNL A   1      44.821  25.392  37.816  1.00  0.00     0.124 S 
ATOM     98  O   UNL A   1      43.465  24.995  37.455  1.00  0.00    -0.237 OA
ATOM     99  O   UNL A   1      45.863  24.403  37.560  1.00  0.00    -0.237 OA
ATOM    100  O   UNL A   1      44.942  26.102  39.089  1.00  0.00    -0.744 OA
ENDBRANCH  93  97
ENDBRANCH  67  90
ENDBRANCH  41  42
ENDBRANCH  33  36
ENDBRANCH  31  32
ENDBRANCH  30  31
ENDBRANCH  29  30
ENDBRANCH   1  29
TORSDOF 21
ENDMDL
