MODEL 1
REMARK VINA RESULT:     -10.9      0.000      0.000
REMARK SMILES Cn1nnnc1SCC[C@@H]1CCC[C@@]1([NH3+])C(=O)NCCCCCCNC(=O)c1ccc(-c2c3nc(c(-c4cc(S(=O)(=O)[O-])ccc4F)c4ccc([nH]4)c(-c4cc(S(=O)(=O)[O-])ccc4F)c4nc(c(-c5cc(S(=O)(=O)[O-])ccc5F)c5ccc2[nH]5)C=C4)C=C3)cc1
REMARK SMILES IDX 21 1 20 2 19 3 18 4 16 5 17 6 14 8 10 9 11 10 12 11 13 12
REMARK SMILES IDX 9 13 8 14 7 15 6 16 1 17 2 18 3 19 4 20 5 21 15 22 22 26
REMARK SMILES IDX 23 27 24 28 25 29 26 30 27 32 28 33 29 34 90 35 30 36 89 37
REMARK SMILES IDX 31 38 32 39 33 40 83 41 34 42 88 43 82 44 84 45 35 46 87 47
REMARK SMILES IDX 81 48 80 49 36 51 68 52 48 53 67 54 49 55 52 56 66 57 85 58
REMARK SMILES IDX 50 59 51 60 65 62 86 63 53 64 37 65 38 66 46 67 39 68 45 69
REMARK SMILES IDX 47 70 44 71 40 72 41 73 42 74 43 75 69 76 70 77 78 78 71 79
REMARK SMILES IDX 77 80 79 81 76 82 72 83 73 84 74 85 75 86 54 87 55 88 63 89
REMARK SMILES IDX 56 90 62 91 64 92 61 93 57 94 58 95 59 96 60 97
REMARK H PARENT 18 7 15 23 15 24 15 25 25 31 84 50 52 61
REMARK Flexibility Score: inf
ROOT
ATOM      1  C   UNL A   1      34.575  23.701  26.640  1.00  0.00     0.002 C 
ENDROOT
BRANCH   1   2
ATOM      2  C   UNL A   1      33.800  22.489  27.180  1.00  0.00     0.021 C 
BRANCH   2   3
ATOM      3  C   UNL A   1      32.291  22.533  26.919  1.00  0.00     0.116 C 
BRANCH   3   4
ATOM      4  N   UNL A   1      31.837  21.479  26.034  1.00  0.00    -0.351 N 
ATOM      5  C   UNL A   1      32.070  21.168  24.737  1.00  0.00     0.281 C 
ATOM      6  O   UNL A   1      31.887  19.969  24.465  1.00  0.00    -0.268 OA
ATOM      7  H   UNL A   1      31.221  20.849  26.473  1.00  0.00     0.163 HD
BRANCH   5   8
ATOM      8  C   UNL A   1      32.370  22.155  23.550  1.00  0.00     0.176 C 
ATOM      9  C   UNL A   1      32.155  23.675  23.608  1.00  0.00     0.061 C 
ATOM     10  C   UNL A   1      33.053  24.195  22.464  1.00  0.00     0.011 C 
ATOM     11  C   UNL A   1      34.333  23.400  22.620  1.00  0.00     0.008 C 
ATOM     12  C   UNL A   1      33.921  22.111  23.336  1.00  0.00     0.079 C 
BRANCH   9  13
ATOM     13  C   UNL A   1      30.752  24.292  23.526  1.00  0.00     0.022 C 
BRANCH  13  14
ATOM     14  C   UNL A   1      30.621  25.664  24.253  1.00  0.00     0.079 C 
BRANCH  14  15
ATOM     15  S   UNL A   1      29.008  26.505  24.049  1.00  0.00    -0.085 SA
BRANCH  15  16
ATOM     16  C   UNL A   1      29.309  27.774  22.910  1.00  0.00     0.209 A 
ATOM     17  C   UNL A   1      27.222  29.266  23.091  1.00  0.00     0.179 C 
ATOM     18  N   UNL A   1      28.551  28.898  22.696  1.00  0.00    -0.224 N 
ATOM     19  N   UNL A   1      29.227  29.746  21.901  1.00  0.00    -0.045 NA
ATOM     20  N   UNL A   1      30.378  29.146  21.647  1.00  0.00    -0.023 NA
ATOM     21  N   UNL A   1      30.436  27.915  22.250  1.00  0.00    -0.102 NA
ENDBRANCH  15  16
ENDBRANCH  14  15
ENDBRANCH  13  14
ENDBRANCH   9  13
BRANCH   8  22
ATOM     22  N   UNL A   1      31.723  21.582  22.345  1.00  0.00    -0.345 N 
ATOM     23  H   UNL A   1      32.392  20.993  21.847  1.00  0.00     0.345 HD
ATOM     24  H   UNL A   1      31.415  22.337  21.732  1.00  0.00     0.345 HD
ATOM     25  H   UNL A   1      30.918  21.021  22.624  1.00  0.00     0.345 HD
ENDBRANCH   8  22
ENDBRANCH   5   8
ENDBRANCH   3   4
ENDBRANCH   2   3
ENDBRANCH   1   2
BRANCH   1  26
ATOM     26  C   UNL A   1      35.948  23.415  26.019  1.00  0.00     0.002 C 
BRANCH  26  27
ATOM     27  C   UNL A   1      36.336  21.943  25.854  1.00  0.00     0.021 C 
BRANCH  27  28
ATOM     28  C   UNL A   1      37.567  21.660  24.993  1.00  0.00     0.116 C 
BRANCH  28  29
ATOM     29  N   UNL A   1      38.499  20.729  25.614  1.00  0.00    -0.352 N 
ATOM     30  C   UNL A   1      39.644  20.965  26.330  1.00  0.00     0.251 C 
ATOM     31  H   UNL A   1      38.270  19.778  25.500  1.00  0.00     0.163 HD
ATOM     32  O   UNL A   1      40.363  20.011  26.648  1.00  0.00    -0.269 OA
BRANCH  30  33
ATOM     33  C   UNL A   1      40.040  22.339  26.701  1.00  0.00     0.039 A 
ATOM     34  C   UNL A   1      41.001  22.518  27.702  1.00  0.00     0.014 A 
ATOM     35  C   UNL A   1      39.467  23.452  26.080  1.00  0.00     0.014 A 
ATOM     36  C   UNL A   1      41.451  23.803  28.016  1.00  0.00     0.010 A 
ATOM     37  C   UNL A   1      39.959  24.730  26.352  1.00  0.00     0.010 A 
ATOM     38  C   UNL A   1      40.969  24.917  27.309  1.00  0.00    -0.014 A 
BRANCH  38  39
ATOM     39  C   UNL A   1      41.545  26.272  27.516  1.00  0.00     0.031 A 
ATOM     40  C   UNL A   1      42.903  26.619  26.972  1.00  0.00     0.074 A 
ATOM     41  C   UNL A   1      40.871  27.165  28.269  1.00  0.00     0.049 A 
ATOM     42  N   UNL A   1      43.605  27.712  27.134  1.00  0.00    -0.248 NA
ATOM     43  C   UNL A   1      43.567  25.591  26.158  1.00  0.00     0.031 C 
ATOM     44  C   UNL A   1      39.556  26.935  28.872  1.00  0.00     0.029 A 
ATOM     45  N   UNL A   1      41.198  28.438  28.666  1.00  0.00    -0.354 N 
ATOM     46  C   UNL A   1      44.801  27.501  26.455  1.00  0.00     0.074 A 
ATOM     47  C   UNL A   1      44.743  26.155  25.920  1.00  0.00     0.031 C 
ATOM     48  C   UNL A   1      39.180  28.036  29.542  1.00  0.00     0.029 A 
ATOM     49  C   UNL A   1      40.247  29.029  29.468  1.00  0.00     0.049 A 
ATOM     50  H   UNL A   1      42.034  28.887  28.404  1.00  0.00     0.167 HD
ATOM     51  C   UNL A   1      45.841  28.356  26.286  1.00  0.00     0.034 A 
ATOM     52  C   UNL A   1      40.242  30.224  30.091  1.00  0.00     0.034 A 
ATOM     53  C   UNL A   1      45.876  29.695  26.823  1.00  0.00     0.049 A 
ATOM     54  C   UNL A   1      41.438  31.129  29.938  1.00  0.00     0.074 A 
ATOM     55  C   UNL A   1      46.843  30.669  26.645  1.00  0.00     0.029 A 
ATOM     56  N   UNL A   1      44.912  30.245  27.659  1.00  0.00    -0.354 N 
ATOM     57  N   UNL A   1      42.536  30.938  29.243  1.00  0.00    -0.248 NA
ATOM     58  C   UNL A   1      41.394  32.410  30.656  1.00  0.00     0.031 C 
ATOM     59  C   UNL A   1      46.508  31.773  27.437  1.00  0.00     0.029 A 
ATOM     60  C   UNL A   1      45.288  31.523  28.047  1.00  0.00     0.049 A 
ATOM     61  H   UNL A   1      44.081  29.794  27.936  1.00  0.00     0.167 HD
ATOM     62  C   UNL A   1      43.300  32.087  29.421  1.00  0.00     0.074 A 
ATOM     63  C   UNL A   1      42.533  32.970  30.274  1.00  0.00     0.031 C 
ATOM     64  C   UNL A   1      44.526  32.387  28.919  1.00  0.00     0.034 A 
BRANCH  51  65
ATOM     65  C   UNL A   1      47.043  27.851  25.520  1.00  0.00     0.023 A 
ATOM     66  C   UNL A   1      47.235  28.147  24.160  1.00  0.00     0.031 A 
ATOM     67  C   UNL A   1      48.005  27.050  26.161  1.00  0.00     0.131 A 
ATOM     68  C   UNL A   1      48.321  27.586  23.468  1.00  0.00     0.055 A 
ATOM     69  C   UNL A   1      49.127  26.563  25.486  1.00  0.00     0.041 A 
ATOM     70  F   UNL A   1      47.867  26.716  27.454  1.00  0.00    -0.206 F 
ATOM     71  C   UNL A   1      49.281  26.817  24.127  1.00  0.00     0.022 A 
BRANCH  68  72
ATOM     72  S   UNL A   1      48.378  27.757  21.663  1.00  0.00     0.124 S 
ATOM     73  O   UNL A   1      48.781  26.414  21.251  1.00  0.00    -0.237 OA
ATOM     74  O   UNL A   1      47.008  28.140  21.339  1.00  0.00    -0.237 OA
ATOM     75  O   UNL A   1      49.385  28.794  21.448  1.00  0.00    -0.744 OA
ENDBRANCH  68  72
ENDBRANCH  51  65
BRANCH  52  76
ATOM     76  C   UNL A   1      39.083  30.633  30.936  1.00  0.00     0.023 A 
ATOM     77  C   UNL A   1      38.062  31.442  30.412  1.00  0.00     0.031 A 
ATOM     78  C   UNL A   1      38.998  30.256  32.288  1.00  0.00     0.131 A 
ATOM     79  C   UNL A   1      37.023  31.883  31.246  1.00  0.00     0.055 A 
ATOM     80  C   UNL A   1      37.931  30.650  33.098  1.00  0.00     0.041 A 
ATOM     81  F   UNL A   1      39.950  29.485  32.839  1.00  0.00    -0.206 F 
ATOM     82  C   UNL A   1      36.942  31.480  32.580  1.00  0.00     0.022 A 
BRANCH  79  83
ATOM     83  S   UNL A   1      35.819  33.065  30.579  1.00  0.00     0.124 S 
ATOM     84  O   UNL A   1      35.486  33.848  31.763  1.00  0.00    -0.237 OA
ATOM     85  O   UNL A   1      36.601  33.751  29.555  1.00  0.00    -0.237 OA
ATOM     86  O   UNL A   1      34.746  32.211  30.073  1.00  0.00    -0.744 OA
ENDBRANCH  79  83
ENDBRANCH  52  76
BRANCH  64  87
ATOM     87  C   UNL A   1      45.094  33.742  29.261  1.00  0.00     0.023 A 
ATOM     88  C   UNL A   1      44.901  34.857  28.426  1.00  0.00     0.031 A 
ATOM     89  C   UNL A   1      45.842  33.921  30.439  1.00  0.00     0.131 A 
ATOM     90  C   UNL A   1      45.488  36.087  28.754  1.00  0.00     0.055 A 
ATOM     91  C   UNL A   1      46.374  35.162  30.791  1.00  0.00     0.041 A 
ATOM     92  F   UNL A   1      46.062  32.890  31.271  1.00  0.00    -0.206 F 
ATOM     93  C   UNL A   1      46.208  36.252  29.941  1.00  0.00     0.022 A 
BRANCH  90  94
ATOM     94  S   UNL A   1      45.366  37.457  27.571  1.00  0.00     0.124 S 
ATOM     95  O   UNL A   1      45.878  38.578  28.352  1.00  0.00    -0.237 OA
ATOM     96  O   UNL A   1      46.216  37.001  26.476  1.00  0.00    -0.237 OA
ATOM     97  O   UNL A   1      43.939  37.518  27.261  1.00  0.00    -0.744 OA
ENDBRANCH  90  94
ENDBRANCH  64  87
ENDBRANCH  38  39
ENDBRANCH  30  33
ENDBRANCH  28  29
ENDBRANCH  27  28
ENDBRANCH  26  27
ENDBRANCH   1  26
TORSDOF 21
ENDMDL
MODEL 2
REMARK VINA RESULT:     -10.8      5.003     10.063
REMARK SMILES Cn1nnnc1SCC[C@@H]1CCC[C@@]1([NH3+])C(=O)NCCCCCCNC(=O)c1ccc(-c2c3nc(c(-c4cc(S(=O)(=O)[O-])ccc4F)c4ccc([nH]4)c(-c4cc(S(=O)(=O)[O-])ccc4F)c4nc(c(-c5cc(S(=O)(=O)[O-])ccc5F)c5ccc2[nH]5)C=C4)C=C3)cc1
REMARK SMILES IDX 21 1 20 2 19 3 18 4 16 5 17 6 14 8 10 9 11 10 12 11 13 12
REMARK SMILES IDX 9 13 8 14 7 15 6 16 1 17 2 18 3 19 4 20 5 21 15 22 22 26
REMARK SMILES IDX 23 27 24 28 25 29 26 30 27 32 28 33 29 34 90 35 30 36 89 37
REMARK SMILES IDX 31 38 32 39 33 40 83 41 34 42 88 43 82 44 84 45 35 46 87 47
REMARK SMILES IDX 81 48 80 49 36 51 68 52 48 53 67 54 49 55 52 56 66 57 85 58
REMARK SMILES IDX 50 59 51 60 65 62 86 63 53 64 37 65 38 66 46 67 39 68 45 69
REMARK SMILES IDX 47 70 44 71 40 72 41 73 42 74 43 75 69 76 70 77 78 78 71 79
REMARK SMILES IDX 77 80 79 81 76 82 72 83 73 84 74 85 75 86 54 87 55 88 63 89
REMARK SMILES IDX 56 90 62 91 64 92 61 93 57 94 58 95 59 96 60 97
REMARK H PARENT 18 7 15 23 15 24 15 25 25 31 84 50 52 61
REMARK Flexibility Score: inf
ROOT
ATOM      1  C   UNL A   1      33.064  27.649  26.500  1.00  0.00     0.002 C 
ENDROOT
BRANCH   1   2
ATOM      2  C   UNL A   1      33.136  26.180  26.055  1.00  0.00     0.021 C 
BRANCH   2   3
ATOM      3  C   UNL A   1      31.779  25.473  25.982  1.00  0.00     0.116 C 
BRANCH   3   4
ATOM      4  N   UNL A   1      31.665  24.368  26.914  1.00  0.00    -0.351 N 
ATOM      5  C   UNL A   1      32.298  23.179  27.052  1.00  0.00     0.281 C 
ATOM      6  O   UNL A   1      32.259  22.718  28.206  1.00  0.00    -0.268 OA
ATOM      7  H   UNL A   1      30.970  24.512  27.597  1.00  0.00     0.163 HD
BRANCH   5   8
ATOM      8  C   UNL A   1      32.906  22.275  25.918  1.00  0.00     0.176 C 
ATOM      9  C   UNL A   1      33.619  22.811  24.667  1.00  0.00     0.061 C 
ATOM     10  C   UNL A   1      34.443  21.595  24.192  1.00  0.00     0.011 C 
ATOM     11  C   UNL A   1      35.037  21.040  25.470  1.00  0.00     0.008 C 
ATOM     12  C   UNL A   1      34.086  21.488  26.583  1.00  0.00     0.079 C 
BRANCH   9  13
ATOM     13  C   UNL A   1      32.837  23.431  23.501  1.00  0.00     0.022 C 
BRANCH  13  14
ATOM     14  C   UNL A   1      33.589  24.590  22.781  1.00  0.00     0.079 C 
BRANCH  14  15
ATOM     15  S   UNL A   1      32.593  25.535  21.572  1.00  0.00    -0.085 SA
BRANCH  15  16
ATOM     16  C   UNL A   1      31.919  26.847  22.479  1.00  0.00     0.209 A 
ATOM     17  C   UNL A   1      33.898  28.460  22.787  1.00  0.00     0.179 C 
ATOM     18  N   UNL A   1      32.530  28.029  22.814  1.00  0.00    -0.224 N 
ATOM     19  N   UNL A   1      31.615  28.876  23.317  1.00  0.00    -0.045 NA
ATOM     20  N   UNL A   1      30.468  28.219  23.278  1.00  0.00    -0.023 NA
ATOM     21  N   UNL A   1      30.644  26.953  22.778  1.00  0.00    -0.102 NA
ENDBRANCH  15  16
ENDBRANCH  14  15
ENDBRANCH  13  14
ENDBRANCH   9  13
BRANCH   8  22
ATOM     22  N   UNL A   1      31.856  21.297  25.543  1.00  0.00    -0.345 N 
ATOM     23  H   UNL A   1      32.294  20.433  25.224  1.00  0.00     0.345 HD
ATOM     24  H   UNL A   1      31.284  21.684  24.792  1.00  0.00     0.345 HD
ATOM     25  H   UNL A   1      31.267  21.102  26.353  1.00  0.00     0.345 HD
ENDBRANCH   8  22
ENDBRANCH   5   8
ENDBRANCH   3   4
ENDBRANCH   2   3
ENDBRANCH   1   2
BRANCH   1  26
ATOM     26  C   UNL A   1      31.730  28.121  27.093  1.00  0.00     0.002 C 
BRANCH  26  27
ATOM     27  C   UNL A   1      31.428  29.620  27.000  1.00  0.00     0.021 C 
BRANCH  27  28
ATOM     28  C   UNL A   1      32.460  30.473  26.262  1.00  0.00     0.116 C 
BRANCH  28  29
ATOM     29  N   UNL A   1      32.442  31.871  26.666  1.00  0.00    -0.352 N 
ATOM     30  C   UNL A   1      33.299  32.572  27.475  1.00  0.00     0.251 C 
ATOM     31  H   UNL A   1      31.695  32.397  26.300  1.00  0.00     0.163 HD
ATOM     32  O   UNL A   1      33.011  33.730  27.798  1.00  0.00    -0.269 OA
BRANCH  30  33
ATOM     33  C   UNL A   1      34.541  31.955  27.984  1.00  0.00     0.039 A 
ATOM     34  C   UNL A   1      35.687  32.748  28.110  1.00  0.00     0.014 A 
ATOM     35  C   UNL A   1      34.590  30.601  28.329  1.00  0.00     0.014 A 
ATOM     36  C   UNL A   1      36.851  32.209  28.663  1.00  0.00     0.010 A 
ATOM     37  C   UNL A   1      35.734  30.080  28.935  1.00  0.00     0.010 A 
ATOM     38  C   UNL A   1      36.870  30.883  29.126  1.00  0.00    -0.014 A 
BRANCH  38  39
ATOM     39  C   UNL A   1      38.043  30.337  29.859  1.00  0.00     0.031 A 
ATOM     40  C   UNL A   1      38.334  30.765  31.270  1.00  0.00     0.074 A 
ATOM     41  C   UNL A   1      38.894  29.512  29.215  1.00  0.00     0.049 A 
ATOM     42  N   UNL A   1      39.357  30.471  32.030  1.00  0.00    -0.248 NA
ATOM     43  C   UNL A   1      37.354  31.662  31.899  1.00  0.00     0.031 C 
ATOM     44  C   UNL A   1      38.732  29.044  27.836  1.00  0.00     0.029 A 
ATOM     45  N   UNL A   1      40.068  28.928  29.625  1.00  0.00    -0.354 N 
ATOM     46  C   UNL A   1      39.155  31.156  33.224  1.00  0.00     0.074 A 
ATOM     47  C   UNL A   1      37.932  31.917  33.064  1.00  0.00     0.031 C 
ATOM     48  C   UNL A   1      39.754  28.231  27.524  1.00  0.00     0.029 A 
ATOM     49  C   UNL A   1      40.674  28.162  28.655  1.00  0.00     0.049 A 
ATOM     50  H   UNL A   1      40.441  29.047  30.528  1.00  0.00     0.167 HD
ATOM     51  C   UNL A   1      39.914  31.141  34.349  1.00  0.00     0.034 A 
ATOM     52  C   UNL A   1      41.846  27.498  28.665  1.00  0.00     0.034 A 
ATOM     53  C   UNL A   1      41.127  30.371  34.489  1.00  0.00     0.049 A 
ATOM     54  C   UNL A   1      42.701  27.548  29.905  1.00  0.00     0.074 A 
ATOM     55  C   UNL A   1      41.927  30.221  35.609  1.00  0.00     0.029 A 
ATOM     56  N   UNL A   1      41.728  29.637  33.474  1.00  0.00    -0.354 N 
ATOM     57  N   UNL A   1      42.465  28.153  31.047  1.00  0.00    -0.248 NA
ATOM     58  C   UNL A   1      43.980  26.828  29.858  1.00  0.00     0.031 C 
ATOM     59  C   UNL A   1      43.051  29.469  35.249  1.00  0.00     0.029 A 
ATOM     60  C   UNL A   1      42.915  29.078  33.927  1.00  0.00     0.049 A 
ATOM     61  H   UNL A   1      41.365  29.529  32.565  1.00  0.00     0.167 HD
ATOM     62  C   UNL A   1      43.556  27.862  31.861  1.00  0.00     0.074 A 
ATOM     63  C   UNL A   1      44.441  27.018  31.085  1.00  0.00     0.031 C 
ATOM     64  C   UNL A   1      43.802  28.256  33.137  1.00  0.00     0.034 A 
BRANCH  51  65
ATOM     65  C   UNL A   1      39.473  32.013  35.502  1.00  0.00     0.023 A 
ATOM     66  C   UNL A   1      38.768  31.491  36.601  1.00  0.00     0.031 A 
ATOM     67  C   UNL A   1      39.751  33.392  35.493  1.00  0.00     0.131 A 
ATOM     68  C   UNL A   1      38.303  32.353  37.607  1.00  0.00     0.055 A 
ATOM     69  C   UNL A   1      39.356  34.230  36.539  1.00  0.00     0.041 A 
ATOM     70  F   UNL A   1      40.402  33.952  34.463  1.00  0.00    -0.206 F 
ATOM     71  C   UNL A   1      38.614  33.714  37.597  1.00  0.00     0.022 A 
BRANCH  68  72
ATOM     72  S   UNL A   1      37.162  31.692  38.854  1.00  0.00     0.124 S 
ATOM     73  O   UNL A   1      36.936  30.337  38.359  1.00  0.00    -0.237 OA
ATOM     74  O   UNL A   1      37.940  31.804  40.083  1.00  0.00    -0.237 OA
ATOM     75  O   UNL A   1      36.005  32.580  38.764  1.00  0.00    -0.744 OA
ENDBRANCH  68  72
ENDBRANCH  51  65
BRANCH  52  76
ATOM     76  C   UNL A   1      42.301  26.746  27.459  1.00  0.00     0.023 A 
ATOM     77  C   UNL A   1      42.045  25.372  27.332  1.00  0.00     0.031 A 
ATOM     78  C   UNL A   1      43.031  27.378  26.438  1.00  0.00     0.131 A 
ATOM     79  C   UNL A   1      42.552  24.666  26.229  1.00  0.00     0.055 A 
ATOM     80  C   UNL A   1      43.483  26.683  25.315  1.00  0.00     0.041 A 
ATOM     81  F   UNL A   1      43.306  28.691  26.512  1.00  0.00    -0.206 F 
ATOM     82  C   UNL A   1      43.255  25.315  25.213  1.00  0.00     0.022 A 
BRANCH  79  83
ATOM     83  S   UNL A   1      42.349  22.864  26.187  1.00  0.00     0.124 S 
ATOM     84  O   UNL A   1      42.872  22.538  24.864  1.00  0.00    -0.237 OA
ATOM     85  O   UNL A   1      43.163  22.438  27.320  1.00  0.00    -0.237 OA
ATOM     86  O   UNL A   1      40.909  22.678  26.351  1.00  0.00    -0.744 OA
ENDBRANCH  79  83
ENDBRANCH  52  76
BRANCH  64  87
ATOM     87  C   UNL A   1      45.070  27.747  33.779  1.00  0.00     0.023 A 
ATOM     88  C   UNL A   1      45.101  26.535  34.491  1.00  0.00     0.031 A 
ATOM     89  C   UNL A   1      46.262  28.487  33.680  1.00  0.00     0.131 A 
ATOM     90  C   UNL A   1      46.287  26.122  35.115  1.00  0.00     0.055 A 
ATOM     91  C   UNL A   1      47.453  28.041  34.254  1.00  0.00     0.041 A 
ATOM     92  F   UNL A   1      46.288  29.654  33.017  1.00  0.00    -0.206 F 
ATOM     93  C   UNL A   1      47.468  26.858  34.985  1.00  0.00     0.022 A 
BRANCH  90  94
ATOM     94  S   UNL A   1      46.251  24.645  36.169  1.00  0.00     0.124 S 
ATOM     95  O   UNL A   1      45.132  23.898  35.604  1.00  0.00    -0.237 OA
ATOM     96  O   UNL A   1      47.576  24.073  35.952  1.00  0.00    -0.237 OA
ATOM     97  O   UNL A   1      46.023  25.184  37.508  1.00  0.00    -0.744 OA
ENDBRANCH  90  94
ENDBRANCH  64  87
ENDBRANCH  38  39
ENDBRANCH  30  33
ENDBRANCH  28  29
ENDBRANCH  27  28
ENDBRANCH  26  27
ENDBRANCH   1  26
TORSDOF 21
ENDMDL
MODEL 3
REMARK VINA RESULT:     -10.8      1.195      7.578
REMARK SMILES Cn1nnnc1SCC[C@@H]1CCC[C@@]1([NH3+])C(=O)NCCCCCCNC(=O)c1ccc(-c2c3nc(c(-c4cc(S(=O)(=O)[O-])ccc4F)c4ccc([nH]4)c(-c4cc(S(=O)(=O)[O-])ccc4F)c4nc(c(-c5cc(S(=O)(=O)[O-])ccc5F)c5ccc2[nH]5)C=C4)C=C3)cc1
REMARK SMILES IDX 21 1 20 2 19 3 18 4 16 5 17 6 14 8 10 9 11 10 12 11 13 12
REMARK SMILES IDX 9 13 8 14 7 15 6 16 1 17 2 18 3 19 4 20 5 21 15 22 22 26
REMARK SMILES IDX 23 27 24 28 25 29 26 30 27 32 28 33 29 34 90 35 30 36 89 37
REMARK SMILES IDX 31 38 32 39 33 40 83 41 34 42 88 43 82 44 84 45 35 46 87 47
REMARK SMILES IDX 81 48 80 49 36 51 68 52 48 53 67 54 49 55 52 56 66 57 85 58
REMARK SMILES IDX 50 59 51 60 65 62 86 63 53 64 37 65 38 66 46 67 39 68 45 69
REMARK SMILES IDX 47 70 44 71 40 72 41 73 42 74 43 75 69 76 70 77 78 78 71 79
REMARK SMILES IDX 77 80 79 81 76 82 72 83 73 84 74 85 75 86 54 87 55 88 63 89
REMARK SMILES IDX 56 90 62 91 64 92 61 93 57 94 58 95 59 96 60 97
REMARK H PARENT 18 7 15 23 15 24 15 25 25 31 84 50 52 61
REMARK Flexibility Score: inf
ROOT
ATOM      1  C   UNL A   1      34.625  23.388  26.890  1.00  0.00     0.002 C 
ENDROOT
BRANCH   1   2
ATOM      2  C   UNL A   1      33.916  22.114  27.371  1.00  0.00     0.021 C 
BRANCH   2   3
ATOM      3  C   UNL A   1      32.413  22.075  27.076  1.00  0.00     0.116 C 
BRANCH   3   4
ATOM      4  N   UNL A   1      32.091  21.346  25.865  1.00  0.00    -0.351 N 
ATOM      5  C   UNL A   1      32.328  21.550  24.548  1.00  0.00     0.281 C 
ATOM      6  O   UNL A   1      32.314  20.511  23.866  1.00  0.00    -0.268 OA
ATOM      7  H   UNL A   1      31.587  20.518  26.039  1.00  0.00     0.163 HD
BRANCH   5   8
ATOM      8  C   UNL A   1      32.444  22.925  23.793  1.00  0.00     0.176 C 
ATOM      9  C   UNL A   1      32.560  24.291  24.487  1.00  0.00     0.061 C 
ATOM     10  C   UNL A   1      33.156  25.190  23.382  1.00  0.00     0.011 C 
ATOM     11  C   UNL A   1      34.241  24.332  22.764  1.00  0.00     0.008 C 
ATOM     12  C   UNL A   1      33.819  22.888  23.043  1.00  0.00     0.079 C 
BRANCH   9  13
ATOM     13  C   UNL A   1      31.349  24.963  25.146  1.00  0.00     0.022 C 
BRANCH  13  14
ATOM     14  C   UNL A   1      31.695  25.774  26.430  1.00  0.00     0.079 C 
BRANCH  14  15
ATOM     15  S   UNL A   1      31.058  27.489  26.466  1.00  0.00    -0.085 SA
BRANCH  15  16
ATOM     16  C   UNL A   1      31.855  28.289  25.153  1.00  0.00     0.209 A 
ATOM     17  C   UNL A   1      34.192  28.820  26.086  1.00  0.00     0.179 C 
ATOM     18  N   UNL A   1      33.168  28.682  25.091  1.00  0.00    -0.224 N 
ATOM     19  N   UNL A   1      33.462  29.057  23.833  1.00  0.00    -0.045 NA
ATOM     20  N   UNL A   1      32.345  28.884  23.146  1.00  0.00    -0.023 NA
ATOM     21  N   UNL A   1      31.335  28.426  23.954  1.00  0.00    -0.102 NA
ENDBRANCH  15  16
ENDBRANCH  14  15
ENDBRANCH  13  14
ENDBRANCH   9  13
BRANCH   8  22
ATOM     22  N   UNL A   1      31.365  22.946  22.776  1.00  0.00    -0.345 N 
ATOM     23  H   UNL A   1      31.244  22.009  22.389  1.00  0.00     0.345 HD
ATOM     24  H   UNL A   1      31.616  23.592  22.028  1.00  0.00     0.345 HD
ATOM     25  H   UNL A   1      30.493  23.250  23.210  1.00  0.00     0.345 HD
ENDBRANCH   8  22
ENDBRANCH   5   8
ENDBRANCH   3   4
ENDBRANCH   2   3
ENDBRANCH   1   2
BRANCH   1  26
ATOM     26  C   UNL A   1      35.900  23.191  26.059  1.00  0.00     0.002 C 
BRANCH  26  27
ATOM     27  C   UNL A   1      36.248  21.753  25.665  1.00  0.00     0.021 C 
BRANCH  27  28
ATOM     28  C   UNL A   1      37.524  21.567  24.844  1.00  0.00     0.116 C 
BRANCH  28  29
ATOM     29  N   UNL A   1      38.411  20.547  25.386  1.00  0.00    -0.352 N 
ATOM     30  C   UNL A   1      39.556  20.671  26.130  1.00  0.00     0.251 C 
ATOM     31  H   UNL A   1      38.145  19.620  25.186  1.00  0.00     0.163 HD
ATOM     32  O   UNL A   1      40.233  19.664  26.367  1.00  0.00    -0.269 OA
BRANCH  30  33
ATOM     33  C   UNL A   1      40.003  21.989  26.626  1.00  0.00     0.039 A 
ATOM     34  C   UNL A   1      40.904  22.039  27.695  1.00  0.00     0.014 A 
ATOM     35  C   UNL A   1      39.536  23.175  26.054  1.00  0.00     0.014 A 
ATOM     36  C   UNL A   1      41.403  23.269  28.130  1.00  0.00     0.010 A 
ATOM     37  C   UNL A   1      40.079  24.399  26.450  1.00  0.00     0.010 A 
ATOM     38  C   UNL A   1      41.032  24.456  27.479  1.00  0.00    -0.014 A 
BRANCH  38  39
ATOM     39  C   UNL A   1      41.669  25.756  27.821  1.00  0.00     0.031 A 
ATOM     40  C   UNL A   1      40.903  26.811  28.570  1.00  0.00     0.074 A 
ATOM     41  C   UNL A   1      42.917  26.013  27.381  1.00  0.00     0.049 A 
ATOM     42  N   UNL A   1      41.258  28.034  28.871  1.00  0.00    -0.248 NA
ATOM     43  C   UNL A   1      39.551  26.448  29.018  1.00  0.00     0.031 C 
ATOM     44  C   UNL A   1      43.752  25.078  26.622  1.00  0.00     0.029 A 
ATOM     45  N   UNL A   1      43.700  27.135  27.494  1.00  0.00    -0.354 N 
ATOM     46  C   UNL A   1      40.170  28.595  29.533  1.00  0.00     0.074 A 
ATOM     47  C   UNL A   1      39.127  27.588  29.544  1.00  0.00     0.031 C 
ATOM     48  C   UNL A   1      44.934  25.656  26.359  1.00  0.00     0.029 A 
ATOM     49  C   UNL A   1      44.926  27.021  26.876  1.00  0.00     0.049 A 
ATOM     50  H   UNL A   1      43.413  27.947  27.972  1.00  0.00     0.167 HD
ATOM     51  C   UNL A   1      40.059  29.829  30.086  1.00  0.00     0.034 A 
ATOM     52  C   UNL A   1      45.920  27.917  26.723  1.00  0.00     0.034 A 
ATOM     53  C   UNL A   1      41.113  30.815  30.068  1.00  0.00     0.049 A 
ATOM     54  C   UNL A   1      45.746  29.302  27.293  1.00  0.00     0.074 A 
ATOM     55  C   UNL A   1      41.134  32.063  30.667  1.00  0.00     0.029 A 
ATOM     56  N   UNL A   1      42.324  30.677  29.403  1.00  0.00    -0.354 N 
ATOM     57  N   UNL A   1      44.733  29.796  27.968  1.00  0.00    -0.248 NA
ATOM     58  C   UNL A   1      46.848  30.249  27.079  1.00  0.00     0.031 C 
ATOM     59  C   UNL A   1      42.318  32.710  30.294  1.00  0.00     0.029 A 
ATOM     60  C   UNL A   1      43.076  31.836  29.531  1.00  0.00     0.049 A 
ATOM     61  H   UNL A   1      42.609  29.872  28.910  1.00  0.00     0.167 HD
ATOM     62  C   UNL A   1      45.091  31.105  28.280  1.00  0.00     0.074 A 
ATOM     63  C   UNL A   1      46.415  31.316  27.734  1.00  0.00     0.031 C 
ATOM     64  C   UNL A   1      44.387  32.045  28.961  1.00  0.00     0.034 A 
BRANCH  51  65
ATOM     65  C   UNL A   1      38.738  30.193  30.724  1.00  0.00     0.023 A 
ATOM     66  C   UNL A   1      37.757  30.927  30.034  1.00  0.00     0.031 A 
ATOM     67  C   UNL A   1      38.461  29.810  32.049  1.00  0.00     0.131 A 
ATOM     68  C   UNL A   1      36.581  31.317  30.695  1.00  0.00     0.055 A 
ATOM     69  C   UNL A   1      37.253  30.131  32.672  1.00  0.00     0.041 A 
ATOM     70  F   UNL A   1      39.365  29.125  32.766  1.00  0.00    -0.206 F 
ATOM     71  C   UNL A   1      36.311  30.903  32.000  1.00  0.00     0.022 A 
BRANCH  68  72
ATOM     72  S   UNL A   1      35.476  32.497  29.870  1.00  0.00     0.124 S 
ATOM     73  O   UNL A   1      36.320  33.687  29.790  1.00  0.00    -0.237 OA
ATOM     74  O   UNL A   1      35.190  31.829  28.606  1.00  0.00    -0.237 OA
ATOM     75  O   UNL A   1      34.345  32.606  30.789  1.00  0.00    -0.744 OA
ENDBRANCH  68  72
ENDBRANCH  51  65
BRANCH  52  76
ATOM     76  C   UNL A   1      47.161  27.552  25.981  1.00  0.00     0.023 A 
ATOM     77  C   UNL A   1      47.282  27.816  24.609  1.00  0.00     0.031 A 
ATOM     78  C   UNL A   1      48.228  26.898  26.623  1.00  0.00     0.131 A 
ATOM     79  C   UNL A   1      48.425  27.392  23.912  1.00  0.00     0.055 A 
ATOM     80  C   UNL A   1      49.387  26.528  25.938  1.00  0.00     0.041 A 
ATOM     81  F   UNL A   1      48.162  26.618  27.936  1.00  0.00    -0.206 F 
ATOM     82  C   UNL A   1      49.484  26.764  24.571  1.00  0.00     0.022 A 
BRANCH  79  83
ATOM     83  S   UNL A   1      48.468  27.597  22.111  1.00  0.00     0.124 S 
ATOM     84  O   UNL A   1      49.593  28.512  21.944  1.00  0.00    -0.237 OA
ATOM     85  O   UNL A   1      48.683  26.229  21.653  1.00  0.00    -0.237 OA
ATOM     86  O   UNL A   1      47.156  28.159  21.799  1.00  0.00    -0.744 OA
ENDBRANCH  79  83
ENDBRANCH  52  76
BRANCH  64  87
ATOM     87  C   UNL A   1      45.058  33.380  29.177  1.00  0.00     0.023 A 
ATOM     88  C   UNL A   1      45.007  34.397  28.208  1.00  0.00     0.031 A 
ATOM     89  C   UNL A   1      45.760  33.636  30.369  1.00  0.00     0.131 A 
ATOM     90  C   UNL A   1      45.686  35.605  28.426  1.00  0.00     0.055 A 
ATOM     91  C   UNL A   1      46.384  34.862  30.605  1.00  0.00     0.041 A 
ATOM     92  F   UNL A   1      45.845  32.699  31.326  1.00  0.00    -0.206 F 
ATOM     93  C   UNL A   1      46.358  35.851  29.627  1.00  0.00     0.022 A 
BRANCH  90  94
ATOM     94  S   UNL A   1      45.747  36.827  27.087  1.00  0.00     0.124 S 
ATOM     95  O   UNL A   1      46.123  36.004  25.943  1.00  0.00    -0.237 OA
ATOM     96  O   UNL A   1      44.384  37.349  27.077  1.00  0.00    -0.237 OA
ATOM     97  O   UNL A   1      46.768  37.774  27.531  1.00  0.00    -0.744 OA
ENDBRANCH  90  94
ENDBRANCH  64  87
ENDBRANCH  38  39
ENDBRANCH  30  33
ENDBRANCH  28  29
ENDBRANCH  27  28
ENDBRANCH  26  27
ENDBRANCH   1  26
TORSDOF 21
ENDMDL
