MODEL 1
REMARK VINA RESULT:     -10.8      0.000      0.000
REMARK SMILES C[C@H]1[C@H](C(=O)NCCCCCCNC(=O)c2ccc(-c3c4nc(c(-c5cc(S(=O)(=O)[O-])ccc5F)c5ccc([nH]5)c(-c5cc(S(=O)(=O)[O-])ccc5F)c5nc(c(-c6cc(S(=O)(=O)[O-])ccc6F)c6ccc3[nH]6)C=C5)C=C4)cc2)CCN1C(=O)Cc1csc(N)n1
REMARK SMILES IDX 9 1 8 2 7 3 6 4 4 5 5 6 3 8 1 9 2 10 81 11 79 12 80 13 82 14
REMARK SMILES IDX 83 15 84 16 85 17 86 18 90 19 87 20 88 21 89 22 10 25 11 26
REMARK SMILES IDX 12 27 13 28 14 29 15 31 16 32 17 33 78 34 18 35 77 36 19 37
REMARK SMILES IDX 20 38 21 39 71 40 22 41 76 42 70 43 72 44 23 45 75 46 69 47
REMARK SMILES IDX 68 48 24 50 56 51 36 52 55 53 37 54 40 55 54 56 73 57 38 58
REMARK SMILES IDX 39 59 53 61 74 62 41 63 25 64 26 65 34 66 27 67 33 68 35 69
REMARK SMILES IDX 32 70 28 71 29 72 30 73 31 74 57 75 58 76 66 77 59 78 65 79
REMARK SMILES IDX 67 80 64 81 60 82 61 83 62 84 63 85 42 86 43 87 51 88 44 89
REMARK SMILES IDX 50 90 52 91 49 92 45 93 46 94 47 95 48 96
REMARK H PARENT 6 7 89 23 89 24 13 30 72 49 40 60
REMARK Flexibility Score: inf
ROOT
ATOM      1  C   UNL A   1      31.055  28.457  24.392  1.00  0.00     0.002 C 
ENDROOT
BRANCH   1   2
ATOM      2  C   UNL A   1      30.402  27.515  23.374  1.00  0.00     0.021 C 
BRANCH   2   3
ATOM      3  C   UNL A   1      31.366  26.967  22.325  1.00  0.00     0.116 C 
BRANCH   3   4
ATOM      4  N   UNL A   1      32.588  26.487  22.941  1.00  0.00    -0.356 N 
ATOM      5  C   UNL A   1      32.888  25.298  23.519  1.00  0.00     0.225 C 
ATOM      6  O   UNL A   1      34.006  25.184  24.030  1.00  0.00    -0.275 OA
ATOM      7  H   UNL A   1      33.328  27.136  22.937  1.00  0.00     0.163 HD
BRANCH   5   8
ATOM      8  C   UNL A   1      31.912  24.136  23.569  1.00  0.00     0.102 C 
ATOM      9  C   UNL A   1      32.136  21.966  22.341  1.00  0.00     0.032 C 
ATOM     10  C   UNL A   1      32.603  22.762  23.566  1.00  0.00     0.094 C 
ATOM     11  N   UNL A   1      32.159  22.114  24.800  1.00  0.00    -0.339 N 
ATOM     12  C   UNL A   1      30.957  24.148  24.766  1.00  0.00     0.037 C 
ATOM     13  C   UNL A   1      30.932  22.717  25.282  1.00  0.00     0.120 C 
BRANCH  11  14
ATOM     14  C   UNL A   1      32.715  21.036  25.468  1.00  0.00     0.228 C 
ATOM     15  O   UNL A   1      32.195  19.918  25.379  1.00  0.00    -0.274 OA
BRANCH  14  16
ATOM     16  C   UNL A   1      33.844  21.263  26.464  1.00  0.00     0.157 C 
BRANCH  16  17
ATOM     17  C   UNL A   1      35.204  21.455  25.883  1.00  0.00     0.063 A 
ATOM     18  C   UNL A   1      35.884  20.555  25.081  1.00  0.00     0.093 A 
ATOM     19  N   UNL A   1      35.870  22.656  26.076  1.00  0.00    -0.225 NA
ATOM     20  S   UNL A   1      37.403  21.197  24.627  1.00  0.00    -0.106 S 
ATOM     21  C   UNL A   1      37.028  22.646  25.464  1.00  0.00     0.180 A 
BRANCH  21  22
ATOM     22  N   UNL A   1      37.873  23.680  25.476  1.00  0.00    -0.375 N 
ATOM     23  H   UNL A   1      37.673  24.474  26.022  1.00  0.00     0.159 HD
ATOM     24  H   UNL A   1      38.698  23.648  24.939  1.00  0.00     0.159 HD
ENDBRANCH  21  22
ENDBRANCH  16  17
ENDBRANCH  14  16
ENDBRANCH  11  14
ENDBRANCH   5   8
ENDBRANCH   3   4
ENDBRANCH   2   3
ENDBRANCH   1   2
BRANCH   1  25
ATOM     25  C   UNL A   1      31.292  27.847  25.777  1.00  0.00     0.002 C 
BRANCH  25  26
ATOM     26  C   UNL A   1      31.874  28.807  26.816  1.00  0.00     0.021 C 
BRANCH  26  27
ATOM     27  C   UNL A   1      33.112  29.566  26.352  1.00  0.00     0.116 C 
BRANCH  27  28
ATOM     28  N   UNL A   1      33.021  30.986  26.649  1.00  0.00    -0.352 N 
ATOM     29  C   UNL A   1      33.801  31.748  27.481  1.00  0.00     0.251 C 
ATOM     30  H   UNL A   1      32.297  31.468  26.188  1.00  0.00     0.163 HD
ATOM     31  O   UNL A   1      33.438  32.883  27.784  1.00  0.00    -0.269 OA
BRANCH  29  32
ATOM     32  C   UNL A   1      35.057  31.191  28.026  1.00  0.00     0.039 A 
ATOM     33  C   UNL A   1      36.197  31.996  28.055  1.00  0.00     0.014 A 
ATOM     34  C   UNL A   1      35.108  29.881  28.511  1.00  0.00     0.014 A 
ATOM     35  C   UNL A   1      37.374  31.505  28.626  1.00  0.00     0.010 A 
ATOM     36  C   UNL A   1      36.256  29.423  29.149  1.00  0.00     0.010 A 
ATOM     37  C   UNL A   1      37.404  30.228  29.210  1.00  0.00    -0.014 A 
BRANCH  37  38
ATOM     38  C   UNL A   1      38.627  29.721  29.886  1.00  0.00     0.031 A 
ATOM     39  C   UNL A   1      39.015  30.247  31.241  1.00  0.00     0.074 A 
ATOM     40  C   UNL A   1      39.413  28.826  29.257  1.00  0.00     0.049 A 
ATOM     41  N   UNL A   1      40.070  29.973  31.965  1.00  0.00    -0.248 NA
ATOM     42  C   UNL A   1      38.108  31.233  31.850  1.00  0.00     0.031 C 
ATOM     43  C   UNL A   1      39.160  28.268  27.926  1.00  0.00     0.029 A 
ATOM     44  N   UNL A   1      40.585  28.227  29.646  1.00  0.00    -0.354 N 
ATOM     45  C   UNL A   1      39.959  30.756  33.110  1.00  0.00     0.074 A 
ATOM     46  C   UNL A   1      38.769  31.564  32.949  1.00  0.00     0.031 C 
ATOM     47  C   UNL A   1      40.128  27.388  27.626  1.00  0.00     0.029 A 
ATOM     48  C   UNL A   1      41.100  27.356  28.713  1.00  0.00     0.049 A 
ATOM     49  H   UNL A   1      41.018  28.405  30.513  1.00  0.00     0.167 HD
ATOM     50  C   UNL A   1      40.761  30.779  34.204  1.00  0.00     0.034 A 
ATOM     51  C   UNL A   1      42.233  26.626  28.726  1.00  0.00     0.034 A 
ATOM     52  C   UNL A   1      41.942  29.963  34.346  1.00  0.00     0.049 A 
ATOM     53  C   UNL A   1      43.135  26.705  29.932  1.00  0.00     0.074 A 
ATOM     54  C   UNL A   1      42.800  29.870  35.430  1.00  0.00     0.029 A 
ATOM     55  N   UNL A   1      42.445  29.109  33.372  1.00  0.00    -0.354 N 
ATOM     56  N   UNL A   1      42.988  27.411  31.030  1.00  0.00    -0.248 NA
ATOM     57  C   UNL A   1      44.352  25.884  29.903  1.00  0.00     0.031 C 
ATOM     58  C   UNL A   1      43.860  29.027  35.081  1.00  0.00     0.029 A 
ATOM     59  C   UNL A   1      43.620  28.518  33.814  1.00  0.00     0.049 A 
ATOM     60  H   UNL A   1      42.028  28.946  32.495  1.00  0.00     0.167 HD
ATOM     61  C   UNL A   1      44.080  27.092  31.835  1.00  0.00     0.074 A 
ATOM     62  C   UNL A   1      44.862  26.119  31.102  1.00  0.00     0.031 C 
ATOM     63  C   UNL A   1      44.402  27.559  33.068  1.00  0.00     0.034 A 
BRANCH  50  64
ATOM     64  C   UNL A   1      40.397  31.738  35.313  1.00  0.00     0.023 A 
ATOM     65  C   UNL A   1      39.448  31.405  36.297  1.00  0.00     0.031 A 
ATOM     66  C   UNL A   1      40.984  33.015  35.375  1.00  0.00     0.131 A 
ATOM     67  C   UNL A   1      39.057  32.361  37.247  1.00  0.00     0.055 A 
ATOM     68  C   UNL A   1      40.656  33.929  36.378  1.00  0.00     0.041 A 
ATOM     69  F   UNL A   1      41.879  33.402  34.453  1.00  0.00    -0.206 F 
ATOM     70  C   UNL A   1      39.675  33.611  37.312  1.00  0.00     0.022 A 
BRANCH  67  71
ATOM     71  S   UNL A   1      37.619  32.002  38.292  1.00  0.00     0.124 S 
ATOM     72  O   UNL A   1      37.245  30.667  37.831  1.00  0.00    -0.237 OA
ATOM     73  O   UNL A   1      38.178  32.081  39.637  1.00  0.00    -0.237 OA
ATOM     74  O   UNL A   1      36.671  33.059  37.946  1.00  0.00    -0.744 OA
ENDBRANCH  67  71
ENDBRANCH  50  64
BRANCH  51  75
ATOM     75  C   UNL A   1      42.592  25.767  27.560  1.00  0.00     0.023 A 
ATOM     76  C   UNL A   1      42.078  24.467  27.432  1.00  0.00     0.031 A 
ATOM     77  C   UNL A   1      43.494  26.217  26.579  1.00  0.00     0.131 A 
ATOM     78  C   UNL A   1      42.505  23.645  26.378  1.00  0.00     0.055 A 
ATOM     79  C   UNL A   1      43.869  25.416  25.498  1.00  0.00     0.041 A 
ATOM     80  F   UNL A   1      44.016  27.451  26.650  1.00  0.00    -0.206 F 
ATOM     81  C   UNL A   1      43.384  24.116  25.402  1.00  0.00     0.022 A 
BRANCH  78  82
ATOM     82  S   UNL A   1      41.965  21.913  26.354  1.00  0.00     0.124 S 
ATOM     83  O   UNL A   1      42.742  21.375  25.243  1.00  0.00    -0.237 OA
ATOM     84  O   UNL A   1      42.349  21.458  27.687  1.00  0.00    -0.237 OA
ATOM     85  O   UNL A   1      40.526  22.009  26.121  1.00  0.00    -0.744 OA
ENDBRANCH  78  82
ENDBRANCH  51  75
BRANCH  63  86
ATOM     86  C   UNL A   1      45.638  26.984  33.719  1.00  0.00     0.023 A 
ATOM     87  C   UNL A   1      45.587  25.832  34.522  1.00  0.00     0.031 A 
ATOM     88  C   UNL A   1      46.886  27.609  33.540  1.00  0.00     0.131 A 
ATOM     89  C   UNL A   1      46.748  25.373  35.163  1.00  0.00     0.055 A 
ATOM     90  C   UNL A   1      48.051  27.107  34.123  1.00  0.00     0.041 A 
ATOM     91  F   UNL A   1      46.996  28.716  32.789  1.00  0.00    -0.206 F 
ATOM     92  C   UNL A   1      47.983  25.991  34.952  1.00  0.00     0.022 A 
BRANCH  89  93
ATOM     93  S   UNL A   1      46.606  24.017  36.359  1.00  0.00     0.124 S 
ATOM     94  O   UNL A   1      47.705  24.305  37.274  1.00  0.00    -0.237 OA
ATOM     95  O   UNL A   1      45.263  24.212  36.894  1.00  0.00    -0.237 OA
ATOM     96  O   UNL A   1      46.779  22.818  35.540  1.00  0.00    -0.744 OA
ENDBRANCH  89  93
ENDBRANCH  63  86
ENDBRANCH  37  38
ENDBRANCH  29  32
ENDBRANCH  27  28
ENDBRANCH  26  27
ENDBRANCH  25  26
ENDBRANCH   1  25
TORSDOF 20
ENDMDL
MODEL 2
REMARK VINA RESULT:     -10.7      2.384      2.994
REMARK SMILES C[C@H]1[C@H](C(=O)NCCCCCCNC(=O)c2ccc(-c3c4nc(c(-c5cc(S(=O)(=O)[O-])ccc5F)c5ccc([nH]5)c(-c5cc(S(=O)(=O)[O-])ccc5F)c5nc(c(-c6cc(S(=O)(=O)[O-])ccc6F)c6ccc3[nH]6)C=C5)C=C4)cc2)CCN1C(=O)Cc1csc(N)n1
REMARK SMILES IDX 9 1 8 2 7 3 6 4 4 5 5 6 3 8 1 9 2 10 81 11 79 12 80 13 82 14
REMARK SMILES IDX 83 15 84 16 85 17 86 18 90 19 87 20 88 21 89 22 10 25 11 26
REMARK SMILES IDX 12 27 13 28 14 29 15 31 16 32 17 33 78 34 18 35 77 36 19 37
REMARK SMILES IDX 20 38 21 39 71 40 22 41 76 42 70 43 72 44 23 45 75 46 69 47
REMARK SMILES IDX 68 48 24 50 56 51 36 52 55 53 37 54 40 55 54 56 73 57 38 58
REMARK SMILES IDX 39 59 53 61 74 62 41 63 25 64 26 65 34 66 27 67 33 68 35 69
REMARK SMILES IDX 32 70 28 71 29 72 30 73 31 74 57 75 58 76 66 77 59 78 65 79
REMARK SMILES IDX 67 80 64 81 60 82 61 83 62 84 63 85 42 86 43 87 51 88 44 89
REMARK SMILES IDX 50 90 52 91 49 92 45 93 46 94 47 95 48 96
REMARK H PARENT 6 7 89 23 89 24 13 30 72 49 40 60
REMARK Flexibility Score: inf
ROOT
ATOM      1  C   UNL A   1      33.521  27.227  25.572  1.00  0.00     0.002 C 
ENDROOT
BRANCH   1   2
ATOM      2  C   UNL A   1      33.237  27.466  24.085  1.00  0.00     0.021 C 
BRANCH   2   3
ATOM      3  C   UNL A   1      32.035  26.693  23.549  1.00  0.00     0.116 C 
BRANCH   3   4
ATOM      4  N   UNL A   1      32.418  25.836  22.444  1.00  0.00    -0.356 N 
ATOM      5  C   UNL A   1      33.115  24.674  22.415  1.00  0.00     0.225 C 
ATOM      6  O   UNL A   1      33.356  24.185  21.307  1.00  0.00    -0.275 OA
ATOM      7  H   UNL A   1      32.119  26.152  21.560  1.00  0.00     0.163 HD
BRANCH   5   8
ATOM      8  C   UNL A   1      33.608  23.978  23.672  1.00  0.00     0.102 C 
ATOM      9  C   UNL A   1      32.300  23.632  25.778  1.00  0.00     0.032 C 
ATOM     10  C   UNL A   1      32.530  23.117  24.352  1.00  0.00     0.094 C 
ATOM     11  N   UNL A   1      33.088  21.766  24.378  1.00  0.00    -0.339 N 
ATOM     12  C   UNL A   1      34.832  23.079  23.473  1.00  0.00     0.037 C 
ATOM     13  C   UNL A   1      34.531  21.805  24.248  1.00  0.00     0.120 C 
BRANCH  11  14
ATOM     14  C   UNL A   1      32.437  20.556  24.556  1.00  0.00     0.228 C 
ATOM     15  O   UNL A   1      31.803  20.342  25.595  1.00  0.00    -0.274 OA
BRANCH  14  16
ATOM     16  C   UNL A   1      32.664  19.422  23.566  1.00  0.00     0.157 C 
BRANCH  16  17
ATOM     17  C   UNL A   1      33.132  18.129  24.144  1.00  0.00     0.063 A 
ATOM     18  C   UNL A   1      34.447  17.769  24.383  1.00  0.00     0.093 A 
ATOM     19  N   UNL A   1      32.203  17.187  24.561  1.00  0.00    -0.225 NA
ATOM     20  S   UNL A   1      34.516  16.205  25.071  1.00  0.00    -0.106 S 
ATOM     21  C   UNL A   1      32.802  16.140  25.068  1.00  0.00     0.180 A 
BRANCH  21  22
ATOM     22  N   UNL A   1      32.146  15.084  25.557  1.00  0.00    -0.375 N 
ATOM     23  H   UNL A   1      32.207  14.212  25.103  1.00  0.00     0.159 HD
ATOM     24  H   UNL A   1      31.602  15.177  26.372  1.00  0.00     0.159 HD
ENDBRANCH  21  22
ENDBRANCH  16  17
ENDBRANCH  14  16
ENDBRANCH  11  14
ENDBRANCH   5   8
ENDBRANCH   3   4
ENDBRANCH   2   3
ENDBRANCH   1   2
BRANCH   1  25
ATOM     25  C   UNL A   1      32.407  27.678  26.522  1.00  0.00     0.002 C 
BRANCH  25  26
ATOM     26  C   UNL A   1      32.330  29.188  26.758  1.00  0.00     0.021 C 
BRANCH  26  27
ATOM     27  C   UNL A   1      33.668  29.911  26.669  1.00  0.00     0.116 C 
BRANCH  27  28
ATOM     28  N   UNL A   1      33.613  31.230  27.278  1.00  0.00    -0.352 N 
ATOM     29  C   UNL A   1      34.426  31.774  28.239  1.00  0.00     0.251 C 
ATOM     30  H   UNL A   1      32.890  31.815  26.955  1.00  0.00     0.163 HD
ATOM     31  O   UNL A   1      34.094  32.818  28.798  1.00  0.00    -0.269 OA
BRANCH  29  32
ATOM     32  C   UNL A   1      35.682  31.090  28.613  1.00  0.00     0.039 A 
ATOM     33  C   UNL A   1      36.901  31.711  28.337  1.00  0.00     0.014 A 
ATOM     34  C   UNL A   1      35.656  29.840  29.241  1.00  0.00     0.014 A 
ATOM     35  C   UNL A   1      38.092  31.107  28.742  1.00  0.00     0.010 A 
ATOM     36  C   UNL A   1      36.838  29.279  29.714  1.00  0.00     0.010 A 
ATOM     37  C   UNL A   1      38.070  29.903  29.466  1.00  0.00    -0.014 A 
BRANCH  37  38
ATOM     38  C   UNL A   1      39.325  29.286  29.969  1.00  0.00     0.031 A 
ATOM     39  C   UNL A   1      40.023  29.862  31.171  1.00  0.00     0.074 A 
ATOM     40  C   UNL A   1      39.863  28.239  29.311  1.00  0.00     0.049 A 
ATOM     41  N   UNL A   1      41.152  29.502  31.725  1.00  0.00    -0.248 NA
ATOM     42  C   UNL A   1      39.376  31.013  31.820  1.00  0.00     0.031 C 
ATOM     43  C   UNL A   1      39.297  27.615  28.113  1.00  0.00     0.029 A 
ATOM     44  N   UNL A   1      41.003  27.515  29.552  1.00  0.00    -0.354 N 
ATOM     45  C   UNL A   1      41.356  30.385  32.780  1.00  0.00     0.074 A 
ATOM     46  C   UNL A   1      40.267  31.337  32.744  1.00  0.00     0.031 C 
ATOM     47  C   UNL A   1      40.074  26.585  27.745  1.00  0.00     0.029 A 
ATOM     48  C   UNL A   1      41.222  26.506  28.642  1.00  0.00     0.049 A 
ATOM     49  H   UNL A   1      41.609  27.700  30.306  1.00  0.00     0.167 HD
ATOM     50  C   UNL A   1      42.346  30.384  33.708  1.00  0.00     0.034 A 
ATOM     51  C   UNL A   1      42.237  25.626  28.535  1.00  0.00     0.034 A 
ATOM     52  C   UNL A   1      43.422  29.424  33.729  1.00  0.00     0.049 A 
ATOM     53  C   UNL A   1      43.352  25.676  29.549  1.00  0.00     0.074 A 
ATOM     54  C   UNL A   1      44.449  29.300  34.650  1.00  0.00     0.029 A 
ATOM     55  N   UNL A   1      43.624  28.429  32.779  1.00  0.00    -0.354 N 
ATOM     56  N   UNL A   1      43.502  26.484  30.574  1.00  0.00    -0.248 NA
ATOM     57  C   UNL A   1      44.431  24.691  29.396  1.00  0.00     0.031 C 
ATOM     58  C   UNL A   1      45.312  28.290  34.213  1.00  0.00     0.029 A 
ATOM     59  C   UNL A   1      44.778  27.717  33.070  1.00  0.00     0.049 A 
ATOM     60  H   UNL A   1      43.032  28.255  32.011  1.00  0.00     0.167 HD
ATOM     61  C   UNL A   1      44.678  26.081  31.205  1.00  0.00     0.074 A 
ATOM     62  C   UNL A   1      45.182  24.950  30.456  1.00  0.00     0.031 C 
ATOM     63  C   UNL A   1      45.281  26.598  32.306  1.00  0.00     0.034 A 
BRANCH  50  64
ATOM     64  C   UNL A   1      42.318  31.474  34.755  1.00  0.00     0.023 A 
ATOM     65  C   UNL A   1      41.354  31.492  35.779  1.00  0.00     0.031 A 
ATOM     66  C   UNL A   1      43.251  32.526  34.716  1.00  0.00     0.131 A 
ATOM     67  C   UNL A   1      41.293  32.576  36.667  1.00  0.00     0.055 A 
ATOM     68  C   UNL A   1      43.241  33.556  35.658  1.00  0.00     0.041 A 
ATOM     69  F   UNL A   1      44.182  32.579  33.751  1.00  0.00    -0.206 F 
ATOM     70  C   UNL A   1      42.247  33.594  36.632  1.00  0.00     0.022 A 
BRANCH  67  71
ATOM     71  S   UNL A   1      39.854  32.715  37.763  1.00  0.00     0.124 S 
ATOM     72  O   UNL A   1      39.396  34.073  37.477  1.00  0.00    -0.237 OA
ATOM     73  O   UNL A   1      38.993  31.637  37.292  1.00  0.00    -0.237 OA
ATOM     74  O   UNL A   1      40.420  32.525  39.097  1.00  0.00    -0.744 OA
ENDBRANCH  67  71
ENDBRANCH  50  64
BRANCH  51  75
ATOM     75  C   UNL A   1      42.262  24.631  27.424  1.00  0.00     0.023 A 
ATOM     76  C   UNL A   1      41.514  23.446  27.495  1.00  0.00     0.031 A 
ATOM     77  C   UNL A   1      43.073  24.829  26.291  1.00  0.00     0.131 A 
ATOM     78  C   UNL A   1      41.627  22.483  26.480  1.00  0.00     0.055 A 
ATOM     79  C   UNL A   1      43.136  23.895  25.255  1.00  0.00     0.041 A 
ATOM     80  F   UNL A   1      43.809  25.945  26.168  1.00  0.00    -0.206 F 
ATOM     81  C   UNL A   1      42.421  22.706  25.354  1.00  0.00     0.022 A 
BRANCH  78  82
ATOM     82  S   UNL A   1      40.794  20.887  26.701  1.00  0.00     0.124 S 
ATOM     83  O   UNL A   1      39.494  21.143  26.090  1.00  0.00    -0.237 OA
ATOM     84  O   UNL A   1      41.677  19.980  25.976  1.00  0.00    -0.237 OA
ATOM     85  O   UNL A   1      40.778  20.710  28.152  1.00  0.00    -0.744 OA
ENDBRANCH  78  82
ENDBRANCH  51  75
BRANCH  63  86
ATOM     86  C   UNL A   1      46.536  25.910  32.789  1.00  0.00     0.023 A 
ATOM     87  C   UNL A   1      47.796  26.187  32.233  1.00  0.00     0.031 A 
ATOM     88  C   UNL A   1      46.465  24.952  33.817  1.00  0.00     0.131 A 
ATOM     89  C   UNL A   1      48.924  25.473  32.665  1.00  0.00     0.055 A 
ATOM     90  C   UNL A   1      47.601  24.296  34.292  1.00  0.00     0.041 A 
ATOM     91  F   UNL A   1      45.287  24.642  34.383  1.00  0.00    -0.206 F 
ATOM     92  C   UNL A   1      48.838  24.544  33.705  1.00  0.00     0.022 A 
BRANCH  89  93
ATOM     93  S   UNL A   1      50.491  25.699  31.780  1.00  0.00     0.124 S 
ATOM     94  O   UNL A   1      50.615  24.438  31.058  1.00  0.00    -0.237 OA
ATOM     95  O   UNL A   1      50.221  26.878  30.963  1.00  0.00    -0.237 OA
ATOM     96  O   UNL A   1      51.465  25.898  32.852  1.00  0.00    -0.744 OA
ENDBRANCH  89  93
ENDBRANCH  63  86
ENDBRANCH  37  38
ENDBRANCH  29  32
ENDBRANCH  27  28
ENDBRANCH  26  27
ENDBRANCH  25  26
ENDBRANCH   1  25
TORSDOF 20
ENDMDL
MODEL 3
REMARK VINA RESULT:     -10.7      5.801     10.580
REMARK SMILES C[C@H]1[C@H](C(=O)NCCCCCCNC(=O)c2ccc(-c3c4nc(c(-c5cc(S(=O)(=O)[O-])ccc5F)c5ccc([nH]5)c(-c5cc(S(=O)(=O)[O-])ccc5F)c5nc(c(-c6cc(S(=O)(=O)[O-])ccc6F)c6ccc3[nH]6)C=C5)C=C4)cc2)CCN1C(=O)Cc1csc(N)n1
REMARK SMILES IDX 9 1 8 2 7 3 6 4 4 5 5 6 3 8 1 9 2 10 81 11 79 12 80 13 82 14
REMARK SMILES IDX 83 15 84 16 85 17 86 18 90 19 87 20 88 21 89 22 10 25 11 26
REMARK SMILES IDX 12 27 13 28 14 29 15 31 16 32 17 33 78 34 18 35 77 36 19 37
REMARK SMILES IDX 20 38 21 39 71 40 22 41 76 42 70 43 72 44 23 45 75 46 69 47
REMARK SMILES IDX 68 48 24 50 56 51 36 52 55 53 37 54 40 55 54 56 73 57 38 58
REMARK SMILES IDX 39 59 53 61 74 62 41 63 25 64 26 65 34 66 27 67 33 68 35 69
REMARK SMILES IDX 32 70 28 71 29 72 30 73 31 74 57 75 58 76 66 77 59 78 65 79
REMARK SMILES IDX 67 80 64 81 60 82 61 83 62 84 63 85 42 86 43 87 51 88 44 89
REMARK SMILES IDX 50 90 52 91 49 92 45 93 46 94 47 95 48 96
REMARK H PARENT 6 7 89 23 89 24 13 30 72 49 40 60
REMARK Flexibility Score: inf
ROOT
ATOM      1  C   UNL A   1      40.134  22.594  26.908  1.00  0.00     0.002 C 
ENDROOT
BRANCH   1   2
ATOM      2  C   UNL A   1      39.376  23.798  27.477  1.00  0.00     0.021 C 
BRANCH   2   3
ATOM      3  C   UNL A   1      38.388  24.430  26.500  1.00  0.00     0.116 C 
BRANCH   3   4
ATOM      4  N   UNL A   1      37.969  23.476  25.493  1.00  0.00    -0.356 N 
ATOM      5  C   UNL A   1      36.740  23.173  25.006  1.00  0.00     0.225 C 
ATOM      6  O   UNL A   1      36.668  22.255  24.183  1.00  0.00    -0.275 OA
ATOM      7  H   UNL A   1      38.704  22.959  25.090  1.00  0.00     0.163 HD
BRANCH   5   8
ATOM      8  C   UNL A   1      35.480  23.900  25.441  1.00  0.00     0.102 C 
ATOM      9  C   UNL A   1      34.064  25.387  24.008  1.00  0.00     0.032 C 
ATOM     10  C   UNL A   1      34.391  23.929  24.355  1.00  0.00     0.094 C 
ATOM     11  N   UNL A   1      33.233  23.275  24.964  1.00  0.00    -0.339 N 
ATOM     12  C   UNL A   1      34.824  23.350  26.710  1.00  0.00     0.037 C 
ATOM     13  C   UNL A   1      33.333  23.300  26.410  1.00  0.00     0.120 C 
BRANCH  11  14
ATOM     14  C   UNL A   1      32.117  22.729  24.352  1.00  0.00     0.228 C 
ATOM     15  O   UNL A   1      30.988  22.980  24.787  1.00  0.00    -0.274 OA
BRANCH  14  16
ATOM     16  C   UNL A   1      32.289  21.669  23.272  1.00  0.00     0.157 C 
BRANCH  16  17
ATOM     17  C   UNL A   1      32.391  20.259  23.746  1.00  0.00     0.063 A 
ATOM     18  C   UNL A   1      32.446  19.130  22.948  1.00  0.00     0.093 A 
ATOM     19  N   UNL A   1      32.512  19.998  25.103  1.00  0.00    -0.225 NA
ATOM     20  S   UNL A   1      32.579  17.726  23.916  1.00  0.00    -0.106 S 
ATOM     21  C   UNL A   1      32.622  18.712  25.320  1.00  0.00     0.180 A 
BRANCH  21  22
ATOM     22  N   UNL A   1      32.762  18.181  26.537  1.00  0.00    -0.375 N 
ATOM     23  H   UNL A   1      32.425  18.664  27.327  1.00  0.00     0.159 HD
ATOM     24  H   UNL A   1      33.202  17.307  26.645  1.00  0.00     0.159 HD
ENDBRANCH  21  22
ENDBRANCH  16  17
ENDBRANCH  14  16
ENDBRANCH  11  14
ENDBRANCH   5   8
ENDBRANCH   3   4
ENDBRANCH   2   3
ENDBRANCH   1   2
BRANCH   1  25
ATOM     25  C   UNL A   1      41.039  21.870  27.910  1.00  0.00     0.002 C 
BRANCH  25  26
ATOM     26  C   UNL A   1      41.555  20.506  27.446  1.00  0.00     0.021 C 
BRANCH  26  27
ATOM     27  C   UNL A   1      41.541  20.305  25.935  1.00  0.00     0.116 C 
BRANCH  27  28
ATOM     28  N   UNL A   1      42.761  19.670  25.462  1.00  0.00    -0.352 N 
ATOM     29  C   UNL A   1      43.973  20.239  25.164  1.00  0.00     0.251 C 
ATOM     30  H   UNL A   1      42.708  18.695  25.337  1.00  0.00     0.163 HD
ATOM     31  O   UNL A   1      44.821  19.583  24.562  1.00  0.00    -0.269 OA
BRANCH  29  32
ATOM     32  C   UNL A   1      44.242  21.640  25.548  1.00  0.00     0.039 A 
ATOM     33  C   UNL A   1      43.908  22.662  24.658  1.00  0.00     0.014 A 
ATOM     34  C   UNL A   1      44.816  21.945  26.786  1.00  0.00     0.014 A 
ATOM     35  C   UNL A   1      44.097  23.994  25.033  1.00  0.00     0.010 A 
ATOM     36  C   UNL A   1      44.929  23.273  27.189  1.00  0.00     0.010 A 
ATOM     37  C   UNL A   1      44.575  24.312  26.315  1.00  0.00    -0.014 A 
BRANCH  37  38
ATOM     38  C   UNL A   1      44.710  25.726  26.755  1.00  0.00     0.031 A 
ATOM     39  C   UNL A   1      46.051  26.405  26.713  1.00  0.00     0.074 A 
ATOM     40  C   UNL A   1      43.635  26.379  27.240  1.00  0.00     0.049 A 
ATOM     41  N   UNL A   1      46.383  27.609  27.106  1.00  0.00    -0.248 NA
ATOM     42  C   UNL A   1      47.175  25.616  26.184  1.00  0.00     0.031 C 
ATOM     43  C   UNL A   1      42.289  25.813  27.363  1.00  0.00     0.029 A 
ATOM     44  N   UNL A   1      43.500  27.656  27.722  1.00  0.00    -0.354 N 
ATOM     45  C   UNL A   1      47.751  27.719  26.879  1.00  0.00     0.074 A 
ATOM     46  C   UNL A   1      48.196  26.436  26.378  1.00  0.00     0.031 C 
ATOM     47  C   UNL A   1      41.463  26.748  27.855  1.00  0.00     0.029 A 
ATOM     48  C   UNL A   1      42.224  27.961  28.136  1.00  0.00     0.049 A 
ATOM     49  H   UNL A   1      44.248  28.295  27.769  1.00  0.00     0.167 HD
ATOM     50  C   UNL A   1      48.555  28.799  27.048  1.00  0.00     0.034 A 
ATOM     51  C   UNL A   1      41.726  29.084  28.691  1.00  0.00     0.034 A 
ATOM     52  C   UNL A   1      48.092  30.071  27.546  1.00  0.00     0.049 A 
ATOM     53  C   UNL A   1      42.650  30.255  28.915  1.00  0.00     0.074 A 
ATOM     54  C   UNL A   1      48.808  31.245  27.711  1.00  0.00     0.029 A 
ATOM     55  N   UNL A   1      46.797  30.337  27.975  1.00  0.00    -0.354 N 
ATOM     56  N   UNL A   1      43.931  30.361  28.645  1.00  0.00    -0.248 NA
ATOM     57  C   UNL A   1      42.059  31.459  29.513  1.00  0.00     0.031 C 
ATOM     58  C   UNL A   1      47.972  32.190  28.313  1.00  0.00     0.029 A 
ATOM     59  C   UNL A   1      46.706  31.641  28.441  1.00  0.00     0.049 A 
ATOM     60  H   UNL A   1      46.052  29.693  27.952  1.00  0.00     0.167 HD
ATOM     61  C   UNL A   1      44.290  31.656  29.012  1.00  0.00     0.074 A 
ATOM     62  C   UNL A   1      43.087  32.294  29.503  1.00  0.00     0.031 C 
ATOM     63  C   UNL A   1      45.503  32.263  28.944  1.00  0.00     0.034 A 
BRANCH  50  64
ATOM     64  C   UNL A   1      50.020  28.633  26.716  1.00  0.00     0.023 A 
ATOM     65  C   UNL A   1      50.525  28.913  25.433  1.00  0.00     0.031 A 
ATOM     66  C   UNL A   1      50.924  28.164  27.687  1.00  0.00     0.131 A 
ATOM     67  C   UNL A   1      51.869  28.644  25.133  1.00  0.00     0.055 A 
ATOM     68  C   UNL A   1      52.280  27.985  27.407  1.00  0.00     0.041 A 
ATOM     69  F   UNL A   1      50.501  27.858  28.924  1.00  0.00    -0.206 F 
ATOM     70  C   UNL A   1      52.756  28.209  26.118  1.00  0.00     0.022 A 
BRANCH  67  71
ATOM     71  S   UNL A   1      52.399  28.719  23.400  1.00  0.00     0.124 S 
ATOM     72  O   UNL A   1      52.128  27.356  22.949  1.00  0.00    -0.237 OA
ATOM     73  O   UNL A   1      51.535  29.757  22.851  1.00  0.00    -0.237 OA
ATOM     74  O   UNL A   1      53.815  29.067  23.489  1.00  0.00    -0.744 OA
ENDBRANCH  67  71
ENDBRANCH  50  64
BRANCH  51  75
ATOM     75  C   UNL A   1      40.290  29.160  29.087  1.00  0.00     0.023 A 
ATOM     76  C   UNL A   1      39.904  29.073  30.434  1.00  0.00     0.031 A 
ATOM     77  C   UNL A   1      39.275  29.274  28.119  1.00  0.00     0.131 A 
ATOM     78  C   UNL A   1      38.542  29.052  30.773  1.00  0.00     0.055 A 
ATOM     79  C   UNL A   1      37.924  29.312  28.466  1.00  0.00     0.041 A 
ATOM     80  F   UNL A   1      39.586  29.362  26.816  1.00  0.00    -0.206 F 
ATOM     81  C   UNL A   1      37.550  29.186  29.800  1.00  0.00     0.022 A 
BRANCH  78  82
ATOM     82  S   UNL A   1      38.083  28.748  32.501  1.00  0.00     0.124 S 
ATOM     83  O   UNL A   1      39.080  29.535  33.217  1.00  0.00    -0.237 OA
ATOM     84  O   UNL A   1      36.714  29.252  32.545  1.00  0.00    -0.237 OA
ATOM     85  O   UNL A   1      38.215  27.299  32.638  1.00  0.00    -0.744 OA
ENDBRANCH  78  82
ENDBRANCH  51  75
BRANCH  63  86
ATOM     86  C   UNL A   1      45.573  33.709  29.375  1.00  0.00     0.023 A 
ATOM     87  C   UNL A   1      45.353  34.765  28.473  1.00  0.00     0.031 A 
ATOM     88  C   UNL A   1      45.875  34.034  30.710  1.00  0.00     0.131 A 
ATOM     89  C   UNL A   1      45.496  36.093  28.902  1.00  0.00     0.055 A 
ATOM     90  C   UNL A   1      45.948  35.358  31.147  1.00  0.00     0.041 A 
ATOM     91  F   UNL A   1      46.101  33.069  31.615  1.00  0.00    -0.206 F 
ATOM     92  C   UNL A   1      45.772  36.396  30.238  1.00  0.00     0.022 A 
BRANCH  89  93
ATOM     93  S   UNL A   1      45.419  37.421  27.669  1.00  0.00     0.124 S 
ATOM     94  O   UNL A   1      43.992  37.476  27.374  1.00  0.00    -0.237 OA
ATOM     95  O   UNL A   1      45.964  38.560  28.401  1.00  0.00    -0.237 OA
ATOM     96  O   UNL A   1      46.259  36.926  26.579  1.00  0.00    -0.744 OA
ENDBRANCH  89  93
ENDBRANCH  63  86
ENDBRANCH  37  38
ENDBRANCH  29  32
ENDBRANCH  27  28
ENDBRANCH  26  27
ENDBRANCH  25  26
ENDBRANCH   1  25
TORSDOF 20
ENDMDL
