MODEL 1
REMARK VINA RESULT:     -12.0      0.000      0.000
REMARK SMILES COc1ccccc1[C@@H]1C[N@@H+](Cc2cc3c(cc2C)OCO3)C[C@H]1C(=O)NCCCCCCNC(=O)c1ccc(-c2c3nc(c(-c4cc(S(=O)(=O)[O-])ccc4F)c4ccc([nH]4)c(-c4cc(S(=O)(=O)[O-])ccc4F)c4nc(c(-c5cc(S(=O)(=O)[O-])ccc5F)c5ccc2[nH]5)C=C4)C=C3)cc1
REMARK SMILES IDX 31 1 30 2 29 3 28 4 27 5 25 6 26 7 24 9 9 10 10 11 11 12
REMARK SMILES IDX 23 13 8 15 3 16 4 17 5 18 7 19 6 20 2 21 1 22 12 23 13 24
REMARK SMILES IDX 14 25 18 26 15 27 17 28 19 29 16 30 22 31 20 32 21 33 32 34
REMARK SMILES IDX 33 35 34 36 35 37 36 39 37 40 38 41 99 42 39 43 98 44 40 45
REMARK SMILES IDX 41 46 42 47 92 48 43 49 97 50 91 51 93 52 44 53 96 54 90 55
REMARK SMILES IDX 89 56 45 58 77 59 57 60 76 61 58 62 61 63 75 64 94 65 59 66
REMARK SMILES IDX 60 67 74 69 95 70 62 71 46 72 47 73 55 74 48 75 54 76 56 77
REMARK SMILES IDX 53 78 49 79 50 80 51 81 52 82 78 83 79 84 87 85 80 86 86 87
REMARK SMILES IDX 88 88 85 89 81 90 82 91 83 92 84 93 63 94 64 95 72 96 65 97
REMARK SMILES IDX 71 98 73 99 70 100 66 101 67 102 68 103 69 104
REMARK H PARENT 27 8 11 14 34 38 93 57 61 68
REMARK Flexibility Score: inf
ROOT
ATOM      1  C   UNL A   1      41.005  21.225  27.856  1.00  0.00     0.002 C 
ENDROOT
BRANCH   1   2
ATOM      2  C   UNL A   1      40.688  22.365  26.874  1.00  0.00     0.002 C 
BRANCH   2   3
ATOM      3  C   UNL A   1      39.224  22.605  26.489  1.00  0.00     0.021 C 
BRANCH   3   4
ATOM      4  C   UNL A   1      38.453  21.823  25.368  1.00  0.00     0.116 C 
BRANCH   4   5
ATOM      5  N   UNL A   1      37.312  22.555  24.565  1.00  0.00    -0.356 N 
ATOM      6  C   UNL A   1      36.103  23.181  24.424  1.00  0.00     0.229 C 
ATOM      7  O   UNL A   1      36.051  23.609  23.240  1.00  0.00    -0.275 OA
ATOM      8  H   UNL A   1      37.670  22.570  23.649  1.00  0.00     0.163 HD
BRANCH   6   9
ATOM      9  C   UNL A   1      34.732  23.526  25.247  1.00  0.00     0.146 C 
ATOM     10  C   UNL A   1      33.531  24.269  24.553  1.00  0.00     0.096 C 
ATOM     11  C   UNL A   1      32.285  23.995  25.428  1.00  0.00     0.272 C 
ATOM     12  N   UNL A   1      32.517  22.716  26.104  1.00  0.00    -0.330 N 
ATOM     13  C   UNL A   1      33.990  22.662  26.309  1.00  0.00     0.276 C 
ATOM     14  H   UNL A   1      32.107  22.620  27.033  1.00  0.00     0.348 HD
BRANCH  10  15
ATOM     15  C   UNL A   1      33.509  25.708  24.040  1.00  0.00     0.004 A 
ATOM     16  C   UNL A   1      33.535  26.172  22.712  1.00  0.00     0.122 A 
ATOM     17  C   UNL A   1      33.725  27.545  22.441  1.00  0.00     0.047 A 
ATOM     18  C   UNL A   1      33.953  28.470  23.458  1.00  0.00     0.004 A 
ATOM     19  C   UNL A   1      33.754  26.684  25.049  1.00  0.00     0.008 A 
ATOM     20  C   UNL A   1      33.992  28.031  24.767  1.00  0.00     0.001 A 
BRANCH  16  21
ATOM     21  O   UNL A   1      33.647  25.421  21.571  1.00  0.00    -0.496 OA
ATOM     22  C   UNL A   1      32.688  25.637  20.556  1.00  0.00     0.278 C 
ENDBRANCH  16  21
ENDBRANCH  10  15
BRANCH  12  23
ATOM     23  C   UNL A   1      31.750  21.576  25.505  1.00  0.00     0.299 C 
BRANCH  23  24
ATOM     24  C   UNL A   1      32.572  20.556  24.736  1.00  0.00     0.013 A 
ATOM     25  C   UNL A   1      33.345  19.513  25.302  1.00  0.00     0.060 A 
ATOM     26  C   UNL A   1      32.357  20.529  23.373  1.00  0.00    -0.038 A 
ATOM     27  C   UNL A   1      33.593  18.388  24.527  1.00  0.00     0.166 A 
ATOM     28  C   UNL A   1      32.212  19.259  22.839  1.00  0.00     0.054 A 
ATOM     29  C   UNL A   1      32.289  21.813  22.597  1.00  0.00     0.045 C 
ATOM     30  C   UNL A   1      32.911  18.224  23.368  1.00  0.00     0.166 A 
ATOM     31  O   UNL A   1      34.374  17.300  24.764  1.00  0.00    -0.454 OA
ATOM     32  O   UNL A   1      33.060  17.016  22.778  1.00  0.00    -0.454 OA
ATOM     33  C   UNL A   1      34.207  16.570  23.516  1.00  0.00     0.468 C 
ENDBRANCH  23  24
ENDBRANCH  12  23
ENDBRANCH   6   9
ENDBRANCH   4   5
ENDBRANCH   3   4
ENDBRANCH   2   3
ENDBRANCH   1   2
BRANCH   1  34
ATOM     34  C   UNL A   1      41.560  19.884  27.329  1.00  0.00     0.021 C 
BRANCH  34  35
ATOM     35  C   UNL A   1      41.543  19.624  25.818  1.00  0.00     0.116 C 
BRANCH  35  36
ATOM     36  N   UNL A   1      42.846  19.259  25.283  1.00  0.00    -0.352 N 
ATOM     37  C   UNL A   1      43.953  20.029  25.037  1.00  0.00     0.251 C 
ATOM     38  H   UNL A   1      42.949  18.306  25.062  1.00  0.00     0.163 HD
ATOM     39  O   UNL A   1      44.884  19.561  24.369  1.00  0.00    -0.269 OA
BRANCH  37  40
ATOM     40  C   UNL A   1      44.042  21.410  25.546  1.00  0.00     0.039 A 
ATOM     41  C   UNL A   1      44.486  21.630  26.853  1.00  0.00     0.014 A 
ATOM     42  C   UNL A   1      43.661  22.489  24.742  1.00  0.00     0.014 A 
ATOM     43  C   UNL A   1      44.629  22.938  27.325  1.00  0.00     0.010 A 
ATOM     44  C   UNL A   1      43.853  23.794  25.198  1.00  0.00     0.010 A 
ATOM     45  C   UNL A   1      44.356  24.033  26.488  1.00  0.00    -0.014 A 
BRANCH  45  46
ATOM     46  C   UNL A   1      44.638  25.424  26.931  1.00  0.00     0.031 A 
ATOM     47  C   UNL A   1      43.543  26.279  27.509  1.00  0.00     0.074 A 
ATOM     48  C   UNL A   1      45.876  25.932  26.749  1.00  0.00     0.049 A 
ATOM     49  N   UNL A   1      43.588  27.527  27.896  1.00  0.00    -0.248 NA
ATOM     50  C   UNL A   1      42.217  25.656  27.653  1.00  0.00     0.031 C 
ATOM     51  C   UNL A   1      47.006  25.206  26.163  1.00  0.00     0.029 A 
ATOM     52  N   UNL A   1      46.395  27.174  27.025  1.00  0.00    -0.354 N 
ATOM     53  C   UNL A   1      42.301  27.846  28.313  1.00  0.00     0.074 A 
ATOM     54  C   UNL A   1      41.487  26.669  28.098  1.00  0.00     0.031 C 
ATOM     55  C   UNL A   1      48.083  26.006  26.140  1.00  0.00     0.029 A 
ATOM     56  C   UNL A   1      47.715  27.319  26.659  1.00  0.00     0.049 A 
ATOM     57  H   UNL A   1      45.871  27.894  27.445  1.00  0.00     0.167 HD
ATOM     58  C   UNL A   1      41.848  29.010  28.838  1.00  0.00     0.034 A 
ATOM     59  C   UNL A   1      48.528  28.394  26.711  1.00  0.00     0.034 A 
ATOM     60  C   UNL A   1      42.681  30.166  29.062  1.00  0.00     0.049 A 
ATOM     61  C   UNL A   1      47.980  29.685  27.271  1.00  0.00     0.074 A 
ATOM     62  C   UNL A   1      42.342  31.362  29.670  1.00  0.00     0.029 A 
ATOM     63  N   UNL A   1      44.007  30.281  28.670  1.00  0.00    -0.354 N 
ATOM     64  N   UNL A   1      46.782  29.935  27.748  1.00  0.00    -0.248 NA
ATOM     65  C   UNL A   1      48.892  30.836  27.307  1.00  0.00     0.031 C 
ATOM     66  C   UNL A   1      43.433  32.230  29.566  1.00  0.00     0.029 A 
ATOM     67  C   UNL A   1      44.483  31.548  28.974  1.00  0.00     0.049 A 
ATOM     68  H   UNL A   1      44.533  29.569  28.240  1.00  0.00     0.167 HD
ATOM     69  C   UNL A   1      46.810  31.264  28.166  1.00  0.00     0.074 A 
ATOM     70  C   UNL A   1      48.150  31.750  27.912  1.00  0.00     0.031 C 
ATOM     71  C   UNL A   1      45.820  32.018  28.705  1.00  0.00     0.034 A 
BRANCH  58  72
ATOM     72  C   UNL A   1      40.382  29.117  29.179  1.00  0.00     0.023 A 
ATOM     73  C   UNL A   1      39.918  29.063  30.505  1.00  0.00     0.031 A 
ATOM     74  C   UNL A   1      39.436  29.325  28.158  1.00  0.00     0.131 A 
ATOM     75  C   UNL A   1      38.545  29.179  30.770  1.00  0.00     0.055 A 
ATOM     76  C   UNL A   1      38.080  29.507  28.435  1.00  0.00     0.041 A 
ATOM     77  F   UNL A   1      39.819  29.363  26.872  1.00  0.00    -0.206 F 
ATOM     78  C   UNL A   1      37.626  29.427  29.747  1.00  0.00     0.022 A 
BRANCH  75  79
ATOM     79  S   UNL A   1      37.959  28.908  32.466  1.00  0.00     0.124 S 
ATOM     80  O   UNL A   1      36.570  29.351  32.373  1.00  0.00    -0.237 OA
ATOM     81  O   UNL A   1      38.161  27.476  32.645  1.00  0.00    -0.237 OA
ATOM     82  O   UNL A   1      38.827  29.767  33.269  1.00  0.00    -0.744 OA
ENDBRANCH  75  79
ENDBRANCH  58  72
BRANCH  59  83
ATOM     83  C   UNL A   1      49.928  28.330  26.190  1.00  0.00     0.023 A 
ATOM     84  C   UNL A   1      50.205  28.545  24.830  1.00  0.00     0.031 A 
ATOM     85  C   UNL A   1      50.998  27.956  27.024  1.00  0.00     0.131 A 
ATOM     86  C   UNL A   1      51.495  28.308  24.331  1.00  0.00     0.055 A 
ATOM     87  C   UNL A   1      52.297  27.795  26.536  1.00  0.00     0.041 A 
ATOM     88  F   UNL A   1      50.796  27.734  28.332  1.00  0.00    -0.206 F 
ATOM     89  C   UNL A   1      52.547  27.950  25.177  1.00  0.00     0.022 A 
BRANCH  86  90
ATOM     90  S   UNL A   1      51.744  28.327  22.533  1.00  0.00     0.124 S 
ATOM     91  O   UNL A   1      50.907  29.452  22.131  1.00  0.00    -0.237 OA
ATOM     92  O   UNL A   1      53.185  28.529  22.430  1.00  0.00    -0.237 OA
ATOM     93  O   UNL A   1      51.268  27.011  22.112  1.00  0.00    -0.744 OA
ENDBRANCH  86  90
ENDBRANCH  59  83
BRANCH  71  94
ATOM     94  C   UNL A   1      46.165  33.438  29.084  1.00  0.00     0.023 A 
ATOM     95  C   UNL A   1      45.959  34.507  28.195  1.00  0.00     0.031 A 
ATOM     96  C   UNL A   1      46.714  33.722  30.346  1.00  0.00     0.131 A 
ATOM     97  C   UNL A   1      46.350  35.803  28.559  1.00  0.00     0.055 A 
ATOM     98  C   UNL A   1      47.037  35.025  30.729  1.00  0.00     0.041 A 
ATOM     99  F   UNL A   1      46.938  32.740  31.233  1.00  0.00    -0.206 F 
ATOM    100  C   UNL A   1      46.868  36.072  29.829  1.00  0.00     0.022 A 
BRANCH  97 101
ATOM    101  S   UNL A   1      46.261  37.120  27.316  1.00  0.00     0.124 S 
ATOM    102  O   UNL A   1      44.826  37.381  27.254  1.00  0.00    -0.237 OA
ATOM    103  O   UNL A   1      47.075  38.173  27.916  1.00  0.00    -0.237 OA
ATOM    104  O   UNL A   1      46.831  36.503  26.120  1.00  0.00    -0.744 OA
ENDBRANCH  97 101
ENDBRANCH  71  94
ENDBRANCH  45  46
ENDBRANCH  37  40
ENDBRANCH  35  36
ENDBRANCH  34  35
ENDBRANCH   1  34
TORSDOF 20
ENDMDL
MODEL 2
REMARK VINA RESULT:     -11.9      2.689      4.852
REMARK SMILES COc1ccccc1[C@@H]1C[N@@H+](Cc2cc3c(cc2C)OCO3)C[C@H]1C(=O)NCCCCCCNC(=O)c1ccc(-c2c3nc(c(-c4cc(S(=O)(=O)[O-])ccc4F)c4ccc([nH]4)c(-c4cc(S(=O)(=O)[O-])ccc4F)c4nc(c(-c5cc(S(=O)(=O)[O-])ccc5F)c5ccc2[nH]5)C=C4)C=C3)cc1
REMARK SMILES IDX 31 1 30 2 29 3 28 4 27 5 25 6 26 7 24 9 9 10 10 11 11 12
REMARK SMILES IDX 23 13 8 15 3 16 4 17 5 18 7 19 6 20 2 21 1 22 12 23 13 24
REMARK SMILES IDX 14 25 18 26 15 27 17 28 19 29 16 30 22 31 20 32 21 33 32 34
REMARK SMILES IDX 33 35 34 36 35 37 36 39 37 40 38 41 99 42 39 43 98 44 40 45
REMARK SMILES IDX 41 46 42 47 92 48 43 49 97 50 91 51 93 52 44 53 96 54 90 55
REMARK SMILES IDX 89 56 45 58 77 59 57 60 76 61 58 62 61 63 75 64 94 65 59 66
REMARK SMILES IDX 60 67 74 69 95 70 62 71 46 72 47 73 55 74 48 75 54 76 56 77
REMARK SMILES IDX 53 78 49 79 50 80 51 81 52 82 78 83 79 84 87 85 80 86 86 87
REMARK SMILES IDX 88 88 85 89 81 90 82 91 83 92 84 93 63 94 64 95 72 96 65 97
REMARK SMILES IDX 71 98 73 99 70 100 66 101 67 102 68 103 69 104
REMARK H PARENT 27 8 11 14 34 38 93 57 61 68
REMARK Flexibility Score: inf
ROOT
ATOM      1  C   UNL A   1      36.489  19.427  25.052  1.00  0.00     0.002 C 
ENDROOT
BRANCH   1   2
ATOM      2  C   UNL A   1      35.172  20.179  24.796  1.00  0.00     0.002 C 
BRANCH   2   3
ATOM      3  C   UNL A   1      34.708  21.204  25.837  1.00  0.00     0.021 C 
BRANCH   3   4
ATOM      4  C   UNL A   1      33.438  21.045  26.746  1.00  0.00     0.116 C 
BRANCH   4   5
ATOM      5  N   UNL A   1      32.484  22.282  26.957  1.00  0.00    -0.356 N 
ATOM      6  C   UNL A   1      32.071  23.573  26.770  1.00  0.00     0.229 C 
ATOM      7  O   UNL A   1      30.952  23.683  27.341  1.00  0.00    -0.275 OA
ATOM      8  H   UNL A   1      31.802  21.924  27.569  1.00  0.00     0.163 HD
BRANCH   6   9
ATOM      9  C   UNL A   1      32.540  24.986  26.094  1.00  0.00     0.146 C 
ATOM     10  C   UNL A   1      33.342  25.015  24.741  1.00  0.00     0.096 C 
ATOM     11  C   UNL A   1      33.188  26.446  24.173  1.00  0.00     0.272 C 
ATOM     12  N   UNL A   1      31.920  26.969  24.688  1.00  0.00    -0.330 N 
ATOM     13  C   UNL A   1      31.768  26.337  26.026  1.00  0.00     0.276 C 
ATOM     14  H   UNL A   1      31.886  27.975  24.853  1.00  0.00     0.348 HD
BRANCH  10  15
ATOM     15  C   UNL A   1      34.760  24.501  24.498  1.00  0.00     0.004 A 
ATOM     16  C   UNL A   1      35.253  23.753  23.413  1.00  0.00     0.122 A 
ATOM     17  C   UNL A   1      36.546  23.186  23.469  1.00  0.00     0.047 A 
ATOM     18  C   UNL A   1      37.347  23.292  24.604  1.00  0.00     0.004 A 
ATOM     19  C   UNL A   1      35.606  24.578  25.641  1.00  0.00     0.008 A 
ATOM     20  C   UNL A   1      36.862  23.970  25.705  1.00  0.00     0.001 A 
BRANCH  16  21
ATOM     21  O   UNL A   1      34.543  23.263  22.349  1.00  0.00    -0.496 OA
ATOM     22  C   UNL A   1      33.171  22.994  22.555  1.00  0.00     0.278 C 
ENDBRANCH  16  21
ENDBRANCH  10  15
BRANCH  12  23
ATOM     23  C   UNL A   1      30.817  26.967  23.673  1.00  0.00     0.299 C 
BRANCH  23  24
ATOM     24  C   UNL A   1      29.839  28.127  23.753  1.00  0.00     0.013 A 
ATOM     25  C   UNL A   1      30.180  29.491  23.921  1.00  0.00     0.060 A 
ATOM     26  C   UNL A   1      28.536  27.827  23.415  1.00  0.00    -0.038 A 
ATOM     27  C   UNL A   1      29.286  30.450  23.462  1.00  0.00     0.166 A 
ATOM     28  C   UNL A   1      27.935  28.748  22.573  1.00  0.00     0.054 A 
ATOM     29  C   UNL A   1      27.888  26.582  23.949  1.00  0.00     0.045 C 
ATOM     30  C   UNL A   1      28.251  30.062  22.677  1.00  0.00     0.166 A 
ATOM     31  O   UNL A   1      29.298  31.805  23.577  1.00  0.00    -0.454 OA
ATOM     32  O   UNL A   1      27.550  31.070  22.110  1.00  0.00    -0.454 OA
ATOM     33  C   UNL A   1      28.043  32.143  22.924  1.00  0.00     0.468 C 
ENDBRANCH  23  24
ENDBRANCH  12  23
ENDBRANCH   6   9
ENDBRANCH   4   5
ENDBRANCH   3   4
ENDBRANCH   2   3
ENDBRANCH   1   2
BRANCH   1  34
ATOM     34  C   UNL A   1      37.836  20.082  24.680  1.00  0.00     0.021 C 
BRANCH  34  35
ATOM     35  C   UNL A   1      38.838  20.391  25.799  1.00  0.00     0.116 C 
BRANCH  35  36
ATOM     36  N   UNL A   1      39.872  19.376  25.941  1.00  0.00    -0.352 N 
ATOM     37  C   UNL A   1      41.224  19.504  26.117  1.00  0.00     0.251 C 
ATOM     38  H   UNL A   1      39.545  18.448  25.903  1.00  0.00     0.163 HD
ATOM     39  O   UNL A   1      41.951  18.511  25.989  1.00  0.00    -0.269 OA
BRANCH  37  40
ATOM     40  C   UNL A   1      41.824  20.811  26.444  1.00  0.00     0.039 A 
ATOM     41  C   UNL A   1      42.220  21.661  25.408  1.00  0.00     0.014 A 
ATOM     42  C   UNL A   1      42.023  21.187  27.776  1.00  0.00     0.014 A 
ATOM     43  C   UNL A   1      42.736  22.925  25.707  1.00  0.00     0.010 A 
ATOM     44  C   UNL A   1      42.491  22.468  28.071  1.00  0.00     0.010 A 
ATOM     45  C   UNL A   1      42.836  23.357  27.040  1.00  0.00    -0.014 A 
BRANCH  45  46
ATOM     46  C   UNL A   1      43.250  24.748  27.364  1.00  0.00     0.031 A 
ATOM     47  C   UNL A   1      42.281  25.704  28.007  1.00  0.00     0.074 A 
ATOM     48  C   UNL A   1      44.487  25.162  27.015  1.00  0.00     0.049 A 
ATOM     49  N   UNL A   1      42.446  26.965  28.310  1.00  0.00    -0.248 NA
ATOM     50  C   UNL A   1      40.946  25.179  28.336  1.00  0.00     0.031 C 
ATOM     51  C   UNL A   1      45.496  24.333  26.351  1.00  0.00     0.029 A 
ATOM     52  N   UNL A   1      45.107  26.380  27.155  1.00  0.00    -0.354 N 
ATOM     53  C   UNL A   1      41.237  27.390  28.849  1.00  0.00     0.074 A 
ATOM     54  C   UNL A   1      40.334  26.261  28.797  1.00  0.00     0.031 C 
ATOM     55  C   UNL A   1      46.609  25.057  26.160  1.00  0.00     0.029 A 
ATOM     56  C   UNL A   1      46.383  26.418  26.636  1.00  0.00     0.049 A 
ATOM     57  H   UNL A   1      44.680  27.155  27.587  1.00  0.00     0.167 HD
ATOM     58  C   UNL A   1      40.917  28.609  29.349  1.00  0.00     0.034 A 
ATOM     59  C   UNL A   1      47.260  27.437  26.532  1.00  0.00     0.034 A 
ATOM     60  C   UNL A   1      41.838  29.717  29.408  1.00  0.00     0.049 A 
ATOM     61  C   UNL A   1      46.858  28.790  27.071  1.00  0.00     0.074 A 
ATOM     62  C   UNL A   1      41.644  30.964  29.977  1.00  0.00     0.029 A 
ATOM     63  N   UNL A   1      43.115  29.723  28.865  1.00  0.00    -0.354 N 
ATOM     64  N   UNL A   1      45.740  29.144  27.662  1.00  0.00    -0.248 NA
ATOM     65  C   UNL A   1      47.835  29.879  26.934  1.00  0.00     0.031 C 
ATOM     66  C   UNL A   1      42.766  31.751  29.700  1.00  0.00     0.029 A 
ATOM     67  C   UNL A   1      43.698  30.969  29.036  1.00  0.00     0.049 A 
ATOM     68  H   UNL A   1      43.545  28.955  28.423  1.00  0.00     0.167 HD
ATOM     69  C   UNL A   1      45.896  30.489  27.992  1.00  0.00     0.074 A 
ATOM     70  C   UNL A   1      47.224  30.871  27.562  1.00  0.00     0.031 C 
ATOM     71  C   UNL A   1      45.021  31.335  28.592  1.00  0.00     0.034 A 
BRANCH  58  72
ATOM     72  C   UNL A   1      39.510  28.831  29.845  1.00  0.00     0.023 A 
ATOM     73  C   UNL A   1      38.493  29.324  29.009  1.00  0.00     0.031 A 
ATOM     74  C   UNL A   1      39.170  28.498  31.169  1.00  0.00     0.131 A 
ATOM     75  C   UNL A   1      37.196  29.502  29.516  1.00  0.00     0.055 A 
ATOM     76  C   UNL A   1      37.865  28.614  31.647  1.00  0.00     0.041 A 
ATOM     77  F   UNL A   1      40.106  28.044  32.019  1.00  0.00    -0.206 F 
ATOM     78  C   UNL A   1      36.870  29.125  30.821  1.00  0.00     0.022 A 
BRANCH  75  79
ATOM     79  S   UNL A   1      35.958  30.321  28.474  1.00  0.00     0.124 S 
ATOM     80  O   UNL A   1      36.794  30.913  27.433  1.00  0.00    -0.237 OA
ATOM     81  O   UNL A   1      35.111  29.210  28.056  1.00  0.00    -0.237 OA
ATOM     82  O   UNL A   1      35.328  31.280  29.378  1.00  0.00    -0.744 OA
ENDBRANCH  75  79
ENDBRANCH  58  72
BRANCH  59  83
ATOM     83  C   UNL A   1      48.584  27.253  25.863  1.00  0.00     0.023 A 
ATOM     84  C   UNL A   1      48.747  27.520  24.494  1.00  0.00     0.031 A 
ATOM     85  C   UNL A   1      49.681  26.714  26.559  1.00  0.00     0.131 A 
ATOM     86  C   UNL A   1      49.945  27.174  23.849  1.00  0.00     0.055 A 
ATOM     87  C   UNL A   1      50.898  26.442  25.929  1.00  0.00     0.041 A 
ATOM     88  F   UNL A   1      49.586  26.434  27.869  1.00  0.00    -0.206 F 
ATOM     89  C   UNL A   1      51.027  26.652  24.560  1.00  0.00     0.022 A 
BRANCH  86  90
ATOM     90  S   UNL A   1      50.014  27.276  22.038  1.00  0.00     0.124 S 
ATOM     91  O   UNL A   1      51.368  26.808  21.768  1.00  0.00    -0.237 OA
ATOM     92  O   UNL A   1      48.933  26.378  21.645  1.00  0.00    -0.237 OA
ATOM     93  O   UNL A   1      49.776  28.692  21.770  1.00  0.00    -0.744 OA
ENDBRANCH  86  90
ENDBRANCH  59  83
BRANCH  71  94
ATOM     94  C   UNL A   1      45.492  32.746  28.843  1.00  0.00     0.023 A 
ATOM     95  C   UNL A   1      45.194  33.791  27.951  1.00  0.00     0.031 A 
ATOM     96  C   UNL A   1      46.255  33.048  29.985  1.00  0.00     0.131 A 
ATOM     97  C   UNL A   1      45.702  35.077  28.186  1.00  0.00     0.055 A 
ATOM     98  C   UNL A   1      46.699  34.344  30.249  1.00  0.00     0.041 A 
ATOM     99  F   UNL A   1      46.574  32.089  30.868  1.00  0.00    -0.206 F 
ATOM    100  C   UNL A   1      46.435  35.365  29.340  1.00  0.00     0.022 A 
BRANCH  97 101
ATOM    101  S   UNL A   1      45.473  36.348  26.914  1.00  0.00     0.124 S 
ATOM    102  O   UNL A   1      46.381  35.894  25.865  1.00  0.00    -0.237 OA
ATOM    103  O   UNL A   1      44.049  36.239  26.614  1.00  0.00    -0.237 OA
ATOM    104  O   UNL A   1      45.872  37.582  27.586  1.00  0.00    -0.744 OA
ENDBRANCH  97 101
ENDBRANCH  71  94
ENDBRANCH  45  46
ENDBRANCH  37  40
ENDBRANCH  35  36
ENDBRANCH  34  35
ENDBRANCH   1  34
TORSDOF 20
ENDMDL
MODEL 3
REMARK VINA RESULT:     -11.8      6.250     10.960
REMARK SMILES COc1ccccc1[C@@H]1C[N@@H+](Cc2cc3c(cc2C)OCO3)C[C@H]1C(=O)NCCCCCCNC(=O)c1ccc(-c2c3nc(c(-c4cc(S(=O)(=O)[O-])ccc4F)c4ccc([nH]4)c(-c4cc(S(=O)(=O)[O-])ccc4F)c4nc(c(-c5cc(S(=O)(=O)[O-])ccc5F)c5ccc2[nH]5)C=C4)C=C3)cc1
REMARK SMILES IDX 31 1 30 2 29 3 28 4 27 5 25 6 26 7 24 9 9 10 10 11 11 12
REMARK SMILES IDX 23 13 8 15 3 16 4 17 5 18 7 19 6 20 2 21 1 22 12 23 13 24
REMARK SMILES IDX 14 25 18 26 15 27 17 28 19 29 16 30 22 31 20 32 21 33 32 34
REMARK SMILES IDX 33 35 34 36 35 37 36 39 37 40 38 41 99 42 39 43 98 44 40 45
REMARK SMILES IDX 41 46 42 47 92 48 43 49 97 50 91 51 93 52 44 53 96 54 90 55
REMARK SMILES IDX 89 56 45 58 77 59 57 60 76 61 58 62 61 63 75 64 94 65 59 66
REMARK SMILES IDX 60 67 74 69 95 70 62 71 46 72 47 73 55 74 48 75 54 76 56 77
REMARK SMILES IDX 53 78 49 79 50 80 51 81 52 82 78 83 79 84 87 85 80 86 86 87
REMARK SMILES IDX 88 88 85 89 81 90 82 91 83 92 84 93 63 94 64 95 72 96 65 97
REMARK SMILES IDX 71 98 73 99 70 100 66 101 67 102 68 103 69 104
REMARK H PARENT 27 8 11 14 34 38 93 57 61 68
REMARK Flexibility Score: inf
ROOT
ATOM      1  C   UNL A   1      34.703  33.428  28.059  1.00  0.00     0.002 C 
ENDROOT
BRANCH   1   2
ATOM      2  C   UNL A   1      34.795  31.996  28.611  1.00  0.00     0.002 C 
BRANCH   2   3
ATOM      3  C   UNL A   1      35.499  30.933  27.760  1.00  0.00     0.021 C 
BRANCH   3   4
ATOM      4  C   UNL A   1      35.177  29.397  27.798  1.00  0.00     0.116 C 
BRANCH   4   5
ATOM      5  N   UNL A   1      33.905  28.860  27.039  1.00  0.00    -0.356 N 
ATOM      6  C   UNL A   1      33.249  28.169  26.055  1.00  0.00     0.229 C 
ATOM      7  O   UNL A   1      32.023  28.199  26.345  1.00  0.00    -0.275 OA
ATOM      8  H   UNL A   1      33.165  29.228  27.572  1.00  0.00     0.163 HD
BRANCH   6   9
ATOM      9  C   UNL A   1      33.515  27.364  24.657  1.00  0.00     0.146 C 
ATOM     10  C   UNL A   1      33.126  25.847  24.504  1.00  0.00     0.096 C 
ATOM     11  C   UNL A   1      33.057  25.565  22.985  1.00  0.00     0.272 C 
ATOM     12  N   UNL A   1      32.723  26.835  22.336  1.00  0.00    -0.330 N 
ATOM     13  C   UNL A   1      33.354  27.873  23.194  1.00  0.00     0.276 C 
ATOM     14  H   UNL A   1      33.111  26.976  21.403  1.00  0.00     0.348 HD
BRANCH  10  15
ATOM     15  C   UNL A   1      33.749  24.657  25.233  1.00  0.00     0.004 A 
ATOM     16  C   UNL A   1      33.204  23.871  26.265  1.00  0.00     0.122 A 
ATOM     17  C   UNL A   1      34.017  22.948  26.962  1.00  0.00     0.047 A 
ATOM     18  C   UNL A   1      35.380  22.826  26.701  1.00  0.00     0.004 A 
ATOM     19  C   UNL A   1      35.147  24.508  25.004  1.00  0.00     0.008 A 
ATOM     20  C   UNL A   1      35.951  23.629  25.733  1.00  0.00     0.001 A 
BRANCH  16  21
ATOM     21  O   UNL A   1      31.998  24.042  26.893  1.00  0.00    -0.496 OA
ATOM     22  C   UNL A   1      31.058  22.992  26.788  1.00  0.00     0.278 C 
ENDBRANCH  16  21
ENDBRANCH  10  15
BRANCH  12  23
ATOM     23  C   UNL A   1      31.293  26.923  21.895  1.00  0.00     0.299 C 
BRANCH  23  24
ATOM     24  C   UNL A   1      30.441  27.958  22.610  1.00  0.00     0.013 A 
ATOM     25  C   UNL A   1      30.451  29.353  22.371  1.00  0.00     0.060 A 
ATOM     26  C   UNL A   1      29.429  27.449  23.398  1.00  0.00    -0.038 A 
ATOM     27  C   UNL A   1      29.311  30.080  22.685  1.00  0.00     0.166 A 
ATOM     28  C   UNL A   1      28.207  28.084  23.245  1.00  0.00     0.054 A 
ATOM     29  C   UNL A   1      29.701  26.293  24.318  1.00  0.00     0.045 C 
ATOM     30  C   UNL A   1      28.169  29.414  22.985  1.00  0.00     0.166 A 
ATOM     31  O   UNL A   1      29.074  31.419  22.661  1.00  0.00    -0.454 OA
ATOM     32  O   UNL A   1      27.062  30.185  23.081  1.00  0.00    -0.454 OA
ATOM     33  C   UNL A   1      27.710  31.462  23.165  1.00  0.00     0.468 C 
ENDBRANCH  23  24
ENDBRANCH  12  23
ENDBRANCH   6   9
ENDBRANCH   4   5
ENDBRANCH   3   4
ENDBRANCH   2   3
ENDBRANCH   1   2
BRANCH   1  34
ATOM     34  C   UNL A   1      33.419  34.258  28.275  1.00  0.00     0.021 C 
BRANCH  34  35
ATOM     35  C   UNL A   1      33.548  35.682  28.828  1.00  0.00     0.116 C 
BRANCH  35  36
ATOM     36  N   UNL A   1      32.824  35.880  30.076  1.00  0.00    -0.352 N 
ATOM     37  C   UNL A   1      33.000  35.302  31.306  1.00  0.00     0.251 C 
ATOM     38  H   UNL A   1      32.090  36.534  30.027  1.00  0.00     0.163 HD
ATOM     39  O   UNL A   1      32.131  35.446  32.175  1.00  0.00    -0.269 OA
BRANCH  37  40
ATOM     40  C   UNL A   1      34.204  34.503  31.602  1.00  0.00     0.039 A 
ATOM     41  C   UNL A   1      35.466  35.052  31.358  1.00  0.00     0.014 A 
ATOM     42  C   UNL A   1      34.087  33.200  32.095  1.00  0.00     0.014 A 
ATOM     43  C   UNL A   1      36.613  34.325  31.689  1.00  0.00     0.010 A 
ATOM     44  C   UNL A   1      35.232  32.497  32.471  1.00  0.00     0.010 A 
ATOM     45  C   UNL A   1      36.507  33.059  32.289  1.00  0.00    -0.014 A 
BRANCH  45  46
ATOM     46  C   UNL A   1      37.714  32.338  32.773  1.00  0.00     0.031 A 
ATOM     47  C   UNL A   1      38.344  32.702  34.091  1.00  0.00     0.074 A 
ATOM     48  C   UNL A   1      38.276  31.397  31.985  1.00  0.00     0.049 A 
ATOM     49  N   UNL A   1      39.427  32.224  34.647  1.00  0.00    -0.248 NA
ATOM     50  C   UNL A   1      37.681  33.754  34.878  1.00  0.00     0.031 C 
ATOM     51  C   UNL A   1      37.773  30.991  30.670  1.00  0.00     0.029 A 
ATOM     52  N   UNL A   1      39.394  30.618  32.162  1.00  0.00    -0.354 N 
ATOM     53  C   UNL A   1      39.586  32.924  35.838  1.00  0.00     0.074 A 
ATOM     54  C   UNL A   1      38.508  33.886  35.907  1.00  0.00     0.031 C 
ATOM     55  C   UNL A   1      38.565  30.029  30.171  1.00  0.00     0.029 A 
ATOM     56  C   UNL A   1      39.664  29.784  31.098  1.00  0.00     0.049 A 
ATOM     57  H   UNL A   1      39.951  30.653  32.973  1.00  0.00     0.167 HD
ATOM     58  C   UNL A   1      40.539  32.766  36.788  1.00  0.00     0.034 A 
ATOM     59  C   UNL A   1      40.692  28.938  30.885  1.00  0.00     0.034 A 
ATOM     60  C   UNL A   1      41.595  31.788  36.709  1.00  0.00     0.049 A 
ATOM     61  C   UNL A   1      41.755  28.811  31.951  1.00  0.00     0.074 A 
ATOM     62  C   UNL A   1      42.557  31.485  37.658  1.00  0.00     0.029 A 
ATOM     63  N   UNL A   1      41.844  30.969  35.616  1.00  0.00    -0.354 N 
ATOM     64  N   UNL A   1      41.833  29.417  33.114  1.00  0.00    -0.248 NA
ATOM     65  C   UNL A   1      42.863  27.886  31.682  1.00  0.00     0.031 C 
ATOM     66  C   UNL A   1      43.438  30.551  37.105  1.00  0.00     0.029 A 
ATOM     67  C   UNL A   1      42.977  30.202  35.846  1.00  0.00     0.049 A 
ATOM     68  H   UNL A   1      41.297  30.937  34.798  1.00  0.00     0.167 HD
ATOM     69  C   UNL A   1      42.983  28.921  33.723  1.00  0.00     0.074 A 
ATOM     70  C   UNL A   1      43.548  27.947  32.813  1.00  0.00     0.031 C 
ATOM     71  C   UNL A   1      43.530  29.242  34.923  1.00  0.00     0.034 A 
BRANCH  58  72
ATOM     72  C   UNL A   1      40.515  33.687  37.984  1.00  0.00     0.023 A 
ATOM     73  C   UNL A   1      39.656  33.471  39.075  1.00  0.00     0.031 A 
ATOM     74  C   UNL A   1      41.405  34.775  38.051  1.00  0.00     0.131 A 
ATOM     75  C   UNL A   1      39.680  34.350  40.168  1.00  0.00     0.055 A 
ATOM     76  C   UNL A   1      41.470  35.606  39.170  1.00  0.00     0.041 A 
ATOM     77  F   UNL A   1      42.232  35.043  37.028  1.00  0.00    -0.206 F 
ATOM     78  C   UNL A   1      40.600  35.400  40.235  1.00  0.00     0.022 A 
BRANCH  75  79
ATOM     79  S   UNL A   1      38.428  34.160  41.467  1.00  0.00     0.124 S 
ATOM     80  O   UNL A   1      38.114  35.552  41.780  1.00  0.00    -0.237 OA
ATOM     81  O   UNL A   1      37.380  33.407  40.788  1.00  0.00    -0.237 OA
ATOM     82  O   UNL A   1      39.134  33.436  42.522  1.00  0.00    -0.744 OA
ENDBRANCH  75  79
ENDBRANCH  58  72
BRANCH  59  83
ATOM     83  C   UNL A   1      40.809  28.170  29.608  1.00  0.00     0.023 A 
ATOM     84  C   UNL A   1      41.756  28.525  28.633  1.00  0.00     0.031 A 
ATOM     85  C   UNL A   1      39.910  27.133  29.298  1.00  0.00     0.131 A 
ATOM     86  C   UNL A   1      41.733  27.907  27.373  1.00  0.00     0.055 A 
ATOM     87  C   UNL A   1      39.939  26.469  28.069  1.00  0.00     0.041 A 
ATOM     88  F   UNL A   1      38.979  26.750  30.187  1.00  0.00    -0.206 F 
ATOM     89  C   UNL A   1      40.841  26.870  27.090  1.00  0.00     0.022 A 
BRANCH  86  90
ATOM     90  S   UNL A   1      42.784  28.583  26.058  1.00  0.00     0.124 S 
ATOM     91  O   UNL A   1      43.981  27.759  26.183  1.00  0.00    -0.237 OA
ATOM     92  O   UNL A   1      41.967  28.353  24.871  1.00  0.00    -0.237 OA
ATOM     93  O   UNL A   1      42.946  29.984  26.441  1.00  0.00    -0.744 OA
ENDBRANCH  86  90
ENDBRANCH  59  83
BRANCH  71  94
ATOM     94  C   UNL A   1      44.784  28.507  35.326  1.00  0.00     0.023 A 
ATOM     95  C   UNL A   1      44.730  27.284  36.019  1.00  0.00     0.031 A 
ATOM     96  C   UNL A   1      46.049  29.038  35.018  1.00  0.00     0.131 A 
ATOM     97  C   UNL A   1      45.917  26.662  36.430  1.00  0.00     0.055 A 
ATOM     98  C   UNL A   1      47.227  28.379  35.369  1.00  0.00     0.041 A 
ATOM     99  F   UNL A   1      46.160  30.204  34.363  1.00  0.00    -0.206 F 
ATOM    100  C   UNL A   1      47.166  27.191  36.091  1.00  0.00     0.022 A 
BRANCH  97 101
ATOM    101  S   UNL A   1      45.808  25.200  37.497  1.00  0.00     0.124 S 
ATOM    102  O   UNL A   1      45.819  24.113  36.523  1.00  0.00    -0.237 OA
ATOM    103  O   UNL A   1      47.005  25.326  38.324  1.00  0.00    -0.237 OA
ATOM    104  O   UNL A   1      44.544  25.386  38.205  1.00  0.00    -0.744 OA
ENDBRANCH  97 101
ENDBRANCH  71  94
ENDBRANCH  45  46
ENDBRANCH  37  40
ENDBRANCH  35  36
ENDBRANCH  34  35
ENDBRANCH   1  34
TORSDOF 20
ENDMDL
