MODEL 1
REMARK VINA RESULT:     -13.6      0.000      0.000
REMARK SMILES Cc1cc(N2CC[NH+]([C@@H](C(=O)NCCCCCCNC(=O)c3ccc(-c4c5nc(c(-c6cc(S(=O)(=O)[O-])ccc6F)c6ccc([nH]6)c(-c6cc(S(=O)(=O)[O-])ccc6F)c6nc(c(-c7cc(S(=O)(=O)[O-])ccc7F)c7ccc4[nH]7)C=C6)C=C5)cc3)c3c[nH]c4ccccc34)CC2)nc2ccccc12
REMARK SMILES IDX 16 1 15 2 14 3 13 4 12 5 10 6 11 7 9 9 8 10 5 11 6 12 95 13
REMARK SMILES IDX 7 14 94 15 4 17 1 18 2 19 3 20 102 21 97 22 101 23 96 24
REMARK SMILES IDX 98 25 100 26 99 27 85 28 86 29 93 30 87 31 88 32 92 33 89 35
REMARK SMILES IDX 91 36 90 37 17 38 18 39 19 40 20 41 21 43 22 44 23 45 84 46
REMARK SMILES IDX 24 47 83 48 25 49 26 50 27 51 77 52 28 53 82 54 76 55 78 56
REMARK SMILES IDX 29 57 81 58 75 59 74 60 30 62 62 63 42 64 61 65 43 66 46 67
REMARK SMILES IDX 60 68 79 69 44 70 45 71 59 73 80 74 47 75 31 76 32 77 40 78
REMARK SMILES IDX 33 79 39 80 41 81 38 82 34 83 35 84 36 85 37 86 63 87 64 88
REMARK SMILES IDX 72 89 65 90 71 91 73 92 70 93 66 94 67 95 68 96 69 97 48 98
REMARK SMILES IDX 49 99 57 100 50 101 56 102 58 103 55 104 51 105 52 106
REMARK SMILES IDX 53 107 54 108
REMARK H PARENT 12 8 8 16 87 34 19 42 78 61 46 72
REMARK Flexibility Score: inf
ROOT
ATOM      1  C   UNL A   1      36.678  20.851  24.873  1.00  0.00     0.002 C 
ENDROOT
BRANCH   1   2
ATOM      2  C   UNL A   1      36.803  21.994  23.861  1.00  0.00     0.002 C 
BRANCH   2   3
ATOM      3  C   UNL A   1      36.819  23.407  24.478  1.00  0.00     0.021 C 
BRANCH   3   4
ATOM      4  C   UNL A   1      36.218  23.567  25.909  1.00  0.00     0.116 C 
BRANCH   4   5
ATOM      5  N   UNL A   1      34.825  24.034  25.992  1.00  0.00    -0.351 N 
ATOM      6  C   UNL A   1      33.593  23.737  25.448  1.00  0.00     0.283 C 
ATOM      7  O   UNL A   1      32.665  24.369  25.973  1.00  0.00    -0.268 OA
ATOM      8  H   UNL A   1      34.750  24.782  26.627  1.00  0.00     0.163 HD
BRANCH   6   9
ATOM      9  C   UNL A   1      33.327  22.651  24.355  1.00  0.00     0.307 C 
BRANCH   9  10
ATOM     10  N   UNL A   1      32.707  23.059  23.035  1.00  0.00    -0.318 N 
ATOM     11  N   UNL A   1      31.491  25.718  22.928  1.00  0.00    -0.345 N 
ATOM     12  C   UNL A   1      30.797  24.649  23.628  1.00  0.00     0.179 C 
ATOM     13  C   UNL A   1      32.945  25.572  22.869  1.00  0.00     0.179 C 
ATOM     14  C   UNL A   1      31.259  23.354  22.940  1.00  0.00     0.284 C 
ATOM     15  C   UNL A   1      33.358  24.173  22.348  1.00  0.00     0.284 C 
ATOM     16  H   UNL A   1      32.867  22.152  22.596  1.00  0.00     0.349 HD
BRANCH  11  17
ATOM     17  C   UNL A   1      31.112  27.034  23.124  1.00  0.00     0.129 A 
ATOM     18  C   UNL A   1      32.447  29.783  25.315  1.00  0.00     0.045 C 
ATOM     19  C   UNL A   1      31.544  29.051  24.366  1.00  0.00    -0.038 A 
ATOM     20  C   UNL A   1      31.934  27.787  23.949  1.00  0.00     0.051 A 
ATOM     21  C   UNL A   1      30.325  29.559  23.883  1.00  0.00     0.003 A 
ATOM     22  C   UNL A   1      29.548  28.724  23.041  1.00  0.00     0.073 A 
ATOM     23  C   UNL A   1      29.852  30.845  24.210  1.00  0.00     0.010 A 
ATOM     24  N   UNL A   1      29.938  27.494  22.661  1.00  0.00    -0.231 NA
ATOM     25  C   UNL A   1      28.313  29.192  22.608  1.00  0.00     0.029 A 
ATOM     26  C   UNL A   1      28.621  31.295  23.740  1.00  0.00     0.001 A 
ATOM     27  C   UNL A   1      27.843  30.462  22.949  1.00  0.00     0.002 A 
ENDBRANCH  11  17
ENDBRANCH   9  10
BRANCH   9  28
ATOM     28  C   UNL A   1      32.640  21.341  24.876  1.00  0.00     0.044 A 
ATOM     29  C   UNL A   1      32.626  20.988  26.229  1.00  0.00     0.094 A 
ATOM     30  C   UNL A   1      32.540  20.039  24.243  1.00  0.00     0.009 A 
ATOM     31  N   UNL A   1      33.508  19.917  26.236  1.00  0.00    -0.361 N 
ATOM     32  C   UNL A   1      33.320  19.210  25.067  1.00  0.00     0.046 A 
ATOM     33  C   UNL A   1      32.109  19.504  23.012  1.00  0.00     0.011 A 
ATOM     34  H   UNL A   1      34.153  19.701  26.948  1.00  0.00     0.166 HD
ATOM     35  C   UNL A   1      33.894  18.012  24.622  1.00  0.00     0.026 A 
ATOM     36  C   UNL A   1      32.547  18.226  22.621  1.00  0.00     0.001 A 
ATOM     37  C   UNL A   1      33.492  17.534  23.376  1.00  0.00     0.002 A 
ENDBRANCH   9  28
ENDBRANCH   6   9
ENDBRANCH   4   5
ENDBRANCH   3   4
ENDBRANCH   2   3
ENDBRANCH   1   2
BRANCH   1  38
ATOM     38  C   UNL A   1      37.884  19.910  24.961  1.00  0.00     0.021 C 
BRANCH  38  39
ATOM     39  C   UNL A   1      39.001  20.369  25.898  1.00  0.00     0.116 C 
BRANCH  39  40
ATOM     40  N   UNL A   1      40.032  19.354  26.052  1.00  0.00    -0.352 N 
ATOM     41  C   UNL A   1      41.398  19.523  26.149  1.00  0.00     0.251 C 
ATOM     42  H   UNL A   1      39.713  18.424  26.093  1.00  0.00     0.163 HD
ATOM     43  O   UNL A   1      42.152  18.576  25.993  1.00  0.00    -0.269 OA
BRANCH  41  44
ATOM     44  C   UNL A   1      41.935  20.873  26.435  1.00  0.00     0.039 A 
ATOM     45  C   UNL A   1      42.187  21.752  25.380  1.00  0.00     0.014 A 
ATOM     46  C   UNL A   1      42.180  21.266  27.754  1.00  0.00     0.014 A 
ATOM     47  C   UNL A   1      42.626  23.051  25.655  1.00  0.00     0.010 A 
ATOM     48  C   UNL A   1      42.543  22.581  28.029  1.00  0.00     0.010 A 
ATOM     49  C   UNL A   1      42.777  23.487  26.982  1.00  0.00    -0.014 A 
BRANCH  49  50
ATOM     50  C   UNL A   1      43.183  24.885  27.291  1.00  0.00     0.031 A 
ATOM     51  C   UNL A   1      42.210  25.829  27.944  1.00  0.00     0.074 A 
ATOM     52  C   UNL A   1      44.403  25.323  26.924  1.00  0.00     0.049 A 
ATOM     53  N   UNL A   1      42.355  27.095  28.244  1.00  0.00    -0.248 NA
ATOM     54  C   UNL A   1      40.885  25.284  28.269  1.00  0.00     0.031 C 
ATOM     55  C   UNL A   1      45.413  24.519  26.232  1.00  0.00     0.029 A 
ATOM     56  N   UNL A   1      44.999  26.551  27.068  1.00  0.00    -0.354 N 
ATOM     57  C   UNL A   1      41.136  27.501  28.777  1.00  0.00     0.074 A 
ATOM     58  C   UNL A   1      40.246  26.363  28.689  1.00  0.00     0.031 C 
ATOM     59  C   UNL A   1      46.508  25.269  26.030  1.00  0.00     0.029 A 
ATOM     60  C   UNL A   1      46.264  26.617  26.532  1.00  0.00     0.049 A 
ATOM     61  H   UNL A   1      44.562  27.313  27.512  1.00  0.00     0.167 HD
ATOM     62  C   UNL A   1      40.799  28.703  29.309  1.00  0.00     0.034 A 
ATOM     63  C   UNL A   1      47.126  27.649  26.436  1.00  0.00     0.034 A 
ATOM     64  C   UNL A   1      41.707  29.823  29.385  1.00  0.00     0.049 A 
ATOM     65  C   UNL A   1      46.733  28.983  27.018  1.00  0.00     0.074 A 
ATOM     66  C   UNL A   1      41.503  31.060  29.973  1.00  0.00     0.029 A 
ATOM     67  N   UNL A   1      42.985  29.853  28.838  1.00  0.00    -0.354 N 
ATOM     68  N   UNL A   1      45.604  29.330  27.595  1.00  0.00    -0.248 NA
ATOM     69  C   UNL A   1      47.730  30.056  26.948  1.00  0.00     0.031 C 
ATOM     70  C   UNL A   1      42.615  31.865  29.700  1.00  0.00     0.029 A 
ATOM     71  C   UNL A   1      43.559  31.103  29.028  1.00  0.00     0.049 A 
ATOM     72  H   UNL A   1      43.420  29.098  28.380  1.00  0.00     0.167 HD
ATOM     73  C   UNL A   1      45.766  30.660  27.975  1.00  0.00     0.074 A 
ATOM     74  C   UNL A   1      47.107  31.042  27.577  1.00  0.00     0.031 C 
ATOM     75  C   UNL A   1      44.887  31.486  28.602  1.00  0.00     0.034 A 
BRANCH  62  76
ATOM     76  C   UNL A   1      39.378  28.869  29.804  1.00  0.00     0.023 A 
ATOM     77  C   UNL A   1      38.361  29.394  28.984  1.00  0.00     0.031 A 
ATOM     78  C   UNL A   1      39.045  28.553  31.133  1.00  0.00     0.131 A 
ATOM     79  C   UNL A   1      37.102  29.689  29.529  1.00  0.00     0.055 A 
ATOM     80  C   UNL A   1      37.759  28.753  31.640  1.00  0.00     0.041 A 
ATOM     81  F   UNL A   1      39.972  28.067  31.974  1.00  0.00    -0.206 F 
ATOM     82  C   UNL A   1      36.785  29.347  30.844  1.00  0.00     0.022 A 
BRANCH  79  83
ATOM     83  S   UNL A   1      35.959  30.708  28.555  1.00  0.00     0.124 S 
ATOM     84  O   UNL A   1      36.885  31.563  27.814  1.00  0.00    -0.237 OA
ATOM     85  O   UNL A   1      35.240  29.713  27.770  1.00  0.00    -0.237 OA
ATOM     86  O   UNL A   1      35.166  31.399  29.569  1.00  0.00    -0.744 OA
ENDBRANCH  79  83
ENDBRANCH  62  76
BRANCH  63  87
ATOM     87  C   UNL A   1      48.432  27.462  25.740  1.00  0.00     0.023 A 
ATOM     88  C   UNL A   1      48.542  27.566  24.345  1.00  0.00     0.031 A 
ATOM     89  C   UNL A   1      49.598  27.185  26.476  1.00  0.00     0.131 A 
ATOM     90  C   UNL A   1      49.789  27.370  23.727  1.00  0.00     0.055 A 
ATOM     91  C   UNL A   1      50.843  27.039  25.861  1.00  0.00     0.041 A 
ATOM     92  F   UNL A   1      49.548  27.081  27.813  1.00  0.00    -0.206 F 
ATOM     93  C   UNL A   1      50.941  27.124  24.477  1.00  0.00     0.022 A 
BRANCH  90  94
ATOM     94  S   UNL A   1      49.878  27.389  21.915  1.00  0.00     0.124 S 
ATOM     95  O   UNL A   1      49.730  28.811  21.625  1.00  0.00    -0.237 OA
ATOM     96  O   UNL A   1      51.197  26.816  21.669  1.00  0.00    -0.237 OA
ATOM     97  O   UNL A   1      48.752  26.550  21.511  1.00  0.00    -0.744 OA
ENDBRANCH  90  94
ENDBRANCH  63  87
BRANCH  75  98
ATOM     98  C   UNL A   1      45.365  32.883  28.923  1.00  0.00     0.023 A 
ATOM     99  C   UNL A   1      45.156  33.960  28.045  1.00  0.00     0.031 A 
ATOM    100  C   UNL A   1      46.045  33.138  30.128  1.00  0.00     0.131 A 
ATOM    101  C   UNL A   1      45.672  35.229  28.355  1.00  0.00     0.055 A 
ATOM    102  C   UNL A   1      46.494  34.416  30.464  1.00  0.00     0.041 A 
ATOM    103  F   UNL A   1      46.281  32.148  31.003  1.00  0.00    -0.206 F 
ATOM    104  C   UNL A   1      46.322  35.467  29.569  1.00  0.00     0.022 A 
BRANCH 101 105
ATOM    105  S   UNL A   1      45.579  36.538  27.104  1.00  0.00     0.124 S 
ATOM    106  O   UNL A   1      44.138  36.673  26.914  1.00  0.00    -0.237 OA
ATOM    107  O   UNL A   1      46.243  37.653  27.769  1.00  0.00    -0.237 OA
ATOM    108  O   UNL A   1      46.304  35.975  25.965  1.00  0.00    -0.744 OA
ENDBRANCH 101 105
ENDBRANCH  75  98
ENDBRANCH  49  50
ENDBRANCH  41  44
ENDBRANCH  39  40
ENDBRANCH  38  39
ENDBRANCH   1  38
TORSDOF 19
ENDMDL
MODEL 2
REMARK VINA RESULT:     -13.0      0.974      7.044
REMARK SMILES Cc1cc(N2CC[NH+]([C@@H](C(=O)NCCCCCCNC(=O)c3ccc(-c4c5nc(c(-c6cc(S(=O)(=O)[O-])ccc6F)c6ccc([nH]6)c(-c6cc(S(=O)(=O)[O-])ccc6F)c6nc(c(-c7cc(S(=O)(=O)[O-])ccc7F)c7ccc4[nH]7)C=C6)C=C5)cc3)c3c[nH]c4ccccc34)CC2)nc2ccccc12
REMARK SMILES IDX 16 1 15 2 14 3 13 4 12 5 10 6 11 7 9 9 8 10 5 11 6 12 95 13
REMARK SMILES IDX 7 14 94 15 4 17 1 18 2 19 3 20 102 21 97 22 101 23 96 24
REMARK SMILES IDX 98 25 100 26 99 27 85 28 86 29 93 30 87 31 88 32 92 33 89 35
REMARK SMILES IDX 91 36 90 37 17 38 18 39 19 40 20 41 21 43 22 44 23 45 84 46
REMARK SMILES IDX 24 47 83 48 25 49 26 50 27 51 77 52 28 53 82 54 76 55 78 56
REMARK SMILES IDX 29 57 81 58 75 59 74 60 30 62 62 63 42 64 61 65 43 66 46 67
REMARK SMILES IDX 60 68 79 69 44 70 45 71 59 73 80 74 47 75 31 76 32 77 40 78
REMARK SMILES IDX 33 79 39 80 41 81 38 82 34 83 35 84 36 85 37 86 63 87 64 88
REMARK SMILES IDX 72 89 65 90 71 91 73 92 70 93 66 94 67 95 68 96 69 97 48 98
REMARK SMILES IDX 49 99 57 100 50 101 56 102 58 103 55 104 51 105 52 106
REMARK SMILES IDX 53 107 54 108
REMARK H PARENT 12 8 8 16 87 34 19 42 78 61 46 72
REMARK Flexibility Score: inf
ROOT
ATOM      1  C   UNL A   1      38.094  21.214  25.180  1.00  0.00     0.002 C 
ENDROOT
BRANCH   1   2
ATOM      2  C   UNL A   1      38.588  22.405  26.008  1.00  0.00     0.002 C 
BRANCH   2   3
ATOM      3  C   UNL A   1      37.728  23.679  25.889  1.00  0.00     0.021 C 
BRANCH   3   4
ATOM      4  C   UNL A   1      36.671  23.721  24.742  1.00  0.00     0.116 C 
BRANCH   4   5
ATOM      5  N   UNL A   1      35.349  24.272  25.081  1.00  0.00    -0.351 N 
ATOM      6  C   UNL A   1      34.018  24.006  24.839  1.00  0.00     0.283 C 
ATOM      7  O   UNL A   1      33.253  24.728  25.494  1.00  0.00    -0.268 OA
ATOM      8  H   UNL A   1      35.444  25.068  25.652  1.00  0.00     0.163 HD
BRANCH   6   9
ATOM      9  C   UNL A   1      33.477  22.860  23.925  1.00  0.00     0.307 C 
BRANCH   9  10
ATOM     10  N   UNL A   1      32.517  23.191  22.803  1.00  0.00    -0.318 N 
ATOM     11  N   UNL A   1      31.278  25.840  22.883  1.00  0.00    -0.345 N 
ATOM     12  C   UNL A   1      30.815  24.813  23.803  1.00  0.00     0.179 C 
ATOM     13  C   UNL A   1      32.664  25.691  22.440  1.00  0.00     0.179 C 
ATOM     14  C   UNL A   1      31.093  23.482  23.087  1.00  0.00     0.284 C 
ATOM     15  C   UNL A   1      32.941  24.265  21.905  1.00  0.00     0.284 C 
ATOM     16  H   UNL A   1      32.566  22.261  22.386  1.00  0.00     0.349 HD
BRANCH  11  17
ATOM     17  C   UNL A   1      30.946  27.166  23.102  1.00  0.00     0.129 A 
ATOM     18  C   UNL A   1      31.918  29.642  25.760  1.00  0.00     0.045 C 
ATOM     19  C   UNL A   1      31.210  29.051  24.576  1.00  0.00    -0.038 A 
ATOM     20  C   UNL A   1      31.605  27.792  24.150  1.00  0.00     0.051 A 
ATOM     21  C   UNL A   1      30.165  29.686  23.882  1.00  0.00     0.003 A 
ATOM     22  C   UNL A   1      29.548  28.976  22.821  1.00  0.00     0.073 A 
ATOM     23  C   UNL A   1      29.710  30.980  24.205  1.00  0.00     0.010 A 
ATOM     24  N   UNL A   1      29.938  27.749  22.433  1.00  0.00    -0.231 NA
ATOM     25  C   UNL A   1      28.474  29.569  22.168  1.00  0.00     0.029 A 
ATOM     26  C   UNL A   1      28.648  31.558  23.516  1.00  0.00     0.001 A 
ATOM     27  C   UNL A   1      28.018  30.846  22.504  1.00  0.00     0.002 A 
ENDBRANCH  11  17
ENDBRANCH   9  10
BRANCH   9  28
ATOM     28  C   UNL A   1      32.974  21.586  24.688  1.00  0.00     0.044 A 
ATOM     29  C   UNL A   1      33.250  21.362  26.040  1.00  0.00     0.094 A 
ATOM     30  C   UNL A   1      32.809  20.227  24.205  1.00  0.00     0.009 A 
ATOM     31  N   UNL A   1      34.166  20.322  25.959  1.00  0.00    -0.361 N 
ATOM     32  C   UNL A   1      33.778  19.502  24.919  1.00  0.00     0.046 A 
ATOM     33  C   UNL A   1      32.164  19.566  23.141  1.00  0.00     0.011 A 
ATOM     34  H   UNL A   1      34.951  20.194  26.539  1.00  0.00     0.166 HD
ATOM     35  C   UNL A   1      34.307  18.285  24.471  1.00  0.00     0.026 A 
ATOM     36  C   UNL A   1      32.574  18.270  22.780  1.00  0.00     0.001 A 
ATOM     37  C   UNL A   1      33.684  17.680  23.381  1.00  0.00     0.002 A 
ENDBRANCH   9  28
ENDBRANCH   6   9
ENDBRANCH   4   5
ENDBRANCH   3   4
ENDBRANCH   2   3
ENDBRANCH   1   2
BRANCH   1  38
ATOM     38  C   UNL A   1      38.889  19.916  25.350  1.00  0.00     0.021 C 
BRANCH  38  39
ATOM     39  C   UNL A   1      39.821  19.877  26.561  1.00  0.00     0.116 C 
BRANCH  39  40
ATOM     40  N   UNL A   1      41.121  19.314  26.228  1.00  0.00    -0.352 N 
ATOM     41  C   UNL A   1      42.308  19.973  25.988  1.00  0.00     0.251 C 
ATOM     42  H   UNL A   1      41.158  18.332  26.166  1.00  0.00     0.163 HD
ATOM     43  O   UNL A   1      43.240  19.396  25.450  1.00  0.00    -0.269 OA
BRANCH  41  44
ATOM     44  C   UNL A   1      42.431  21.395  26.382  1.00  0.00     0.039 A 
ATOM     45  C   UNL A   1      42.652  21.723  27.722  1.00  0.00     0.014 A 
ATOM     46  C   UNL A   1      42.338  22.402  25.416  1.00  0.00     0.014 A 
ATOM     47  C   UNL A   1      42.840  23.060  28.082  1.00  0.00     0.010 A 
ATOM     48  C   UNL A   1      42.601  23.723  25.766  1.00  0.00     0.010 A 
ATOM     49  C   UNL A   1      42.848  24.069  27.103  1.00  0.00    -0.014 A 
BRANCH  49  50
ATOM     50  C   UNL A   1      43.109  25.489  27.464  1.00  0.00     0.031 A 
ATOM     51  C   UNL A   1      44.497  26.058  27.341  1.00  0.00     0.074 A 
ATOM     52  C   UNL A   1      42.113  26.245  27.965  1.00  0.00     0.049 A 
ATOM     53  N   UNL A   1      44.937  27.250  27.655  1.00  0.00    -0.248 NA
ATOM     54  C   UNL A   1      45.535  25.151  26.831  1.00  0.00     0.031 C 
ATOM     55  C   UNL A   1      40.739  25.789  28.186  1.00  0.00     0.029 A 
ATOM     56  N   UNL A   1      42.101  27.550  28.389  1.00  0.00    -0.354 N 
ATOM     57  C   UNL A   1      46.303  27.232  27.396  1.00  0.00     0.074 A 
ATOM     58  C   UNL A   1      46.626  25.886  26.970  1.00  0.00     0.031 C 
ATOM     59  C   UNL A   1      40.015  26.802  28.686  1.00  0.00     0.029 A 
ATOM     60  C   UNL A   1      40.879  27.964  28.867  1.00  0.00     0.049 A 
ATOM     61  H   UNL A   1      42.892  28.135  28.356  1.00  0.00     0.167 HD
ATOM     62  C   UNL A   1      47.199  28.247  27.486  1.00  0.00     0.034 A 
ATOM     63  C   UNL A   1      40.498  29.139  29.408  1.00  0.00     0.034 A 
ATOM     64  C   UNL A   1      46.851  29.581  27.914  1.00  0.00     0.049 A 
ATOM     65  C   UNL A   1      41.507  30.252  29.515  1.00  0.00     0.074 A 
ATOM     66  C   UNL A   1      47.655  30.707  27.966  1.00  0.00     0.029 A 
ATOM     67  N   UNL A   1      45.601  29.968  28.385  1.00  0.00    -0.354 N 
ATOM     68  N   UNL A   1      42.780  30.246  29.189  1.00  0.00    -0.248 NA
ATOM     69  C   UNL A   1      41.028  31.532  30.049  1.00  0.00     0.031 C 
ATOM     70  C   UNL A   1      46.921  31.743  28.555  1.00  0.00     0.029 A 
ATOM     71  C   UNL A   1      45.627  31.298  28.779  1.00  0.00     0.049 A 
ATOM     72  H   UNL A   1      44.811  29.381  28.434  1.00  0.00     0.167 HD
ATOM     73  C   UNL A   1      43.248  31.529  29.460  1.00  0.00     0.074 A 
ATOM     74  C   UNL A   1      42.116  32.284  29.959  1.00  0.00     0.031 C 
ATOM     75  C   UNL A   1      44.500  32.037  29.304  1.00  0.00     0.034 A 
BRANCH  62  76
ATOM     76  C   UNL A   1      48.642  27.930  27.155  1.00  0.00     0.023 A 
ATOM     77  C   UNL A   1      49.152  28.065  25.850  1.00  0.00     0.031 A 
ATOM     78  C   UNL A   1      49.507  27.429  28.144  1.00  0.00     0.131 A 
ATOM     79  C   UNL A   1      50.442  27.602  25.549  1.00  0.00     0.055 A 
ATOM     80  C   UNL A   1      50.825  27.066  27.858  1.00  0.00     0.041 A 
ATOM     81  F   UNL A   1      49.078  27.256  29.404  1.00  0.00    -0.206 F 
ATOM     82  C   UNL A   1      51.293  27.129  26.550  1.00  0.00     0.022 A 
BRANCH  79  83
ATOM     83  S   UNL A   1      50.914  27.439  23.804  1.00  0.00     0.124 S 
ATOM     84  O   UNL A   1      52.107  26.600  23.899  1.00  0.00    -0.237 OA
ATOM     85  O   UNL A   1      49.737  26.813  23.217  1.00  0.00    -0.237 OA
ATOM     86  O   UNL A   1      51.166  28.816  23.386  1.00  0.00    -0.744 OA
ENDBRANCH  79  83
ENDBRANCH  62  76
BRANCH  63  87
ATOM     87  C   UNL A   1      39.104  29.305  29.910  1.00  0.00     0.023 A 
ATOM     88  C   UNL A   1      38.115  29.934  29.138  1.00  0.00     0.031 A 
ATOM     89  C   UNL A   1      38.741  28.822  31.181  1.00  0.00     0.131 A 
ATOM     90  C   UNL A   1      36.816  30.083  29.654  1.00  0.00     0.055 A 
ATOM     91  C   UNL A   1      37.438  28.929  31.668  1.00  0.00     0.041 A 
ATOM     92  F   UNL A   1      39.648  28.207  31.957  1.00  0.00    -0.206 F 
ATOM     93  C   UNL A   1      36.468  29.570  30.905  1.00  0.00     0.022 A 
BRANCH  90  94
ATOM     94  S   UNL A   1      35.592  31.007  28.685  1.00  0.00     0.124 S 
ATOM     95  O   UNL A   1      34.949  31.817  29.713  1.00  0.00    -0.237 OA
ATOM     96  O   UNL A   1      36.435  31.725  27.735  1.00  0.00    -0.237 OA
ATOM     97  O   UNL A   1      34.757  29.958  28.104  1.00  0.00    -0.744 OA
ENDBRANCH  90  94
ENDBRANCH  63  87
BRANCH  75  98
ATOM     98  C   UNL A   1      44.700  33.494  29.652  1.00  0.00     0.023 A 
ATOM     99  C   UNL A   1      44.499  34.517  28.710  1.00  0.00     0.031 A 
ATOM    100  C   UNL A   1      45.102  33.862  30.949  1.00  0.00     0.131 A 
ATOM    101  C   UNL A   1      44.757  35.852  29.059  1.00  0.00     0.055 A 
ATOM    102  C   UNL A   1      45.289  35.197  31.311  1.00  0.00     0.041 A 
ATOM    103  F   UNL A   1      45.316  32.929  31.890  1.00  0.00    -0.206 F 
ATOM    104  C   UNL A   1      45.131  36.200  30.360  1.00  0.00     0.022 A 
BRANCH 101 105
ATOM    105  S   UNL A   1      44.704  37.119  27.762  1.00  0.00     0.124 S 
ATOM    106  O   UNL A   1      43.447  36.809  27.089  1.00  0.00    -0.237 OA
ATOM    107  O   UNL A   1      44.728  38.357  28.534  1.00  0.00    -0.237 OA
ATOM    108  O   UNL A   1      45.909  36.855  26.976  1.00  0.00    -0.744 OA
ENDBRANCH 101 105
ENDBRANCH  75  98
ENDBRANCH  49  50
ENDBRANCH  41  44
ENDBRANCH  39  40
ENDBRANCH  38  39
ENDBRANCH   1  38
TORSDOF 19
ENDMDL
MODEL 3
REMARK VINA RESULT:     -12.9      1.427      7.166
REMARK SMILES Cc1cc(N2CC[NH+]([C@@H](C(=O)NCCCCCCNC(=O)c3ccc(-c4c5nc(c(-c6cc(S(=O)(=O)[O-])ccc6F)c6ccc([nH]6)c(-c6cc(S(=O)(=O)[O-])ccc6F)c6nc(c(-c7cc(S(=O)(=O)[O-])ccc7F)c7ccc4[nH]7)C=C6)C=C5)cc3)c3c[nH]c4ccccc34)CC2)nc2ccccc12
REMARK SMILES IDX 16 1 15 2 14 3 13 4 12 5 10 6 11 7 9 9 8 10 5 11 6 12 95 13
REMARK SMILES IDX 7 14 94 15 4 17 1 18 2 19 3 20 102 21 97 22 101 23 96 24
REMARK SMILES IDX 98 25 100 26 99 27 85 28 86 29 93 30 87 31 88 32 92 33 89 35
REMARK SMILES IDX 91 36 90 37 17 38 18 39 19 40 20 41 21 43 22 44 23 45 84 46
REMARK SMILES IDX 24 47 83 48 25 49 26 50 27 51 77 52 28 53 82 54 76 55 78 56
REMARK SMILES IDX 29 57 81 58 75 59 74 60 30 62 62 63 42 64 61 65 43 66 46 67
REMARK SMILES IDX 60 68 79 69 44 70 45 71 59 73 80 74 47 75 31 76 32 77 40 78
REMARK SMILES IDX 33 79 39 80 41 81 38 82 34 83 35 84 36 85 37 86 63 87 64 88
REMARK SMILES IDX 72 89 65 90 71 91 73 92 70 93 66 94 67 95 68 96 69 97 48 98
REMARK SMILES IDX 49 99 57 100 50 101 56 102 58 103 55 104 51 105 52 106
REMARK SMILES IDX 53 107 54 108
REMARK H PARENT 12 8 8 16 87 34 19 42 78 61 46 72
REMARK Flexibility Score: inf
ROOT
ATOM      1  C   UNL A   1      36.923  20.947  25.010  1.00  0.00     0.002 C 
ENDROOT
BRANCH   1   2
ATOM      2  C   UNL A   1      36.956  21.936  23.841  1.00  0.00     0.002 C 
BRANCH   2   3
ATOM      3  C   UNL A   1      36.706  23.408  24.228  1.00  0.00     0.021 C 
BRANCH   3   4
ATOM      4  C   UNL A   1      36.228  23.689  25.687  1.00  0.00     0.116 C 
BRANCH   4   5
ATOM      5  N   UNL A   1      34.827  24.105  25.854  1.00  0.00    -0.351 N 
ATOM      6  C   UNL A   1      33.577  23.768  25.378  1.00  0.00     0.283 C 
ATOM      7  O   UNL A   1      32.659  24.362  25.962  1.00  0.00    -0.268 OA
ATOM      8  H   UNL A   1      34.762  24.844  26.501  1.00  0.00     0.163 HD
BRANCH   6   9
ATOM      9  C   UNL A   1      33.287  22.683  24.291  1.00  0.00     0.307 C 
BRANCH   9  10
ATOM     10  N   UNL A   1      32.639  23.090  22.985  1.00  0.00    -0.318 N 
ATOM     11  N   UNL A   1      31.440  25.757  22.897  1.00  0.00    -0.345 N 
ATOM     12  C   UNL A   1      30.754  24.695  23.616  1.00  0.00     0.179 C 
ATOM     13  C   UNL A   1      32.891  25.602  22.806  1.00  0.00     0.179 C 
ATOM     14  C   UNL A   1      31.192  23.396  22.922  1.00  0.00     0.284 C 
ATOM     15  C   UNL A   1      33.282  24.199  22.280  1.00  0.00     0.284 C 
ATOM     16  H   UNL A   1      32.784  22.182  22.545  1.00  0.00     0.349 HD
BRANCH  11  17
ATOM     17  C   UNL A   1      31.074  27.076  23.098  1.00  0.00     0.129 A 
ATOM     18  C   UNL A   1      32.209  29.705  25.536  1.00  0.00     0.045 C 
ATOM     19  C   UNL A   1      31.407  29.034  24.459  1.00  0.00    -0.038 A 
ATOM     20  C   UNL A   1      31.811  27.775  24.044  1.00  0.00     0.051 A 
ATOM     21  C   UNL A   1      30.267  29.596  23.856  1.00  0.00     0.003 A 
ATOM     22  C   UNL A   1      29.575  28.815  22.896  1.00  0.00     0.073 A 
ATOM     23  C   UNL A   1      29.792  30.883  24.175  1.00  0.00     0.010 A 
ATOM     24  N   UNL A   1      29.976  27.588  22.518  1.00  0.00    -0.231 NA
ATOM     25  C   UNL A   1      28.413  29.335  22.340  1.00  0.00     0.029 A 
ATOM     26  C   UNL A   1      28.638  31.387  23.581  1.00  0.00     0.001 A 
ATOM     27  C   UNL A   1      27.938  30.606  22.672  1.00  0.00     0.002 A 
ENDBRANCH  11  17
ENDBRANCH   9  10
BRANCH   9  28
ATOM     28  C   UNL A   1      32.611  21.373  24.827  1.00  0.00     0.044 A 
ATOM     29  C   UNL A   1      32.606  21.031  26.182  1.00  0.00     0.094 A 
ATOM     30  C   UNL A   1      32.514  20.065  24.205  1.00  0.00     0.009 A 
ATOM     31  N   UNL A   1      33.494  19.965  26.193  1.00  0.00    -0.361 N 
ATOM     32  C   UNL A   1      33.303  19.247  25.031  1.00  0.00     0.046 A 
ATOM     33  C   UNL A   1      32.079  19.518  22.981  1.00  0.00     0.011 A 
ATOM     34  H   UNL A   1      34.144  19.758  26.904  1.00  0.00     0.166 HD
ATOM     35  C   UNL A   1      33.882  18.049  24.593  1.00  0.00     0.026 A 
ATOM     36  C   UNL A   1      32.523  18.240  22.598  1.00  0.00     0.001 A 
ATOM     37  C   UNL A   1      33.475  17.559  23.353  1.00  0.00     0.002 A 
ENDBRANCH   9  28
ENDBRANCH   6   9
ENDBRANCH   4   5
ENDBRANCH   3   4
ENDBRANCH   2   3
ENDBRANCH   1   2
BRANCH   1  38
ATOM     38  C   UNL A   1      38.103  19.974  25.087  1.00  0.00     0.021 C 
BRANCH  38  39
ATOM     39  C   UNL A   1      39.336  20.503  25.821  1.00  0.00     0.116 C 
BRANCH  39  40
ATOM     40  N   UNL A   1      40.360  19.480  25.968  1.00  0.00    -0.352 N 
ATOM     41  C   UNL A   1      41.728  19.638  26.057  1.00  0.00     0.251 C 
ATOM     42  H   UNL A   1      40.035  18.552  26.010  1.00  0.00     0.163 HD
ATOM     43  O   UNL A   1      42.474  18.685  25.896  1.00  0.00    -0.269 OA
BRANCH  41  44
ATOM     44  C   UNL A   1      42.278  20.983  26.339  1.00  0.00     0.039 A 
ATOM     45  C   UNL A   1      42.578  21.842  25.279  1.00  0.00     0.014 A 
ATOM     46  C   UNL A   1      42.485  21.394  27.660  1.00  0.00     0.014 A 
ATOM     47  C   UNL A   1      43.029  23.137  25.548  1.00  0.00     0.010 A 
ATOM     48  C   UNL A   1      42.860  22.707  27.925  1.00  0.00     0.010 A 
ATOM     49  C   UNL A   1      43.143  23.592  26.873  1.00  0.00    -0.014 A 
BRANCH  49  50
ATOM     50  C   UNL A   1      43.562  24.988  27.174  1.00  0.00     0.031 A 
ATOM     51  C   UNL A   1      45.000  25.399  27.006  1.00  0.00     0.074 A 
ATOM     52  C   UNL A   1      42.663  25.866  27.662  1.00  0.00     0.049 A 
ATOM     53  N   UNL A   1      45.572  26.548  27.265  1.00  0.00    -0.248 NA
ATOM     54  C   UNL A   1      45.924  24.368  26.513  1.00  0.00     0.031 C 
ATOM     55  C   UNL A   1      41.254  25.570  27.924  1.00  0.00     0.029 A 
ATOM     56  N   UNL A   1      42.801  27.180  28.035  1.00  0.00    -0.354 N 
ATOM     57  C   UNL A   1      46.922  26.372  26.984  1.00  0.00     0.074 A 
ATOM     58  C   UNL A   1      47.090  24.985  26.605  1.00  0.00     0.031 C 
ATOM     59  C   UNL A   1      40.653  26.673  28.396  1.00  0.00     0.029 A 
ATOM     60  C   UNL A   1      41.641  27.741  28.516  1.00  0.00     0.049 A 
ATOM     61  H   UNL A   1      43.649  27.674  27.965  1.00  0.00     0.167 HD
ATOM     62  C   UNL A   1      47.924  27.287  27.019  1.00  0.00     0.034 A 
ATOM     63  C   UNL A   1      41.400  28.969  29.018  1.00  0.00     0.034 A 
ATOM     64  C   UNL A   1      47.730  28.666  27.400  1.00  0.00     0.049 A 
ATOM     65  C   UNL A   1      42.524  29.970  29.064  1.00  0.00     0.074 A 
ATOM     66  C   UNL A   1      48.651  29.700  27.395  1.00  0.00     0.029 A 
ATOM     67  N   UNL A   1      46.540  29.203  27.877  1.00  0.00    -0.354 N 
ATOM     68  N   UNL A   1      43.782  29.814  28.717  1.00  0.00    -0.248 NA
ATOM     69  C   UNL A   1      42.197  31.313  29.556  1.00  0.00     0.031 C 
ATOM     70  C   UNL A   1      48.046  30.830  27.955  1.00  0.00     0.029 A 
ATOM     71  C   UNL A   1      46.716  30.536  28.218  1.00  0.00     0.049 A 
ATOM     72  H   UNL A   1      45.692  28.708  27.962  1.00  0.00     0.167 HD
ATOM     73  C   UNL A   1      44.391  31.048  28.930  1.00  0.00     0.074 A 
ATOM     74  C   UNL A   1      43.357  31.939  29.418  1.00  0.00     0.031 C 
ATOM     75  C   UNL A   1      45.686  31.411  28.733  1.00  0.00     0.034 A 
BRANCH  62  76
ATOM     76  C   UNL A   1      49.317  26.804  26.675  1.00  0.00     0.023 A 
ATOM     77  C   UNL A   1      50.008  27.271  25.542  1.00  0.00     0.031 A 
ATOM     78  C   UNL A   1      49.943  25.818  27.460  1.00  0.00     0.131 A 
ATOM     79  C   UNL A   1      51.222  26.676  25.165  1.00  0.00     0.055 A 
ATOM     80  C   UNL A   1      51.201  25.305  27.135  1.00  0.00     0.041 A 
ATOM     81  F   UNL A   1      49.330  25.315  28.543  1.00  0.00    -0.206 F 
ATOM     82  C   UNL A   1      51.837  25.715  25.969  1.00  0.00     0.022 A 
BRANCH  79  83
ATOM     83  S   UNL A   1      51.878  27.031  23.511  1.00  0.00     0.124 S 
ATOM     84  O   UNL A   1      50.703  26.806  22.672  1.00  0.00    -0.237 OA
ATOM     85  O   UNL A   1      52.318  28.415  23.637  1.00  0.00    -0.237 OA
ATOM     86  O   UNL A   1      52.946  26.047  23.346  1.00  0.00    -0.744 OA
ENDBRANCH  79  83
ENDBRANCH  62  76
BRANCH  63  87
ATOM     87  C   UNL A   1      40.042  29.304  29.537  1.00  0.00     0.023 A 
ATOM     88  C   UNL A   1      39.760  29.301  30.912  1.00  0.00     0.031 A 
ATOM     89  C   UNL A   1      39.004  29.644  28.651  1.00  0.00     0.131 A 
ATOM     90  C   UNL A   1      38.464  29.610  31.359  1.00  0.00     0.055 A 
ATOM     91  C   UNL A   1      37.732  29.997  29.103  1.00  0.00     0.041 A 
ATOM     92  F   UNL A   1      39.223  29.667  27.327  1.00  0.00    -0.206 F 
ATOM     93  C   UNL A   1      37.454  29.974  30.466  1.00  0.00     0.022 A 
BRANCH  90  94
ATOM     94  S   UNL A   1      38.098  29.480  33.131  1.00  0.00     0.124 S 
ATOM     95  O   UNL A   1      37.482  30.774  33.404  1.00  0.00    -0.237 OA
ATOM     96  O   UNL A   1      37.209  28.323  33.174  1.00  0.00    -0.237 OA
ATOM     97  O   UNL A   1      39.412  29.275  33.736  1.00  0.00    -0.744 OA
ENDBRANCH  90  94
ENDBRANCH  63  87
BRANCH  75  98
ATOM     98  C   UNL A   1      46.049  32.850  29.020  1.00  0.00     0.023 A 
ATOM     99  C   UNL A   1      46.046  33.832  28.015  1.00  0.00     0.031 A 
ATOM    100  C   UNL A   1      46.408  33.242  30.323  1.00  0.00     0.131 A 
ATOM    101  C   UNL A   1      46.450  35.143  28.314  1.00  0.00     0.055 A 
ATOM    102  C   UNL A   1      46.740  34.562  30.630  1.00  0.00     0.041 A 
ATOM    103  F   UNL A   1      46.437  32.347  31.323  1.00  0.00    -0.206 F 
ATOM    104  C   UNL A   1      46.777  35.518  29.620  1.00  0.00     0.022 A 
BRANCH 101 105
ATOM    105  S   UNL A   1      46.647  36.327  26.954  1.00  0.00     0.124 S 
ATOM    106  O   UNL A   1      45.900  35.680  25.880  1.00  0.00    -0.237 OA
ATOM    107  O   UNL A   1      46.052  37.539  27.506  1.00  0.00    -0.237 OA
ATOM    108  O   UNL A   1      48.095  36.381  26.756  1.00  0.00    -0.744 OA
ENDBRANCH 101 105
ENDBRANCH  75  98
ENDBRANCH  49  50
ENDBRANCH  41  44
ENDBRANCH  39  40
ENDBRANCH  38  39
ENDBRANCH   1  38
TORSDOF 19
ENDMDL
