MODEL 1
REMARK VINA RESULT:     -12.1      0.000      0.000
REMARK SMILES O=C(CCC(=O)N1Cc2[nH]cnc2C[C@H]1C(=O)NCc1ccccc1)NCCCCCCNC(=O)c1ccc(-c2c3nc(c(-c4cc(S(=O)(=O)[O-])ccc4F)c4ccc([nH]4)c(-c4cc(S(=O)(=O)[O-])ccc4F)c4nc(c(-c5cc(S(=O)(=O)[O-])ccc5F)c5ccc2[nH]5)C=C4)C=C3)cc1
REMARK SMILES IDX 28 1 27 2 26 3 1 4 2 5 3 7 4 8 5 9 6 10 7 11 8 12 15 13 9 14
REMARK SMILES IDX 14 15 10 16 13 17 11 18 12 20 16 21 17 22 18 23 19 25 20 26
REMARK SMILES IDX 21 27 25 28 22 29 24 30 23 31 29 32 30 33 31 34 32 35 33 36
REMARK SMILES IDX 34 37 35 39 36 40 37 41 98 42 38 43 97 44 39 45 40 46 41 47
REMARK SMILES IDX 91 48 42 49 96 50 90 51 92 52 43 53 95 54 89 55 88 56 44 58
REMARK SMILES IDX 76 59 56 60 75 61 57 62 60 63 74 64 93 65 58 66 59 67 73 69
REMARK SMILES IDX 94 70 61 71 45 72 46 73 54 74 47 75 53 76 55 77 52 78 48 79
REMARK SMILES IDX 49 80 50 81 51 82 77 83 78 84 86 85 79 86 85 87 87 88 84 89
REMARK SMILES IDX 80 90 81 91 82 92 83 93 62 94 63 95 71 96 64 97 70 98 72 99
REMARK SMILES IDX 69 100 65 101 66 102 67 103 68 104
REMARK H PARENT 26 6 10 19 18 24 33 38 92 57 60 68
REMARK Flexibility Score: inf
ROOT
ATOM      1  C   UNL A   1      32.362  28.151  26.853  1.00  0.00     0.021 C 
ENDROOT
BRANCH   1   2
ATOM      2  C   UNL A   1      31.906  27.334  25.623  1.00  0.00     0.116 C 
BRANCH   2   3
ATOM      3  N   UNL A   1      32.042  25.875  25.672  1.00  0.00    -0.356 N 
ATOM      4  O   UNL A   1      30.148  25.498  24.418  1.00  0.00    -0.275 OA
ATOM      5  C   UNL A   1      31.178  25.067  24.929  1.00  0.00     0.220 C 
ATOM      6  H   UNL A   1      32.742  25.465  26.227  1.00  0.00     0.163 HD
BRANCH   5   7
ATOM      7  C   UNL A   1      31.655  23.622  24.663  1.00  0.00     0.110 C 
BRANCH   7   8
ATOM      8  C   UNL A   1      32.483  23.490  23.351  1.00  0.00     0.110 C 
BRANCH   8   9
ATOM      9  C   UNL A   1      34.033  23.533  23.446  1.00  0.00     0.224 C 
ATOM     10  O   UNL A   1      34.691  23.907  22.473  1.00  0.00    -0.275 OA
BRANCH   9  11
ATOM     11  N   UNL A   1      34.654  23.197  24.644  1.00  0.00    -0.324 N 
ATOM     12  C   UNL A   1      35.434  24.190  25.430  1.00  0.00     0.176 C 
ATOM     13  C   UNL A   1      34.842  21.793  25.024  1.00  0.00     0.180 C 
ATOM     14  C   UNL A   1      36.767  23.592  25.750  1.00  0.00     0.058 A 
ATOM     15  C   UNL A   1      36.284  21.407  24.714  1.00  0.00     0.093 C 
ATOM     16  N   UNL A   1      37.799  24.085  26.502  1.00  0.00    -0.347 N 
ATOM     17  C   UNL A   1      37.175  22.325  25.417  1.00  0.00     0.066 A 
ATOM     18  C   UNL A   1      38.772  23.113  26.543  1.00  0.00     0.197 A 
ATOM     19  H   UNL A   1      37.837  24.970  26.932  1.00  0.00     0.167 HD
ATOM     20  N   UNL A   1      38.407  22.027  25.899  1.00  0.00    -0.242 NA
BRANCH  13  21
ATOM     21  C   UNL A   1      33.945  21.239  26.151  1.00  0.00     0.243 C 
ATOM     22  O   UNL A   1      34.309  21.380  27.329  1.00  0.00    -0.273 OA
ATOM     23  N   UNL A   1      32.785  20.570  26.006  1.00  0.00    -0.350 N 
ATOM     24  H   UNL A   1      32.160  20.660  26.761  1.00  0.00     0.163 HD
BRANCH  23  25
ATOM     25  C   UNL A   1      32.307  19.744  24.929  1.00  0.00     0.151 C 
BRANCH  25  26
ATOM     26  C   UNL A   1      32.974  18.389  24.891  1.00  0.00    -0.029 A 
ATOM     27  C   UNL A   1      34.043  18.083  24.032  1.00  0.00     0.005 A 
ATOM     28  C   UNL A   1      32.513  17.393  25.763  1.00  0.00     0.005 A 
ATOM     29  C   UNL A   1      34.604  16.806  24.012  1.00  0.00     0.000 A 
ATOM     30  C   UNL A   1      33.083  16.119  25.751  1.00  0.00     0.000 A 
ATOM     31  C   UNL A   1      34.122  15.824  24.869  1.00  0.00     0.000 A 
ENDBRANCH  25  26
ENDBRANCH  23  25
ENDBRANCH  13  21
ENDBRANCH   9  11
ENDBRANCH   8   9
ENDBRANCH   7   8
ENDBRANCH   5   7
ENDBRANCH   2   3
ENDBRANCH   1   2
BRANCH   1  32
ATOM     32  C   UNL A   1      31.748  29.536  27.165  1.00  0.00     0.002 C 
BRANCH  32  33
ATOM     33  C   UNL A   1      32.620  30.780  26.914  1.00  0.00     0.002 C 
BRANCH  33  34
ATOM     34  C   UNL A   1      33.993  30.911  27.564  1.00  0.00     0.021 C 
BRANCH  34  35
ATOM     35  C   UNL A   1      34.401  32.331  27.937  1.00  0.00     0.116 C 
BRANCH  35  36
ATOM     36  N   UNL A   1      34.490  32.588  29.376  1.00  0.00    -0.352 N 
ATOM     37  C   UNL A   1      35.302  31.916  30.284  1.00  0.00     0.251 C 
ATOM     38  H   UNL A   1      33.922  33.308  29.735  1.00  0.00     0.163 HD
ATOM     39  O   UNL A   1      35.098  31.943  31.479  1.00  0.00    -0.269 OA
BRANCH  37  40
ATOM     40  C   UNL A   1      36.426  31.154  29.701  1.00  0.00     0.039 A 
ATOM     41  C   UNL A   1      37.642  31.784  29.449  1.00  0.00     0.014 A 
ATOM     42  C   UNL A   1      36.307  29.764  29.693  1.00  0.00     0.014 A 
ATOM     43  C   UNL A   1      38.787  30.996  29.337  1.00  0.00     0.010 A 
ATOM     44  C   UNL A   1      37.458  28.995  29.670  1.00  0.00     0.010 A 
ATOM     45  C   UNL A   1      38.711  29.601  29.523  1.00  0.00    -0.014 A 
BRANCH  45  46
ATOM     46  C   UNL A   1      39.951  28.848  29.796  1.00  0.00     0.031 A 
ATOM     47  C   UNL A   1      40.280  28.642  31.241  1.00  0.00     0.074 A 
ATOM     48  C   UNL A   1      40.666  28.140  28.895  1.00  0.00     0.049 A 
ATOM     49  N   UNL A   1      41.297  29.094  31.900  1.00  0.00    -0.248 NA
ATOM     50  C   UNL A   1      39.315  27.915  32.081  1.00  0.00     0.031 C 
ATOM     51  C   UNL A   1      40.351  27.918  27.483  1.00  0.00     0.029 A 
ATOM     52  N   UNL A   1      41.781  27.364  29.088  1.00  0.00    -0.354 N 
ATOM     53  C   UNL A   1      41.225  28.537  33.177  1.00  0.00     0.074 A 
ATOM     54  C   UNL A   1      39.909  27.964  33.276  1.00  0.00     0.031 C 
ATOM     55  C   UNL A   1      41.098  26.899  27.009  1.00  0.00     0.029 A 
ATOM     56  C   UNL A   1      42.073  26.527  28.018  1.00  0.00     0.049 A 
ATOM     57  H   UNL A   1      42.325  27.400  29.907  1.00  0.00     0.167 HD
ATOM     58  C   UNL A   1      42.339  28.417  33.957  1.00  0.00     0.034 A 
ATOM     59  C   UNL A   1      43.057  25.603  27.915  1.00  0.00     0.034 A 
ATOM     60  C   UNL A   1      43.430  29.186  33.403  1.00  0.00     0.049 A 
ATOM     61  C   UNL A   1      44.151  25.999  28.826  1.00  0.00     0.074 A 
ATOM     62  C   UNL A   1      43.750  30.518  33.261  1.00  0.00     0.029 A 
ATOM     63  N   UNL A   1      44.281  28.482  32.587  1.00  0.00    -0.354 N 
ATOM     64  N   UNL A   1      44.830  27.102  28.685  1.00  0.00    -0.248 NA
ATOM     65  C   UNL A   1      44.327  25.329  30.109  1.00  0.00     0.031 C 
ATOM     66  C   UNL A   1      44.599  30.595  32.116  1.00  0.00     0.029 A 
ATOM     67  C   UNL A   1      44.790  29.306  31.618  1.00  0.00     0.049 A 
ATOM     68  H   UNL A   1      44.496  27.527  32.686  1.00  0.00     0.167 HD
ATOM     69  C   UNL A   1      45.146  27.486  29.970  1.00  0.00     0.074 A 
ATOM     70  C   UNL A   1      44.991  26.280  30.771  1.00  0.00     0.031 C 
ATOM     71  C   UNL A   1      45.183  28.806  30.311  1.00  0.00     0.034 A 
BRANCH  58  72
ATOM     72  C   UNL A   1      42.630  27.317  34.974  1.00  0.00     0.023 A 
ATOM     73  C   UNL A   1      43.510  26.283  34.567  1.00  0.00     0.031 A 
ATOM     74  C   UNL A   1      41.905  27.055  36.154  1.00  0.00     0.131 A 
ATOM     75  C   UNL A   1      43.544  25.042  35.228  1.00  0.00     0.055 A 
ATOM     76  C   UNL A   1      41.986  25.838  36.845  1.00  0.00     0.041 A 
ATOM     77  F   UNL A   1      41.023  27.917  36.670  1.00  0.00    -0.206 F 
ATOM     78  C   UNL A   1      42.780  24.809  36.364  1.00  0.00     0.022 A 
BRANCH  75  79
ATOM     79  S   UNL A   1      44.468  23.678  34.469  1.00  0.00     0.124 S 
ATOM     80  O   UNL A   1      45.501  24.395  33.730  1.00  0.00    -0.237 OA
ATOM     81  O   UNL A   1      44.910  22.928  35.638  1.00  0.00    -0.237 OA
ATOM     82  O   UNL A   1      43.464  23.009  33.643  1.00  0.00    -0.744 OA
ENDBRANCH  75  79
ENDBRANCH  58  72
BRANCH  59  83
ATOM     83  C   UNL A   1      43.047  24.351  27.126  1.00  0.00     0.023 A 
ATOM     84  C   UNL A   1      43.973  24.095  26.098  1.00  0.00     0.031 A 
ATOM     85  C   UNL A   1      42.233  23.274  27.543  1.00  0.00     0.131 A 
ATOM     86  C   UNL A   1      44.062  22.804  25.534  1.00  0.00     0.055 A 
ATOM     87  C   UNL A   1      42.319  22.002  26.976  1.00  0.00     0.041 A 
ATOM     88  F   UNL A   1      41.384  23.409  28.574  1.00  0.00    -0.206 F 
ATOM     89  C   UNL A   1      43.244  21.759  25.972  1.00  0.00     0.022 A 
BRANCH  86  90
ATOM     90  S   UNL A   1      45.342  22.443  24.292  1.00  0.00     0.124 S 
ATOM     91  O   UNL A   1      46.328  21.702  25.069  1.00  0.00    -0.237 OA
ATOM     92  O   UNL A   1      44.601  21.685  23.289  1.00  0.00    -0.237 OA
ATOM     93  O   UNL A   1      45.774  23.772  23.855  1.00  0.00    -0.744 OA
ENDBRANCH  86  90
ENDBRANCH  59  83
BRANCH  71  94
ATOM     94  C   UNL A   1      45.457  29.806  29.215  1.00  0.00     0.023 A 
ATOM     95  C   UNL A   1      46.738  30.267  28.840  1.00  0.00     0.031 A 
ATOM     96  C   UNL A   1      44.352  30.281  28.487  1.00  0.00     0.131 A 
ATOM     97  C   UNL A   1      46.872  31.186  27.782  1.00  0.00     0.055 A 
ATOM     98  C   UNL A   1      44.489  31.174  27.426  1.00  0.00     0.041 A 
ATOM     99  F   UNL A   1      43.109  29.865  28.786  1.00  0.00    -0.206 F 
ATOM    100  C   UNL A   1      45.751  31.638  27.076  1.00  0.00     0.022 A 
BRANCH  97 101
ATOM    101  S   UNL A   1      48.509  31.836  27.326  1.00  0.00     0.124 S 
ATOM    102  O   UNL A   1      48.267  32.537  26.070  1.00  0.00    -0.237 OA
ATOM    103  O   UNL A   1      48.843  32.678  28.472  1.00  0.00    -0.237 OA
ATOM    104  O   UNL A   1      49.331  30.630  27.201  1.00  0.00    -0.744 OA
ENDBRANCH  97 101
ENDBRANCH  71  94
ENDBRANCH  45  46
ENDBRANCH  37  40
ENDBRANCH  35  36
ENDBRANCH  34  35
ENDBRANCH  33  34
ENDBRANCH  32  33
ENDBRANCH   1  32
TORSDOF 22
ENDMDL
MODEL 2
REMARK VINA RESULT:     -11.6      3.726      4.847
REMARK SMILES O=C(CCC(=O)N1Cc2[nH]cnc2C[C@H]1C(=O)NCc1ccccc1)NCCCCCCNC(=O)c1ccc(-c2c3nc(c(-c4cc(S(=O)(=O)[O-])ccc4F)c4ccc([nH]4)c(-c4cc(S(=O)(=O)[O-])ccc4F)c4nc(c(-c5cc(S(=O)(=O)[O-])ccc5F)c5ccc2[nH]5)C=C4)C=C3)cc1
REMARK SMILES IDX 28 1 27 2 26 3 1 4 2 5 3 7 4 8 5 9 6 10 7 11 8 12 15 13 9 14
REMARK SMILES IDX 14 15 10 16 13 17 11 18 12 20 16 21 17 22 18 23 19 25 20 26
REMARK SMILES IDX 21 27 25 28 22 29 24 30 23 31 29 32 30 33 31 34 32 35 33 36
REMARK SMILES IDX 34 37 35 39 36 40 37 41 98 42 38 43 97 44 39 45 40 46 41 47
REMARK SMILES IDX 91 48 42 49 96 50 90 51 92 52 43 53 95 54 89 55 88 56 44 58
REMARK SMILES IDX 76 59 56 60 75 61 57 62 60 63 74 64 93 65 58 66 59 67 73 69
REMARK SMILES IDX 94 70 61 71 45 72 46 73 54 74 47 75 53 76 55 77 52 78 48 79
REMARK SMILES IDX 49 80 50 81 51 82 77 83 78 84 86 85 79 86 85 87 87 88 84 89
REMARK SMILES IDX 80 90 81 91 82 92 83 93 62 94 63 95 71 96 64 97 70 98 72 99
REMARK SMILES IDX 69 100 65 101 66 102 67 103 68 104
REMARK H PARENT 26 6 10 19 18 24 33 38 92 57 60 68
REMARK Flexibility Score: inf
ROOT
ATOM      1  C   UNL A   1      34.548  30.603  27.669  1.00  0.00     0.021 C 
ENDROOT
BRANCH   1   2
ATOM      2  C   UNL A   1      33.188  29.985  27.270  1.00  0.00     0.116 C 
BRANCH   2   3
ATOM      3  N   UNL A   1      33.192  28.698  26.568  1.00  0.00    -0.356 N 
ATOM      4  O   UNL A   1      31.408  27.862  27.759  1.00  0.00    -0.275 OA
ATOM      5  C   UNL A   1      32.179  27.766  26.809  1.00  0.00     0.220 C 
ATOM      6  H   UNL A   1      33.908  28.490  25.926  1.00  0.00     0.163 HD
BRANCH   5   7
ATOM      7  C   UNL A   1      31.987  26.675  25.733  1.00  0.00     0.110 C 
BRANCH   7   8
ATOM      8  C   UNL A   1      32.889  26.892  24.483  1.00  0.00     0.110 C 
BRANCH   8   9
ATOM      9  C   UNL A   1      33.433  25.643  23.736  1.00  0.00     0.224 C 
ATOM     10  O   UNL A   1      33.560  25.676  22.510  1.00  0.00    -0.275 OA
BRANCH   9  11
ATOM     11  N   UNL A   1      33.816  24.523  24.466  1.00  0.00    -0.324 N 
ATOM     12  C   UNL A   1      34.827  24.604  25.555  1.00  0.00     0.176 C 
ATOM     13  C   UNL A   1      33.492  23.173  23.995  1.00  0.00     0.180 C 
ATOM     14  C   UNL A   1      35.854  23.542  25.319  1.00  0.00     0.058 A 
ATOM     15  C   UNL A   1      34.738  22.588  23.338  1.00  0.00     0.093 C 
ATOM     16  N   UNL A   1      36.935  23.176  26.075  1.00  0.00    -0.347 N 
ATOM     17  C   UNL A   1      35.834  22.621  24.302  1.00  0.00     0.066 A 
ATOM     18  C   UNL A   1      37.518  22.096  25.454  1.00  0.00     0.197 A 
ATOM     19  H   UNL A   1      37.238  23.606  26.907  1.00  0.00     0.167 HD
ATOM     20  N   UNL A   1      36.855  21.732  24.378  1.00  0.00    -0.242 NA
BRANCH  13  21
ATOM     21  C   UNL A   1      32.383  22.409  24.747  1.00  0.00     0.243 C 
ATOM     22  O   UNL A   1      31.345  23.015  25.059  1.00  0.00    -0.273 OA
ATOM     23  N   UNL A   1      32.415  21.124  25.149  1.00  0.00    -0.350 N 
ATOM     24  H   UNL A   1      31.534  20.692  25.220  1.00  0.00     0.163 HD
BRANCH  23  25
ATOM     25  C   UNL A   1      33.527  20.277  25.493  1.00  0.00     0.151 C 
BRANCH  25  26
ATOM     26  C   UNL A   1      33.586  19.021  24.656  1.00  0.00    -0.029 A 
ATOM     27  C   UNL A   1      34.477  17.966  24.917  1.00  0.00     0.005 A 
ATOM     28  C   UNL A   1      32.703  18.896  23.575  1.00  0.00     0.005 A 
ATOM     29  C   UNL A   1      34.515  16.840  24.096  1.00  0.00     0.000 A 
ATOM     30  C   UNL A   1      32.733  17.764  22.760  1.00  0.00     0.000 A 
ATOM     31  C   UNL A   1      33.645  16.740  23.015  1.00  0.00     0.000 A 
ENDBRANCH  25  26
ENDBRANCH  23  25
ENDBRANCH  13  21
ENDBRANCH   9  11
ENDBRANCH   8   9
ENDBRANCH   7   8
ENDBRANCH   5   7
ENDBRANCH   2   3
ENDBRANCH   1   2
BRANCH   1  32
ATOM     32  C   UNL A   1      34.674  32.107  28.006  1.00  0.00     0.002 C 
BRANCH  32  33
ATOM     33  C   UNL A   1      33.410  32.978  27.881  1.00  0.00     0.002 C 
BRANCH  33  34
ATOM     34  C   UNL A   1      33.484  34.488  28.080  1.00  0.00     0.021 C 
BRANCH  34  35
ATOM     35  C   UNL A   1      34.080  34.938  29.408  1.00  0.00     0.116 C 
BRANCH  35  36
ATOM     36  N   UNL A   1      33.123  35.535  30.342  1.00  0.00    -0.352 N 
ATOM     37  C   UNL A   1      32.977  35.215  31.689  1.00  0.00     0.251 C 
ATOM     38  H   UNL A   1      32.526  36.232  29.984  1.00  0.00     0.163 HD
ATOM     39  O   UNL A   1      31.977  35.493  32.316  1.00  0.00    -0.269 OA
BRANCH  37  40
ATOM     40  C   UNL A   1      34.114  34.504  32.308  1.00  0.00     0.039 A 
ATOM     41  C   UNL A   1      34.202  33.116  32.222  1.00  0.00     0.014 A 
ATOM     42  C   UNL A   1      35.201  35.282  32.709  1.00  0.00     0.014 A 
ATOM     43  C   UNL A   1      35.449  32.518  32.397  1.00  0.00     0.010 A 
ATOM     44  C   UNL A   1      36.450  34.691  32.793  1.00  0.00     0.010 A 
ATOM     45  C   UNL A   1      36.595  33.311  32.608  1.00  0.00    -0.014 A 
BRANCH  45  46
ATOM     46  C   UNL A   1      37.927  32.713  32.394  1.00  0.00     0.031 A 
ATOM     47  C   UNL A   1      38.754  32.513  33.625  1.00  0.00     0.074 A 
ATOM     48  C   UNL A   1      38.360  32.121  31.260  1.00  0.00     0.049 A 
ATOM     49  N   UNL A   1      39.879  33.072  33.929  1.00  0.00    -0.248 NA
ATOM     50  C   UNL A   1      38.222  31.651  34.692  1.00  0.00     0.031 C 
ATOM     51  C   UNL A   1      37.604  31.897  30.026  1.00  0.00     0.029 A 
ATOM     52  N   UNL A   1      39.550  31.486  31.011  1.00  0.00    -0.354 N 
ATOM     53  C   UNL A   1      40.313  32.479  35.114  1.00  0.00     0.074 A 
ATOM     54  C   UNL A   1      39.181  31.744  35.616  1.00  0.00     0.031 C 
ATOM     55  C   UNL A   1      38.247  30.991  29.261  1.00  0.00     0.029 A 
ATOM     56  C   UNL A   1      39.544  30.719  29.853  1.00  0.00     0.049 A 
ATOM     57  H   UNL A   1      40.336  31.568  31.598  1.00  0.00     0.167 HD
ATOM     58  C   UNL A   1      41.633  32.478  35.461  1.00  0.00     0.034 A 
ATOM     59  C   UNL A   1      40.527  29.927  29.362  1.00  0.00     0.034 A 
ATOM     60  C   UNL A   1      42.377  33.391  34.623  1.00  0.00     0.049 A 
ATOM     61  C   UNL A   1      41.818  30.433  29.872  1.00  0.00     0.074 A 
ATOM     62  C   UNL A   1      42.482  34.756  34.469  1.00  0.00     0.029 A 
ATOM     63  N   UNL A   1      42.966  32.819  33.522  1.00  0.00    -0.354 N 
ATOM     64  N   UNL A   1      42.283  31.615  29.582  1.00  0.00    -0.248 NA
ATOM     65  C   UNL A   1      42.496  29.759  30.972  1.00  0.00     0.031 C 
ATOM     66  C   UNL A   1      42.871  34.966  33.112  1.00  0.00     0.029 A 
ATOM     67  C   UNL A   1      43.017  33.724  32.494  1.00  0.00     0.049 A 
ATOM     68  H   UNL A   1      43.303  31.896  33.478  1.00  0.00     0.167 HD
ATOM     69  C   UNL A   1      42.979  32.003  30.706  1.00  0.00     0.074 A 
ATOM     70  C   UNL A   1      43.241  30.768  31.431  1.00  0.00     0.031 C 
ATOM     71  C   UNL A   1      42.988  33.309  31.101  1.00  0.00     0.034 A 
BRANCH  58  72
ATOM     72  C   UNL A   1      42.374  31.399  36.245  1.00  0.00     0.023 A 
ATOM     73  C   UNL A   1      43.136  31.825  37.361  1.00  0.00     0.031 A 
ATOM     74  C   UNL A   1      42.623  30.078  35.821  1.00  0.00     0.131 A 
ATOM     75  C   UNL A   1      44.156  31.025  37.906  1.00  0.00     0.055 A 
ATOM     76  C   UNL A   1      43.601  29.260  36.405  1.00  0.00     0.041 A 
ATOM     77  F   UNL A   1      42.000  29.522  34.776  1.00  0.00    -0.206 F 
ATOM     78  C   UNL A   1      44.399  29.743  37.429  1.00  0.00     0.022 A 
BRANCH  75  79
ATOM     79  S   UNL A   1      45.278  31.759  39.127  1.00  0.00     0.124 S 
ATOM     80  O   UNL A   1      46.470  30.933  38.969  1.00  0.00    -0.237 OA
ATOM     81  O   UNL A   1      45.377  33.135  38.655  1.00  0.00    -0.237 OA
ATOM     82  O   UNL A   1      44.564  31.585  40.391  1.00  0.00    -0.744 OA
ENDBRANCH  75  79
ENDBRANCH  58  72
BRANCH  59  83
ATOM     83  C   UNL A   1      40.382  28.703  28.542  1.00  0.00     0.023 A 
ATOM     84  C   UNL A   1      41.213  28.424  27.442  1.00  0.00     0.031 A 
ATOM     85  C   UNL A   1      39.534  27.665  28.989  1.00  0.00     0.131 A 
ATOM     86  C   UNL A   1      41.180  27.149  26.838  1.00  0.00     0.055 A 
ATOM     87  C   UNL A   1      39.499  26.409  28.382  1.00  0.00     0.041 A 
ATOM     88  F   UNL A   1      38.772  27.817  30.084  1.00  0.00    -0.206 F 
ATOM     89  C   UNL A   1      40.332  26.142  27.307  1.00  0.00     0.022 A 
BRANCH  86  90
ATOM     90  S   UNL A   1      42.341  26.751  25.495  1.00  0.00     0.124 S 
ATOM     91  O   UNL A   1      41.756  25.542  24.928  1.00  0.00    -0.237 OA
ATOM     92  O   UNL A   1      42.287  27.950  24.666  1.00  0.00    -0.237 OA
ATOM     93  O   UNL A   1      43.612  26.551  26.194  1.00  0.00    -0.744 OA
ENDBRANCH  86  90
ENDBRANCH  59  83
BRANCH  71  94
ATOM     94  C   UNL A   1      42.757  34.362  30.045  1.00  0.00     0.023 A 
ATOM     95  C   UNL A   1      43.763  34.931  29.234  1.00  0.00     0.031 A 
ATOM     96  C   UNL A   1      41.431  34.776  29.829  1.00  0.00     0.131 A 
ATOM     97  C   UNL A   1      43.424  35.891  28.263  1.00  0.00     0.055 A 
ATOM     98  C   UNL A   1      41.095  35.711  28.852  1.00  0.00     0.041 A 
ATOM     99  F   UNL A   1      40.428  34.258  30.558  1.00  0.00    -0.206 F 
ATOM    100  C   UNL A   1      42.093  36.280  28.071  1.00  0.00     0.022 A 
BRANCH  97 101
ATOM    101  S   UNL A   1      44.716  36.678  27.251  1.00  0.00     0.124 S 
ATOM    102  O   UNL A   1      44.898  35.752  26.140  1.00  0.00    -0.237 OA
ATOM    103  O   UNL A   1      44.113  37.966  26.917  1.00  0.00    -0.237 OA
ATOM    104  O   UNL A   1      45.858  36.763  28.165  1.00  0.00    -0.744 OA
ENDBRANCH  97 101
ENDBRANCH  71  94
ENDBRANCH  45  46
ENDBRANCH  37  40
ENDBRANCH  35  36
ENDBRANCH  34  35
ENDBRANCH  33  34
ENDBRANCH  32  33
ENDBRANCH   1  32
TORSDOF 22
ENDMDL
MODEL 3
REMARK VINA RESULT:     -11.5      3.854      5.783
REMARK SMILES O=C(CCC(=O)N1Cc2[nH]cnc2C[C@H]1C(=O)NCc1ccccc1)NCCCCCCNC(=O)c1ccc(-c2c3nc(c(-c4cc(S(=O)(=O)[O-])ccc4F)c4ccc([nH]4)c(-c4cc(S(=O)(=O)[O-])ccc4F)c4nc(c(-c5cc(S(=O)(=O)[O-])ccc5F)c5ccc2[nH]5)C=C4)C=C3)cc1
REMARK SMILES IDX 28 1 27 2 26 3 1 4 2 5 3 7 4 8 5 9 6 10 7 11 8 12 15 13 9 14
REMARK SMILES IDX 14 15 10 16 13 17 11 18 12 20 16 21 17 22 18 23 19 25 20 26
REMARK SMILES IDX 21 27 25 28 22 29 24 30 23 31 29 32 30 33 31 34 32 35 33 36
REMARK SMILES IDX 34 37 35 39 36 40 37 41 98 42 38 43 97 44 39 45 40 46 41 47
REMARK SMILES IDX 91 48 42 49 96 50 90 51 92 52 43 53 95 54 89 55 88 56 44 58
REMARK SMILES IDX 76 59 56 60 75 61 57 62 60 63 74 64 93 65 58 66 59 67 73 69
REMARK SMILES IDX 94 70 61 71 45 72 46 73 54 74 47 75 53 76 55 77 52 78 48 79
REMARK SMILES IDX 49 80 50 81 51 82 77 83 78 84 86 85 79 86 85 87 87 88 84 89
REMARK SMILES IDX 80 90 81 91 82 92 83 93 62 94 63 95 71 96 64 97 70 98 72 99
REMARK SMILES IDX 69 100 65 101 66 102 67 103 68 104
REMARK H PARENT 26 6 10 19 18 24 33 38 92 57 60 68
REMARK Flexibility Score: inf
ROOT
ATOM      1  C   UNL A   1      34.455  30.559  27.628  1.00  0.00     0.021 C 
ENDROOT
BRANCH   1   2
ATOM      2  C   UNL A   1      33.055  30.005  27.279  1.00  0.00     0.116 C 
BRANCH   2   3
ATOM      3  N   UNL A   1      32.950  28.605  26.855  1.00  0.00    -0.356 N 
ATOM      4  O   UNL A   1      31.061  28.202  28.107  1.00  0.00    -0.275 OA
ATOM      5  C   UNL A   1      31.844  27.840  27.233  1.00  0.00     0.220 C 
ATOM      6  H   UNL A   1      33.659  28.205  26.303  1.00  0.00     0.163 HD
BRANCH   5   7
ATOM      7  C   UNL A   1      31.574  26.571  26.395  1.00  0.00     0.110 C 
BRANCH   7   8
ATOM      8  C   UNL A   1      32.537  25.399  26.745  1.00  0.00     0.110 C 
BRANCH   8   9
ATOM      9  C   UNL A   1      33.446  24.828  25.621  1.00  0.00     0.224 C 
ATOM     10  O   UNL A   1      34.534  25.362  25.390  1.00  0.00    -0.275 OA
BRANCH   9  11
ATOM     11  N   UNL A   1      33.043  23.692  24.927  1.00  0.00    -0.324 N 
ATOM     12  C   UNL A   1      32.158  22.668  25.543  1.00  0.00     0.176 C 
ATOM     13  C   UNL A   1      33.718  23.291  23.689  1.00  0.00     0.180 C 
ATOM     14  C   UNL A   1      32.785  21.325  25.343  1.00  0.00     0.058 A 
ATOM     15  C   UNL A   1      34.692  22.165  24.024  1.00  0.00     0.093 C 
ATOM     16  N   UNL A   1      32.325  20.078  25.668  1.00  0.00    -0.347 N 
ATOM     17  C   UNL A   1      33.952  21.081  24.661  1.00  0.00     0.066 A 
ATOM     18  C   UNL A   1      33.250  19.170  25.205  1.00  0.00     0.197 A 
ATOM     19  H   UNL A   1      31.489  19.870  26.145  1.00  0.00     0.167 HD
ATOM     20  N   UNL A   1      34.243  19.760  24.576  1.00  0.00    -0.242 NA
BRANCH  13  21
ATOM     21  C   UNL A   1      32.957  23.508  22.365  1.00  0.00     0.243 C 
ATOM     22  O   UNL A   1      32.987  22.615  21.504  1.00  0.00    -0.273 OA
ATOM     23  N   UNL A   1      32.261  24.603  22.003  1.00  0.00    -0.350 N 
ATOM     24  H   UNL A   1      31.527  24.434  21.369  1.00  0.00     0.163 HD
BRANCH  23  25
ATOM     25  C   UNL A   1      32.413  25.981  22.389  1.00  0.00     0.151 C 
BRANCH  25  26
ATOM     26  C   UNL A   1      31.100  26.638  22.742  1.00  0.00    -0.029 A 
ATOM     27  C   UNL A   1      30.793  27.969  22.411  1.00  0.00     0.005 A 
ATOM     28  C   UNL A   1      30.135  25.881  23.422  1.00  0.00     0.005 A 
ATOM     29  C   UNL A   1      29.578  28.540  22.787  1.00  0.00     0.000 A 
ATOM     30  C   UNL A   1      28.914  26.449  23.787  1.00  0.00     0.000 A 
ATOM     31  C   UNL A   1      28.640  27.781  23.478  1.00  0.00     0.000 A 
ENDBRANCH  25  26
ENDBRANCH  23  25
ENDBRANCH  13  21
ENDBRANCH   9  11
ENDBRANCH   8   9
ENDBRANCH   7   8
ENDBRANCH   5   7
ENDBRANCH   2   3
ENDBRANCH   1   2
BRANCH   1  32
ATOM     32  C   UNL A   1      34.655  32.047  28.002  1.00  0.00     0.002 C 
BRANCH  32  33
ATOM     33  C   UNL A   1      33.411  32.953  28.027  1.00  0.00     0.002 C 
BRANCH  33  34
ATOM     34  C   UNL A   1      33.548  34.455  28.250  1.00  0.00     0.021 C 
BRANCH  34  35
ATOM     35  C   UNL A   1      34.130  34.860  29.599  1.00  0.00     0.116 C 
BRANCH  35  36
ATOM     36  N   UNL A   1      33.160  35.411  30.548  1.00  0.00    -0.352 N 
ATOM     37  C   UNL A   1      33.036  35.068  31.891  1.00  0.00     0.251 C 
ATOM     38  H   UNL A   1      32.538  36.092  30.204  1.00  0.00     0.163 HD
ATOM     39  O   UNL A   1      32.032  35.303  32.529  1.00  0.00    -0.269 OA
BRANCH  37  40
ATOM     40  C   UNL A   1      34.201  34.388  32.492  1.00  0.00     0.039 A 
ATOM     41  C   UNL A   1      34.310  33.000  32.429  1.00  0.00     0.014 A 
ATOM     42  C   UNL A   1      35.285  35.190  32.849  1.00  0.00     0.014 A 
ATOM     43  C   UNL A   1      35.571  32.426  32.581  1.00  0.00     0.010 A 
ATOM     44  C   UNL A   1      36.546  34.622  32.911  1.00  0.00     0.010 A 
ATOM     45  C   UNL A   1      36.709  33.242  32.747  1.00  0.00    -0.014 A 
BRANCH  45  46
ATOM     46  C   UNL A   1      38.045  32.661  32.508  1.00  0.00     0.031 A 
ATOM     47  C   UNL A   1      38.885  32.443  33.726  1.00  0.00     0.074 A 
ATOM     48  C   UNL A   1      38.473  32.099  31.357  1.00  0.00     0.049 A 
ATOM     49  N   UNL A   1      40.008  33.007  34.032  1.00  0.00    -0.248 NA
ATOM     50  C   UNL A   1      38.371  31.553  34.779  1.00  0.00     0.031 C 
ATOM     51  C   UNL A   1      37.708  31.895  30.126  1.00  0.00     0.029 A 
ATOM     52  N   UNL A   1      39.667  31.482  31.084  1.00  0.00    -0.354 N 
ATOM     53  C   UNL A   1      40.458  32.392  35.201  1.00  0.00     0.074 A 
ATOM     54  C   UNL A   1      39.338  31.636  35.697  1.00  0.00     0.031 C 
ATOM     55  C   UNL A   1      38.353  31.012  29.335  1.00  0.00     0.029 A 
ATOM     56  C   UNL A   1      39.659  30.740  29.910  1.00  0.00     0.049 A 
ATOM     57  H   UNL A   1      40.458  31.559  31.665  1.00  0.00     0.167 HD
ATOM     58  C   UNL A   1      41.781  32.398  35.535  1.00  0.00     0.034 A 
ATOM     59  C   UNL A   1      40.644  29.969  29.392  1.00  0.00     0.034 A 
ATOM     60  C   UNL A   1      42.508  33.336  34.711  1.00  0.00     0.049 A 
ATOM     61  C   UNL A   1      41.935  30.476  29.902  1.00  0.00     0.074 A 
ATOM     62  C   UNL A   1      42.598  34.705  34.586  1.00  0.00     0.029 A 
ATOM     63  N   UNL A   1      43.093  32.794  33.592  1.00  0.00    -0.354 N 
ATOM     64  N   UNL A   1      42.385  31.669  29.634  1.00  0.00    -0.248 NA
ATOM     65  C   UNL A   1      42.630  29.785  30.980  1.00  0.00     0.031 C 
ATOM     66  C   UNL A   1      42.972  34.948  33.230  1.00  0.00     0.029 A 
ATOM     67  C   UNL A   1      43.125  33.721  32.584  1.00  0.00     0.049 A 
ATOM     68  H   UNL A   1      43.439  31.875  33.526  1.00  0.00     0.167 HD
ATOM     69  C   UNL A   1      43.088  32.040  30.760  1.00  0.00     0.074 A 
ATOM     70  C   UNL A   1      43.369  30.792  31.455  1.00  0.00     0.031 C 
ATOM     71  C   UNL A   1      43.088  33.337  31.183  1.00  0.00     0.034 A 
BRANCH  58  72
ATOM     72  C   UNL A   1      42.540  31.309  36.289  1.00  0.00     0.023 A 
ATOM     73  C   UNL A   1      43.205  31.696  37.479  1.00  0.00     0.031 A 
ATOM     74  C   UNL A   1      42.897  30.039  35.791  1.00  0.00     0.131 A 
ATOM     75  C   UNL A   1      44.238  30.919  38.032  1.00  0.00     0.055 A 
ATOM     76  C   UNL A   1      43.887  29.240  36.380  1.00  0.00     0.041 A 
ATOM     77  F   UNL A   1      42.375  29.526  34.672  1.00  0.00    -0.206 F 
ATOM     78  C   UNL A   1      44.590  29.692  37.484  1.00  0.00     0.022 A 
BRANCH  75  79
ATOM     79  S   UNL A   1      45.236  31.626  39.372  1.00  0.00     0.124 S 
ATOM     80  O   UNL A   1      46.333  32.240  38.632  1.00  0.00    -0.237 OA
ATOM     81  O   UNL A   1      44.288  32.539  40.002  1.00  0.00    -0.237 OA
ATOM     82  O   UNL A   1      45.602  30.460  40.173  1.00  0.00    -0.744 OA
ENDBRANCH  75  79
ENDBRANCH  58  72
BRANCH  59  83
ATOM     83  C   UNL A   1      40.504  28.762  28.547  1.00  0.00     0.023 A 
ATOM     84  C   UNL A   1      41.347  28.500  27.452  1.00  0.00     0.031 A 
ATOM     85  C   UNL A   1      39.646  27.719  28.963  1.00  0.00     0.131 A 
ATOM     86  C   UNL A   1      41.316  27.237  26.823  1.00  0.00     0.055 A 
ATOM     87  C   UNL A   1      39.613  26.475  28.332  1.00  0.00     0.041 A 
ATOM     88  F   UNL A   1      38.870  27.855  30.051  1.00  0.00    -0.206 F 
ATOM     89  C   UNL A   1      40.457  26.225  27.262  1.00  0.00     0.022 A 
BRANCH  86  90
ATOM     90  S   UNL A   1      42.492  26.858  25.487  1.00  0.00     0.124 S 
ATOM     91  O   UNL A   1      43.757  26.760  26.206  1.00  0.00    -0.237 OA
ATOM     92  O   UNL A   1      41.957  25.617  24.939  1.00  0.00    -0.237 OA
ATOM     93  O   UNL A   1      42.378  28.016  24.598  1.00  0.00    -0.744 OA
ENDBRANCH  86  90
ENDBRANCH  59  83
BRANCH  71  94
ATOM     94  C   UNL A   1      42.837  34.410  30.153  1.00  0.00     0.023 A 
ATOM     95  C   UNL A   1      43.838  35.055  29.394  1.00  0.00     0.031 A 
ATOM     96  C   UNL A   1      41.499  34.764  29.904  1.00  0.00     0.131 A 
ATOM     97  C   UNL A   1      43.480  36.028  28.441  1.00  0.00     0.055 A 
ATOM     98  C   UNL A   1      41.146  35.711  28.946  1.00  0.00     0.041 A 
ATOM     99  F   UNL A   1      40.500  34.171  30.583  1.00  0.00    -0.206 F 
ATOM    100  C   UNL A   1      42.138  36.355  28.217  1.00  0.00     0.022 A 
BRANCH  97 101
ATOM    101  S   UNL A   1      44.762  36.911  27.498  1.00  0.00     0.124 S 
ATOM    102  O   UNL A   1      45.288  35.896  26.593  1.00  0.00    -0.237 OA
ATOM    103  O   UNL A   1      44.004  37.992  26.874  1.00  0.00    -0.237 OA
ATOM    104  O   UNL A   1      45.702  37.350  28.532  1.00  0.00    -0.744 OA
ENDBRANCH  97 101
ENDBRANCH  71  94
ENDBRANCH  45  46
ENDBRANCH  37  40
ENDBRANCH  35  36
ENDBRANCH  34  35
ENDBRANCH  33  34
ENDBRANCH  32  33
ENDBRANCH   1  32
TORSDOF 22
ENDMDL
