MODEL 1
REMARK VINA RESULT:     -12.9      0.000      0.000
REMARK SMILES COc1cc(Cl)c(C)cc1N1C(=O)C[C@H](Nc2cc(C(=O)NCCCCCCNC(=O)c3ccc(-c4c5nc(c(-c6cc(S(=O)(=O)[O-])ccc6F)c6ccc([nH]6)c(-c6cc(S(=O)(=O)[O-])ccc6F)c6nc(c(-c7cc(S(=O)(=O)[O-])ccc7F)c7ccc4[nH]7)C=C6)C=C5)cc3)ccc2C)C1=O
REMARK SMILES IDX 25 1 24 2 23 3 22 4 20 5 21 6 19 8 17 9 18 10 97 11 96 12
REMARK SMILES IDX 98 13 95 14 16 15 15 17 11 18 12 19 99 20 13 21 14 22 100 23
REMARK SMILES IDX 10 24 3 25 4 26 5 27 9 28 6 29 7 30 8 31 2 32 1 33 26 34
REMARK SMILES IDX 27 35 28 36 29 37 30 38 31 40 32 41 33 42 94 43 34 44 93 45
REMARK SMILES IDX 35 46 36 47 37 48 87 49 38 50 92 51 86 52 88 53 39 54 91 55
REMARK SMILES IDX 85 56 84 57 40 59 72 60 52 61 71 62 53 63 56 64 70 65 89 66
REMARK SMILES IDX 54 67 55 68 69 70 90 71 57 72 41 73 42 74 50 75 43 76 49 77
REMARK SMILES IDX 51 78 48 79 44 80 45 81 46 82 47 83 73 84 74 85 82 86 75 87
REMARK SMILES IDX 81 88 83 89 80 90 76 91 77 92 78 93 79 94 58 95 59 96 67 97
REMARK SMILES IDX 60 98 66 99 68 100 65 101 61 102 62 103 63 104 64 105
REMARK H PARENT 22 7 16 16 29 39 88 58 56 69
REMARK Flexibility Score: inf
ROOT
ATOM      1  C   UNL A   1      38.937  23.556  26.903  1.00  0.00     0.002 C 
ENDROOT
BRANCH   1   2
ATOM      2  C   UNL A   1      38.251  23.255  25.567  1.00  0.00     0.021 C 
BRANCH   2   3
ATOM      3  C   UNL A   1      37.146  22.204  25.540  1.00  0.00     0.116 C 
BRANCH   3   4
ATOM      4  N   UNL A   1      36.135  22.329  26.574  1.00  0.00    -0.352 N 
ATOM      5  C   UNL A   1      34.771  22.158  26.512  1.00  0.00     0.251 C 
ATOM      6  O   UNL A   1      34.109  22.276  27.546  1.00  0.00    -0.269 OA
ATOM      7  H   UNL A   1      36.482  22.576  27.462  1.00  0.00     0.163 HD
BRANCH   5   8
ATOM      8  C   UNL A   1      34.046  21.884  25.237  1.00  0.00     0.041 A 
ATOM      9  C   UNL A   1      33.124  22.544  23.068  1.00  0.00     0.038 A 
ATOM     10  C   UNL A   1      33.931  22.802  24.186  1.00  0.00     0.039 A 
ATOM     11  C   UNL A   1      32.515  21.277  22.951  1.00  0.00    -0.028 A 
ATOM     12  C   UNL A   1      32.715  20.315  23.952  1.00  0.00     0.006 A 
ATOM     13  C   UNL A   1      31.713  20.876  21.740  1.00  0.00     0.046 C 
ATOM     14  C   UNL A   1      33.455  20.623  25.093  1.00  0.00     0.014 A 
BRANCH   9  15
ATOM     15  N   UNL A   1      32.830  23.529  22.134  1.00  0.00    -0.373 N 
ATOM     16  H   UNL A   1      33.337  23.527  21.289  1.00  0.00     0.161 HD
BRANCH  15  17
ATOM     17  C   UNL A   1      31.819  24.568  22.320  1.00  0.00     0.179 C 
ATOM     18  N   UNL A   1      31.718  26.226  23.982  1.00  0.00    -0.245 N 
ATOM     19  C   UNL A   1      30.876  25.236  24.412  1.00  0.00     0.236 C 
ATOM     20  C   UNL A   1      32.380  25.892  22.821  1.00  0.00     0.256 C 
ATOM     21  O   UNL A   1      30.164  25.230  25.410  1.00  0.00    -0.274 OA
ATOM     22  C   UNL A   1      30.870  24.120  23.420  1.00  0.00     0.136 C 
ATOM     23  O   UNL A   1      33.299  26.496  22.283  1.00  0.00    -0.272 OA
BRANCH  18  24
ATOM     24  C   UNL A   1      31.873  27.458  24.661  1.00  0.00     0.094 A 
ATOM     25  C   UNL A   1      31.048  28.557  24.381  1.00  0.00     0.144 A 
ATOM     26  C   UNL A   1      31.208  29.763  25.069  1.00  0.00     0.069 A 
ATOM     27  C   UNL A   1      32.189  29.883  26.054  1.00  0.00     0.047 A 
ATOM     28  C   UNL A   1      32.836  27.584  25.675  1.00  0.00     0.035 A 
ATOM     29  Cl  UNL A   1      32.319  31.392  26.885  1.00  0.00    -0.084 Cl
ATOM     30  C   UNL A   1      33.021  28.799  26.365  1.00  0.00    -0.030 A 
ATOM     31  C   UNL A   1      34.101  28.901  27.406  1.00  0.00     0.046 C 
BRANCH  25  32
ATOM     32  O   UNL A   1      30.026  28.502  23.469  1.00  0.00    -0.495 OA
ATOM     33  C   UNL A   1      30.382  29.157  22.251  1.00  0.00     0.278 C 
ENDBRANCH  25  32
ENDBRANCH  18  24
ENDBRANCH  15  17
ENDBRANCH   9  15
ENDBRANCH   5   8
ENDBRANCH   3   4
ENDBRANCH   2   3
ENDBRANCH   1   2
BRANCH   1  34
ATOM     34  C   UNL A   1      40.349  23.011  27.143  1.00  0.00     0.002 C 
BRANCH  34  35
ATOM     35  C   UNL A   1      40.880  21.969  26.161  1.00  0.00     0.021 C 
BRANCH  35  36
ATOM     36  C   UNL A   1      42.141  21.236  26.605  1.00  0.00     0.116 C 
BRANCH  36  37
ATOM     37  N   UNL A   1      42.881  20.610  25.509  1.00  0.00    -0.352 N 
ATOM     38  C   UNL A   1      43.948  21.123  24.790  1.00  0.00     0.251 C 
ATOM     39  H   UNL A   1      42.583  19.708  25.251  1.00  0.00     0.163 HD
ATOM     40  O   UNL A   1      44.466  20.510  23.868  1.00  0.00    -0.269 OA
BRANCH  38  41
ATOM     41  C   UNL A   1      44.539  22.404  25.243  1.00  0.00     0.039 A 
ATOM     42  C   UNL A   1      45.256  22.393  26.443  1.00  0.00     0.014 A 
ATOM     43  C   UNL A   1      44.167  23.606  24.647  1.00  0.00     0.014 A 
ATOM     44  C   UNL A   1      45.391  23.575  27.163  1.00  0.00     0.010 A 
ATOM     45  C   UNL A   1      44.222  24.763  25.398  1.00  0.00     0.010 A 
ATOM     46  C   UNL A   1      44.770  24.731  26.686  1.00  0.00    -0.014 A 
BRANCH  46  47
ATOM     47  C   UNL A   1      44.516  25.892  27.534  1.00  0.00     0.031 A 
ATOM     48  C   UNL A   1      43.221  26.596  27.485  1.00  0.00     0.074 A 
ATOM     49  C   UNL A   1      45.474  26.322  28.383  1.00  0.00     0.049 A 
ATOM     50  N   UNL A   1      43.045  27.826  27.835  1.00  0.00    -0.248 NA
ATOM     51  C   UNL A   1      42.015  25.966  26.968  1.00  0.00     0.031 C 
ATOM     52  C   UNL A   1      45.339  27.302  29.456  1.00  0.00     0.029 A 
ATOM     53  N   UNL A   1      46.849  26.145  28.243  1.00  0.00    -0.354 N 
ATOM     54  C   UNL A   1      41.691  28.068  27.860  1.00  0.00     0.074 A 
ATOM     55  C   UNL A   1      41.101  26.902  27.241  1.00  0.00     0.031 C 
ATOM     56  C   UNL A   1      46.543  27.842  29.701  1.00  0.00     0.029 A 
ATOM     57  C   UNL A   1      47.461  27.323  28.703  1.00  0.00     0.049 A 
ATOM     58  H   UNL A   1      47.304  25.347  27.889  1.00  0.00     0.167 HD
ATOM     59  C   UNL A   1      41.219  29.163  28.525  1.00  0.00     0.034 A 
ATOM     60  C   UNL A   1      48.239  28.081  27.879  1.00  0.00     0.034 A 
ATOM     61  C   UNL A   1      42.309  30.018  29.003  1.00  0.00     0.049 A 
ATOM     62  C   UNL A   1      47.748  29.502  27.714  1.00  0.00     0.074 A 
ATOM     63  C   UNL A   1      42.900  30.200  30.243  1.00  0.00     0.029 A 
ATOM     64  N   UNL A   1      43.135  30.657  28.081  1.00  0.00    -0.354 N 
ATOM     65  N   UNL A   1      46.549  29.911  28.023  1.00  0.00    -0.248 NA
ATOM     66  C   UNL A   1      48.578  30.571  27.171  1.00  0.00     0.031 C 
ATOM     67  C   UNL A   1      44.116  30.911  30.052  1.00  0.00     0.029 A 
ATOM     68  C   UNL A   1      44.249  31.189  28.703  1.00  0.00     0.049 A 
ATOM     69  H   UNL A   1      42.950  30.720  27.115  1.00  0.00     0.167 HD
ATOM     70  C   UNL A   1      46.425  31.250  27.732  1.00  0.00     0.074 A 
ATOM     71  C   UNL A   1      47.736  31.617  27.223  1.00  0.00     0.031 C 
ATOM     72  C   UNL A   1      45.249  31.926  27.935  1.00  0.00     0.034 A 
BRANCH  59  73
ATOM     73  C   UNL A   1      39.785  29.296  29.011  1.00  0.00     0.023 A 
ATOM     74  C   UNL A   1      39.513  29.257  30.396  1.00  0.00     0.031 A 
ATOM     75  C   UNL A   1      38.649  29.396  28.185  1.00  0.00     0.131 A 
ATOM     76  C   UNL A   1      38.195  29.192  30.889  1.00  0.00     0.055 A 
ATOM     77  C   UNL A   1      37.339  29.264  28.666  1.00  0.00     0.041 A 
ATOM     78  F   UNL A   1      38.748  29.692  26.883  1.00  0.00    -0.206 F 
ATOM     79  C   UNL A   1      37.105  29.143  30.025  1.00  0.00     0.022 A 
BRANCH  76  80
ATOM     80  S   UNL A   1      37.913  29.176  32.682  1.00  0.00     0.124 S 
ATOM     81  O   UNL A   1      37.785  27.751  32.964  1.00  0.00    -0.237 OA
ATOM     82  O   UNL A   1      39.113  29.831  33.188  1.00  0.00    -0.237 OA
ATOM     83  O   UNL A   1      36.680  29.947  32.839  1.00  0.00    -0.744 OA
ENDBRANCH  76  80
ENDBRANCH  59  73
BRANCH  60  84
ATOM     84  C   UNL A   1      48.967  27.281  26.851  1.00  0.00     0.023 A 
ATOM     85  C   UNL A   1      48.423  27.259  25.547  1.00  0.00     0.031 A 
ATOM     86  C   UNL A   1      50.305  26.900  27.010  1.00  0.00     0.131 A 
ATOM     87  C   UNL A   1      49.250  27.032  24.439  1.00  0.00     0.055 A 
ATOM     88  C   UNL A   1      51.112  26.604  25.903  1.00  0.00     0.041 A 
ATOM     89  F   UNL A   1      50.887  26.928  28.218  1.00  0.00    -0.206 F 
ATOM     90  C   UNL A   1      50.599  26.715  24.609  1.00  0.00     0.022 A 
BRANCH  87  91
ATOM     91  S   UNL A   1      48.628  27.418  22.773  1.00  0.00     0.124 S 
ATOM     92  O   UNL A   1      47.324  28.002  23.062  1.00  0.00    -0.237 OA
ATOM     93  O   UNL A   1      49.631  28.340  22.245  1.00  0.00    -0.237 OA
ATOM     94  O   UNL A   1      48.608  26.113  22.114  1.00  0.00    -0.744 OA
ENDBRANCH  87  91
ENDBRANCH  60  84
BRANCH  72  95
ATOM     95  C   UNL A   1      44.936  33.359  27.521  1.00  0.00     0.023 A 
ATOM     96  C   UNL A   1      45.344  34.495  28.235  1.00  0.00     0.031 A 
ATOM     97  C   UNL A   1      44.238  33.631  26.314  1.00  0.00     0.131 A 
ATOM     98  C   UNL A   1      45.004  35.796  27.812  1.00  0.00     0.055 A 
ATOM     99  C   UNL A   1      43.958  34.925  25.858  1.00  0.00     0.041 A 
ATOM    100  F   UNL A   1      43.799  32.651  25.511  1.00  0.00    -0.206 F 
ATOM    101  C   UNL A   1      44.330  36.021  26.616  1.00  0.00     0.022 A 
BRANCH  98 102
ATOM    102  S   UNL A   1      45.431  37.193  28.888  1.00  0.00     0.124 S 
ATOM    103  O   UNL A   1      45.298  38.326  27.975  1.00  0.00    -0.237 OA
ATOM    104  O   UNL A   1      44.419  37.102  29.935  1.00  0.00    -0.237 OA
ATOM    105  O   UNL A   1      46.797  36.897  29.316  1.00  0.00    -0.744 OA
ENDBRANCH  98 102
ENDBRANCH  72  95
ENDBRANCH  46  47
ENDBRANCH  38  41
ENDBRANCH  36  37
ENDBRANCH  35  36
ENDBRANCH  34  35
ENDBRANCH   1  34
TORSDOF 20
ENDMDL
MODEL 2
REMARK VINA RESULT:     -11.8      5.468     10.881
REMARK SMILES COc1cc(Cl)c(C)cc1N1C(=O)C[C@H](Nc2cc(C(=O)NCCCCCCNC(=O)c3ccc(-c4c5nc(c(-c6cc(S(=O)(=O)[O-])ccc6F)c6ccc([nH]6)c(-c6cc(S(=O)(=O)[O-])ccc6F)c6nc(c(-c7cc(S(=O)(=O)[O-])ccc7F)c7ccc4[nH]7)C=C6)C=C5)cc3)ccc2C)C1=O
REMARK SMILES IDX 25 1 24 2 23 3 22 4 20 5 21 6 19 8 17 9 18 10 97 11 96 12
REMARK SMILES IDX 98 13 95 14 16 15 15 17 11 18 12 19 99 20 13 21 14 22 100 23
REMARK SMILES IDX 10 24 3 25 4 26 5 27 9 28 6 29 7 30 8 31 2 32 1 33 26 34
REMARK SMILES IDX 27 35 28 36 29 37 30 38 31 40 32 41 33 42 94 43 34 44 93 45
REMARK SMILES IDX 35 46 36 47 37 48 87 49 38 50 92 51 86 52 88 53 39 54 91 55
REMARK SMILES IDX 85 56 84 57 40 59 72 60 52 61 71 62 53 63 56 64 70 65 89 66
REMARK SMILES IDX 54 67 55 68 69 70 90 71 57 72 41 73 42 74 50 75 43 76 49 77
REMARK SMILES IDX 51 78 48 79 44 80 45 81 46 82 47 83 73 84 74 85 82 86 75 87
REMARK SMILES IDX 81 88 83 89 80 90 76 91 77 92 78 93 79 94 58 95 59 96 67 97
REMARK SMILES IDX 60 98 66 99 68 100 65 101 61 102 62 103 63 104 64 105
REMARK H PARENT 22 7 16 16 29 39 88 58 56 69
REMARK Flexibility Score: inf
ROOT
ATOM      1  C   UNL A   1      34.783  35.191  34.046  1.00  0.00     0.002 C 
ENDROOT
BRANCH   1   2
ATOM      2  C   UNL A   1      34.034  35.770  32.843  1.00  0.00     0.021 C 
BRANCH   2   3
ATOM      3  C   UNL A   1      33.615  34.823  31.724  1.00  0.00     0.116 C 
BRANCH   3   4
ATOM      4  N   UNL A   1      33.048  35.454  30.546  1.00  0.00    -0.352 N 
ATOM      5  C   UNL A   1      33.103  35.082  29.222  1.00  0.00     0.251 C 
ATOM      6  O   UNL A   1      32.499  35.761  28.388  1.00  0.00    -0.269 OA
ATOM      7  H   UNL A   1      32.544  36.282  30.723  1.00  0.00     0.163 HD
BRANCH   5   8
ATOM      8  C   UNL A   1      33.903  33.918  28.740  1.00  0.00     0.041 A 
ATOM      9  C   UNL A   1      34.181  31.560  28.146  1.00  0.00     0.038 A 
ATOM     10  C   UNL A   1      33.363  32.655  28.464  1.00  0.00     0.039 A 
ATOM     11  C   UNL A   1      35.565  31.774  27.982  1.00  0.00    -0.028 A 
ATOM     12  C   UNL A   1      36.094  33.062  28.153  1.00  0.00     0.006 A 
ATOM     13  C   UNL A   1      36.505  30.680  27.545  1.00  0.00     0.046 C 
ATOM     14  C   UNL A   1      35.274  34.118  28.549  1.00  0.00     0.014 A 
BRANCH   9  15
ATOM     15  N   UNL A   1      33.681  30.265  28.088  1.00  0.00    -0.373 N 
ATOM     16  H   UNL A   1      33.918  29.647  28.818  1.00  0.00     0.161 HD
BRANCH  15  17
ATOM     17  C   UNL A   1      32.826  29.759  27.017  1.00  0.00     0.179 C 
ATOM     18  N   UNL A   1      32.829  27.625  26.032  1.00  0.00    -0.245 N 
ATOM     19  C   UNL A   1      33.546  28.417  25.174  1.00  0.00     0.236 C 
ATOM     20  C   UNL A   1      32.444  28.292  27.173  1.00  0.00     0.256 C 
ATOM     21  O   UNL A   1      34.033  28.111  24.092  1.00  0.00    -0.274 OA
ATOM     22  C   UNL A   1      33.610  29.808  25.715  1.00  0.00     0.136 C 
ATOM     23  O   UNL A   1      31.933  27.819  28.180  1.00  0.00    -0.272 OA
BRANCH  18  24
ATOM     24  C   UNL A   1      32.516  26.274  25.755  1.00  0.00     0.094 A 
ATOM     25  C   UNL A   1      31.268  25.903  25.233  1.00  0.00     0.144 A 
ATOM     26  C   UNL A   1      30.979  24.564  24.956  1.00  0.00     0.069 A 
ATOM     27  C   UNL A   1      31.938  23.578  25.186  1.00  0.00     0.047 A 
ATOM     28  C   UNL A   1      33.482  25.273  25.953  1.00  0.00     0.035 A 
ATOM     29  Cl  UNL A   1      31.528  21.945  24.799  1.00  0.00    -0.084 Cl
ATOM     30  C   UNL A   1      33.199  23.918  25.696  1.00  0.00    -0.030 A 
ATOM     31  C   UNL A   1      34.249  22.878  25.974  1.00  0.00     0.046 C 
BRANCH  25  32
ATOM     32  O   UNL A   1      30.292  26.817  24.927  1.00  0.00    -0.495 OA
ATOM     33  C   UNL A   1      29.325  26.265  24.034  1.00  0.00     0.278 C 
ENDBRANCH  25  32
ENDBRANCH  18  24
ENDBRANCH  15  17
ENDBRANCH   9  15
ENDBRANCH   5   8
ENDBRANCH   3   4
ENDBRANCH   2   3
ENDBRANCH   1   2
BRANCH   1  34
ATOM     34  C   UNL A   1      35.180  33.710  34.022  1.00  0.00     0.002 C 
BRANCH  34  35
ATOM     35  C   UNL A   1      36.545  33.356  33.437  1.00  0.00     0.021 C 
BRANCH  35  36
ATOM     36  C   UNL A   1      36.560  33.069  31.940  1.00  0.00     0.116 C 
BRANCH  36  37
ATOM     37  N   UNL A   1      36.079  31.734  31.586  1.00  0.00    -0.352 N 
ATOM     38  C   UNL A   1      36.823  30.614  31.250  1.00  0.00     0.251 C 
ATOM     39  H   UNL A   1      35.103  31.616  31.587  1.00  0.00     0.163 HD
ATOM     40  O   UNL A   1      36.299  29.554  30.940  1.00  0.00    -0.269 OA
BRANCH  38  41
ATOM     41  C   UNL A   1      38.296  30.692  31.390  1.00  0.00     0.039 A 
ATOM     42  C   UNL A   1      39.036  31.000  30.245  1.00  0.00     0.014 A 
ATOM     43  C   UNL A   1      38.924  30.215  32.537  1.00  0.00     0.014 A 
ATOM     44  C   UNL A   1      40.368  30.605  30.172  1.00  0.00     0.010 A 
ATOM     45  C   UNL A   1      40.219  29.744  32.436  1.00  0.00     0.010 A 
ATOM     46  C   UNL A   1      40.915  29.876  31.229  1.00  0.00    -0.014 A 
BRANCH  46  47
ATOM     47  C   UNL A   1      42.138  29.091  31.091  1.00  0.00     0.031 A 
ATOM     48  C   UNL A   1      42.150  27.837  30.314  1.00  0.00     0.074 A 
ATOM     49  C   UNL A   1      43.278  29.523  31.671  1.00  0.00     0.049 A 
ATOM     50  N   UNL A   1      43.003  26.883  30.480  1.00  0.00    -0.248 NA
ATOM     51  C   UNL A   1      41.139  27.537  29.311  1.00  0.00     0.031 C 
ATOM     52  C   UNL A   1      44.631  29.015  31.466  1.00  0.00     0.029 A 
ATOM     53  N   UNL A   1      43.381  30.343  32.794  1.00  0.00    -0.354 N 
ATOM     54  C   UNL A   1      42.840  25.987  29.449  1.00  0.00     0.074 A 
ATOM     55  C   UNL A   1      41.619  26.402  28.795  1.00  0.00     0.031 C 
ATOM     56  C   UNL A   1      45.368  29.299  32.551  1.00  0.00     0.029 A 
ATOM     57  C   UNL A   1      44.477  29.878  33.540  1.00  0.00     0.049 A 
ATOM     58  H   UNL A   1      42.796  31.102  33.020  1.00  0.00     0.167 HD
ATOM     59  C   UNL A   1      43.828  25.082  29.186  1.00  0.00     0.034 A 
ATOM     60  C   UNL A   1      44.321  29.431  34.818  1.00  0.00     0.034 A 
ATOM     61  C   UNL A   1      44.889  25.131  30.195  1.00  0.00     0.049 A 
ATOM     62  C   UNL A   1      44.761  27.998  35.020  1.00  0.00     0.074 A 
ATOM     63  C   UNL A   1      46.158  25.688  30.214  1.00  0.00     0.029 A 
ATOM     64  N   UNL A   1      44.603  24.771  31.510  1.00  0.00    -0.354 N 
ATOM     65  N   UNL A   1      44.953  27.140  34.056  1.00  0.00    -0.248 NA
ATOM     66  C   UNL A   1      45.005  27.420  36.336  1.00  0.00     0.031 C 
ATOM     67  C   UNL A   1      46.612  25.707  31.561  1.00  0.00     0.029 A 
ATOM     68  C   UNL A   1      45.636  25.133  32.356  1.00  0.00     0.049 A 
ATOM     69  H   UNL A   1      43.776  24.321  31.799  1.00  0.00     0.167 HD
ATOM     70  C   UNL A   1      45.329  25.926  34.583  1.00  0.00     0.074 A 
ATOM     71  C   UNL A   1      45.369  26.166  36.015  1.00  0.00     0.031 C 
ATOM     72  C   UNL A   1      45.566  24.836  33.785  1.00  0.00     0.034 A 
BRANCH  59  73
ATOM     73  C   UNL A   1      43.984  24.375  27.851  1.00  0.00     0.023 A 
ATOM     74  C   UNL A   1      43.215  23.220  27.581  1.00  0.00     0.031 A 
ATOM     75  C   UNL A   1      44.896  24.731  26.839  1.00  0.00     0.131 A 
ATOM     76  C   UNL A   1      43.450  22.426  26.441  1.00  0.00     0.055 A 
ATOM     77  C   UNL A   1      45.179  23.908  25.739  1.00  0.00     0.041 A 
ATOM     78  F   UNL A   1      45.509  25.921  26.830  1.00  0.00    -0.206 F 
ATOM     79  C   UNL A   1      44.466  22.739  25.543  1.00  0.00     0.022 A 
BRANCH  76  80
ATOM     80  S   UNL A   1      42.407  20.973  26.136  1.00  0.00     0.124 S 
ATOM     81  O   UNL A   1      42.323  20.366  27.460  1.00  0.00    -0.237 OA
ATOM     82  O   UNL A   1      41.182  21.575  25.621  1.00  0.00    -0.237 OA
ATOM     83  O   UNL A   1      43.173  20.204  25.155  1.00  0.00    -0.744 OA
ENDBRANCH  76  80
ENDBRANCH  59  73
BRANCH  60  84
ATOM     84  C   UNL A   1      43.226  30.123  35.559  1.00  0.00     0.023 A 
ATOM     85  C   UNL A   1      43.398  31.501  35.823  1.00  0.00     0.031 A 
ATOM     86  C   UNL A   1      41.932  29.595  35.647  1.00  0.00     0.131 A 
ATOM     87  C   UNL A   1      42.284  32.334  35.993  1.00  0.00     0.055 A 
ATOM     88  C   UNL A   1      40.826  30.421  35.889  1.00  0.00     0.041 A 
ATOM     89  F   UNL A   1      41.701  28.302  35.380  1.00  0.00    -0.206 F 
ATOM     90  C   UNL A   1      40.994  31.802  36.016  1.00  0.00     0.022 A 
BRANCH  87  91
ATOM     91  S   UNL A   1      42.503  34.138  35.912  1.00  0.00     0.124 S 
ATOM     92  O   UNL A   1      41.124  34.611  35.873  1.00  0.00    -0.237 OA
ATOM     93  O   UNL A   1      43.241  34.442  37.136  1.00  0.00    -0.237 OA
ATOM     94  O   UNL A   1      43.274  34.326  34.684  1.00  0.00    -0.744 OA
ENDBRANCH  87  91
ENDBRANCH  60  84
BRANCH  72  95
ATOM     95  C   UNL A   1      45.841  23.410  34.244  1.00  0.00     0.023 A 
ATOM     96  C   UNL A   1      47.114  22.911  34.556  1.00  0.00     0.031 A 
ATOM     97  C   UNL A   1      44.775  22.492  34.443  1.00  0.00     0.131 A 
ATOM     98  C   UNL A   1      47.308  21.573  34.956  1.00  0.00     0.055 A 
ATOM     99  C   UNL A   1      44.959  21.183  34.906  1.00  0.00     0.041 A 
ATOM    100  F   UNL A   1      43.498  22.825  34.208  1.00  0.00    -0.206 F 
ATOM    101  C   UNL A   1      46.235  20.709  35.152  1.00  0.00     0.022 A 
BRANCH  98 102
ATOM    102  S   UNL A   1      49.005  20.974  35.175  1.00  0.00     0.124 S 
ATOM    103  O   UNL A   1      48.903  20.235  36.431  1.00  0.00    -0.237 OA
ATOM    104  O   UNL A   1      49.208  20.163  33.978  1.00  0.00    -0.237 OA
ATOM    105  O   UNL A   1      49.801  22.198  35.237  1.00  0.00    -0.744 OA
ENDBRANCH  98 102
ENDBRANCH  72  95
ENDBRANCH  46  47
ENDBRANCH  38  41
ENDBRANCH  36  37
ENDBRANCH  35  36
ENDBRANCH  34  35
ENDBRANCH   1  34
TORSDOF 20
ENDMDL
MODEL 3
REMARK VINA RESULT:     -11.7      2.121      2.714
REMARK SMILES COc1cc(Cl)c(C)cc1N1C(=O)C[C@H](Nc2cc(C(=O)NCCCCCCNC(=O)c3ccc(-c4c5nc(c(-c6cc(S(=O)(=O)[O-])ccc6F)c6ccc([nH]6)c(-c6cc(S(=O)(=O)[O-])ccc6F)c6nc(c(-c7cc(S(=O)(=O)[O-])ccc7F)c7ccc4[nH]7)C=C6)C=C5)cc3)ccc2C)C1=O
REMARK SMILES IDX 25 1 24 2 23 3 22 4 20 5 21 6 19 8 17 9 18 10 97 11 96 12
REMARK SMILES IDX 98 13 95 14 16 15 15 17 11 18 12 19 99 20 13 21 14 22 100 23
REMARK SMILES IDX 10 24 3 25 4 26 5 27 9 28 6 29 7 30 8 31 2 32 1 33 26 34
REMARK SMILES IDX 27 35 28 36 29 37 30 38 31 40 32 41 33 42 94 43 34 44 93 45
REMARK SMILES IDX 35 46 36 47 37 48 87 49 38 50 92 51 86 52 88 53 39 54 91 55
REMARK SMILES IDX 85 56 84 57 40 59 72 60 52 61 71 62 53 63 56 64 70 65 89 66
REMARK SMILES IDX 54 67 55 68 69 70 90 71 57 72 41 73 42 74 50 75 43 76 49 77
REMARK SMILES IDX 51 78 48 79 44 80 45 81 46 82 47 83 73 84 74 85 82 86 75 87
REMARK SMILES IDX 81 88 83 89 80 90 76 91 77 92 78 93 79 94 58 95 59 96 67 97
REMARK SMILES IDX 60 98 66 99 68 100 65 101 61 102 62 103 63 104 64 105
REMARK H PARENT 22 7 16 16 29 39 88 58 56 69
REMARK Flexibility Score: inf
ROOT
ATOM      1  C   UNL A   1      40.640  20.975  27.238  1.00  0.00     0.002 C 
ENDROOT
BRANCH   1   2
ATOM      2  C   UNL A   1      40.109  22.218  26.519  1.00  0.00     0.021 C 
BRANCH   2   3
ATOM      3  C   UNL A   1      38.677  22.198  25.996  1.00  0.00     0.116 C 
BRANCH   3   4
ATOM      4  N   UNL A   1      38.103  20.881  25.786  1.00  0.00    -0.352 N 
ATOM      5  C   UNL A   1      36.990  20.496  25.075  1.00  0.00     0.251 C 
ATOM      6  O   UNL A   1      36.717  19.296  25.001  1.00  0.00    -0.269 OA
ATOM      7  H   UNL A   1      38.590  20.145  26.224  1.00  0.00     0.163 HD
BRANCH   5   8
ATOM      8  C   UNL A   1      36.065  21.473  24.428  1.00  0.00     0.041 A 
ATOM      9  C   UNL A   1      33.841  22.344  23.893  1.00  0.00     0.038 A 
ATOM     10  C   UNL A   1      34.680  21.494  24.631  1.00  0.00     0.039 A 
ATOM     11  C   UNL A   1      34.428  23.280  23.018  1.00  0.00    -0.028 A 
ATOM     12  C   UNL A   1      35.825  23.333  22.892  1.00  0.00     0.006 A 
ATOM     13  C   UNL A   1      33.615  24.298  22.260  1.00  0.00     0.046 C 
ATOM     14  C   UNL A   1      36.632  22.424  23.574  1.00  0.00     0.014 A 
BRANCH   9  15
ATOM     15  N   UNL A   1      32.458  22.219  23.928  1.00  0.00    -0.373 N 
ATOM     16  H   UNL A   1      32.050  21.480  23.421  1.00  0.00     0.161 HD
BRANCH  15  17
ATOM     17  C   UNL A   1      31.568  23.111  24.667  1.00  0.00     0.179 C 
ATOM     18  N   UNL A   1      31.212  25.412  24.346  1.00  0.00    -0.245 N 
ATOM     19  C   UNL A   1      32.098  25.329  25.386  1.00  0.00     0.236 C 
ATOM     20  C   UNL A   1      30.912  24.182  23.804  1.00  0.00     0.256 C 
ATOM     21  O   UNL A   1      32.563  26.242  26.058  1.00  0.00    -0.274 OA
ATOM     22  C   UNL A   1      32.400  23.894  25.671  1.00  0.00     0.136 C 
ATOM     23  O   UNL A   1      30.280  23.948  22.782  1.00  0.00    -0.272 OA
BRANCH  18  24
ATOM     24  C   UNL A   1      30.661  26.636  23.897  1.00  0.00     0.094 A 
ATOM     25  C   UNL A   1      31.474  27.671  23.412  1.00  0.00     0.144 A 
ATOM     26  C   UNL A   1      30.913  28.868  22.963  1.00  0.00     0.069 A 
ATOM     27  C   UNL A   1      29.529  29.045  22.982  1.00  0.00     0.047 A 
ATOM     28  C   UNL A   1      29.268  26.816  23.883  1.00  0.00     0.035 A 
ATOM     29  Cl  UNL A   1      28.896  30.538  22.389  1.00  0.00    -0.084 Cl
ATOM     30  C   UNL A   1      28.689  28.024  23.450  1.00  0.00    -0.030 A 
ATOM     31  C   UNL A   1      27.195  28.189  23.502  1.00  0.00     0.046 C 
BRANCH  25  32
ATOM     32  O   UNL A   1      32.836  27.555  23.308  1.00  0.00    -0.495 OA
ATOM     33  C   UNL A   1      33.377  28.547  22.436  1.00  0.00     0.278 C 
ENDBRANCH  25  32
ENDBRANCH  18  24
ENDBRANCH  15  17
ENDBRANCH   9  15
ENDBRANCH   5   8
ENDBRANCH   3   4
ENDBRANCH   2   3
ENDBRANCH   1   2
BRANCH   1  34
ATOM     34  C   UNL A   1      41.006  19.743  26.403  1.00  0.00     0.002 C 
BRANCH  34  35
ATOM     35  C   UNL A   1      42.482  19.362  26.317  1.00  0.00     0.021 C 
BRANCH  35  36
ATOM     36  C   UNL A   1      43.181  19.746  25.017  1.00  0.00     0.116 C 
BRANCH  36  37
ATOM     37  N   UNL A   1      44.569  20.174  25.193  1.00  0.00    -0.352 N 
ATOM     38  C   UNL A   1      45.039  21.383  25.678  1.00  0.00     0.251 C 
ATOM     39  H   UNL A   1      45.255  19.519  24.933  1.00  0.00     0.163 HD
ATOM     40  O   UNL A   1      46.233  21.635  25.747  1.00  0.00    -0.269 OA
BRANCH  38  41
ATOM     41  C   UNL A   1      44.053  22.339  26.233  1.00  0.00     0.039 A 
ATOM     42  C   UNL A   1      43.734  23.457  25.457  1.00  0.00     0.014 A 
ATOM     43  C   UNL A   1      43.673  22.268  27.570  1.00  0.00     0.014 A 
ATOM     44  C   UNL A   1      43.247  24.600  26.083  1.00  0.00     0.010 A 
ATOM     45  C   UNL A   1      43.273  23.427  28.208  1.00  0.00     0.010 A 
ATOM     46  C   UNL A   1      43.130  24.610  27.475  1.00  0.00    -0.014 A 
BRANCH  46  47
ATOM     47  C   UNL A   1      43.015  25.846  28.244  1.00  0.00     0.031 A 
ATOM     48  C   UNL A   1      41.780  26.650  28.206  1.00  0.00     0.074 A 
ATOM     49  C   UNL A   1      44.050  26.254  29.011  1.00  0.00     0.049 A 
ATOM     50  N   UNL A   1      41.721  27.912  28.470  1.00  0.00    -0.248 NA
ATOM     51  C   UNL A   1      40.501  26.087  27.797  1.00  0.00     0.031 C 
ATOM     52  C   UNL A   1      44.052  27.316  30.012  1.00  0.00     0.029 A 
ATOM     53  N   UNL A   1      45.397  25.954  28.817  1.00  0.00    -0.354 N 
ATOM     54  C   UNL A   1      40.394  28.266  28.543  1.00  0.00     0.074 A 
ATOM     55  C   UNL A   1      39.681  27.113  28.043  1.00  0.00     0.031 C 
ATOM     56  C   UNL A   1      45.307  27.770  30.155  1.00  0.00     0.029 A 
ATOM     57  C   UNL A   1      46.124  27.107  29.155  1.00  0.00     0.049 A 
ATOM     58  H   UNL A   1      45.767  25.098  28.502  1.00  0.00     0.167 HD
ATOM     59  C   UNL A   1      40.047  29.442  29.146  1.00  0.00     0.034 A 
ATOM     60  C   UNL A   1      46.914  27.737  28.239  1.00  0.00     0.034 A 
ATOM     61  C   UNL A   1      41.226  30.235  29.503  1.00  0.00     0.049 A 
ATOM     62  C   UNL A   1      46.528  29.179  27.992  1.00  0.00     0.074 A 
ATOM     63  C   UNL A   1      41.898  30.455  30.696  1.00  0.00     0.029 A 
ATOM     64  N   UNL A   1      42.048  30.735  28.497  1.00  0.00    -0.354 N 
ATOM     65  N   UNL A   1      45.384  29.707  28.328  1.00  0.00    -0.248 NA
ATOM     66  C   UNL A   1      47.409  30.133  27.330  1.00  0.00     0.031 C 
ATOM     67  C   UNL A   1      43.154  31.047  30.393  1.00  0.00     0.029 A 
ATOM     68  C   UNL A   1      43.234  31.217  29.021  1.00  0.00     0.049 A 
ATOM     69  H   UNL A   1      41.816  30.745  27.539  1.00  0.00     0.167 HD
ATOM     70  C   UNL A   1      45.351  31.027  27.943  1.00  0.00     0.074 A 
ATOM     71  C   UNL A   1      46.657  31.247  27.344  1.00  0.00     0.031 C 
ATOM     72  C   UNL A   1      44.246  31.811  28.151  1.00  0.00     0.034 A 
BRANCH  59  73
ATOM     73  C   UNL A   1      38.658  29.727  29.690  1.00  0.00     0.023 A 
ATOM     74  C   UNL A   1      37.923  30.821  29.181  1.00  0.00     0.031 A 
ATOM     75  C   UNL A   1      38.028  29.022  30.733  1.00  0.00     0.131 A 
ATOM     76  C   UNL A   1      36.714  31.238  29.773  1.00  0.00     0.055 A 
ATOM     77  C   UNL A   1      36.861  29.473  31.367  1.00  0.00     0.041 A 
ATOM     78  F   UNL A   1      38.473  27.829  31.147  1.00  0.00    -0.206 F 
ATOM     79  C   UNL A   1      36.205  30.598  30.899  1.00  0.00     0.022 A 
BRANCH  76  80
ATOM     80  S   UNL A   1      35.802  32.632  29.052  1.00  0.00     0.124 S 
ATOM     81  O   UNL A   1      36.064  32.472  27.626  1.00  0.00    -0.237 OA
ATOM     82  O   UNL A   1      34.437  32.369  29.494  1.00  0.00    -0.237 OA
ATOM     83  O   UNL A   1      36.431  33.802  29.665  1.00  0.00    -0.744 OA
ENDBRANCH  76  80
ENDBRANCH  59  73
BRANCH  60  84
ATOM     84  C   UNL A   1      47.519  26.808  27.241  1.00  0.00     0.023 A 
ATOM     85  C   UNL A   1      47.354  27.134  25.875  1.00  0.00     0.031 A 
ATOM     86  C   UNL A   1      48.526  25.897  27.581  1.00  0.00     0.131 A 
ATOM     87  C   UNL A   1      48.284  26.692  24.925  1.00  0.00     0.055 A 
ATOM     88  C   UNL A   1      49.412  25.400  26.615  1.00  0.00     0.041 A 
ATOM     89  F   UNL A   1      48.750  25.570  28.862  1.00  0.00    -0.206 F 
ATOM     90  C   UNL A   1      49.322  25.833  25.290  1.00  0.00     0.022 A 
BRANCH  87  91
ATOM     91  S   UNL A   1      48.296  27.453  23.272  1.00  0.00     0.124 S 
ATOM     92  O   UNL A   1      47.077  28.252  23.296  1.00  0.00    -0.237 OA
ATOM     93  O   UNL A   1      49.547  28.207  23.260  1.00  0.00    -0.237 OA
ATOM     94  O   UNL A   1      48.282  26.299  22.374  1.00  0.00    -0.744 OA
ENDBRANCH  87  91
ENDBRANCH  60  84
BRANCH  72  95
ATOM     95  C   UNL A   1      44.025  33.232  27.647  1.00  0.00     0.023 A 
ATOM     96  C   UNL A   1      44.061  34.374  28.459  1.00  0.00     0.031 A 
ATOM     97  C   UNL A   1      43.819  33.488  26.265  1.00  0.00     0.131 A 
ATOM     98  C   UNL A   1      43.827  35.663  27.936  1.00  0.00     0.055 A 
ATOM     99  C   UNL A   1      43.654  34.774  25.734  1.00  0.00     0.041 A 
ATOM    100  F   UNL A   1      43.778  32.502  25.357  1.00  0.00    -0.206 F 
ATOM    101  C   UNL A   1      43.643  35.873  26.573  1.00  0.00     0.022 A 
BRANCH  98 102
ATOM    102  S   UNL A   1      43.729  37.058  29.090  1.00  0.00     0.124 S 
ATOM    103  O   UNL A   1      42.642  37.847  28.515  1.00  0.00    -0.237 OA
ATOM    104  O   UNL A   1      43.429  36.397  30.356  1.00  0.00    -0.237 OA
ATOM    105  O   UNL A   1      45.053  37.672  29.007  1.00  0.00    -0.744 OA
ENDBRANCH  98 102
ENDBRANCH  72  95
ENDBRANCH  46  47
ENDBRANCH  38  41
ENDBRANCH  36  37
ENDBRANCH  35  36
ENDBRANCH  34  35
ENDBRANCH   1  34
TORSDOF 20
ENDMDL
