MODEL 1
REMARK VINA RESULT:      -9.3      0.000      0.000
REMARK SMILES C[C@@H]([NH2+]CC(C)(C)C(=O)NCCCCCCNC(=O)c1ccc(-c2c3nc(c(-c4cc(S(=O)(=O)[O-])ccc4F)c4ccc([nH]4)c(-c4cc(S(=O)(=O)[O-])ccc4F)c4nc(c(-c5cc(S(=O)(=O)[O-])ccc5F)c5ccc2[nH]5)C=C4)C=C3)cc1)C1CC1
REMARK SMILES IDX 13 1 12 2 11 3 10 4 8 5 9 6 5 8 6 9 7 10 4 11 3 12 2 15 1 16
REMARK SMILES IDX 83 17 84 18 85 19 14 20 15 21 16 22 17 23 18 24 19 26 20 27
REMARK SMILES IDX 21 28 82 29 22 30 81 31 23 32 24 33 25 34 75 35 26 36 80 37
REMARK SMILES IDX 74 38 76 39 27 40 79 41 73 42 72 43 28 45 60 46 40 47 59 48
REMARK SMILES IDX 41 49 44 50 58 51 77 52 42 53 43 54 57 56 78 57 45 58 29 59
REMARK SMILES IDX 30 60 38 61 31 62 37 63 39 64 36 65 32 66 33 67 34 68 35 69
REMARK SMILES IDX 61 70 62 71 70 72 63 73 69 74 71 75 68 76 64 77 65 78 66 79
REMARK SMILES IDX 67 80 46 81 47 82 55 83 48 84 54 85 56 86 53 87 49 88 50 89
REMARK SMILES IDX 51 90 52 91
REMARK H PARENT 10 7 3 13 3 14 17 25 76 44 44 55
REMARK Flexibility Score: inf
ROOT
ATOM      1  C   UNL A   1      35.433  32.248  28.632  1.00  0.00     0.002 C 
ENDROOT
BRANCH   1   2
ATOM      2  C   UNL A   1      35.679  31.114  27.625  1.00  0.00     0.021 C 
BRANCH   2   3
ATOM      3  C   UNL A   1      34.836  29.858  27.866  1.00  0.00     0.116 C 
BRANCH   3   4
ATOM      4  N   UNL A   1      34.725  29.091  26.643  1.00  0.00    -0.355 N 
ATOM      5  C   UNL A   1      33.699  28.258  26.313  1.00  0.00     0.231 C 
ATOM      6  O   UNL A   1      34.018  27.103  26.028  1.00  0.00    -0.274 OA
ATOM      7  H   UNL A   1      35.458  29.179  25.991  1.00  0.00     0.163 HD
BRANCH   5   8
ATOM      8  C   UNL A   1      32.241  28.745  26.335  1.00  0.00     0.092 C 
ATOM      9  C   UNL A   1      32.118  30.278  26.270  1.00  0.00     0.027 C 
ATOM     10  C   UNL A   1      31.590  28.208  27.627  1.00  0.00     0.027 C 
BRANCH   8  11
ATOM     11  C   UNL A   1      31.436  28.127  25.142  1.00  0.00     0.277 C 
BRANCH  11  12
ATOM     12  N   UNL A   1      32.120  27.562  23.971  1.00  0.00    -0.343 N 
ATOM     13  H   UNL A   1      32.725  28.290  23.592  1.00  0.00     0.346 HD
ATOM     14  H   UNL A   1      32.596  26.734  24.328  1.00  0.00     0.346 HD
BRANCH  12  15
ATOM     15  C   UNL A   1      31.292  27.063  22.866  1.00  0.00     0.182 C 
ATOM     16  C   UNL A   1      29.873  26.875  23.445  1.00  0.00     0.075 C 
BRANCH  15  17
ATOM     17  C   UNL A   1      31.686  25.752  22.220  1.00  0.00     0.047 C 
ATOM     18  C   UNL A   1      32.525  25.578  20.972  1.00  0.00     0.010 C 
ATOM     19  C   UNL A   1      33.081  25.178  22.311  1.00  0.00     0.010 C 
ENDBRANCH  15  17
ENDBRANCH  12  15
ENDBRANCH  11  12
ENDBRANCH   8  11
ENDBRANCH   5   8
ENDBRANCH   3   4
ENDBRANCH   2   3
ENDBRANCH   1   2
BRANCH   1  20
ATOM     20  C   UNL A   1      35.095  33.608  28.015  1.00  0.00     0.002 C 
BRANCH  20  21
ATOM     21  C   UNL A   1      33.719  34.162  28.387  1.00  0.00     0.021 C 
BRANCH  21  22
ATOM     22  C   UNL A   1      33.727  35.609  28.858  1.00  0.00     0.116 C 
BRANCH  22  23
ATOM     23  N   UNL A   1      32.906  35.804  30.040  1.00  0.00    -0.352 N 
ATOM     24  C   UNL A   1      33.040  35.215  31.274  1.00  0.00     0.251 C 
ATOM     25  H   UNL A   1      32.159  36.438  29.945  1.00  0.00     0.163 HD
ATOM     26  O   UNL A   1      32.155  35.334  32.116  1.00  0.00    -0.269 OA
BRANCH  24  27
ATOM     27  C   UNL A   1      34.248  34.410  31.557  1.00  0.00     0.039 A 
ATOM     28  C   UNL A   1      35.506  35.006  31.454  1.00  0.00     0.014 A 
ATOM     29  C   UNL A   1      34.128  33.078  31.966  1.00  0.00     0.014 A 
ATOM     30  C   UNL A   1      36.644  34.285  31.822  1.00  0.00     0.010 A 
ATOM     31  C   UNL A   1      35.254  32.385  32.399  1.00  0.00     0.010 A 
ATOM     32  C   UNL A   1      36.524  32.981  32.330  1.00  0.00    -0.014 A 
BRANCH  32  33
ATOM     33  C   UNL A   1      37.710  32.205  32.778  1.00  0.00     0.031 A 
ATOM     34  C   UNL A   1      38.352  32.526  34.100  1.00  0.00     0.074 A 
ATOM     35  C   UNL A   1      38.252  31.272  31.968  1.00  0.00     0.049 A 
ATOM     36  N   UNL A   1      39.463  32.069  34.615  1.00  0.00    -0.248 NA
ATOM     37  C   UNL A   1      37.663  33.520  34.937  1.00  0.00     0.031 C 
ATOM     38  C   UNL A   1      37.733  30.887  30.655  1.00  0.00     0.029 A 
ATOM     39  N   UNL A   1      39.368  30.488  32.125  1.00  0.00    -0.354 N 
ATOM     40  C   UNL A   1      39.617  32.730  35.830  1.00  0.00     0.074 A 
ATOM     41  C   UNL A   1      38.515  33.664  35.940  1.00  0.00     0.031 C 
ATOM     42  C   UNL A   1      38.519  29.930  30.135  1.00  0.00     0.029 A 
ATOM     43  C   UNL A   1      39.625  29.668  31.050  1.00  0.00     0.049 A 
ATOM     44  H   UNL A   1      39.931  30.510  32.932  1.00  0.00     0.167 HD
ATOM     45  C   UNL A   1      40.574  32.559  36.775  1.00  0.00     0.034 A 
ATOM     46  C   UNL A   1      40.647  28.819  30.821  1.00  0.00     0.034 A 
ATOM     47  C   UNL A   1      41.656  31.613  36.655  1.00  0.00     0.049 A 
ATOM     48  C   UNL A   1      41.724  28.675  31.868  1.00  0.00     0.074 A 
ATOM     49  C   UNL A   1      42.658  31.328  37.567  1.00  0.00     0.029 A 
ATOM     50  N   UNL A   1      41.882  30.800  35.552  1.00  0.00    -0.354 N 
ATOM     51  N   UNL A   1      41.839  29.287  33.024  1.00  0.00    -0.248 NA
ATOM     52  C   UNL A   1      42.804  27.721  31.583  1.00  0.00     0.031 C 
ATOM     53  C   UNL A   1      43.522  30.391  36.992  1.00  0.00     0.029 A 
ATOM     54  C   UNL A   1      43.020  30.034  35.750  1.00  0.00     0.049 A 
ATOM     55  H   UNL A   1      41.317  30.772  34.747  1.00  0.00     0.167 HD
ATOM     56  C   UNL A   1      42.984  28.763  33.619  1.00  0.00     0.074 A 
ATOM     57  C   UNL A   1      43.518  27.782  32.697  1.00  0.00     0.031 C 
ATOM     58  C   UNL A   1      43.539  29.058  34.821  1.00  0.00     0.034 A 
BRANCH  45  59
ATOM     59  C   UNL A   1      40.497  33.431  38.005  1.00  0.00     0.023 A 
ATOM     60  C   UNL A   1      39.698  33.081  39.108  1.00  0.00     0.031 A 
ATOM     61  C   UNL A   1      41.207  34.644  38.066  1.00  0.00     0.131 A 
ATOM     62  C   UNL A   1      39.563  33.968  40.186  1.00  0.00     0.055 A 
ATOM     63  C   UNL A   1      41.135  35.483  39.180  1.00  0.00     0.041 A 
ATOM     64  F   UNL A   1      41.970  35.042  37.037  1.00  0.00    -0.206 F 
ATOM     65  C   UNL A   1      40.296  35.155  40.242  1.00  0.00     0.022 A 
BRANCH  62  66
ATOM     66  S   UNL A   1      38.301  33.618  41.440  1.00  0.00     0.124 S 
ATOM     67  O   UNL A   1      37.580  34.888  41.493  1.00  0.00    -0.237 OA
ATOM     68  O   UNL A   1      37.578  32.496  40.856  1.00  0.00    -0.237 OA
ATOM     69  O   UNL A   1      39.083  33.304  42.634  1.00  0.00    -0.744 OA
ENDBRANCH  62  66
ENDBRANCH  45  59
BRANCH  46  70
ATOM     70  C   UNL A   1      40.720  28.046  29.547  1.00  0.00     0.023 A 
ATOM     71  C   UNL A   1      41.671  28.365  28.565  1.00  0.00     0.031 A 
ATOM     72  C   UNL A   1      39.809  27.012  29.271  1.00  0.00     0.131 A 
ATOM     73  C   UNL A   1      41.656  27.694  27.332  1.00  0.00     0.055 A 
ATOM     74  C   UNL A   1      39.834  26.308  28.064  1.00  0.00     0.041 A 
ATOM     75  F   UNL A   1      38.882  26.662  30.176  1.00  0.00    -0.206 F 
ATOM     76  C   UNL A   1      40.754  26.659  27.080  1.00  0.00     0.022 A 
BRANCH  73  77
ATOM     77  S   UNL A   1      42.778  28.260  26.023  1.00  0.00     0.124 S 
ATOM     78  O   UNL A   1      42.642  29.708  26.122  1.00  0.00    -0.237 OA
ATOM     79  O   UNL A   1      44.054  27.702  26.458  1.00  0.00    -0.237 OA
ATOM     80  O   UNL A   1      42.218  27.660  24.814  1.00  0.00    -0.744 OA
ENDBRANCH  73  77
ENDBRANCH  46  70
BRANCH  58  81
ATOM     81  C   UNL A   1      44.754  28.265  35.234  1.00  0.00     0.023 A 
ATOM     82  C   UNL A   1      44.644  27.045  35.922  1.00  0.00     0.031 A 
ATOM     83  C   UNL A   1      46.040  28.739  34.923  1.00  0.00     0.131 A 
ATOM     84  C   UNL A   1      45.805  26.360  36.315  1.00  0.00     0.055 A 
ATOM     85  C   UNL A   1      47.189  28.026  35.267  1.00  0.00     0.041 A 
ATOM     86  F   UNL A   1      46.200  29.901  34.268  1.00  0.00    -0.206 F 
ATOM     87  C   UNL A   1      47.076  26.835  35.976  1.00  0.00     0.022 A 
BRANCH  84  88
ATOM     88  S   UNL A   1      45.636  24.870  37.335  1.00  0.00     0.124 S 
ATOM     89  O   UNL A   1      45.957  25.375  38.666  1.00  0.00    -0.237 OA
ATOM     90  O   UNL A   1      44.243  24.496  37.114  1.00  0.00    -0.237 OA
ATOM     91  O   UNL A   1      46.620  23.951  36.766  1.00  0.00    -0.744 OA
ENDBRANCH  84  88
ENDBRANCH  58  81
ENDBRANCH  32  33
ENDBRANCH  24  27
ENDBRANCH  22  23
ENDBRANCH  21  22
ENDBRANCH  20  21
ENDBRANCH   1  20
TORSDOF 20
ENDMDL
MODEL 2
REMARK VINA RESULT:      -9.2      5.736      9.155
REMARK SMILES C[C@@H]([NH2+]CC(C)(C)C(=O)NCCCCCCNC(=O)c1ccc(-c2c3nc(c(-c4cc(S(=O)(=O)[O-])ccc4F)c4ccc([nH]4)c(-c4cc(S(=O)(=O)[O-])ccc4F)c4nc(c(-c5cc(S(=O)(=O)[O-])ccc5F)c5ccc2[nH]5)C=C4)C=C3)cc1)C1CC1
REMARK SMILES IDX 13 1 12 2 11 3 10 4 8 5 9 6 5 8 6 9 7 10 4 11 3 12 2 15 1 16
REMARK SMILES IDX 83 17 84 18 85 19 14 20 15 21 16 22 17 23 18 24 19 26 20 27
REMARK SMILES IDX 21 28 82 29 22 30 81 31 23 32 24 33 25 34 75 35 26 36 80 37
REMARK SMILES IDX 74 38 76 39 27 40 79 41 73 42 72 43 28 45 60 46 40 47 59 48
REMARK SMILES IDX 41 49 44 50 58 51 77 52 42 53 43 54 57 56 78 57 45 58 29 59
REMARK SMILES IDX 30 60 38 61 31 62 37 63 39 64 36 65 32 66 33 67 34 68 35 69
REMARK SMILES IDX 61 70 62 71 70 72 63 73 69 74 71 75 68 76 64 77 65 78 66 79
REMARK SMILES IDX 67 80 46 81 47 82 55 83 48 84 54 85 56 86 53 87 49 88 50 89
REMARK SMILES IDX 51 90 52 91
REMARK H PARENT 10 7 3 13 3 14 17 25 76 44 44 55
REMARK Flexibility Score: inf
ROOT
ATOM      1  C   UNL A   1      34.290  22.969  22.967  1.00  0.00     0.002 C 
ENDROOT
BRANCH   1   2
ATOM      2  C   UNL A   1      33.160  22.693  23.970  1.00  0.00     0.021 C 
BRANCH   2   3
ATOM      3  C   UNL A   1      31.897  23.529  23.747  1.00  0.00     0.116 C 
BRANCH   3   4
ATOM      4  N   UNL A   1      32.253  24.867  23.322  1.00  0.00    -0.355 N 
ATOM      5  C   UNL A   1      31.403  25.927  23.224  1.00  0.00     0.231 C 
ATOM      6  O   UNL A   1      31.366  26.484  22.126  1.00  0.00    -0.274 OA
ATOM      7  H   UNL A   1      33.194  25.024  23.081  1.00  0.00     0.163 HD
BRANCH   5   8
ATOM      8  C   UNL A   1      30.530  26.358  24.414  1.00  0.00     0.092 C 
ATOM      9  C   UNL A   1      30.662  25.420  25.627  1.00  0.00     0.027 C 
ATOM     10  C   UNL A   1      29.067  26.403  23.927  1.00  0.00     0.027 C 
BRANCH   8  11
ATOM     11  C   UNL A   1      30.893  27.814  24.865  1.00  0.00     0.277 C 
BRANCH  11  12
ATOM     12  N   UNL A   1      31.747  28.678  24.038  1.00  0.00    -0.343 N 
ATOM     13  H   UNL A   1      31.820  28.242  23.119  1.00  0.00     0.346 HD
ATOM     14  H   UNL A   1      31.287  29.588  24.061  1.00  0.00     0.346 HD
BRANCH  12  15
ATOM     15  C   UNL A   1      33.112  28.944  24.506  1.00  0.00     0.182 C 
ATOM     16  C   UNL A   1      34.052  28.506  23.361  1.00  0.00     0.075 C 
BRANCH  15  17
ATOM     17  C   UNL A   1      33.583  28.240  25.761  1.00  0.00     0.047 C 
ATOM     18  C   UNL A   1      34.549  28.784  26.792  1.00  0.00     0.010 C 
ATOM     19  C   UNL A   1      33.097  28.612  27.142  1.00  0.00     0.010 C 
ENDBRANCH  15  17
ENDBRANCH  12  15
ENDBRANCH  11  12
ENDBRANCH   8  11
ENDBRANCH   5   8
ENDBRANCH   3   4
ENDBRANCH   2   3
ENDBRANCH   1   2
BRANCH   1  20
ATOM     20  C   UNL A   1      35.630  23.377  23.588  1.00  0.00     0.002 C 
BRANCH  20  21
ATOM     21  C   UNL A   1      36.574  22.216  23.906  1.00  0.00     0.021 C 
BRANCH  21  22
ATOM     22  C   UNL A   1      37.012  22.139  25.361  1.00  0.00     0.116 C 
BRANCH  22  23
ATOM     23  N   UNL A   1      37.881  21.003  25.611  1.00  0.00    -0.352 N 
ATOM     24  C   UNL A   1      39.163  21.007  26.104  1.00  0.00     0.251 C 
ATOM     25  H   UNL A   1      37.504  20.118  25.400  1.00  0.00     0.163 HD
ATOM     26  O   UNL A   1      39.839  19.982  26.080  1.00  0.00    -0.269 OA
BRANCH  24  27
ATOM     27  C   UNL A   1      39.725  22.269  26.632  1.00  0.00     0.039 A 
ATOM     28  C   UNL A   1      40.746  22.216  27.582  1.00  0.00     0.014 A 
ATOM     29  C   UNL A   1      39.267  23.500  26.151  1.00  0.00     0.014 A 
ATOM     30  C   UNL A   1      41.354  23.400  28.006  1.00  0.00     0.010 A 
ATOM     31  C   UNL A   1      39.922  24.670  26.521  1.00  0.00     0.010 A 
ATOM     32  C   UNL A   1      40.971  24.633  27.454  1.00  0.00    -0.014 A 
BRANCH  32  33
ATOM     33  C   UNL A   1      41.633  25.904  27.847  1.00  0.00     0.031 A 
ATOM     34  C   UNL A   1      40.854  26.944  28.606  1.00  0.00     0.074 A 
ATOM     35  C   UNL A   1      42.901  26.154  27.460  1.00  0.00     0.049 A 
ATOM     36  N   UNL A   1      41.193  28.165  28.926  1.00  0.00    -0.248 NA
ATOM     37  C   UNL A   1      39.498  26.563  29.030  1.00  0.00     0.031 C 
ATOM     38  C   UNL A   1      43.751  25.234  26.703  1.00  0.00     0.029 A 
ATOM     39  N   UNL A   1      43.690  27.264  27.636  1.00  0.00    -0.354 N 
ATOM     40  C   UNL A   1      40.089  28.706  29.577  1.00  0.00     0.074 A 
ATOM     41  C   UNL A   1      39.050  27.697  29.547  1.00  0.00     0.031 C 
ATOM     42  C   UNL A   1      44.946  25.810  26.496  1.00  0.00     0.029 A 
ATOM     43  C   UNL A   1      44.934  27.158  27.057  1.00  0.00     0.049 A 
ATOM     44  H   UNL A   1      43.393  28.061  28.131  1.00  0.00     0.167 HD
ATOM     45  C   UNL A   1      39.960  29.922  30.164  1.00  0.00     0.034 A 
ATOM     46  C   UNL A   1      45.940  28.051  26.971  1.00  0.00     0.034 A 
ATOM     47  C   UNL A   1      41.011  30.909  30.196  1.00  0.00     0.049 A 
ATOM     48  C   UNL A   1      45.759  29.413  27.595  1.00  0.00     0.074 A 
ATOM     49  C   UNL A   1      41.003  32.156  30.797  1.00  0.00     0.029 A 
ATOM     50  N   UNL A   1      42.256  30.764  29.600  1.00  0.00    -0.354 N 
ATOM     51  N   UNL A   1      44.718  29.899  28.230  1.00  0.00    -0.248 NA
ATOM     52  C   UNL A   1      46.891  30.345  27.495  1.00  0.00     0.031 C 
ATOM     53  C   UNL A   1      42.218  32.788  30.512  1.00  0.00     0.029 A 
ATOM     54  C   UNL A   1      43.015  31.908  29.796  1.00  0.00     0.049 A 
ATOM     55  H   UNL A   1      42.557  29.965  29.109  1.00  0.00     0.167 HD
ATOM     56  C   UNL A   1      45.086  31.178  28.639  1.00  0.00     0.074 A 
ATOM     57  C   UNL A   1      46.445  31.386  28.183  1.00  0.00     0.031 C 
ATOM     58  C   UNL A   1      44.370  32.097  29.335  1.00  0.00     0.034 A 
BRANCH  45  59
ATOM     59  C   UNL A   1      38.628  30.250  30.794  1.00  0.00     0.023 A 
ATOM     60  C   UNL A   1      37.621  30.925  30.083  1.00  0.00     0.031 A 
ATOM     61  C   UNL A   1      38.371  29.912  32.136  1.00  0.00     0.131 A 
ATOM     62  C   UNL A   1      36.441  31.313  30.734  1.00  0.00     0.055 A 
ATOM     63  C   UNL A   1      37.158  30.225  32.754  1.00  0.00     0.041 A 
ATOM     64  F   UNL A   1      39.301  29.285  32.873  1.00  0.00    -0.206 F 
ATOM     65  C   UNL A   1      36.191  30.945  32.058  1.00  0.00     0.022 A 
BRANCH  62  66
ATOM     66  S   UNL A   1      35.306  32.433  29.871  1.00  0.00     0.124 S 
ATOM     67  O   UNL A   1      34.836  31.587  28.776  1.00  0.00    -0.237 OA
ATOM     68  O   UNL A   1      34.325  32.746  30.903  1.00  0.00    -0.237 OA
ATOM     69  O   UNL A   1      36.163  33.545  29.466  1.00  0.00    -0.744 OA
ENDBRANCH  62  66
ENDBRANCH  45  59
BRANCH  46  70
ATOM     70  C   UNL A   1      47.203  27.705  26.258  1.00  0.00     0.023 A 
ATOM     71  C   UNL A   1      47.335  27.927  24.878  1.00  0.00     0.031 A 
ATOM     72  C   UNL A   1      48.277  27.101  26.934  1.00  0.00     0.131 A 
ATOM     73  C   UNL A   1      48.493  27.500  24.209  1.00  0.00     0.055 A 
ATOM     74  C   UNL A   1      49.450  26.729  26.273  1.00  0.00     0.041 A 
ATOM     75  F   UNL A   1      48.206  26.870  28.255  1.00  0.00    -0.206 F 
ATOM     76  C   UNL A   1      49.556  26.916  24.898  1.00  0.00     0.022 A 
BRANCH  73  77
ATOM     77  S   UNL A   1      48.548  27.637  22.400  1.00  0.00     0.124 S 
ATOM     78  O   UNL A   1      48.683  26.241  22.002  1.00  0.00    -0.237 OA
ATOM     79  O   UNL A   1      47.266  28.269  22.107  1.00  0.00    -0.237 OA
ATOM     80  O   UNL A   1      49.722  28.473  22.159  1.00  0.00    -0.744 OA
ENDBRANCH  73  77
ENDBRANCH  46  70
BRANCH  58  81
ATOM     81  C   UNL A   1      45.067  33.384  29.701  1.00  0.00     0.023 A 
ATOM     82  C   UNL A   1      45.795  33.521  30.894  1.00  0.00     0.031 A 
ATOM     83  C   UNL A   1      45.006  34.486  28.829  1.00  0.00     0.131 A 
ATOM     84  C   UNL A   1      46.398  34.750  31.205  1.00  0.00     0.055 A 
ATOM     85  C   UNL A   1      45.654  35.687  29.118  1.00  0.00     0.041 A 
ATOM     86  F   UNL A   1      44.322  34.408  27.676  1.00  0.00    -0.206 F 
ATOM     87  C   UNL A   1      46.346  35.828  30.316  1.00  0.00     0.022 A 
BRANCH  84  88
ATOM     88  S   UNL A   1      47.197  34.945  32.822  1.00  0.00     0.124 S 
ATOM     89  O   UNL A   1      46.116  35.497  33.631  1.00  0.00    -0.237 OA
ATOM     90  O   UNL A   1      47.598  33.578  33.140  1.00  0.00    -0.237 OA
ATOM     91  O   UNL A   1      48.300  35.865  32.550  1.00  0.00    -0.744 OA
ENDBRANCH  84  88
ENDBRANCH  58  81
ENDBRANCH  32  33
ENDBRANCH  24  27
ENDBRANCH  22  23
ENDBRANCH  21  22
ENDBRANCH  20  21
ENDBRANCH   1  20
TORSDOF 20
ENDMDL
MODEL 3
REMARK VINA RESULT:      -8.8      5.720      9.625
REMARK SMILES C[C@@H]([NH2+]CC(C)(C)C(=O)NCCCCCCNC(=O)c1ccc(-c2c3nc(c(-c4cc(S(=O)(=O)[O-])ccc4F)c4ccc([nH]4)c(-c4cc(S(=O)(=O)[O-])ccc4F)c4nc(c(-c5cc(S(=O)(=O)[O-])ccc5F)c5ccc2[nH]5)C=C4)C=C3)cc1)C1CC1
REMARK SMILES IDX 13 1 12 2 11 3 10 4 8 5 9 6 5 8 6 9 7 10 4 11 3 12 2 15 1 16
REMARK SMILES IDX 83 17 84 18 85 19 14 20 15 21 16 22 17 23 18 24 19 26 20 27
REMARK SMILES IDX 21 28 82 29 22 30 81 31 23 32 24 33 25 34 75 35 26 36 80 37
REMARK SMILES IDX 74 38 76 39 27 40 79 41 73 42 72 43 28 45 60 46 40 47 59 48
REMARK SMILES IDX 41 49 44 50 58 51 77 52 42 53 43 54 57 56 78 57 45 58 29 59
REMARK SMILES IDX 30 60 38 61 31 62 37 63 39 64 36 65 32 66 33 67 34 68 35 69
REMARK SMILES IDX 61 70 62 71 70 72 63 73 69 74 71 75 68 76 64 77 65 78 66 79
REMARK SMILES IDX 67 80 46 81 47 82 55 83 48 84 54 85 56 86 53 87 49 88 50 89
REMARK SMILES IDX 51 90 52 91
REMARK H PARENT 10 7 3 13 3 14 17 25 76 44 44 55
REMARK Flexibility Score: inf
ROOT
ATOM      1  C   UNL A   1      34.661  23.372  24.051  1.00  0.00     0.002 C 
ENDROOT
BRANCH   1   2
ATOM      2  C   UNL A   1      34.273  24.805  24.445  1.00  0.00     0.021 C 
BRANCH   2   3
ATOM      3  C   UNL A   1      32.829  25.186  24.108  1.00  0.00     0.116 C 
BRANCH   3   4
ATOM      4  N   UNL A   1      32.795  26.005  22.914  1.00  0.00    -0.355 N 
ATOM      5  C   UNL A   1      31.706  26.661  22.426  1.00  0.00     0.231 C 
ATOM      6  O   UNL A   1      31.408  26.409  21.258  1.00  0.00    -0.274 OA
ATOM      7  H   UNL A   1      33.635  26.094  22.409  1.00  0.00     0.163 HD
BRANCH   5   8
ATOM      8  C   UNL A   1      30.896  27.623  23.310  1.00  0.00     0.092 C 
ATOM      9  C   UNL A   1      31.760  28.349  24.357  1.00  0.00     0.027 C 
ATOM     10  C   UNL A   1      29.789  26.802  24.003  1.00  0.00     0.027 C 
BRANCH   8  11
ATOM     11  C   UNL A   1      30.168  28.698  22.431  1.00  0.00     0.277 C 
BRANCH  11  12
ATOM     12  N   UNL A   1      29.972  30.072  22.914  1.00  0.00    -0.343 N 
ATOM     13  H   UNL A   1      30.645  30.229  23.663  1.00  0.00     0.346 HD
ATOM     14  H   UNL A   1      30.091  30.653  22.084  1.00  0.00     0.346 HD
BRANCH  12  15
ATOM     15  C   UNL A   1      28.648  30.436  23.431  1.00  0.00     0.182 C 
ATOM     16  C   UNL A   1      27.641  29.495  22.732  1.00  0.00     0.075 C 
BRANCH  15  17
ATOM     17  C   UNL A   1      28.162  31.852  23.206  1.00  0.00     0.047 C 
ATOM     18  C   UNL A   1      29.017  33.058  22.882  1.00  0.00     0.010 C 
ATOM     19  C   UNL A   1      28.096  32.489  21.838  1.00  0.00     0.010 C 
ENDBRANCH  15  17
ENDBRANCH  12  15
ENDBRANCH  11  12
ENDBRANCH   8  11
ENDBRANCH   5   8
ENDBRANCH   3   4
ENDBRANCH   2   3
ENDBRANCH   1   2
BRANCH   1  20
ATOM     20  C   UNL A   1      36.167  23.107  23.948  1.00  0.00     0.002 C 
BRANCH  20  21
ATOM     21  C   UNL A   1      36.784  22.411  25.162  1.00  0.00     0.021 C 
BRANCH  21  22
ATOM     22  C   UNL A   1      37.983  23.130  25.761  1.00  0.00     0.116 C 
BRANCH  22  23
ATOM     23  N   UNL A   1      39.149  22.270  25.850  1.00  0.00    -0.352 N 
ATOM     24  C   UNL A   1      40.417  22.598  26.264  1.00  0.00     0.251 C 
ATOM     25  H   UNL A   1      39.014  21.333  25.578  1.00  0.00     0.163 HD
ATOM     26  O   UNL A   1      41.345  21.811  26.102  1.00  0.00    -0.269 OA
BRANCH  24  27
ATOM     27  C   UNL A   1      40.651  23.925  26.876  1.00  0.00     0.039 A 
ATOM     28  C   UNL A   1      41.162  23.997  28.172  1.00  0.00     0.014 A 
ATOM     29  C   UNL A   1      40.404  25.091  26.145  1.00  0.00     0.014 A 
ATOM     30  C   UNL A   1      41.486  25.242  28.717  1.00  0.00     0.010 A 
ATOM     31  C   UNL A   1      40.793  26.323  26.662  1.00  0.00     0.010 A 
ATOM     32  C   UNL A   1      41.337  26.412  27.954  1.00  0.00    -0.014 A 
BRANCH  32  33
ATOM     33  C   UNL A   1      41.719  27.746  28.486  1.00  0.00     0.031 A 
ATOM     34  C   UNL A   1      40.648  28.691  28.960  1.00  0.00     0.074 A 
ATOM     35  C   UNL A   1      43.010  28.133  28.474  1.00  0.00     0.049 A 
ATOM     36  N   UNL A   1      40.749  29.941  29.331  1.00  0.00    -0.248 NA
ATOM     37  C   UNL A   1      39.275  28.164  28.985  1.00  0.00     0.031 C 
ATOM     38  C   UNL A   1      44.135  27.315  28.019  1.00  0.00     0.029 A 
ATOM     39  N   UNL A   1      43.593  29.321  28.840  1.00  0.00    -0.354 N 
ATOM     40  C   UNL A   1      39.454  30.356  29.620  1.00  0.00     0.074 A 
ATOM     41  C   UNL A   1      38.580  29.240  29.320  1.00  0.00     0.031 C 
ATOM     42  C   UNL A   1      45.272  28.018  28.150  1.00  0.00     0.029 A 
ATOM     43  C   UNL A   1      44.955  29.354  28.647  1.00  0.00     0.049 A 
ATOM     44  H   UNL A   1      43.084  30.080  29.207  1.00  0.00     0.167 HD
ATOM     45  C   UNL A   1      39.033  31.548  30.111  1.00  0.00     0.034 A 
ATOM     46  C   UNL A   1      45.843  30.351  28.830  1.00  0.00     0.034 A 
ATOM     47  C   UNL A   1      39.920  32.643  30.418  1.00  0.00     0.049 A 
ATOM     48  C   UNL A   1      45.348  31.683  29.338  1.00  0.00     0.074 A 
ATOM     49  C   UNL A   1      39.607  33.880  30.957  1.00  0.00     0.029 A 
ATOM     50  N   UNL A   1      41.293  32.636  30.211  1.00  0.00    -0.354 N 
ATOM     51  N   UNL A   1      44.122  32.051  29.633  1.00  0.00    -0.248 NA
ATOM     52  C   UNL A   1      46.356  32.732  29.543  1.00  0.00     0.031 C 
ATOM     53  C   UNL A   1      40.780  34.641  31.017  1.00  0.00     0.029 A 
ATOM     54  C   UNL A   1      41.837  33.855  30.586  1.00  0.00     0.049 A 
ATOM     55  H   UNL A   1      41.805  31.878  29.850  1.00  0.00     0.167 HD
ATOM     56  C   UNL A   1      44.219  33.360  30.095  1.00  0.00     0.074 A 
ATOM     57  C   UNL A   1      45.622  33.716  30.045  1.00  0.00     0.031 C 
ATOM     58  C   UNL A   1      43.240  34.193  30.530  1.00  0.00     0.034 A 
BRANCH  45  59
ATOM     59  C   UNL A   1      37.549  31.726  30.322  1.00  0.00     0.023 A 
ATOM     60  C   UNL A   1      36.711  32.206  29.300  1.00  0.00     0.031 A 
ATOM     61  C   UNL A   1      36.967  31.444  31.571  1.00  0.00     0.131 A 
ATOM     62  C   UNL A   1      35.359  32.467  29.566  1.00  0.00     0.055 A 
ATOM     63  C   UNL A   1      35.601  31.624  31.804  1.00  0.00     0.041 A 
ATOM     64  F   UNL A   1      37.718  31.004  32.592  1.00  0.00    -0.206 F 
ATOM     65  C   UNL A   1      34.791  32.154  30.803  1.00  0.00     0.022 A 
BRANCH  62  66
ATOM     66  S   UNL A   1      34.390  33.358  28.319  1.00  0.00     0.124 S 
ATOM     67  O   UNL A   1      33.614  32.273  27.721  1.00  0.00    -0.237 OA
ATOM     68  O   UNL A   1      33.639  34.312  29.126  1.00  0.00    -0.237 OA
ATOM     69  O   UNL A   1      35.407  33.941  27.446  1.00  0.00    -0.744 OA
ENDBRANCH  62  66
ENDBRANCH  45  59
BRANCH  46  70
ATOM     70  C   UNL A   1      47.288  30.148  28.522  1.00  0.00     0.023 A 
ATOM     71  C   UNL A   1      48.154  29.581  29.471  1.00  0.00     0.031 A 
ATOM     72  C   UNL A   1      47.836  30.563  27.296  1.00  0.00     0.131 A 
ATOM     73  C   UNL A   1      49.528  29.493  29.200  1.00  0.00     0.055 A 
ATOM     74  C   UNL A   1      49.196  30.422  27.008  1.00  0.00     0.041 A 
ATOM     75  F   UNL A   1      47.053  31.108  26.351  1.00  0.00    -0.206 F 
ATOM     76  C   UNL A   1      50.053  29.896  27.971  1.00  0.00     0.022 A 
BRANCH  73  77
ATOM     77  S   UNL A   1      50.638  28.927  30.519  1.00  0.00     0.124 S 
ATOM     78  O   UNL A   1      51.947  29.235  29.958  1.00  0.00    -0.237 OA
ATOM     79  O   UNL A   1      50.210  29.750  31.645  1.00  0.00    -0.237 OA
ATOM     80  O   UNL A   1      50.326  27.504  30.637  1.00  0.00    -0.744 OA
ENDBRANCH  73  77
ENDBRANCH  46  70
BRANCH  58  81
ATOM     81  C   UNL A   1      43.662  35.546  31.045  1.00  0.00     0.023 A 
ATOM     82  C   UNL A   1      43.677  36.683  30.220  1.00  0.00     0.031 A 
ATOM     83  C   UNL A   1      44.046  35.695  32.390  1.00  0.00     0.131 A 
ATOM     84  C   UNL A   1      44.111  37.913  30.738  1.00  0.00     0.055 A 
ATOM     85  C   UNL A   1      44.422  36.933  32.913  1.00  0.00     0.041 A 
ATOM     86  F   UNL A   1      44.049  34.640  33.221  1.00  0.00    -0.206 F 
ATOM     87  C   UNL A   1      44.467  38.049  32.083  1.00  0.00     0.022 A 
BRANCH  84  88
ATOM     88  S   UNL A   1      44.269  39.327  29.612  1.00  0.00     0.124 S 
ATOM     89  O   UNL A   1      44.314  40.451  30.541  1.00  0.00    -0.237 OA
ATOM     90  O   UNL A   1      45.513  39.030  28.909  1.00  0.00    -0.237 OA
ATOM     91  O   UNL A   1      43.062  39.248  28.791  1.00  0.00    -0.744 OA
ENDBRANCH  84  88
ENDBRANCH  58  81
ENDBRANCH  32  33
ENDBRANCH  24  27
ENDBRANCH  22  23
ENDBRANCH  21  22
ENDBRANCH  20  21
ENDBRANCH   1  20
TORSDOF 20
ENDMDL
