MODEL 1
REMARK VINA RESULT:      -9.2      0.000      0.000
REMARK SMILES CC(=O)Oc1ccc([C@H]2Nc3c(C(=O)NCCCCCCNC(=O)c4ccc(-c5c6nc(c(-c7cc(S(=O)(=O)[O-])ccc7F)c7ccc([nH]7)c(-c7cc(S(=O)(=O)[O-])ccc7F)c7nc(c(-c8cc(S(=O)(=O)[O-])ccc8F)c8ccc5[nH]8)C=C7)C=C6)cc4)ccc([N+](=O)[O-])c3[C@H]3C=CC[C@@H]32)cc1
REMARK SMILES IDX 18 1 17 2 16 3 15 4 13 5 14 6 12 8 9 9 10 10 99 11 11 12
REMARK SMILES IDX 95 14 98 15 94 16 96 17 97 18 88 19 90 20 89 21 8 22 5 23
REMARK SMILES IDX 6 24 101 25 7 26 100 27 4 28 2 29 1 30 3 31 91 32 92 33
REMARK SMILES IDX 93 34 19 35 20 36 21 37 22 38 23 39 24 41 25 42 26 43 87 44
REMARK SMILES IDX 27 45 86 46 28 47 29 48 30 49 80 50 31 51 85 52 79 53 81 54
REMARK SMILES IDX 32 55 84 56 78 57 77 58 33 60 65 61 45 62 64 63 46 64 49 65
REMARK SMILES IDX 63 66 82 67 47 68 48 69 62 71 83 72 50 73 34 74 35 75 43 76
REMARK SMILES IDX 36 77 42 78 44 79 41 80 37 81 38 82 39 83 40 84 66 85 67 86
REMARK SMILES IDX 75 87 68 88 74 89 76 90 73 91 69 92 70 93 71 94 72 95 51 96
REMARK SMILES IDX 52 97 60 98 53 99 59 100 61 101 58 102 54 103 55 104 56 105
REMARK SMILES IDX 57 106
REMARK H PARENT 15 7 10 13 22 40 81 59 49 70
REMARK Flexibility Score: inf
ROOT
ATOM      1  C   UNL A   1      40.263  34.024  35.242  1.00  0.00     0.002 C 
ENDROOT
BRANCH   1   2
ATOM      2  C   UNL A   1      41.344  33.713  34.204  1.00  0.00     0.021 C 
BRANCH   2   3
ATOM      3  C   UNL A   1      41.024  34.109  32.762  1.00  0.00     0.116 C 
BRANCH   3   4
ATOM      4  N   UNL A   1      41.851  33.441  31.746  1.00  0.00    -0.352 N 
ATOM      5  C   UNL A   1      41.502  32.907  30.508  1.00  0.00     0.253 C 
ATOM      6  O   UNL A   1      42.336  32.292  29.847  1.00  0.00    -0.269 OA
ATOM      7  H   UNL A   1      42.803  33.358  31.979  1.00  0.00     0.163 HD
BRANCH   5   8
ATOM      8  C   UNL A   1      40.111  33.076  29.994  1.00  0.00     0.063 A 
ATOM      9  C   UNL A   1      38.721  29.625  28.994  1.00  0.00     0.114 C 
ATOM     10  N   UNL A   1      39.666  30.669  29.471  1.00  0.00    -0.377 N 
ATOM     11  C   UNL A   1      37.565  30.366  28.303  1.00  0.00     0.031 C 
ATOM     12  C   UNL A   1      39.227  31.993  29.745  1.00  0.00     0.058 A 
ATOM     13  H   UNL A   1      40.615  30.439  29.600  1.00  0.00     0.161 HD
ATOM     14  C   UNL A   1      36.904  31.127  29.469  1.00  0.00     0.056 C 
ATOM     15  C   UNL A   1      36.439  29.677  27.536  1.00  0.00     0.034 C 
ATOM     16  C   UNL A   1      37.824  32.304  29.668  1.00  0.00     0.061 A 
ATOM     17  C   UNL A   1      35.486  31.220  29.026  1.00  0.00    -0.022 C 
ATOM     18  C   UNL A   1      35.228  30.418  27.989  1.00  0.00    -0.030 C 
ATOM     19  C   UNL A   1      39.668  34.402  29.817  1.00  0.00     0.023 A 
ATOM     20  C   UNL A   1      37.408  33.645  29.721  1.00  0.00     0.275 A 
ATOM     21  C   UNL A   1      38.317  34.696  29.713  1.00  0.00     0.087 A 
BRANCH   9  22
ATOM     22  C   UNL A   1      39.312  28.424  28.251  1.00  0.00    -0.025 A 
ATOM     23  C   UNL A   1      41.054  26.419  27.258  1.00  0.00     0.130 A 
ATOM     24  C   UNL A   1      41.030  27.680  26.666  1.00  0.00     0.047 A 
ATOM     25  C   UNL A   1      40.181  26.129  28.301  1.00  0.00     0.047 A 
ATOM     26  C   UNL A   1      40.159  28.669  27.150  1.00  0.00     0.010 A 
ATOM     27  C   UNL A   1      39.290  27.114  28.764  1.00  0.00     0.010 A 
BRANCH  23  28
ATOM     28  O   UNL A   1      42.065  25.539  26.807  1.00  0.00    -0.427 OA
BRANCH  28  29
ATOM     29  C   UNL A   1      42.095  24.182  27.130  1.00  0.00     0.308 C 
ATOM     30  C   UNL A   1      42.753  24.005  28.470  1.00  0.00     0.139 C 
ATOM     31  O   UNL A   1      41.670  23.256  26.454  1.00  0.00    -0.252 OA
ENDBRANCH  28  29
ENDBRANCH  23  28
ENDBRANCH   9  22
BRANCH  20  32
ATOM     32  N   UNL A   1      36.012  34.012  29.791  1.00  0.00     0.063 N 
ATOM     33  O   UNL A   1      35.479  34.407  28.746  1.00  0.00    -0.258 OA
ATOM     34  O   UNL A   1      35.471  33.933  30.902  1.00  0.00    -0.258 OA
ENDBRANCH  20  32
ENDBRANCH   5   8
ENDBRANCH   3   4
ENDBRANCH   2   3
ENDBRANCH   1   2
BRANCH   1  35
ATOM     35  C   UNL A   1      39.581  32.816  35.896  1.00  0.00     0.002 C 
BRANCH  35  36
ATOM     36  C   UNL A   1      38.163  32.479  35.417  1.00  0.00     0.021 C 
BRANCH  36  37
ATOM     37  C   UNL A   1      37.947  32.457  33.903  1.00  0.00     0.116 C 
BRANCH  37  38
ATOM     38  N   UNL A   1      37.008  31.433  33.475  1.00  0.00    -0.352 N 
ATOM     39  C   UNL A   1      37.229  30.216  32.867  1.00  0.00     0.251 C 
ATOM     40  H   UNL A   1      36.061  31.643  33.648  1.00  0.00     0.163 HD
ATOM     41  O   UNL A   1      36.276  29.565  32.461  1.00  0.00    -0.269 OA
BRANCH  39  42
ATOM     42  C   UNL A   1      38.610  29.710  32.669  1.00  0.00     0.039 A 
ATOM     43  C   UNL A   1      39.678  30.601  32.822  1.00  0.00     0.014 A 
ATOM     44  C   UNL A   1      38.861  28.377  32.336  1.00  0.00     0.014 A 
ATOM     45  C   UNL A   1      40.993  30.134  32.741  1.00  0.00     0.010 A 
ATOM     46  C   UNL A   1      40.174  27.900  32.319  1.00  0.00     0.010 A 
ATOM     47  C   UNL A   1      41.253  28.767  32.548  1.00  0.00    -0.014 A 
BRANCH  47  48
ATOM     48  C   UNL A   1      42.635  28.223  32.663  1.00  0.00     0.031 A 
ATOM     49  C   UNL A   1      43.430  27.864  31.438  1.00  0.00     0.074 A 
ATOM     50  C   UNL A   1      43.146  27.986  33.889  1.00  0.00     0.049 A 
ATOM     51  N   UNL A   1      44.610  27.306  31.354  1.00  0.00    -0.248 NA
ATOM     52  C   UNL A   1      42.805  28.150  30.139  1.00  0.00     0.031 C 
ATOM     53  C   UNL A   1      42.461  28.262  35.154  1.00  0.00     0.029 A 
ATOM     54  N   UNL A   1      44.350  27.451  34.278  1.00  0.00    -0.354 N 
ATOM     55  C   UNL A   1      44.873  27.171  29.995  1.00  0.00     0.074 A 
ATOM     56  C   UNL A   1      43.700  27.657  29.296  1.00  0.00     0.031 C 
ATOM     57  C   UNL A   1      43.261  27.917  36.174  1.00  0.00     0.029 A 
ATOM     58  C   UNL A   1      44.491  27.339  35.642  1.00  0.00     0.049 A 
ATOM     59  H   UNL A   1      45.046  27.173  33.640  1.00  0.00     0.167 HD
ATOM     60  C   UNL A   1      45.993  26.700  29.389  1.00  0.00     0.034 A 
ATOM     61  C   UNL A   1      45.484  26.810  36.386  1.00  0.00     0.034 A 
ATOM     62  C   UNL A   1      47.152  26.213  30.102  1.00  0.00     0.049 A 
ATOM     63  C   UNL A   1      46.690  26.235  35.687  1.00  0.00     0.074 A 
ATOM     64  C   UNL A   1      48.357  25.769  29.584  1.00  0.00     0.029 A 
ATOM     65  N   UNL A   1      47.246  26.087  31.483  1.00  0.00    -0.354 N 
ATOM     66  N   UNL A   1      46.945  26.168  34.400  1.00  0.00    -0.248 NA
ATOM     67  C   UNL A   1      47.742  25.670  36.540  1.00  0.00     0.031 C 
ATOM     68  C   UNL A   1      49.143  25.297  30.641  1.00  0.00     0.029 A 
ATOM     69  C   UNL A   1      48.469  25.527  31.828  1.00  0.00     0.049 A 
ATOM     70  H   UNL A   1      46.548  26.356  32.122  1.00  0.00     0.167 HD
ATOM     71  C   UNL A   1      48.199  25.572  34.294  1.00  0.00     0.074 A 
ATOM     72  C   UNL A   1      48.656  25.324  35.645  1.00  0.00     0.031 C 
ATOM     73  C   UNL A   1      48.908  25.260  33.179  1.00  0.00     0.034 A 
BRANCH  60  74
ATOM     74  C   UNL A   1      46.007  26.659  27.879  1.00  0.00     0.023 A 
ATOM     75  C   UNL A   1      45.768  25.470  27.168  1.00  0.00     0.031 A 
ATOM     76  C   UNL A   1      46.267  27.826  27.137  1.00  0.00     0.131 A 
ATOM     77  C   UNL A   1      45.862  25.459  25.767  1.00  0.00     0.055 A 
ATOM     78  C   UNL A   1      46.279  27.825  25.741  1.00  0.00     0.041 A 
ATOM     79  F   UNL A   1      46.523  28.989  27.757  1.00  0.00    -0.206 F 
ATOM     80  C   UNL A   1      46.090  26.634  25.047  1.00  0.00     0.022 A 
BRANCH  77  81
ATOM     81  S   UNL A   1      45.826  23.861  24.911  1.00  0.00     0.124 S 
ATOM     82  O   UNL A   1      44.444  23.809  24.440  1.00  0.00    -0.237 OA
ATOM     83  O   UNL A   1      46.846  24.030  23.883  1.00  0.00    -0.237 OA
ATOM     84  O   UNL A   1      46.153  22.900  25.963  1.00  0.00    -0.744 OA
ENDBRANCH  77  81
ENDBRANCH  60  74
BRANCH  61  85
ATOM     85  C   UNL A   1      45.375  26.765  37.873  1.00  0.00     0.023 A 
ATOM     86  C   UNL A   1      45.731  27.872  38.660  1.00  0.00     0.031 A 
ATOM     87  C   UNL A   1      44.957  25.596  38.535  1.00  0.00     0.131 A 
ATOM     88  C   UNL A   1      45.711  27.773  40.059  1.00  0.00     0.055 A 
ATOM     89  C   UNL A   1      44.882  25.522  39.927  1.00  0.00     0.041 A 
ATOM     90  F   UNL A   1      44.605  24.506  37.834  1.00  0.00    -0.206 F 
ATOM     91  C   UNL A   1      45.273  26.611  40.698  1.00  0.00     0.022 A 
BRANCH  88  92
ATOM     92  S   UNL A   1      46.361  29.156  41.037  1.00  0.00     0.124 S 
ATOM     93  O   UNL A   1      45.139  29.717  41.604  1.00  0.00    -0.237 OA
ATOM     94  O   UNL A   1      47.249  28.474  41.972  1.00  0.00    -0.237 OA
ATOM     95  O   UNL A   1      47.030  29.991  40.042  1.00  0.00    -0.744 OA
ENDBRANCH  88  92
ENDBRANCH  61  85
BRANCH  73  96
ATOM     96  C   UNL A   1      50.268  24.635  33.385  1.00  0.00     0.023 A 
ATOM     97  C   UNL A   1      50.457  23.242  33.326  1.00  0.00     0.031 A 
ATOM     98  C   UNL A   1      51.387  25.441  33.660  1.00  0.00     0.131 A 
ATOM     99  C   UNL A   1      51.720  22.696  33.598  1.00  0.00     0.055 A 
ATOM    100  C   UNL A   1      52.656  24.895  33.862  1.00  0.00     0.041 A 
ATOM    101  F   UNL A   1      51.266  26.777  33.733  1.00  0.00    -0.206 F 
ATOM    102  C   UNL A   1      52.825  23.514  33.846  1.00  0.00     0.022 A 
BRANCH  99 103
ATOM    103  S   UNL A   1      51.880  20.893  33.723  1.00  0.00     0.124 S 
ATOM    104  O   UNL A   1      50.712  20.433  32.979  1.00  0.00    -0.237 OA
ATOM    105  O   UNL A   1      53.173  20.649  33.092  1.00  0.00    -0.237 OA
ATOM    106  O   UNL A   1      51.837  20.644  35.163  1.00  0.00    -0.744 OA
ENDBRANCH  99 103
ENDBRANCH  73  96
ENDBRANCH  47  48
ENDBRANCH  39  42
ENDBRANCH  37  38
ENDBRANCH  36  37
ENDBRANCH  35  36
ENDBRANCH   1  35
TORSDOF 20
ENDMDL
MODEL 2
REMARK VINA RESULT:      -8.9      7.873     13.567
REMARK SMILES CC(=O)Oc1ccc([C@H]2Nc3c(C(=O)NCCCCCCNC(=O)c4ccc(-c5c6nc(c(-c7cc(S(=O)(=O)[O-])ccc7F)c7ccc([nH]7)c(-c7cc(S(=O)(=O)[O-])ccc7F)c7nc(c(-c8cc(S(=O)(=O)[O-])ccc8F)c8ccc5[nH]8)C=C7)C=C6)cc4)ccc([N+](=O)[O-])c3[C@H]3C=CC[C@@H]32)cc1
REMARK SMILES IDX 18 1 17 2 16 3 15 4 13 5 14 6 12 8 9 9 10 10 99 11 11 12
REMARK SMILES IDX 95 14 98 15 94 16 96 17 97 18 88 19 90 20 89 21 8 22 5 23
REMARK SMILES IDX 6 24 101 25 7 26 100 27 4 28 2 29 1 30 3 31 91 32 92 33
REMARK SMILES IDX 93 34 19 35 20 36 21 37 22 38 23 39 24 41 25 42 26 43 87 44
REMARK SMILES IDX 27 45 86 46 28 47 29 48 30 49 80 50 31 51 85 52 79 53 81 54
REMARK SMILES IDX 32 55 84 56 78 57 77 58 33 60 65 61 45 62 64 63 46 64 49 65
REMARK SMILES IDX 63 66 82 67 47 68 48 69 62 71 83 72 50 73 34 74 35 75 43 76
REMARK SMILES IDX 36 77 42 78 44 79 41 80 37 81 38 82 39 83 40 84 66 85 67 86
REMARK SMILES IDX 75 87 68 88 74 89 76 90 73 91 69 92 70 93 71 94 72 95 51 96
REMARK SMILES IDX 52 97 60 98 53 99 59 100 61 101 58 102 54 103 55 104 56 105
REMARK SMILES IDX 57 106
REMARK H PARENT 15 7 10 13 22 40 81 59 49 70
REMARK Flexibility Score: inf
ROOT
ATOM      1  C   UNL A   1      47.929  37.956  25.719  1.00  0.00     0.002 C 
ENDROOT
BRANCH   1   2
ATOM      2  C   UNL A   1      47.208  39.194  26.258  1.00  0.00     0.021 C 
BRANCH   2   3
ATOM      3  C   UNL A   1      45.682  39.174  26.170  1.00  0.00     0.116 C 
BRANCH   3   4
ATOM      4  N   UNL A   1      44.992  39.594  27.399  1.00  0.00    -0.352 N 
ATOM      5  C   UNL A   1      44.017  40.568  27.599  1.00  0.00     0.253 C 
ATOM      6  O   UNL A   1      43.640  40.836  28.737  1.00  0.00    -0.269 OA
ATOM      7  H   UNL A   1      45.264  39.108  28.210  1.00  0.00     0.163 HD
BRANCH   5   8
ATOM      8  C   UNL A   1      43.441  41.290  26.426  1.00  0.00     0.063 A 
ATOM      9  C   UNL A   1      46.010  43.870  25.165  1.00  0.00     0.114 C 
ATOM     10  N   UNL A   1      45.384  42.809  25.998  1.00  0.00    -0.377 N 
ATOM     11  C   UNL A   1      44.885  44.468  24.304  1.00  0.00     0.031 C 
ATOM     12  C   UNL A   1      44.195  42.149  25.583  1.00  0.00     0.058 A 
ATOM     13  H   UNL A   1      45.801  42.557  26.854  1.00  0.00     0.161 HD
ATOM     14  C   UNL A   1      44.497  43.292  23.386  1.00  0.00     0.056 C 
ATOM     15  C   UNL A   1      45.050  45.690  23.404  1.00  0.00     0.034 C 
ATOM     16  C   UNL A   1      43.645  42.431  24.284  1.00  0.00     0.061 A 
ATOM     17  C   UNL A   1      44.012  43.988  22.164  1.00  0.00    -0.022 C 
ATOM     18  C   UNL A   1      44.330  45.286  22.162  1.00  0.00    -0.030 C 
ATOM     19  C   UNL A   1      42.087  41.030  26.136  1.00  0.00     0.023 A 
ATOM     20  C   UNL A   1      42.364  41.955  23.955  1.00  0.00     0.275 A 
ATOM     21  C   UNL A   1      41.552  41.331  24.894  1.00  0.00     0.087 A 
BRANCH   9  22
ATOM     22  C   UNL A   1      46.941  44.861  25.867  1.00  0.00    -0.025 A 
ATOM     23  C   UNL A   1      48.697  46.124  27.701  1.00  0.00     0.130 A 
ATOM     24  C   UNL A   1      47.319  46.181  27.900  1.00  0.00     0.047 A 
ATOM     25  C   UNL A   1      49.206  45.495  26.570  1.00  0.00     0.047 A 
ATOM     26  C   UNL A   1      46.450  45.565  26.985  1.00  0.00     0.010 A 
ATOM     27  C   UNL A   1      48.330  44.904  25.642  1.00  0.00     0.010 A 
BRANCH  23  28
ATOM     28  O   UNL A   1      49.498  46.636  28.748  1.00  0.00    -0.427 OA
BRANCH  28  29
ATOM     29  C   UNL A   1      50.336  47.742  28.595  1.00  0.00     0.308 C 
ATOM     30  C   UNL A   1      50.239  48.611  29.818  1.00  0.00     0.139 C 
ATOM     31  O   UNL A   1      51.046  47.999  27.633  1.00  0.00    -0.252 OA
ENDBRANCH  28  29
ENDBRANCH  23  28
ENDBRANCH   9  22
BRANCH  20  32
ATOM     32  N   UNL A   1      41.817  42.083  22.624  1.00  0.00     0.063 N 
ATOM     33  O   UNL A   1      42.307  41.366  21.742  1.00  0.00    -0.258 OA
ATOM     34  O   UNL A   1      40.924  42.926  22.468  1.00  0.00    -0.258 OA
ENDBRANCH  20  32
ENDBRANCH   5   8
ENDBRANCH   3   4
ENDBRANCH   2   3
ENDBRANCH   1   2
BRANCH   1  35
ATOM     35  C   UNL A   1      48.692  37.111  26.747  1.00  0.00     0.002 C 
BRANCH  35  36
ATOM     36  C   UNL A   1      49.064  37.798  28.067  1.00  0.00     0.021 C 
BRANCH  36  37
ATOM     37  C   UNL A   1      48.534  37.143  29.344  1.00  0.00     0.116 C 
BRANCH  37  38
ATOM     38  N   UNL A   1      47.344  37.795  29.867  1.00  0.00    -0.352 N 
ATOM     39  C   UNL A   1      46.035  37.362  29.913  1.00  0.00     0.251 C 
ATOM     40  H   UNL A   1      47.497  38.689  30.251  1.00  0.00     0.163 HD
ATOM     41  O   UNL A   1      45.159  38.136  30.272  1.00  0.00    -0.269 OA
BRANCH  39  42
ATOM     42  C   UNL A   1      45.681  35.983  29.496  1.00  0.00     0.039 A 
ATOM     43  C   UNL A   1      45.885  34.936  30.400  1.00  0.00     0.014 A 
ATOM     44  C   UNL A   1      45.155  35.714  28.230  1.00  0.00     0.014 A 
ATOM     45  C   UNL A   1      45.468  33.642  30.075  1.00  0.00     0.010 A 
ATOM     46  C   UNL A   1      44.681  34.434  27.931  1.00  0.00     0.010 A 
ATOM     47  C   UNL A   1      44.808  33.390  28.861  1.00  0.00    -0.014 A 
BRANCH  47  48
ATOM     48  C   UNL A   1      44.179  32.068  28.587  1.00  0.00     0.031 A 
ATOM     49  C   UNL A   1      42.849  31.704  29.187  1.00  0.00     0.074 A 
ATOM     50  C   UNL A   1      44.852  31.163  27.847  1.00  0.00     0.049 A 
ATOM     51  N   UNL A   1      42.195  30.572  29.122  1.00  0.00    -0.248 NA
ATOM     52  C   UNL A   1      42.178  32.742  29.983  1.00  0.00     0.031 C 
ATOM     53  C   UNL A   1      46.165  31.386  27.235  1.00  0.00     0.029 A 
ATOM     54  N   UNL A   1      44.537  29.875  27.489  1.00  0.00    -0.354 N 
ATOM     55  C   UNL A   1      41.036  30.757  29.867  1.00  0.00     0.074 A 
ATOM     56  C   UNL A   1      41.108  32.095  30.420  1.00  0.00     0.031 C 
ATOM     57  C   UNL A   1      46.530  30.284  26.562  1.00  0.00     0.029 A 
ATOM     58  C   UNL A   1      45.512  29.254  26.741  1.00  0.00     0.049 A 
ATOM     59  H   UNL A   1      43.694  29.436  27.744  1.00  0.00     0.167 HD
ATOM     60  C   UNL A   1      40.003  29.897  30.060  1.00  0.00     0.034 A 
ATOM     61  C   UNL A   1      45.594  27.993  26.270  1.00  0.00     0.034 A 
ATOM     62  C   UNL A   1      39.951  28.563  29.505  1.00  0.00     0.049 A 
ATOM     63  C   UNL A   1      44.462  27.037  26.551  1.00  0.00     0.074 A 
ATOM     64  C   UNL A   1      38.927  27.635  29.592  1.00  0.00     0.029 A 
ATOM     65  N   UNL A   1      40.969  27.959  28.778  1.00  0.00    -0.354 N 
ATOM     66  N   UNL A   1      43.346  27.248  27.212  1.00  0.00    -0.248 NA
ATOM     67  C   UNL A   1      44.598  25.675  26.019  1.00  0.00     0.031 C 
ATOM     68  C   UNL A   1      39.359  26.446  28.994  1.00  0.00     0.029 A 
ATOM     69  C   UNL A   1      40.617  26.656  28.454  1.00  0.00     0.049 A 
ATOM     70  H   UNL A   1      41.817  28.392  28.528  1.00  0.00     0.167 HD
ATOM     71  C   UNL A   1      42.640  26.050  27.153  1.00  0.00     0.074 A 
ATOM     72  C   UNL A   1      43.444  25.131  26.374  1.00  0.00     0.031 C 
ATOM     73  C   UNL A   1      41.435  25.737  27.696  1.00  0.00     0.034 A 
BRANCH  60  74
ATOM     74  C   UNL A   1      38.859  30.361  30.931  1.00  0.00     0.023 A 
ATOM     75  C   UNL A   1      37.809  31.143  30.419  1.00  0.00     0.031 A 
ATOM     76  C   UNL A   1      38.819  30.021  32.295  1.00  0.00     0.131 A 
ATOM     77  C   UNL A   1      36.804  31.615  31.277  1.00  0.00     0.055 A 
ATOM     78  C   UNL A   1      37.773  30.426  33.126  1.00  0.00     0.041 A 
ATOM     79  F   UNL A   1      39.803  29.294  32.848  1.00  0.00    -0.206 F 
ATOM     80  C   UNL A   1      36.764  31.240  32.621  1.00  0.00     0.022 A 
BRANCH  77  81
ATOM     81  S   UNL A   1      35.630  32.844  30.641  1.00  0.00     0.124 S 
ATOM     82  O   UNL A   1      35.007  33.323  31.872  1.00  0.00    -0.237 OA
ATOM     83  O   UNL A   1      36.504  33.789  29.956  1.00  0.00    -0.237 OA
ATOM     84  O   UNL A   1      34.753  32.061  29.772  1.00  0.00    -0.744 OA
ENDBRANCH  77  81
ENDBRANCH  60  74
BRANCH  61  85
ATOM     85  C   UNL A   1      46.798  27.543  25.513  1.00  0.00     0.023 A 
ATOM     86  C   UNL A   1      47.000  27.928  24.178  1.00  0.00     0.031 A 
ATOM     87  C   UNL A   1      47.743  26.681  26.099  1.00  0.00     0.131 A 
ATOM     88  C   UNL A   1      48.090  27.414  23.458  1.00  0.00     0.055 A 
ATOM     89  C   UNL A   1      48.858  26.221  25.398  1.00  0.00     0.041 A 
ATOM     90  F   UNL A   1      47.600  26.281  27.373  1.00  0.00    -0.206 F 
ATOM     91  C   UNL A   1      49.029  26.577  24.064  1.00  0.00     0.022 A 
BRANCH  88  92
ATOM     92  S   UNL A   1      48.209  27.780  21.686  1.00  0.00     0.124 S 
ATOM     93  O   UNL A   1      46.956  28.485  21.444  1.00  0.00    -0.237 OA
ATOM     94  O   UNL A   1      49.423  28.587  21.625  1.00  0.00    -0.237 OA
ATOM     95  O   UNL A   1      48.312  26.457  21.073  1.00  0.00    -0.744 OA
ENDBRANCH  88  92
ENDBRANCH  61  85
BRANCH  73  96
ATOM     96  C   UNL A   1      40.907  24.345  27.438  1.00  0.00     0.023 A 
ATOM     97  C   UNL A   1      39.803  24.118  26.597  1.00  0.00     0.031 A 
ATOM     98  C   UNL A   1      41.506  23.232  28.056  1.00  0.00     0.131 A 
ATOM     99  C   UNL A   1      39.296  22.819  26.444  1.00  0.00     0.055 A 
ATOM    100  C   UNL A   1      41.039  21.934  27.845  1.00  0.00     0.041 A 
ATOM    101  F   UNL A   1      42.560  23.388  28.873  1.00  0.00    -0.206 F 
ATOM    102  C   UNL A   1      39.918  21.724  27.046  1.00  0.00     0.022 A 
BRANCH  99 103
ATOM    103  S   UNL A   1      37.748  22.592  25.525  1.00  0.00     0.124 S 
ATOM    104  O   UNL A   1      36.748  22.723  26.580  1.00  0.00    -0.237 OA
ATOM    105  O   UNL A   1      37.797  23.681  24.555  1.00  0.00    -0.237 OA
ATOM    106  O   UNL A   1      37.880  21.251  24.957  1.00  0.00    -0.744 OA
ENDBRANCH  99 103
ENDBRANCH  73  96
ENDBRANCH  47  48
ENDBRANCH  39  42
ENDBRANCH  37  38
ENDBRANCH  36  37
ENDBRANCH  35  36
ENDBRANCH   1  35
TORSDOF 20
ENDMDL
MODEL 3
REMARK VINA RESULT:      -8.7      3.406      6.149
REMARK SMILES CC(=O)Oc1ccc([C@H]2Nc3c(C(=O)NCCCCCCNC(=O)c4ccc(-c5c6nc(c(-c7cc(S(=O)(=O)[O-])ccc7F)c7ccc([nH]7)c(-c7cc(S(=O)(=O)[O-])ccc7F)c7nc(c(-c8cc(S(=O)(=O)[O-])ccc8F)c8ccc5[nH]8)C=C7)C=C6)cc4)ccc([N+](=O)[O-])c3[C@H]3C=CC[C@@H]32)cc1
REMARK SMILES IDX 18 1 17 2 16 3 15 4 13 5 14 6 12 8 9 9 10 10 99 11 11 12
REMARK SMILES IDX 95 14 98 15 94 16 96 17 97 18 88 19 90 20 89 21 8 22 5 23
REMARK SMILES IDX 6 24 101 25 7 26 100 27 4 28 2 29 1 30 3 31 91 32 92 33
REMARK SMILES IDX 93 34 19 35 20 36 21 37 22 38 23 39 24 41 25 42 26 43 87 44
REMARK SMILES IDX 27 45 86 46 28 47 29 48 30 49 80 50 31 51 85 52 79 53 81 54
REMARK SMILES IDX 32 55 84 56 78 57 77 58 33 60 65 61 45 62 64 63 46 64 49 65
REMARK SMILES IDX 63 66 82 67 47 68 48 69 62 71 83 72 50 73 34 74 35 75 43 76
REMARK SMILES IDX 36 77 42 78 44 79 41 80 37 81 38 82 39 83 40 84 66 85 67 86
REMARK SMILES IDX 75 87 68 88 74 89 76 90 73 91 69 92 70 93 71 94 72 95 51 96
REMARK SMILES IDX 52 97 60 98 53 99 59 100 61 101 58 102 54 103 55 104 56 105
REMARK SMILES IDX 57 106
REMARK H PARENT 15 7 10 13 22 40 81 59 49 70
REMARK Flexibility Score: inf
ROOT
ATOM      1  C   UNL A   1      39.742  28.745  29.150  1.00  0.00     0.002 C 
ENDROOT
BRANCH   1   2
ATOM      2  C   UNL A   1      39.090  27.448  29.638  1.00  0.00     0.021 C 
BRANCH   2   3
ATOM      3  C   UNL A   1      39.243  26.234  28.721  1.00  0.00     0.116 C 
BRANCH   3   4
ATOM      4  N   UNL A   1      39.943  26.506  27.457  1.00  0.00    -0.352 N 
ATOM      5  C   UNL A   1      40.462  25.631  26.506  1.00  0.00     0.253 C 
ATOM      6  O   UNL A   1      41.109  26.067  25.557  1.00  0.00    -0.269 OA
ATOM      7  H   UNL A   1      40.064  27.461  27.250  1.00  0.00     0.163 HD
BRANCH   5   8
ATOM      8  C   UNL A   1      40.238  24.163  26.652  1.00  0.00     0.063 A 
ATOM      9  C   UNL A   1      36.992  23.205  24.811  1.00  0.00     0.114 C 
ATOM     10  N   UNL A   1      38.093  24.035  25.368  1.00  0.00    -0.377 N 
ATOM     11  C   UNL A   1      37.077  21.840  25.513  1.00  0.00     0.031 C 
ATOM     12  C   UNL A   1      39.260  23.439  25.919  1.00  0.00     0.058 A 
ATOM     13  H   UNL A   1      38.014  25.016  25.354  1.00  0.00     0.161 HD
ATOM     14  C   UNL A   1      38.417  21.278  25.001  1.00  0.00     0.056 C 
ATOM     15  C   UNL A   1      36.046  20.726  25.351  1.00  0.00     0.034 C 
ATOM     16  C   UNL A   1      39.433  22.012  25.839  1.00  0.00     0.061 A 
ATOM     17  C   UNL A   1      38.184  19.809  25.041  1.00  0.00    -0.022 C 
ATOM     18  C   UNL A   1      36.893  19.507  25.211  1.00  0.00    -0.030 C 
ATOM     19  C   UNL A   1      41.106  23.483  27.530  1.00  0.00     0.023 A 
ATOM     20  C   UNL A   1      40.465  21.397  26.567  1.00  0.00     0.275 A 
ATOM     21  C   UNL A   1      41.247  22.106  27.471  1.00  0.00     0.087 A 
BRANCH   9  22
ATOM     22  C   UNL A   1      35.605  23.845  24.715  1.00  0.00    -0.025 A 
ATOM     23  C   UNL A   1      32.807  24.283  24.566  1.00  0.00     0.130 A 
ATOM     24  C   UNL A   1      33.529  23.977  23.415  1.00  0.00     0.047 A 
ATOM     25  C   UNL A   1      33.471  24.430  25.780  1.00  0.00     0.047 A 
ATOM     26  C   UNL A   1      34.916  23.771  23.487  1.00  0.00     0.010 A 
ATOM     27  C   UNL A   1      34.865  24.251  25.842  1.00  0.00     0.010 A 
BRANCH  23  28
ATOM     28  O   UNL A   1      31.400  24.322  24.427  1.00  0.00    -0.427 OA
BRANCH  28  29
ATOM     29  C   UNL A   1      30.688  25.501  24.199  1.00  0.00     0.308 C 
ATOM     30  C   UNL A   1      30.235  26.069  25.514  1.00  0.00     0.139 C 
ATOM     31  O   UNL A   1      30.447  26.015  23.115  1.00  0.00    -0.252 OA
ENDBRANCH  28  29
ENDBRANCH  23  28
ENDBRANCH   9  22
BRANCH  20  32
ATOM     32  N   UNL A   1      40.778  19.994  26.418  1.00  0.00     0.063 N 
ATOM     33  O   UNL A   1      40.466  19.244  27.351  1.00  0.00    -0.258 OA
ATOM     34  O   UNL A   1      41.364  19.662  25.379  1.00  0.00    -0.258 OA
ENDBRANCH  20  32
ENDBRANCH   5   8
ENDBRANCH   3   4
ENDBRANCH   2   3
ENDBRANCH   1   2
BRANCH   1  35
ATOM     35  C   UNL A   1      38.795  29.917  28.864  1.00  0.00     0.002 C 
BRANCH  35  36
ATOM     36  C   UNL A   1      37.297  29.594  28.794  1.00  0.00     0.021 C 
BRANCH  36  37
ATOM     37  C   UNL A   1      36.655  29.074  30.081  1.00  0.00     0.116 C 
BRANCH  37  38
ATOM     38  N   UNL A   1      36.278  30.135  30.999  1.00  0.00    -0.352 N 
ATOM     39  C   UNL A   1      36.924  30.624  32.115  1.00  0.00     0.251 C 
ATOM     40  H   UNL A   1      35.422  30.577  30.791  1.00  0.00     0.163 HD
ATOM     41  O   UNL A   1      36.354  31.434  32.832  1.00  0.00    -0.269 OA
BRANCH  39  42
ATOM     42  C   UNL A   1      38.283  30.146  32.470  1.00  0.00     0.039 A 
ATOM     43  C   UNL A   1      38.472  28.780  32.707  1.00  0.00     0.014 A 
ATOM     44  C   UNL A   1      39.364  31.024  32.572  1.00  0.00     0.014 A 
ATOM     45  C   UNL A   1      39.758  28.285  32.944  1.00  0.00     0.010 A 
ATOM     46  C   UNL A   1      40.656  30.520  32.746  1.00  0.00     0.010 A 
ATOM     47  C   UNL A   1      40.870  29.143  32.906  1.00  0.00    -0.014 A 
BRANCH  47  48
ATOM     48  C   UNL A   1      42.258  28.604  32.953  1.00  0.00     0.031 A 
ATOM     49  C   UNL A   1      42.979  28.212  31.693  1.00  0.00     0.074 A 
ATOM     50  C   UNL A   1      42.842  28.402  34.152  1.00  0.00     0.049 A 
ATOM     51  N   UNL A   1      44.155  27.653  31.554  1.00  0.00    -0.248 NA
ATOM     52  C   UNL A   1      42.277  28.460  30.427  1.00  0.00     0.031 C 
ATOM     53  C   UNL A   1      42.233  28.714  35.448  1.00  0.00     0.029 A 
ATOM     54  N   UNL A   1      44.069  27.881  34.483  1.00  0.00    -0.354 N 
ATOM     55  C   UNL A   1      44.336  27.480  30.187  1.00  0.00     0.074 A 
ATOM     56  C   UNL A   1      43.122  27.945  29.545  1.00  0.00     0.031 C 
ATOM     57  C   UNL A   1      43.094  28.398  36.428  1.00  0.00     0.029 A 
ATOM     58  C   UNL A   1      44.292  27.807  35.840  1.00  0.00     0.049 A 
ATOM     59  H   UNL A   1      44.727  27.586  33.813  1.00  0.00     0.167 HD
ATOM     60  C   UNL A   1      45.419  26.994  29.527  1.00  0.00     0.034 A 
ATOM     61  C   UNL A   1      45.329  27.301  36.537  1.00  0.00     0.034 A 
ATOM     62  C   UNL A   1      46.620  26.530  30.184  1.00  0.00     0.049 A 
ATOM     63  C   UNL A   1      46.493  26.709  35.783  1.00  0.00     0.074 A 
ATOM     64  C   UNL A   1      47.793  26.073  29.607  1.00  0.00     0.029 A 
ATOM     65  N   UNL A   1      46.798  26.443  31.559  1.00  0.00    -0.354 N 
ATOM     66  N   UNL A   1      46.671  26.606  34.486  1.00  0.00    -0.248 NA
ATOM     67  C   UNL A   1      47.597  26.170  36.587  1.00  0.00     0.031 C 
ATOM     68  C   UNL A   1      48.643  25.632  30.628  1.00  0.00     0.029 A 
ATOM     69  C   UNL A   1      48.040  25.895  31.847  1.00  0.00     0.049 A 
ATOM     70  H   UNL A   1      46.138  26.729  32.232  1.00  0.00     0.167 HD
ATOM     71  C   UNL A   1      47.918  26.009  34.322  1.00  0.00     0.074 A 
ATOM     72  C   UNL A   1      48.457  25.800  35.650  1.00  0.00     0.031 C 
ATOM     73  C   UNL A   1      48.560  25.667  33.176  1.00  0.00     0.034 A 
BRANCH  60  74
ATOM     74  C   UNL A   1      45.342  26.911  28.021  1.00  0.00     0.023 A 
ATOM     75  C   UNL A   1      44.960  25.729  27.364  1.00  0.00     0.031 A 
ATOM     76  C   UNL A   1      45.661  28.029  27.228  1.00  0.00     0.131 A 
ATOM     77  C   UNL A   1      44.973  25.671  25.961  1.00  0.00     0.055 A 
ATOM     78  C   UNL A   1      45.593  27.988  25.835  1.00  0.00     0.041 A 
ATOM     79  F   UNL A   1      46.054  29.181  27.796  1.00  0.00    -0.206 F 
ATOM     80  C   UNL A   1      45.260  26.800  25.192  1.00  0.00     0.022 A 
BRANCH  77  81
ATOM     81  S   UNL A   1      44.747  24.059  25.160  1.00  0.00     0.124 S 
ATOM     82  O   UNL A   1      43.417  24.204  24.573  1.00  0.00    -0.237 OA
ATOM     83  O   UNL A   1      45.860  24.015  24.220  1.00  0.00    -0.237 OA
ATOM     84  O   UNL A   1      44.828  23.110  26.270  1.00  0.00    -0.744 OA
ENDBRANCH  77  81
ENDBRANCH  60  74
BRANCH  61  85
ATOM     85  C   UNL A   1      45.310  27.299  38.029  1.00  0.00     0.023 A 
ATOM     86  C   UNL A   1      45.871  28.355  38.763  1.00  0.00     0.031 A 
ATOM     87  C   UNL A   1      44.771  26.214  38.745  1.00  0.00     0.131 A 
ATOM     88  C   UNL A   1      45.926  28.285  40.163  1.00  0.00     0.055 A 
ATOM     89  C   UNL A   1      44.774  26.176  40.140  1.00  0.00     0.041 A 
ATOM     90  F   UNL A   1      44.222  25.175  38.095  1.00  0.00    -0.206 F 
ATOM     91  C   UNL A   1      45.367  27.210  40.858  1.00  0.00     0.022 A 
BRANCH  88  92
ATOM     92  S   UNL A   1      46.829  29.575  41.064  1.00  0.00     0.124 S 
ATOM     93  O   UNL A   1      48.205  29.309  40.660  1.00  0.00    -0.237 OA
ATOM     94  O   UNL A   1      46.227  30.793  40.531  1.00  0.00    -0.237 OA
ATOM     95  O   UNL A   1      46.521  29.290  42.464  1.00  0.00    -0.744 OA
ENDBRANCH  88  92
ENDBRANCH  61  85
BRANCH  73  96
ATOM     96  C   UNL A   1      49.932  25.050  33.317  1.00  0.00     0.023 A 
ATOM     97  C   UNL A   1      50.137  23.665  33.180  1.00  0.00     0.031 A 
ATOM     98  C   UNL A   1      51.048  25.856  33.609  1.00  0.00     0.131 A 
ATOM     99  C   UNL A   1      51.413  23.122  33.394  1.00  0.00     0.055 A 
ATOM    100  C   UNL A   1      52.327  25.317  33.753  1.00  0.00     0.041 A 
ATOM    101  F   UNL A   1      50.913  27.183  33.756  1.00  0.00    -0.206 F 
ATOM    102  C   UNL A   1      52.513  23.940  33.660  1.00  0.00     0.022 A 
BRANCH  99 103
ATOM    103  S   UNL A   1      51.597  21.317  33.419  1.00  0.00     0.124 S 
ATOM    104  O   UNL A   1      52.394  21.111  34.624  1.00  0.00    -0.237 OA
ATOM    105  O   UNL A   1      50.212  20.862  33.484  1.00  0.00    -0.237 OA
ATOM    106  O   UNL A   1      52.286  21.025  32.162  1.00  0.00    -0.744 OA
ENDBRANCH  99 103
ENDBRANCH  73  96
ENDBRANCH  47  48
ENDBRANCH  39  42
ENDBRANCH  37  38
ENDBRANCH  36  37
ENDBRANCH  35  36
ENDBRANCH   1  35
TORSDOF 20
ENDMDL
