MODEL 1
REMARK VINA RESULT:     -11.3      0.000      0.000
REMARK SMILES C[C@@H](C(=O)NCCCCCCNC(=O)c1ccc(-c2c3nc(c(-c4cc(S(=O)(=O)[O-])ccc4F)c4ccc([nH]4)c(-c4cc(S(=O)(=O)[O-])ccc4F)c4nc(c(-c5cc(S(=O)(=O)[O-])ccc5F)c5ccc2[nH]5)C=C4)C=C3)cc1)c1ccc(Cc2ccco2)cc1F
REMARK SMILES IDX 8 1 7 2 6 3 5 4 3 5 4 6 2 8 1 9 78 10 79 11 89 12 80 13
REMARK SMILES IDX 88 14 90 15 81 16 82 17 83 18 84 19 87 20 85 21 86 22 9 23
REMARK SMILES IDX 10 24 11 25 12 26 13 27 14 29 15 30 16 31 77 32 17 33 76 34
REMARK SMILES IDX 18 35 19 36 20 37 70 38 21 39 75 40 69 41 71 42 22 43 74 44
REMARK SMILES IDX 68 45 67 46 23 48 55 49 35 50 54 51 36 52 39 53 53 54 72 55
REMARK SMILES IDX 37 56 38 57 52 59 73 60 40 61 24 62 25 63 33 64 26 65 32 66
REMARK SMILES IDX 34 67 31 68 27 69 28 70 29 71 30 72 56 73 57 74 65 75 58 76
REMARK SMILES IDX 64 77 66 78 63 79 59 80 60 81 61 82 62 83 41 84 42 85 50 86
REMARK SMILES IDX 43 87 49 88 51 89 48 90 44 91 45 92 46 93 47 94
REMARK H PARENT 5 7 12 28 71 47 39 58
REMARK Flexibility Score: inf
ROOT
ATOM      1  C   UNL A   1      36.016  22.807  24.475  1.00  0.00     0.002 C 
ENDROOT
BRANCH   1   2
ATOM      2  C   UNL A   1      35.232  23.733  23.535  1.00  0.00     0.021 C 
BRANCH   2   3
ATOM      3  C   UNL A   1      34.295  24.707  24.256  1.00  0.00     0.116 C 
BRANCH   3   4
ATOM      4  N   UNL A   1      34.102  24.292  25.629  1.00  0.00    -0.356 N 
ATOM      5  C   UNL A   1      33.014  23.749  26.243  1.00  0.00     0.227 C 
ATOM      6  O   UNL A   1      33.083  23.637  27.470  1.00  0.00    -0.274 OA
ATOM      7  H   UNL A   1      34.882  24.425  26.214  1.00  0.00     0.163 HD
BRANCH   5   8
ATOM      8  C   UNL A   1      31.805  23.274  25.413  1.00  0.00     0.108 C 
ATOM      9  C   UNL A   1      30.502  23.217  26.215  1.00  0.00     0.023 C 
BRANCH   8  10
ATOM     10  C   UNL A   1      32.047  21.906  24.785  1.00  0.00    -0.000 A 
ATOM     11  C   UNL A   1      32.233  20.769  25.586  1.00  0.00     0.008 A 
ATOM     12  C   UNL A   1      32.070  21.744  23.399  1.00  0.00     0.127 A 
ATOM     13  C   UNL A   1      32.453  19.518  25.012  1.00  0.00     0.005 A 
ATOM     14  C   UNL A   1      32.303  20.497  22.816  1.00  0.00     0.043 A 
ATOM     15  F   UNL A   1      31.854  22.796  22.597  1.00  0.00    -0.207 F 
ATOM     16  C   UNL A   1      32.514  19.368  23.620  1.00  0.00    -0.038 A 
BRANCH  16  17
ATOM     17  C   UNL A   1      32.793  18.014  23.008  1.00  0.00     0.111 C 
BRANCH  17  18
ATOM     18  C   UNL A   1      33.423  17.038  23.945  1.00  0.00     0.108 A 
ATOM     19  C   UNL A   1      32.952  15.974  24.691  1.00  0.00     0.046 A 
ATOM     20  O   UNL A   1      34.775  17.148  24.114  1.00  0.00    -0.469 OA
ATOM     21  C   UNL A   1      34.068  15.418  25.358  1.00  0.00     0.042 A 
ATOM     22  C   UNL A   1      35.152  16.168  24.973  1.00  0.00     0.195 A 
ENDBRANCH  17  18
ENDBRANCH  16  17
ENDBRANCH   8  10
ENDBRANCH   5   8
ENDBRANCH   3   4
ENDBRANCH   2   3
ENDBRANCH   1   2
BRANCH   1  23
ATOM     23  C   UNL A   1      35.552  21.347  24.484  1.00  0.00     0.002 C 
BRANCH  23  24
ATOM     24  C   UNL A   1      36.561  20.356  25.067  1.00  0.00     0.021 C 
BRANCH  24  25
ATOM     25  C   UNL A   1      38.016  20.812  24.991  1.00  0.00     0.116 C 
BRANCH  25  26
ATOM     26  N   UNL A   1      38.911  19.890  25.673  1.00  0.00    -0.352 N 
ATOM     27  C   UNL A   1      40.028  20.160  26.426  1.00  0.00     0.251 C 
ATOM     28  H   UNL A   1      38.683  18.936  25.583  1.00  0.00     0.163 HD
ATOM     29  O   UNL A   1      40.784  19.245  26.746  1.00  0.00    -0.269 OA
BRANCH  27  30
ATOM     30  C   UNL A   1      40.330  21.552  26.821  1.00  0.00     0.039 A 
ATOM     31  C   UNL A   1      41.316  21.784  27.781  1.00  0.00     0.014 A 
ATOM     32  C   UNL A   1      39.657  22.627  26.229  1.00  0.00     0.014 A 
ATOM     33  C   UNL A   1      41.690  23.095  28.084  1.00  0.00     0.010 A 
ATOM     34  C   UNL A   1      40.077  23.931  26.484  1.00  0.00     0.010 A 
ATOM     35  C   UNL A   1      41.112  24.177  27.400  1.00  0.00    -0.014 A 
BRANCH  35  36
ATOM     36  C   UNL A   1      41.623  25.563  27.582  1.00  0.00     0.031 A 
ATOM     37  C   UNL A   1      43.010  25.931  27.131  1.00  0.00     0.074 A 
ATOM     38  C   UNL A   1      40.855  26.466  28.228  1.00  0.00     0.049 A 
ATOM     39  N   UNL A   1      43.651  27.062  27.281  1.00  0.00    -0.248 NA
ATOM     40  C   UNL A   1      43.785  24.891  26.438  1.00  0.00     0.031 C 
ATOM     41  C   UNL A   1      39.508  26.210  28.746  1.00  0.00     0.029 A 
ATOM     42  N   UNL A   1      41.096  27.772  28.578  1.00  0.00    -0.354 N 
ATOM     43  C   UNL A   1      44.907  26.868  26.717  1.00  0.00     0.074 A 
ATOM     44  C   UNL A   1      44.950  25.498  26.253  1.00  0.00     0.031 C 
ATOM     45  C   UNL A   1      39.040  27.323  29.331  1.00  0.00     0.029 A 
ATOM     46  C   UNL A   1      40.070  28.356  29.287  1.00  0.00     0.049 A 
ATOM     47  H   UNL A   1      41.926  28.248  28.343  1.00  0.00     0.167 HD
ATOM     48  C   UNL A   1      45.923  27.756  26.593  1.00  0.00     0.034 A 
ATOM     49  C   UNL A   1      39.977  29.571  29.865  1.00  0.00     0.034 A 
ATOM     50  C   UNL A   1      45.855  29.124  27.046  1.00  0.00     0.049 A 
ATOM     51  C   UNL A   1      41.143  30.522  29.741  1.00  0.00     0.074 A 
ATOM     52  C   UNL A   1      46.793  30.129  26.881  1.00  0.00     0.029 A 
ATOM     53  N   UNL A   1      44.806  29.676  27.768  1.00  0.00    -0.354 N 
ATOM     54  N   UNL A   1      42.288  30.347  29.122  1.00  0.00    -0.248 NA
ATOM     55  C   UNL A   1      41.006  31.833  30.390  1.00  0.00     0.031 C 
ATOM     56  C   UNL A   1      46.355  31.257  27.580  1.00  0.00     0.029 A 
ATOM     57  C   UNL A   1      45.103  30.988  28.107  1.00  0.00     0.049 A 
ATOM     58  H   UNL A   1      43.974  29.205  28.007  1.00  0.00     0.167 HD
ATOM     59  C   UNL A   1      42.993  31.536  29.290  1.00  0.00     0.074 A 
ATOM     60  C   UNL A   1      42.136  32.428  30.039  1.00  0.00     0.031 C 
ATOM     61  C   UNL A   1      44.242  31.861  28.868  1.00  0.00     0.034 A 
BRANCH  48  62
ATOM     62  C   UNL A   1      47.214  27.283  25.973  1.00  0.00     0.023 A 
ATOM     63  C   UNL A   1      48.173  26.564  26.706  1.00  0.00     0.031 A 
ATOM     64  C   UNL A   1      47.462  27.510  24.607  1.00  0.00     0.131 A 
ATOM     65  C   UNL A   1      49.350  26.129  26.078  1.00  0.00     0.055 A 
ATOM     66  C   UNL A   1      48.602  27.017  23.973  1.00  0.00     0.041 A 
ATOM     67  F   UNL A   1      46.589  28.209  23.863  1.00  0.00    -0.206 F 
ATOM     68  C   UNL A   1      49.558  26.326  24.710  1.00  0.00     0.022 A 
BRANCH  65  69
ATOM     69  S   UNL A   1      50.651  25.374  27.091  1.00  0.00     0.124 S 
ATOM     70  O   UNL A   1      51.490  24.745  26.074  1.00  0.00    -0.237 OA
ATOM     71  O   UNL A   1      51.230  26.526  27.773  1.00  0.00    -0.237 OA
ATOM     72  O   UNL A   1      49.921  24.443  27.950  1.00  0.00    -0.744 OA
ENDBRANCH  65  69
ENDBRANCH  48  62
BRANCH  49  73
ATOM     73  C   UNL A   1      38.771  29.955  30.659  1.00  0.00     0.023 A 
ATOM     74  C   UNL A   1      37.717  30.673  30.073  1.00  0.00     0.031 A 
ATOM     75  C   UNL A   1      38.697  29.691  32.039  1.00  0.00     0.131 A 
ATOM     76  C   UNL A   1      36.675  31.167  30.874  1.00  0.00     0.055 A 
ATOM     77  C   UNL A   1      37.621  30.120  32.818  1.00  0.00     0.041 A 
ATOM     78  F   UNL A   1      39.676  29.012  32.656  1.00  0.00    -0.206 F 
ATOM     79  C   UNL A   1      36.611  30.882  32.239  1.00  0.00     0.022 A 
BRANCH  76  80
ATOM     80  S   UNL A   1      35.480  32.313  30.131  1.00  0.00     0.124 S 
ATOM     81  O   UNL A   1      34.437  32.354  31.148  1.00  0.00    -0.237 OA
ATOM     82  O   UNL A   1      36.279  33.525  29.981  1.00  0.00    -0.237 OA
ATOM     83  O   UNL A   1      35.109  31.654  28.881  1.00  0.00    -0.744 OA
ENDBRANCH  76  80
ENDBRANCH  49  73
BRANCH  61  84
ATOM     84  C   UNL A   1      44.736  33.250  29.191  1.00  0.00     0.023 A 
ATOM     85  C   UNL A   1      44.420  34.351  28.377  1.00  0.00     0.031 A 
ATOM     86  C   UNL A   1      45.538  33.474  30.324  1.00  0.00     0.131 A 
ATOM     87  C   UNL A   1      44.945  35.615  28.676  1.00  0.00     0.055 A 
ATOM     88  C   UNL A   1      46.005  34.747  30.654  1.00  0.00     0.041 A 
ATOM     89  F   UNL A   1      45.876  32.458  31.136  1.00  0.00    -0.206 F 
ATOM     90  C   UNL A   1      45.719  35.825  29.821  1.00  0.00     0.022 A 
BRANCH  87  91
ATOM     91  S   UNL A   1      44.676  36.970  27.502  1.00  0.00     0.124 S 
ATOM     92  O   UNL A   1      45.915  36.953  26.730  1.00  0.00    -0.237 OA
ATOM     93  O   UNL A   1      43.477  36.536  26.791  1.00  0.00    -0.237 OA
ATOM     94  O   UNL A   1      44.496  38.139  28.360  1.00  0.00    -0.744 OA
ENDBRANCH  87  91
ENDBRANCH  61  84
ENDBRANCH  35  36
ENDBRANCH  27  30
ENDBRANCH  25  26
ENDBRANCH  24  25
ENDBRANCH  23  24
ENDBRANCH   1  23
TORSDOF 19
ENDMDL
MODEL 2
REMARK VINA RESULT:     -11.1      5.638      8.874
REMARK SMILES C[C@@H](C(=O)NCCCCCCNC(=O)c1ccc(-c2c3nc(c(-c4cc(S(=O)(=O)[O-])ccc4F)c4ccc([nH]4)c(-c4cc(S(=O)(=O)[O-])ccc4F)c4nc(c(-c5cc(S(=O)(=O)[O-])ccc5F)c5ccc2[nH]5)C=C4)C=C3)cc1)c1ccc(Cc2ccco2)cc1F
REMARK SMILES IDX 8 1 7 2 6 3 5 4 3 5 4 6 2 8 1 9 78 10 79 11 89 12 80 13
REMARK SMILES IDX 88 14 90 15 81 16 82 17 83 18 84 19 87 20 85 21 86 22 9 23
REMARK SMILES IDX 10 24 11 25 12 26 13 27 14 29 15 30 16 31 77 32 17 33 76 34
REMARK SMILES IDX 18 35 19 36 20 37 70 38 21 39 75 40 69 41 71 42 22 43 74 44
REMARK SMILES IDX 68 45 67 46 23 48 55 49 35 50 54 51 36 52 39 53 53 54 72 55
REMARK SMILES IDX 37 56 38 57 52 59 73 60 40 61 24 62 25 63 33 64 26 65 32 66
REMARK SMILES IDX 34 67 31 68 27 69 28 70 29 71 30 72 56 73 57 74 65 75 58 76
REMARK SMILES IDX 64 77 66 78 63 79 59 80 60 81 61 82 62 83 41 84 42 85 50 86
REMARK SMILES IDX 43 87 49 88 51 89 48 90 44 91 45 92 46 93 47 94
REMARK H PARENT 5 7 12 28 71 47 39 58
REMARK Flexibility Score: inf
ROOT
ATOM      1  C   UNL A   1      33.082  29.445  26.864  1.00  0.00     0.002 C 
ENDROOT
BRANCH   1   2
ATOM      2  C   UNL A   1      32.430  28.173  27.424  1.00  0.00     0.021 C 
BRANCH   2   3
ATOM      3  C   UNL A   1      32.565  26.949  26.513  1.00  0.00     0.116 C 
BRANCH   3   4
ATOM      4  N   UNL A   1      31.516  25.993  26.799  1.00  0.00    -0.356 N 
ATOM      5  C   UNL A   1      30.936  25.053  26.003  1.00  0.00     0.227 C 
ATOM      6  O   UNL A   1      29.950  24.478  26.472  1.00  0.00    -0.274 OA
ATOM      7  H   UNL A   1      31.164  26.030  27.718  1.00  0.00     0.163 HD
BRANCH   5   8
ATOM      8  C   UNL A   1      31.533  24.724  24.621  1.00  0.00     0.108 C 
ATOM      9  C   UNL A   1      30.476  24.559  23.525  1.00  0.00     0.023 C 
BRANCH   8  10
ATOM     10  C   UNL A   1      32.394  23.467  24.656  1.00  0.00    -0.000 A 
ATOM     11  C   UNL A   1      31.816  22.204  24.855  1.00  0.00     0.008 A 
ATOM     12  C   UNL A   1      33.776  23.535  24.472  1.00  0.00     0.127 A 
ATOM     13  C   UNL A   1      32.603  21.054  24.886  1.00  0.00     0.005 A 
ATOM     14  C   UNL A   1      34.572  22.389  24.515  1.00  0.00     0.043 A 
ATOM     15  F   UNL A   1      34.364  24.716  24.236  1.00  0.00    -0.207 F 
ATOM     16  C   UNL A   1      33.994  21.132  24.740  1.00  0.00    -0.038 A 
BRANCH  16  17
ATOM     17  C   UNL A   1      34.842  19.883  24.814  1.00  0.00     0.111 C 
BRANCH  17  18
ATOM     18  C   UNL A   1      34.077  18.614  24.636  1.00  0.00     0.108 A 
ATOM     19  C   UNL A   1      34.210  17.517  23.806  1.00  0.00     0.046 A 
ATOM     20  O   UNL A   1      33.022  18.420  25.482  1.00  0.00    -0.469 OA
ATOM     21  C   UNL A   1      33.175  16.617  24.153  1.00  0.00     0.042 A 
ATOM     22  C   UNL A   1      32.481  17.213  25.176  1.00  0.00     0.195 A 
ENDBRANCH  17  18
ENDBRANCH  16  17
ENDBRANCH   8  10
ENDBRANCH   5   8
ENDBRANCH   3   4
ENDBRANCH   2   3
ENDBRANCH   1   2
BRANCH   1  23
ATOM     23  C   UNL A   1      32.150  30.350  26.052  1.00  0.00     0.002 C 
BRANCH  23  24
ATOM     24  C   UNL A   1      31.731  31.640  26.759  1.00  0.00     0.021 C 
BRANCH  24  25
ATOM     25  C   UNL A   1      32.872  32.386  27.446  1.00  0.00     0.116 C 
BRANCH  25  26
ATOM     26  N   UNL A   1      32.551  33.788  27.665  1.00  0.00    -0.352 N 
ATOM     27  C   UNL A   1      33.082  34.670  28.574  1.00  0.00     0.251 C 
ATOM     28  H   UNL A   1      31.854  34.159  27.076  1.00  0.00     0.163 HD
ATOM     29  O   UNL A   1      32.538  35.756  28.761  1.00  0.00    -0.269 OA
BRANCH  27  30
ATOM     30  C   UNL A   1      34.286  34.295  29.345  1.00  0.00     0.039 A 
ATOM     31  C   UNL A   1      34.129  33.699  30.598  1.00  0.00     0.014 A 
ATOM     32  C   UNL A   1      35.566  34.512  28.824  1.00  0.00     0.014 A 
ATOM     33  C   UNL A   1      35.253  33.239  31.289  1.00  0.00     0.010 A 
ATOM     34  C   UNL A   1      36.679  33.995  29.484  1.00  0.00     0.010 A 
ATOM     35  C   UNL A   1      36.531  33.335  30.715  1.00  0.00    -0.014 A 
BRANCH  35  36
ATOM     36  C   UNL A   1      37.711  32.692  31.355  1.00  0.00     0.031 A 
ATOM     37  C   UNL A   1      38.401  31.530  30.695  1.00  0.00     0.074 A 
ATOM     38  C   UNL A   1      38.106  33.115  32.575  1.00  0.00     0.049 A 
ATOM     39  N   UNL A   1      39.388  30.796  31.143  1.00  0.00    -0.248 NA
ATOM     40  C   UNL A   1      37.908  31.127  29.369  1.00  0.00     0.031 C 
ATOM     41  C   UNL A   1      37.487  34.209  33.330  1.00  0.00     0.029 A 
ATOM     42  N   UNL A   1      39.107  32.672  33.404  1.00  0.00    -0.354 N 
ATOM     43  C   UNL A   1      39.626  29.837  30.165  1.00  0.00     0.074 A 
ATOM     44  C   UNL A   1      38.655  30.060  29.115  1.00  0.00     0.031 C 
ATOM     45  C   UNL A   1      38.129  34.359  34.498  1.00  0.00     0.029 A 
ATOM     46  C   UNL A   1      39.166  33.338  34.609  1.00  0.00     0.049 A 
ATOM     47  H   UNL A   1      39.726  31.946  33.161  1.00  0.00     0.167 HD
ATOM     48  C   UNL A   1      40.573  28.868  30.146  1.00  0.00     0.034 A 
ATOM     49  C   UNL A   1      39.941  33.133  35.694  1.00  0.00     0.034 A 
ATOM     50  C   UNL A   1      41.544  28.672  31.195  1.00  0.00     0.049 A 
ATOM     51  C   UNL A   1      40.960  32.018  35.654  1.00  0.00     0.074 A 
ATOM     52  C   UNL A   1      42.603  27.782  31.226  1.00  0.00     0.029 A 
ATOM     53  N   UNL A   1      41.565  29.356  32.402  1.00  0.00    -0.354 N 
ATOM     54  N   UNL A   1      41.228  31.180  34.678  1.00  0.00    -0.248 NA
ATOM     55  C   UNL A   1      41.780  31.822  36.856  1.00  0.00     0.031 C 
ATOM     56  C   UNL A   1      43.207  27.862  32.484  1.00  0.00     0.029 A 
ATOM     57  C   UNL A   1      42.583  28.865  33.207  1.00  0.00     0.049 A 
ATOM     58  H   UNL A   1      40.949  30.083  32.652  1.00  0.00     0.167 HD
ATOM     59  C   UNL A   1      42.264  30.376  35.147  1.00  0.00     0.074 A 
ATOM     60  C   UNL A   1      42.592  30.848  36.475  1.00  0.00     0.031 C 
ATOM     61  C   UNL A   1      42.887  29.336  34.536  1.00  0.00     0.034 A 
BRANCH  48  62
ATOM     62  C   UNL A   1      40.597  27.916  28.976  1.00  0.00     0.023 A 
ATOM     63  C   UNL A   1      41.540  28.031  27.941  1.00  0.00     0.031 A 
ATOM     64  C   UNL A   1      39.691  26.842  28.927  1.00  0.00     0.131 A 
ATOM     65  C   UNL A   1      41.533  27.108  26.884  1.00  0.00     0.055 A 
ATOM     66  C   UNL A   1      39.732  25.889  27.909  1.00  0.00     0.041 A 
ATOM     67  F   UNL A   1      38.754  26.696  29.878  1.00  0.00    -0.206 F 
ATOM     68  C   UNL A   1      40.654  26.022  26.876  1.00  0.00     0.022 A 
BRANCH  65  69
ATOM     69  S   UNL A   1      42.634  27.392  25.471  1.00  0.00     0.124 S 
ATOM     70  O   UNL A   1      42.581  26.100  24.792  1.00  0.00    -0.237 OA
ATOM     71  O   UNL A   1      41.985  28.502  24.783  1.00  0.00    -0.237 OA
ATOM     72  O   UNL A   1      43.917  27.709  26.094  1.00  0.00    -0.744 OA
ENDBRANCH  65  69
ENDBRANCH  48  62
BRANCH  49  73
ATOM     73  C   UNL A   1      39.765  33.950  36.932  1.00  0.00     0.023 A 
ATOM     74  C   UNL A   1      39.177  33.403  38.082  1.00  0.00     0.031 A 
ATOM     75  C   UNL A   1      40.098  35.317  36.952  1.00  0.00     0.131 A 
ATOM     76  C   UNL A   1      38.869  34.231  39.174  1.00  0.00     0.055 A 
ATOM     77  C   UNL A   1      39.858  36.121  38.068  1.00  0.00     0.041 A 
ATOM     78  F   UNL A   1      40.660  35.897  35.880  1.00  0.00    -0.206 F 
ATOM     79  C   UNL A   1      39.221  35.583  39.181  1.00  0.00     0.022 A 
BRANCH  76  80
ATOM     80  S   UNL A   1      37.870  33.547  40.525  1.00  0.00     0.124 S 
ATOM     81  O   UNL A   1      36.678  33.101  39.814  1.00  0.00    -0.237 OA
ATOM     82  O   UNL A   1      38.741  32.496  41.042  1.00  0.00    -0.237 OA
ATOM     83  O   UNL A   1      37.676  34.689  41.415  1.00  0.00    -0.744 OA
ENDBRANCH  76  80
ENDBRANCH  49  73
BRANCH  61  84
ATOM     84  C   UNL A   1      44.000  28.659  35.298  1.00  0.00     0.023 A 
ATOM     85  C   UNL A   1      43.748  27.587  36.170  1.00  0.00     0.031 A 
ATOM     86  C   UNL A   1      45.330  29.096  35.153  1.00  0.00     0.131 A 
ATOM     87  C   UNL A   1      44.799  27.021  36.906  1.00  0.00     0.055 A 
ATOM     88  C   UNL A   1      46.382  28.486  35.838  1.00  0.00     0.041 A 
ATOM     89  F   UNL A   1      45.629  30.119  34.337  1.00  0.00    -0.206 F 
ATOM     90  C   UNL A   1      46.118  27.450  36.729  1.00  0.00     0.022 A 
BRANCH  87  91
ATOM     91  S   UNL A   1      44.411  25.773  38.161  1.00  0.00     0.124 S 
ATOM     92  O   UNL A   1      43.262  25.094  37.569  1.00  0.00    -0.237 OA
ATOM     93  O   UNL A   1      45.645  24.996  38.224  1.00  0.00    -0.237 OA
ATOM     94  O   UNL A   1      44.117  26.564  39.354  1.00  0.00    -0.744 OA
ENDBRANCH  87  91
ENDBRANCH  61  84
ENDBRANCH  35  36
ENDBRANCH  27  30
ENDBRANCH  25  26
ENDBRANCH  24  25
ENDBRANCH  23  24
ENDBRANCH   1  23
TORSDOF 19
ENDMDL
MODEL 3
REMARK VINA RESULT:     -11.1      5.643      9.087
REMARK SMILES C[C@@H](C(=O)NCCCCCCNC(=O)c1ccc(-c2c3nc(c(-c4cc(S(=O)(=O)[O-])ccc4F)c4ccc([nH]4)c(-c4cc(S(=O)(=O)[O-])ccc4F)c4nc(c(-c5cc(S(=O)(=O)[O-])ccc5F)c5ccc2[nH]5)C=C4)C=C3)cc1)c1ccc(Cc2ccco2)cc1F
REMARK SMILES IDX 8 1 7 2 6 3 5 4 3 5 4 6 2 8 1 9 78 10 79 11 89 12 80 13
REMARK SMILES IDX 88 14 90 15 81 16 82 17 83 18 84 19 87 20 85 21 86 22 9 23
REMARK SMILES IDX 10 24 11 25 12 26 13 27 14 29 15 30 16 31 77 32 17 33 76 34
REMARK SMILES IDX 18 35 19 36 20 37 70 38 21 39 75 40 69 41 71 42 22 43 74 44
REMARK SMILES IDX 68 45 67 46 23 48 55 49 35 50 54 51 36 52 39 53 53 54 72 55
REMARK SMILES IDX 37 56 38 57 52 59 73 60 40 61 24 62 25 63 33 64 26 65 32 66
REMARK SMILES IDX 34 67 31 68 27 69 28 70 29 71 30 72 56 73 57 74 65 75 58 76
REMARK SMILES IDX 64 77 66 78 63 79 59 80 60 81 61 82 62 83 41 84 42 85 50 86
REMARK SMILES IDX 43 87 49 88 51 89 48 90 44 91 45 92 46 93 47 94
REMARK H PARENT 5 7 12 28 71 47 39 58
REMARK Flexibility Score: inf
ROOT
ATOM      1  C   UNL A   1      32.487  29.000  27.284  1.00  0.00     0.002 C 
ENDROOT
BRANCH   1   2
ATOM      2  C   UNL A   1      31.775  27.645  27.167  1.00  0.00     0.021 C 
BRANCH   2   3
ATOM      3  C   UNL A   1      31.295  27.311  25.752  1.00  0.00     0.116 C 
BRANCH   3   4
ATOM      4  N   UNL A   1      31.251  25.877  25.563  1.00  0.00    -0.356 N 
ATOM      5  C   UNL A   1      32.195  25.020  25.083  1.00  0.00     0.227 C 
ATOM      6  O   UNL A   1      31.824  23.859  24.887  1.00  0.00    -0.274 OA
ATOM      7  H   UNL A   1      30.403  25.452  25.823  1.00  0.00     0.163 HD
BRANCH   5   8
ATOM      8  C   UNL A   1      33.641  25.500  24.853  1.00  0.00     0.108 C 
ATOM      9  C   UNL A   1      33.820  26.294  23.556  1.00  0.00     0.023 C 
BRANCH   8  10
ATOM     10  C   UNL A   1      34.633  24.342  24.851  1.00  0.00    -0.000 A 
ATOM     11  C   UNL A   1      35.377  24.032  23.702  1.00  0.00     0.008 A 
ATOM     12  C   UNL A   1      34.842  23.571  25.996  1.00  0.00     0.127 A 
ATOM     13  C   UNL A   1      36.284  22.974  23.701  1.00  0.00     0.005 A 
ATOM     14  C   UNL A   1      35.738  22.501  25.999  1.00  0.00     0.043 A 
ATOM     15  F   UNL A   1      34.184  23.859  27.128  1.00  0.00    -0.207 F 
ATOM     16  C   UNL A   1      36.461  22.179  24.841  1.00  0.00    -0.038 A 
BRANCH  16  17
ATOM     17  C   UNL A   1      37.418  21.010  24.817  1.00  0.00     0.111 C 
BRANCH  17  18
ATOM     18  C   UNL A   1      38.661  21.222  25.616  1.00  0.00     0.108 A 
ATOM     19  C   UNL A   1      39.214  22.308  26.269  1.00  0.00     0.046 A 
ATOM     20  O   UNL A   1      39.450  20.123  25.813  1.00  0.00    -0.469 OA
ATOM     21  C   UNL A   1      40.405  21.851  26.881  1.00  0.00     0.042 A 
ATOM     22  C   UNL A   1      40.503  20.517  26.573  1.00  0.00     0.195 A 
ENDBRANCH  17  18
ENDBRANCH  16  17
ENDBRANCH   8  10
ENDBRANCH   5   8
ENDBRANCH   3   4
ENDBRANCH   2   3
ENDBRANCH   1   2
BRANCH   1  23
ATOM     23  C   UNL A   1      32.140  30.013  26.188  1.00  0.00     0.002 C 
BRANCH  23  24
ATOM     24  C   UNL A   1      31.760  31.405  26.696  1.00  0.00     0.021 C 
BRANCH  24  25
ATOM     25  C   UNL A   1      32.895  32.163  27.378  1.00  0.00     0.116 C 
BRANCH  25  26
ATOM     26  N   UNL A   1      32.575  33.571  27.564  1.00  0.00    -0.352 N 
ATOM     27  C   UNL A   1      33.091  34.468  28.465  1.00  0.00     0.251 C 
ATOM     28  H   UNL A   1      31.890  33.931  26.954  1.00  0.00     0.163 HD
ATOM     29  O   UNL A   1      32.548  35.560  28.621  1.00  0.00    -0.269 OA
BRANCH  27  30
ATOM     30  C   UNL A   1      34.280  34.105  29.266  1.00  0.00     0.039 A 
ATOM     31  C   UNL A   1      34.107  33.360  30.434  1.00  0.00     0.014 A 
ATOM     32  C   UNL A   1      35.563  34.481  28.854  1.00  0.00     0.014 A 
ATOM     33  C   UNL A   1      35.227  32.915  31.140  1.00  0.00     0.010 A 
ATOM     34  C   UNL A   1      36.679  33.982  29.523  1.00  0.00     0.010 A 
ATOM     35  C   UNL A   1      36.522  33.177  30.663  1.00  0.00    -0.014 A 
BRANCH  35  36
ATOM     36  C   UNL A   1      37.716  32.561  31.303  1.00  0.00     0.031 A 
ATOM     37  C   UNL A   1      38.439  31.422  30.638  1.00  0.00     0.074 A 
ATOM     38  C   UNL A   1      38.095  32.986  32.527  1.00  0.00     0.049 A 
ATOM     39  N   UNL A   1      39.443  30.712  31.084  1.00  0.00    -0.248 NA
ATOM     40  C   UNL A   1      37.962  31.015  29.307  1.00  0.00     0.031 C 
ATOM     41  C   UNL A   1      37.444  34.058  33.287  1.00  0.00     0.029 A 
ATOM     42  N   UNL A   1      39.105  32.564  33.357  1.00  0.00    -0.354 N 
ATOM     43  C   UNL A   1      39.710  29.766  30.100  1.00  0.00     0.074 A 
ATOM     44  C   UNL A   1      38.738  29.971  29.048  1.00  0.00     0.031 C 
ATOM     45  C   UNL A   1      38.078  34.217  34.459  1.00  0.00     0.029 A 
ATOM     46  C   UNL A   1      39.141  33.223  34.567  1.00  0.00     0.049 A 
ATOM     47  H   UNL A   1      39.743  31.856  33.112  1.00  0.00     0.167 HD
ATOM     48  C   UNL A   1      40.683  28.823  30.079  1.00  0.00     0.034 A 
ATOM     49  C   UNL A   1      39.918  33.031  35.653  1.00  0.00     0.034 A 
ATOM     50  C   UNL A   1      41.655  28.646  31.130  1.00  0.00     0.049 A 
ATOM     51  C   UNL A   1      40.966  31.944  35.609  1.00  0.00     0.074 A 
ATOM     52  C   UNL A   1      42.737  27.784  31.158  1.00  0.00     0.029 A 
ATOM     53  N   UNL A   1      41.654  29.321  32.342  1.00  0.00    -0.354 N 
ATOM     54  N   UNL A   1      41.260  31.120  34.629  1.00  0.00    -0.248 NA
ATOM     55  C   UNL A   1      41.787  31.761  36.813  1.00  0.00     0.031 C 
ATOM     56  C   UNL A   1      43.335  27.871  32.419  1.00  0.00     0.029 A 
ATOM     57  C   UNL A   1      42.681  28.852  33.147  1.00  0.00     0.049 A 
ATOM     58  H   UNL A   1      41.017  30.030  32.594  1.00  0.00     0.167 HD
ATOM     59  C   UNL A   1      42.315  30.341  35.095  1.00  0.00     0.074 A 
ATOM     60  C   UNL A   1      42.626  30.812  36.428  1.00  0.00     0.031 C 
ATOM     61  C   UNL A   1      42.968  29.322  34.481  1.00  0.00     0.034 A 
BRANCH  48  62
ATOM     62  C   UNL A   1      40.736  27.880  28.902  1.00  0.00     0.023 A 
ATOM     63  C   UNL A   1      41.670  28.036  27.864  1.00  0.00     0.031 A 
ATOM     64  C   UNL A   1      39.869  26.774  28.849  1.00  0.00     0.131 A 
ATOM     65  C   UNL A   1      41.692  27.120  26.801  1.00  0.00     0.055 A 
ATOM     66  C   UNL A   1      39.940  25.830  27.825  1.00  0.00     0.041 A 
ATOM     67  F   UNL A   1      38.943  26.588  29.804  1.00  0.00    -0.206 F 
ATOM     68  C   UNL A   1      40.852  26.003  26.789  1.00  0.00     0.022 A 
BRANCH  65  69
ATOM     69  S   UNL A   1      42.775  27.453  25.386  1.00  0.00     0.124 S 
ATOM     70  O   UNL A   1      42.095  28.579  24.751  1.00  0.00    -0.237 OA
ATOM     71  O   UNL A   1      44.050  27.757  26.027  1.00  0.00    -0.237 OA
ATOM     72  O   UNL A   1      42.742  26.205  24.626  1.00  0.00    -0.744 OA
ENDBRANCH  65  69
ENDBRANCH  48  62
BRANCH  49  73
ATOM     73  C   UNL A   1      39.716  33.835  36.896  1.00  0.00     0.023 A 
ATOM     74  C   UNL A   1      40.534  34.938  37.185  1.00  0.00     0.031 A 
ATOM     75  C   UNL A   1      38.762  33.455  37.857  1.00  0.00     0.131 A 
ATOM     76  C   UNL A   1      40.436  35.575  38.433  1.00  0.00     0.055 A 
ATOM     77  C   UNL A   1      38.618  34.139  39.067  1.00  0.00     0.041 A 
ATOM     78  F   UNL A   1      37.954  32.406  37.639  1.00  0.00    -0.206 F 
ATOM     79  C   UNL A   1      39.473  35.193  39.369  1.00  0.00     0.022 A 
BRANCH  76  80
ATOM     80  S   UNL A   1      41.686  36.814  38.872  1.00  0.00     0.124 S 
ATOM     81  O   UNL A   1      42.425  36.944  37.622  1.00  0.00    -0.237 OA
ATOM     82  O   UNL A   1      40.859  37.956  39.250  1.00  0.00    -0.237 OA
ATOM     83  O   UNL A   1      42.418  36.185  39.968  1.00  0.00    -0.744 OA
ENDBRANCH  76  80
ENDBRANCH  49  73
BRANCH  61  84
ATOM     84  C   UNL A   1      44.096  28.670  35.242  1.00  0.00     0.023 A 
ATOM     85  C   UNL A   1      43.861  27.630  36.157  1.00  0.00     0.031 A 
ATOM     86  C   UNL A   1      45.423  29.097  35.053  1.00  0.00     0.131 A 
ATOM     87  C   UNL A   1      44.926  27.088  36.889  1.00  0.00     0.055 A 
ATOM     88  C   UNL A   1      46.488  28.509  35.736  1.00  0.00     0.041 A 
ATOM     89  F   UNL A   1      45.706  30.091  34.194  1.00  0.00    -0.206 F 
ATOM     90  C   UNL A   1      46.242  27.506  36.669  1.00  0.00     0.022 A 
BRANCH  87  91
ATOM     91  S   UNL A   1      44.563  25.885  38.196  1.00  0.00     0.124 S 
ATOM     92  O   UNL A   1      44.422  24.646  37.437  1.00  0.00    -0.237 OA
ATOM     93  O   UNL A   1      45.745  25.979  39.047  1.00  0.00    -0.237 OA
ATOM     94  O   UNL A   1      43.328  26.390  38.794  1.00  0.00    -0.744 OA
ENDBRANCH  87  91
ENDBRANCH  61  84
ENDBRANCH  35  36
ENDBRANCH  27  30
ENDBRANCH  25  26
ENDBRANCH  24  25
ENDBRANCH  23  24
ENDBRANCH   1  23
TORSDOF 19
ENDMDL
