MODEL 1
REMARK VINA RESULT:     -11.3      0.000      0.000
REMARK SMILES O=C(CCSC1=NC=NC2=[NH+]C=N[C@@H]12)NCCCCCCNC(=O)c1ccc(-c2c3nc(c(-c4cc(S(=O)(=O)[O-])ccc4F)c4ccc([nH]4)c(-c4cc(S(=O)(=O)[O-])ccc4F)c4nc(c(-c5cc(S(=O)(=O)[O-])ccc5F)c5ccc2[nH]5)C=C4)C=C3)cc1
REMARK SMILES IDX 18 1 17 2 16 3 15 4 1 5 2 6 3 8 4 9 5 10 6 11 7 12 14 13
REMARK SMILES IDX 8 14 10 15 13 16 9 17 11 18 12 19 19 21 20 22 21 23 22 24
REMARK SMILES IDX 23 25 24 27 25 28 26 29 87 30 27 31 86 32 28 33 29 34 30 35
REMARK SMILES IDX 80 36 31 37 85 38 79 39 81 40 32 41 84 42 78 43 77 44 33 46
REMARK SMILES IDX 65 47 45 48 64 49 46 50 49 51 63 52 82 53 47 54 48 55 62 57
REMARK SMILES IDX 83 58 50 59 34 60 35 61 43 62 36 63 42 64 44 65 41 66 37 67
REMARK SMILES IDX 38 68 39 69 40 70 66 71 67 72 75 73 68 74 74 75 76 76 73 77
REMARK SMILES IDX 69 78 70 79 71 80 72 81 51 82 52 83 60 84 53 85 59 86 61 87
REMARK SMILES IDX 58 88 54 89 55 90 56 91 57 92
REMARK H PARENT 15 7 11 20 22 26 81 45 49 56
REMARK Flexibility Score: inf
ROOT
ATOM      1  C   UNL A   1      40.951  31.438  32.004  1.00  0.00     0.002 C 
ENDROOT
BRANCH   1   2
ATOM      2  C   UNL A   1      41.194  32.690  31.150  1.00  0.00     0.021 C 
BRANCH   2   3
ATOM      3  C   UNL A   1      40.879  34.034  31.815  1.00  0.00     0.116 C 
BRANCH   3   4
ATOM      4  N   UNL A   1      39.574  34.109  32.452  1.00  0.00    -0.356 N 
ATOM      5  O   UNL A   1      38.541  34.928  30.574  1.00  0.00    -0.275 OA
ATOM      6  C   UNL A   1      38.476  34.545  31.740  1.00  0.00     0.220 C 
ATOM      7  H   UNL A   1      39.474  33.847  33.397  1.00  0.00     0.163 HD
BRANCH   6   8
ATOM      8  C   UNL A   1      37.166  34.553  32.504  1.00  0.00     0.111 C 
BRANCH   8   9
ATOM      9  C   UNL A   1      36.125  33.654  31.837  1.00  0.00     0.086 C 
BRANCH   9  10
ATOM     10  S   UNL A   1      34.536  33.605  32.730  1.00  0.00    -0.106 SA
BRANCH  10  11
ATOM     11  C   UNL A   1      34.013  35.265  32.567  1.00  0.00     0.128 C 
ATOM     12  N   UNL A   1      34.444  36.167  33.391  1.00  0.00    -0.214 NA
ATOM     13  C   UNL A   1      32.994  35.569  31.520  1.00  0.00     0.340 C 
ATOM     14  C   UNL A   1      33.972  37.450  33.256  1.00  0.00     0.320 C 
ATOM     15  C   UNL A   1      33.144  37.007  31.239  1.00  0.00     0.285 C 
ATOM     16  N   UNL A   1      33.253  34.994  30.178  1.00  0.00    -0.130 NA
ATOM     17  N   UNL A   1      33.302  37.900  32.243  1.00  0.00    -0.092 NA
ATOM     18  N   UNL A   1      33.239  37.272  29.987  1.00  0.00    -0.248 N 
ATOM     19  C   UNL A   1      33.297  36.035  29.400  1.00  0.00     0.362 C 
ATOM     20  H   UNL A   1      33.264  38.155  29.551  1.00  0.00     0.266 HD
ENDBRANCH  10  11
ENDBRANCH   9  10
ENDBRANCH   8   9
ENDBRANCH   6   8
ENDBRANCH   3   4
ENDBRANCH   2   3
ENDBRANCH   1   2
BRANCH   1  21
ATOM     21  C   UNL A   1      39.862  30.483  31.494  1.00  0.00     0.002 C 
BRANCH  21  22
ATOM     22  C   UNL A   1      38.461  30.612  32.093  1.00  0.00     0.021 C 
BRANCH  22  23
ATOM     23  C   UNL A   1      37.508  29.484  31.713  1.00  0.00     0.116 C 
BRANCH  23  24
ATOM     24  N   UNL A   1      36.450  29.880  30.780  1.00  0.00    -0.352 N 
ATOM     25  C   UNL A   1      36.531  29.872  29.397  1.00  0.00     0.251 C 
ATOM     26  H   UNL A   1      35.599  30.180  31.174  1.00  0.00     0.163 HD
ATOM     27  O   UNL A   1      35.735  30.486  28.698  1.00  0.00    -0.269 OA
BRANCH  25  28
ATOM     28  C   UNL A   1      37.631  29.095  28.799  1.00  0.00     0.039 A 
ATOM     29  C   UNL A   1      38.371  29.612  27.737  1.00  0.00     0.014 A 
ATOM     30  C   UNL A   1      38.035  27.944  29.476  1.00  0.00     0.014 A 
ATOM     31  C   UNL A   1      39.608  29.039  27.451  1.00  0.00     0.010 A 
ATOM     32  C   UNL A   1      39.302  27.444  29.254  1.00  0.00     0.010 A 
ATOM     33  C   UNL A   1      40.106  27.995  28.255  1.00  0.00    -0.014 A 
BRANCH  33  34
ATOM     34  C   UNL A   1      41.537  27.659  28.197  1.00  0.00     0.031 A 
ATOM     35  C   UNL A   1      41.846  26.409  27.439  1.00  0.00     0.074 A 
ATOM     36  C   UNL A   1      42.546  28.473  28.576  1.00  0.00     0.049 A 
ATOM     37  N   UNL A   1      42.250  25.278  27.916  1.00  0.00    -0.248 NA
ATOM     38  C   UNL A   1      41.520  26.355  26.005  1.00  0.00     0.031 C 
ATOM     39  C   UNL A   1      42.446  29.852  29.061  1.00  0.00     0.029 A 
ATOM     40  N   UNL A   1      43.896  28.271  28.514  1.00  0.00    -0.354 N 
ATOM     41  C   UNL A   1      42.473  24.446  26.820  1.00  0.00     0.074 A 
ATOM     42  C   UNL A   1      41.817  25.086  25.712  1.00  0.00     0.031 C 
ATOM     43  C   UNL A   1      43.665  30.434  29.040  1.00  0.00     0.029 A 
ATOM     44  C   UNL A   1      44.655  29.421  28.722  1.00  0.00     0.049 A 
ATOM     45  H   UNL A   1      44.298  27.389  28.340  1.00  0.00     0.167 HD
ATOM     46  C   UNL A   1      43.389  23.436  26.886  1.00  0.00     0.034 A 
ATOM     47  C   UNL A   1      46.006  29.552  28.672  1.00  0.00     0.034 A 
ATOM     48  C   UNL A   1      43.779  23.208  28.262  1.00  0.00     0.049 A 
ATOM     49  C   UNL A   1      46.577  28.216  28.940  1.00  0.00     0.074 A 
ATOM     50  C   UNL A   1      43.156  22.759  29.407  1.00  0.00     0.029 A 
ATOM     51  N   UNL A   1      44.932  23.841  28.665  1.00  0.00    -0.354 N 
ATOM     52  N   UNL A   1      46.431  27.598  30.078  1.00  0.00    -0.248 NA
ATOM     53  C   UNL A   1      46.988  27.371  27.829  1.00  0.00     0.031 C 
ATOM     54  C   UNL A   1      43.772  23.475  30.478  1.00  0.00     0.029 A 
ATOM     55  C   UNL A   1      44.788  24.278  29.954  1.00  0.00     0.049 A 
ATOM     56  H   UNL A   1      45.736  23.960  28.110  1.00  0.00     0.167 HD
ATOM     57  C   UNL A   1      46.282  26.266  29.740  1.00  0.00     0.074 A 
ATOM     58  C   UNL A   1      46.809  26.168  28.384  1.00  0.00     0.031 C 
ATOM     59  C   UNL A   1      45.479  25.446  30.480  1.00  0.00     0.034 A 
BRANCH  46  60
ATOM     60  C   UNL A   1      44.274  22.950  25.744  1.00  0.00     0.023 A 
ATOM     61  C   UNL A   1      44.328  21.554  25.529  1.00  0.00     0.031 A 
ATOM     62  C   UNL A   1      45.267  23.699  25.077  1.00  0.00     0.131 A 
ATOM     63  C   UNL A   1      45.392  20.961  24.824  1.00  0.00     0.055 A 
ATOM     64  C   UNL A   1      46.294  23.109  24.329  1.00  0.00     0.041 A 
ATOM     65  F   UNL A   1      45.356  25.030  25.162  1.00  0.00    -0.206 F 
ATOM     66  C   UNL A   1      46.384  21.732  24.231  1.00  0.00     0.022 A 
BRANCH  63  67
ATOM     67  S   UNL A   1      45.555  19.156  24.861  1.00  0.00     0.124 S 
ATOM     68  O   UNL A   1      45.728  18.850  23.445  1.00  0.00    -0.237 OA
ATOM     69  O   UNL A   1      46.728  18.978  25.709  1.00  0.00    -0.237 OA
ATOM     70  O   UNL A   1      44.291  18.714  25.444  1.00  0.00    -0.744 OA
ENDBRANCH  63  67
ENDBRANCH  46  60
BRANCH  47  71
ATOM     71  C   UNL A   1      46.799  30.717  28.202  1.00  0.00     0.023 A 
ATOM     72  C   UNL A   1      46.302  31.674  27.292  1.00  0.00     0.031 A 
ATOM     73  C   UNL A   1      48.004  31.035  28.868  1.00  0.00     0.131 A 
ATOM     74  C   UNL A   1      46.998  32.891  27.091  1.00  0.00     0.055 A 
ATOM     75  C   UNL A   1      48.685  32.236  28.665  1.00  0.00     0.041 A 
ATOM     76  F   UNL A   1      48.513  30.219  29.804  1.00  0.00    -0.206 F 
ATOM     77  C   UNL A   1      48.177  33.177  27.783  1.00  0.00     0.022 A 
BRANCH  74  78
ATOM     78  S   UNL A   1      46.319  34.172  25.986  1.00  0.00     0.124 S 
ATOM     79  O   UNL A   1      45.275  33.447  25.272  1.00  0.00    -0.237 OA
ATOM     80  O   UNL A   1      45.875  35.194  26.927  1.00  0.00    -0.237 OA
ATOM     81  O   UNL A   1      47.468  34.558  25.164  1.00  0.00    -0.744 OA
ENDBRANCH  74  78
ENDBRANCH  47  71
BRANCH  59  82
ATOM     82  C   UNL A   1      45.158  25.870  31.899  1.00  0.00     0.023 A 
ATOM     83  C   UNL A   1      43.982  26.536  32.309  1.00  0.00     0.031 A 
ATOM     84  C   UNL A   1      46.085  25.509  32.893  1.00  0.00     0.131 A 
ATOM     85  C   UNL A   1      43.778  26.828  33.672  1.00  0.00     0.055 A 
ATOM     86  C   UNL A   1      45.869  25.778  34.242  1.00  0.00     0.041 A 
ATOM     87  F   UNL A   1      47.215  24.859  32.567  1.00  0.00    -0.206 F 
ATOM     88  C   UNL A   1      44.717  26.445  34.637  1.00  0.00     0.022 A 
BRANCH  85  89
ATOM     89  S   UNL A   1      42.299  27.742  34.218  1.00  0.00     0.124 S 
ATOM     90  O   UNL A   1      41.580  28.007  32.978  1.00  0.00    -0.237 OA
ATOM     91  O   UNL A   1      41.665  26.799  35.135  1.00  0.00    -0.237 OA
ATOM     92  O   UNL A   1      42.856  28.933  34.865  1.00  0.00    -0.744 OA
ENDBRANCH  85  89
ENDBRANCH  59  82
ENDBRANCH  33  34
ENDBRANCH  25  28
ENDBRANCH  23  24
ENDBRANCH  22  23
ENDBRANCH  21  22
ENDBRANCH   1  21
TORSDOF 19
ENDMDL
MODEL 2
REMARK VINA RESULT:     -10.9      1.698      1.996
REMARK SMILES O=C(CCSC1=NC=NC2=[NH+]C=N[C@@H]12)NCCCCCCNC(=O)c1ccc(-c2c3nc(c(-c4cc(S(=O)(=O)[O-])ccc4F)c4ccc([nH]4)c(-c4cc(S(=O)(=O)[O-])ccc4F)c4nc(c(-c5cc(S(=O)(=O)[O-])ccc5F)c5ccc2[nH]5)C=C4)C=C3)cc1
REMARK SMILES IDX 18 1 17 2 16 3 15 4 1 5 2 6 3 8 4 9 5 10 6 11 7 12 14 13
REMARK SMILES IDX 8 14 10 15 13 16 9 17 11 18 12 19 19 21 20 22 21 23 22 24
REMARK SMILES IDX 23 25 24 27 25 28 26 29 87 30 27 31 86 32 28 33 29 34 30 35
REMARK SMILES IDX 80 36 31 37 85 38 79 39 81 40 32 41 84 42 78 43 77 44 33 46
REMARK SMILES IDX 65 47 45 48 64 49 46 50 49 51 63 52 82 53 47 54 48 55 62 57
REMARK SMILES IDX 83 58 50 59 34 60 35 61 43 62 36 63 42 64 44 65 41 66 37 67
REMARK SMILES IDX 38 68 39 69 40 70 66 71 67 72 75 73 68 74 74 75 76 76 73 77
REMARK SMILES IDX 69 78 70 79 71 80 72 81 51 82 52 83 60 84 53 85 59 86 61 87
REMARK SMILES IDX 58 88 54 89 55 90 56 91 57 92
REMARK H PARENT 15 7 11 20 22 26 81 45 49 56
REMARK Flexibility Score: inf
ROOT
ATOM      1  C   UNL A   1      41.427  32.778  31.753  1.00  0.00     0.002 C 
ENDROOT
BRANCH   1   2
ATOM      2  C   UNL A   1      41.402  33.304  30.312  1.00  0.00     0.021 C 
BRANCH   2   3
ATOM      3  C   UNL A   1      40.348  34.372  30.001  1.00  0.00     0.116 C 
BRANCH   3   4
ATOM      4  N   UNL A   1      38.974  33.901  30.035  1.00  0.00    -0.356 N 
ATOM      5  O   UNL A   1      38.552  34.833  32.090  1.00  0.00    -0.275 OA
ATOM      6  C   UNL A   1      38.161  34.204  31.108  1.00  0.00     0.220 C 
ATOM      7  H   UNL A   1      38.621  33.364  29.288  1.00  0.00     0.163 HD
BRANCH   6   8
ATOM      8  C   UNL A   1      36.741  33.682  31.016  1.00  0.00     0.111 C 
BRANCH   8   9
ATOM      9  C   UNL A   1      36.139  33.453  32.404  1.00  0.00     0.086 C 
BRANCH   9  10
ATOM     10  S   UNL A   1      34.317  33.369  32.395  1.00  0.00    -0.106 SA
BRANCH  10  11
ATOM     11  C   UNL A   1      33.908  35.069  32.372  1.00  0.00     0.128 C 
ATOM     12  N   UNL A   1      34.399  35.868  33.265  1.00  0.00    -0.214 NA
ATOM     13  C   UNL A   1      32.912  35.525  31.359  1.00  0.00     0.340 C 
ATOM     14  C   UNL A   1      34.015  37.188  33.238  1.00  0.00     0.320 C 
ATOM     15  C   UNL A   1      33.159  36.968  31.196  1.00  0.00     0.285 C 
ATOM     16  N   UNL A   1      33.131  35.046  29.973  1.00  0.00    -0.130 NA
ATOM     17  N   UNL A   1      33.377  37.763  32.268  1.00  0.00    -0.092 NA
ATOM     18  N   UNL A   1      33.271  37.328  29.969  1.00  0.00    -0.248 N 
ATOM     19  C   UNL A   1      33.246  36.143  29.283  1.00  0.00     0.362 C 
ATOM     20  H   UNL A   1      33.356  38.240  29.607  1.00  0.00     0.266 HD
ENDBRANCH  10  11
ENDBRANCH   9  10
ENDBRANCH   8   9
ENDBRANCH   6   8
ENDBRANCH   3   4
ENDBRANCH   2   3
ENDBRANCH   1   2
BRANCH   1  21
ATOM     21  C   UNL A   1      40.727  31.430  31.984  1.00  0.00     0.002 C 
BRANCH  21  22
ATOM     22  C   UNL A   1      39.520  31.405  32.924  1.00  0.00     0.021 C 
BRANCH  22  23
ATOM     23  C   UNL A   1      38.830  30.049  33.025  1.00  0.00     0.116 C 
BRANCH  23  24
ATOM     24  N   UNL A   1      37.424  30.057  32.613  1.00  0.00    -0.352 N 
ATOM     25  C   UNL A   1      36.940  29.796  31.343  1.00  0.00     0.251 C 
ATOM     26  H   UNL A   1      36.759  30.269  33.308  1.00  0.00     0.163 HD
ATOM     27  O   UNL A   1      35.805  30.108  31.004  1.00  0.00    -0.269 OA
BRANCH  25  28
ATOM     28  C   UNL A   1      37.860  29.131  30.403  1.00  0.00     0.039 A 
ATOM     29  C   UNL A   1      38.485  29.853  29.388  1.00  0.00     0.014 A 
ATOM     30  C   UNL A   1      38.241  27.824  30.709  1.00  0.00     0.014 A 
ATOM     31  C   UNL A   1      39.606  29.298  28.774  1.00  0.00     0.010 A 
ATOM     32  C   UNL A   1      39.407  27.321  30.168  1.00  0.00     0.010 A 
ATOM     33  C   UNL A   1      40.109  28.057  29.212  1.00  0.00    -0.014 A 
BRANCH  33  34
ATOM     34  C   UNL A   1      41.476  27.661  28.840  1.00  0.00     0.031 A 
ATOM     35  C   UNL A   1      41.556  26.410  28.027  1.00  0.00     0.074 A 
ATOM     36  C   UNL A   1      42.579  28.426  28.992  1.00  0.00     0.049 A 
ATOM     37  N   UNL A   1      42.004  25.257  28.397  1.00  0.00    -0.248 NA
ATOM     38  C   UNL A   1      40.923  26.392  26.698  1.00  0.00     0.031 C 
ATOM     39  C   UNL A   1      42.649  29.801  29.494  1.00  0.00     0.029 A 
ATOM     40  N   UNL A   1      43.873  28.168  28.636  1.00  0.00    -0.354 N 
ATOM     41  C   UNL A   1      41.945  24.432  27.275  1.00  0.00     0.074 A 
ATOM     42  C   UNL A   1      41.091  25.116  26.341  1.00  0.00     0.031 C 
ATOM     43  C   UNL A   1      43.858  30.331  29.211  1.00  0.00     0.029 A 
ATOM     44  C   UNL A   1      44.709  29.282  28.677  1.00  0.00     0.049 A 
ATOM     45  H   UNL A   1      44.187  27.273  28.373  1.00  0.00     0.167 HD
ATOM     46  C   UNL A   1      42.807  23.383  27.134  1.00  0.00     0.034 A 
ATOM     47  C   UNL A   1      46.020  29.356  28.333  1.00  0.00     0.034 A 
ATOM     48  C   UNL A   1      43.477  23.119  28.390  1.00  0.00     0.049 A 
ATOM     49  C   UNL A   1      46.577  27.993  28.464  1.00  0.00     0.074 A 
ATOM     50  C   UNL A   1      43.101  22.680  29.641  1.00  0.00     0.029 A 
ATOM     51  N   UNL A   1      44.717  23.696  28.533  1.00  0.00    -0.354 N 
ATOM     52  N   UNL A   1      46.655  27.366  29.603  1.00  0.00    -0.248 NA
ATOM     53  C   UNL A   1      46.697  27.148  27.285  1.00  0.00     0.031 C 
ATOM     54  C   UNL A   1      43.967  23.353  30.554  1.00  0.00     0.029 A 
ATOM     55  C   UNL A   1      44.879  24.121  29.825  1.00  0.00     0.049 A 
ATOM     56  H   UNL A   1      45.386  23.790  27.816  1.00  0.00     0.167 HD
ATOM     57  C   UNL A   1      46.377  26.046  29.299  1.00  0.00     0.074 A 
ATOM     58  C   UNL A   1      46.589  25.946  27.860  1.00  0.00     0.031 C 
ATOM     59  C   UNL A   1      45.720  25.250  30.192  1.00  0.00     0.034 A 
BRANCH  46  60
ATOM     60  C   UNL A   1      43.398  22.878  25.823  1.00  0.00     0.023 A 
ATOM     61  C   UNL A   1      43.505  21.476  25.671  1.00  0.00     0.031 A 
ATOM     62  C   UNL A   1      44.119  23.640  24.880  1.00  0.00     0.131 A 
ATOM     63  C   UNL A   1      44.391  20.905  24.739  1.00  0.00     0.055 A 
ATOM     64  C   UNL A   1      44.959  23.066  23.916  1.00  0.00     0.041 A 
ATOM     65  F   UNL A   1      44.121  24.976  24.872  1.00  0.00    -0.206 F 
ATOM     66  C   UNL A   1      45.129  21.694  23.866  1.00  0.00     0.022 A 
BRANCH  63  67
ATOM     67  S   UNL A   1      44.701  19.120  24.821  1.00  0.00     0.124 S 
ATOM     68  O   UNL A   1      45.845  19.064  25.724  1.00  0.00    -0.237 OA
ATOM     69  O   UNL A   1      43.435  18.620  25.346  1.00  0.00    -0.237 OA
ATOM     70  O   UNL A   1      44.985  18.762  23.433  1.00  0.00    -0.744 OA
ENDBRANCH  63  67
ENDBRANCH  46  60
BRANCH  47  71
ATOM     71  C   UNL A   1      46.743  30.494  27.708  1.00  0.00     0.023 A 
ATOM     72  C   UNL A   1      46.096  31.513  26.978  1.00  0.00     0.031 A 
ATOM     73  C   UNL A   1      48.095  30.716  28.052  1.00  0.00     0.131 A 
ATOM     74  C   UNL A   1      46.795  32.696  26.637  1.00  0.00     0.055 A 
ATOM     75  C   UNL A   1      48.779  31.884  27.714  1.00  0.00     0.041 A 
ATOM     76  F   UNL A   1      48.770  29.835  28.808  1.00  0.00    -0.206 F 
ATOM     77  C   UNL A   1      48.127  32.887  27.014  1.00  0.00     0.022 A 
BRANCH  74  78
ATOM     78  S   UNL A   1      45.943  34.058  25.775  1.00  0.00     0.124 S 
ATOM     79  O   UNL A   1      47.033  34.694  25.044  1.00  0.00    -0.237 OA
ATOM     80  O   UNL A   1      44.950  33.350  24.976  1.00  0.00    -0.237 OA
ATOM     81  O   UNL A   1      45.389  34.860  26.867  1.00  0.00    -0.744 OA
ENDBRANCH  74  78
ENDBRANCH  47  71
BRANCH  59  82
ATOM     82  C   UNL A   1      45.736  25.666  31.649  1.00  0.00     0.023 A 
ATOM     83  C   UNL A   1      46.809  25.467  32.546  1.00  0.00     0.031 A 
ATOM     84  C   UNL A   1      44.610  26.364  32.121  1.00  0.00     0.131 A 
ATOM     85  C   UNL A   1      46.719  25.951  33.867  1.00  0.00     0.055 A 
ATOM     86  C   UNL A   1      44.535  26.862  33.419  1.00  0.00     0.041 A 
ATOM     87  F   UNL A   1      43.565  26.599  31.310  1.00  0.00    -0.206 F 
ATOM     88  C   UNL A   1      45.588  26.651  34.301  1.00  0.00     0.022 A 
BRANCH  85  89
ATOM     89  S   UNL A   1      48.063  25.652  35.062  1.00  0.00     0.124 S 
ATOM     90  O   UNL A   1      47.461  24.757  36.042  1.00  0.00    -0.237 OA
ATOM     91  O   UNL A   1      49.107  25.069  34.223  1.00  0.00    -0.237 OA
ATOM     92  O   UNL A   1      48.371  26.991  35.568  1.00  0.00    -0.744 OA
ENDBRANCH  85  89
ENDBRANCH  59  82
ENDBRANCH  33  34
ENDBRANCH  25  28
ENDBRANCH  23  24
ENDBRANCH  22  23
ENDBRANCH  21  22
ENDBRANCH   1  21
TORSDOF 19
ENDMDL
MODEL 3
REMARK VINA RESULT:     -10.8      3.329     12.612
REMARK SMILES O=C(CCSC1=NC=NC2=[NH+]C=N[C@@H]12)NCCCCCCNC(=O)c1ccc(-c2c3nc(c(-c4cc(S(=O)(=O)[O-])ccc4F)c4ccc([nH]4)c(-c4cc(S(=O)(=O)[O-])ccc4F)c4nc(c(-c5cc(S(=O)(=O)[O-])ccc5F)c5ccc2[nH]5)C=C4)C=C3)cc1
REMARK SMILES IDX 18 1 17 2 16 3 15 4 1 5 2 6 3 8 4 9 5 10 6 11 7 12 14 13
REMARK SMILES IDX 8 14 10 15 13 16 9 17 11 18 12 19 19 21 20 22 21 23 22 24
REMARK SMILES IDX 23 25 24 27 25 28 26 29 87 30 27 31 86 32 28 33 29 34 30 35
REMARK SMILES IDX 80 36 31 37 85 38 79 39 81 40 32 41 84 42 78 43 77 44 33 46
REMARK SMILES IDX 65 47 45 48 64 49 46 50 49 51 63 52 82 53 47 54 48 55 62 57
REMARK SMILES IDX 83 58 50 59 34 60 35 61 43 62 36 63 42 64 44 65 41 66 37 67
REMARK SMILES IDX 38 68 39 69 40 70 66 71 67 72 75 73 68 74 74 75 76 76 73 77
REMARK SMILES IDX 69 78 70 79 71 80 72 81 51 82 52 83 60 84 53 85 59 86 61 87
REMARK SMILES IDX 58 88 54 89 55 90 56 91 57 92
REMARK H PARENT 15 7 11 20 22 26 81 45 49 56
REMARK Flexibility Score: inf
ROOT
ATOM      1  C   UNL A   1      41.205  20.317  26.927  1.00  0.00     0.002 C 
ENDROOT
BRANCH   1   2
ATOM      2  C   UNL A   1      41.654  19.185  25.994  1.00  0.00     0.021 C 
BRANCH   2   3
ATOM      3  C   UNL A   1      43.060  18.626  26.238  1.00  0.00     0.116 C 
BRANCH   3   4
ATOM      4  N   UNL A   1      44.142  19.560  25.973  1.00  0.00    -0.356 N 
ATOM      5  O   UNL A   1      44.635  18.637  23.930  1.00  0.00    -0.275 OA
ATOM      6  C   UNL A   1      44.846  19.492  24.788  1.00  0.00     0.220 C 
ATOM      7  H   UNL A   1      44.375  20.243  26.644  1.00  0.00     0.163 HD
BRANCH   6   8
ATOM      8  C   UNL A   1      45.932  20.536  24.615  1.00  0.00     0.111 C 
BRANCH   8   9
ATOM      9  C   UNL A   1      45.667  21.767  25.483  1.00  0.00     0.086 C 
BRANCH   9  10
ATOM     10  S   UNL A   1      44.522  22.959  24.714  1.00  0.00    -0.106 SA
BRANCH  10  11
ATOM     11  C   UNL A   1      44.983  24.435  25.529  1.00  0.00     0.128 C 
ATOM     12  N   UNL A   1      45.391  25.456  24.846  1.00  0.00    -0.214 NA
ATOM     13  C   UNL A   1      44.979  24.428  27.022  1.00  0.00     0.340 C 
ATOM     14  C   UNL A   1      45.788  26.580  25.530  1.00  0.00     0.320 C 
ATOM     15  C   UNL A   1      44.863  25.843  27.415  1.00  0.00     0.285 C 
ATOM     16  N   UNL A   1      43.769  23.861  27.665  1.00  0.00    -0.130 NA
ATOM     17  N   UNL A   1      45.586  26.801  26.790  1.00  0.00    -0.092 NA
ATOM     18  N   UNL A   1      43.941  26.056  28.281  1.00  0.00    -0.248 N 
ATOM     19  C   UNL A   1      43.321  24.839  28.395  1.00  0.00     0.362 C 
ATOM     20  H   UNL A   1      43.728  26.894  28.753  1.00  0.00     0.266 HD
ENDBRANCH  10  11
ENDBRANCH   9  10
ENDBRANCH   8   9
ENDBRANCH   6   8
ENDBRANCH   3   4
ENDBRANCH   2   3
ENDBRANCH   1   2
BRANCH   1  21
ATOM     21  C   UNL A   1      40.772  21.619  26.237  1.00  0.00     0.002 C 
BRANCH  21  22
ATOM     22  C   UNL A   1      39.531  22.334  26.775  1.00  0.00     0.021 C 
BRANCH  22  23
ATOM     23  C   UNL A   1      39.562  23.850  26.621  1.00  0.00     0.116 C 
BRANCH  23  24
ATOM     24  N   UNL A   1      40.762  24.362  25.953  1.00  0.00    -0.352 N 
ATOM     25  C   UNL A   1      41.140  25.690  25.850  1.00  0.00     0.251 C 
ATOM     26  H   UNL A   1      41.357  23.697  25.538  1.00  0.00     0.163 HD
ATOM     27  O   UNL A   1      41.977  26.065  25.038  1.00  0.00    -0.269 OA
BRANCH  25  28
ATOM     28  C   UNL A   1      40.479  26.643  26.759  1.00  0.00     0.039 A 
ATOM     29  C   UNL A   1      39.969  26.220  27.985  1.00  0.00     0.014 A 
ATOM     30  C   UNL A   1      40.586  27.998  26.443  1.00  0.00     0.014 A 
ATOM     31  C   UNL A   1      39.700  27.180  28.957  1.00  0.00     0.010 A 
ATOM     32  C   UNL A   1      40.412  28.936  27.440  1.00  0.00     0.010 A 
ATOM     33  C   UNL A   1      39.987  28.537  28.709  1.00  0.00    -0.014 A 
BRANCH  33  34
ATOM     34  C   UNL A   1      40.064  29.477  29.837  1.00  0.00     0.031 A 
ATOM     35  C   UNL A   1      38.803  30.235  30.096  1.00  0.00     0.074 A 
ATOM     36  C   UNL A   1      41.072  29.537  30.735  1.00  0.00     0.049 A 
ATOM     37  N   UNL A   1      38.582  31.491  29.891  1.00  0.00    -0.248 NA
ATOM     38  C   UNL A   1      37.596  29.485  30.481  1.00  0.00     0.031 C 
ATOM     39  C   UNL A   1      42.248  28.667  30.815  1.00  0.00     0.029 A 
ATOM     40  N   UNL A   1      41.210  30.335  31.836  1.00  0.00    -0.354 N 
ATOM     41  C   UNL A   1      37.293  31.746  30.355  1.00  0.00     0.074 A 
ATOM     42  C   UNL A   1      36.678  30.455  30.507  1.00  0.00     0.031 C 
ATOM     43  C   UNL A   1      42.858  28.831  32.009  1.00  0.00     0.029 A 
ATOM     44  C   UNL A   1      42.231  29.943  32.700  1.00  0.00     0.049 A 
ATOM     45  H   UNL A   1      40.638  31.118  32.004  1.00  0.00     0.167 HD
ATOM     46  C   UNL A   1      36.946  32.988  30.803  1.00  0.00     0.034 A 
ATOM     47  C   UNL A   1      42.577  30.497  33.890  1.00  0.00     0.034 A 
ATOM     48  C   UNL A   1      37.953  33.954  30.420  1.00  0.00     0.049 A 
ATOM     49  C   UNL A   1      42.111  31.899  33.864  1.00  0.00     0.074 A 
ATOM     50  C   UNL A   1      38.421  34.481  29.235  1.00  0.00     0.029 A 
ATOM     51  N   UNL A   1      38.903  34.232  31.375  1.00  0.00    -0.354 N 
ATOM     52  N   UNL A   1      42.581  32.786  33.033  1.00  0.00    -0.248 NA
ATOM     53  C   UNL A   1      40.845  32.250  34.489  1.00  0.00     0.031 C 
ATOM     54  C   UNL A   1      39.812  34.720  29.452  1.00  0.00     0.029 A 
ATOM     55  C   UNL A   1      40.122  34.397  30.775  1.00  0.00     0.049 A 
ATOM     56  H   UNL A   1      38.731  34.301  32.342  1.00  0.00     0.167 HD
ATOM     57  C   UNL A   1      41.489  33.561  32.689  1.00  0.00     0.074 A 
ATOM     58  C   UNL A   1      40.509  33.304  33.737  1.00  0.00     0.031 C 
ATOM     59  C   UNL A   1      41.383  34.098  31.438  1.00  0.00     0.034 A 
BRANCH  46  60
ATOM     60  C   UNL A   1      35.979  33.293  31.942  1.00  0.00     0.023 A 
ATOM     61  C   UNL A   1      34.840  34.068  31.621  1.00  0.00     0.031 A 
ATOM     62  C   UNL A   1      36.236  33.148  33.322  1.00  0.00     0.131 A 
ATOM     63  C   UNL A   1      34.123  34.762  32.612  1.00  0.00     0.055 A 
ATOM     64  C   UNL A   1      35.485  33.797  34.310  1.00  0.00     0.041 A 
ATOM     65  F   UNL A   1      37.264  32.440  33.800  1.00  0.00    -0.206 F 
ATOM     66  C   UNL A   1      34.446  34.639  33.957  1.00  0.00     0.022 A 
BRANCH  63  67
ATOM     67  S   UNL A   1      32.880  35.975  32.091  1.00  0.00     0.124 S 
ATOM     68  O   UNL A   1      33.240  37.130  32.905  1.00  0.00    -0.237 OA
ATOM     69  O   UNL A   1      33.147  36.082  30.660  1.00  0.00    -0.237 OA
ATOM     70  O   UNL A   1      31.614  35.335  32.442  1.00  0.00    -0.744 OA
ENDBRANCH  63  67
ENDBRANCH  46  60
BRANCH  47  71
ATOM     71  C   UNL A   1      43.095  29.815  35.104  1.00  0.00     0.023 A 
ATOM     72  C   UNL A   1      42.553  28.614  35.608  1.00  0.00     0.031 A 
ATOM     73  C   UNL A   1      44.332  30.233  35.647  1.00  0.00     0.131 A 
ATOM     74  C   UNL A   1      43.249  27.881  36.599  1.00  0.00     0.055 A 
ATOM     75  C   UNL A   1      45.013  29.506  36.623  1.00  0.00     0.041 A 
ATOM     76  F   UNL A   1      44.959  31.324  35.178  1.00  0.00    -0.206 F 
ATOM     77  C   UNL A   1      44.479  28.317  37.096  1.00  0.00     0.022 A 
BRANCH  74  78
ATOM     78  S   UNL A   1      42.602  26.282  37.191  1.00  0.00     0.124 S 
ATOM     79  O   UNL A   1      41.161  26.461  37.060  1.00  0.00    -0.237 OA
ATOM     80  O   UNL A   1      43.227  25.333  36.277  1.00  0.00    -0.237 OA
ATOM     81  O   UNL A   1      43.086  26.209  38.571  1.00  0.00    -0.744 OA
ENDBRANCH  74  78
ENDBRANCH  47  71
BRANCH  59  82
ATOM     82  C   UNL A   1      42.653  34.241  30.624  1.00  0.00     0.023 A 
ATOM     83  C   UNL A   1      43.077  33.360  29.605  1.00  0.00     0.031 A 
ATOM     84  C   UNL A   1      43.436  35.384  30.868  1.00  0.00     0.131 A 
ATOM     85  C   UNL A   1      44.256  33.635  28.884  1.00  0.00     0.055 A 
ATOM     86  C   UNL A   1      44.587  35.665  30.136  1.00  0.00     0.041 A 
ATOM     87  F   UNL A   1      43.075  36.268  31.813  1.00  0.00    -0.206 F 
ATOM     88  C   UNL A   1      45.005  34.787  29.144  1.00  0.00     0.022 A 
BRANCH  85  89
ATOM     89  S   UNL A   1      44.858  32.481  27.608  1.00  0.00     0.124 S 
ATOM     90  O   UNL A   1      46.220  32.179  28.030  1.00  0.00    -0.237 OA
ATOM     91  O   UNL A   1      43.902  31.380  27.701  1.00  0.00    -0.237 OA
ATOM     92  O   UNL A   1      44.763  33.262  26.373  1.00  0.00    -0.744 OA
ENDBRANCH  85  89
ENDBRANCH  59  82
ENDBRANCH  33  34
ENDBRANCH  25  28
ENDBRANCH  23  24
ENDBRANCH  22  23
ENDBRANCH  21  22
ENDBRANCH   1  21
TORSDOF 19
ENDMDL
