MODEL 1
REMARK VINA RESULT:     -11.3      0.000      0.000
REMARK SMILES C[C@](NC(=O)[C@](C)([NH3+])C(F)(F)F)(C(=O)NCCCCCCNC(=O)c1ccc(-c2c3nc(c(-c4cc(S(=O)(=O)[O-])ccc4F)c4ccc([nH]4)c(-c4cc(S(=O)(=O)[O-])ccc4F)c4nc(c(-c5cc(S(=O)(=O)[O-])ccc5F)c5ccc2[nH]5)C=C4)C=C3)cc1)c1ccccc1
REMARK SMILES IDX 18 1 17 2 16 3 15 4 13 5 14 6 2 8 1 9 88 10 89 11 93 12
REMARK SMILES IDX 90 13 92 14 91 15 3 16 4 17 5 19 6 20 7 21 8 22 9 26 10 27
REMARK SMILES IDX 11 28 12 29 19 30 20 31 21 32 22 33 23 34 24 36 25 37 26 38
REMARK SMILES IDX 87 39 27 40 86 41 28 42 29 43 30 44 80 45 31 46 85 47 79 48
REMARK SMILES IDX 81 49 32 50 84 51 78 52 77 53 33 55 65 56 45 57 64 58 46 59
REMARK SMILES IDX 49 60 63 61 82 62 47 63 48 64 62 66 83 67 50 68 34 69 35 70
REMARK SMILES IDX 43 71 36 72 42 73 44 74 41 75 37 76 38 77 39 78 40 79 66 80
REMARK SMILES IDX 67 81 75 82 68 83 74 84 76 85 73 86 69 87 70 88 71 89 72 90
REMARK SMILES IDX 51 91 52 92 60 93 53 94 59 95 61 96 58 97 54 98 55 99 56 100
REMARK SMILES IDX 57 101
REMARK H PARENT 15 7 3 18 8 23 8 24 8 25 22 35 81 54 49 65
REMARK Flexibility Score: inf
ROOT
ATOM      1  C   UNL A   1      32.757  29.599  26.260  1.00  0.00     0.002 C 
ENDROOT
BRANCH   1   2
ATOM      2  C   UNL A   1      32.434  28.548  27.328  1.00  0.00     0.021 C 
BRANCH   2   3
ATOM      3  C   UNL A   1      32.443  27.105  26.830  1.00  0.00     0.116 C 
BRANCH   3   4
ATOM      4  N   UNL A   1      31.138  26.532  26.586  1.00  0.00    -0.354 N 
ATOM      5  C   UNL A   1      30.902  25.340  25.941  1.00  0.00     0.250 C 
ATOM      6  O   UNL A   1      30.176  24.543  26.550  1.00  0.00    -0.272 OA
ATOM      7  H   UNL A   1      30.356  27.033  26.909  1.00  0.00     0.163 HD
BRANCH   5   8
ATOM      8  C   UNL A   1      31.440  25.011  24.457  1.00  0.00     0.142 C 
ATOM      9  C   UNL A   1      30.514  24.041  23.706  1.00  0.00     0.051 C 
BRANCH   8  10
ATOM     10  C   UNL A   1      31.347  26.413  23.715  1.00  0.00    -0.013 A 
ATOM     11  C   UNL A   1      32.458  27.158  23.287  1.00  0.00     0.007 A 
ATOM     12  C   UNL A   1      30.088  27.066  23.605  1.00  0.00     0.007 A 
ATOM     13  C   UNL A   1      32.297  28.439  22.722  1.00  0.00     0.000 A 
ATOM     14  C   UNL A   1      29.922  28.316  23.009  1.00  0.00     0.000 A 
ATOM     15  C   UNL A   1      31.034  29.007  22.563  1.00  0.00     0.000 A 
ENDBRANCH   8  10
BRANCH   8  16
ATOM     16  N   UNL A   1      32.839  24.456  24.441  1.00  0.00    -0.332 N 
ATOM     17  C   UNL A   1      33.609  23.481  25.007  1.00  0.00     0.291 C 
ATOM     18  H   UNL A   1      33.386  24.972  23.805  1.00  0.00     0.165 HD
ATOM     19  O   UNL A   1      34.809  23.643  24.721  1.00  0.00    -0.267 OA
BRANCH  17  20
ATOM     20  C   UNL A   1      33.214  22.204  25.839  1.00  0.00     0.267 C 
ATOM     21  C   UNL A   1      33.978  21.016  25.240  1.00  0.00     0.100 C 
BRANCH  20  22
ATOM     22  N   UNL A   1      31.775  21.840  25.862  1.00  0.00    -0.337 N 
ATOM     23  H   UNL A   1      31.661  20.929  26.307  1.00  0.00     0.345 HD
ATOM     24  H   UNL A   1      31.418  21.800  24.907  1.00  0.00     0.345 HD
ATOM     25  H   UNL A   1      31.255  22.542  26.390  1.00  0.00     0.345 HD
ENDBRANCH  20  22
BRANCH  20  26
ATOM     26  C   UNL A   1      33.718  22.389  27.305  1.00  0.00     0.453 C 
ATOM     27  F   UNL A   1      34.226  21.227  27.791  1.00  0.00    -0.164 F 
ATOM     28  F   UNL A   1      34.665  23.329  27.472  1.00  0.00    -0.164 F 
ATOM     29  F   UNL A   1      32.683  22.706  28.119  1.00  0.00    -0.164 F 
ENDBRANCH  20  26
ENDBRANCH  17  20
ENDBRANCH   8  16
ENDBRANCH   5   8
ENDBRANCH   3   4
ENDBRANCH   2   3
ENDBRANCH   1   2
BRANCH   1  30
ATOM     30  C   UNL A   1      31.606  30.518  25.817  1.00  0.00     0.002 C 
BRANCH  30  31
ATOM     31  C   UNL A   1      31.431  31.836  26.576  1.00  0.00     0.021 C 
BRANCH  31  32
ATOM     32  C   UNL A   1      32.676  32.364  27.278  1.00  0.00     0.116 C 
BRANCH  32  33
ATOM     33  N   UNL A   1      32.572  33.790  27.543  1.00  0.00    -0.352 N 
ATOM     34  C   UNL A   1      33.202  34.548  28.503  1.00  0.00     0.251 C 
ATOM     35  H   UNL A   1      31.963  34.286  26.950  1.00  0.00     0.163 HD
ATOM     36  O   UNL A   1      32.791  35.675  28.753  1.00  0.00    -0.269 OA
BRANCH  34  37
ATOM     37  C   UNL A   1      34.364  33.996  29.240  1.00  0.00     0.039 A 
ATOM     38  C   UNL A   1      34.149  33.054  30.251  1.00  0.00     0.014 A 
ATOM     39  C   UNL A   1      35.662  34.425  28.952  1.00  0.00     0.014 A 
ATOM     40  C   UNL A   1      35.239  32.502  30.931  1.00  0.00     0.010 A 
ATOM     41  C   UNL A   1      36.750  33.818  29.577  1.00  0.00     0.010 A 
ATOM     42  C   UNL A   1      36.552  32.856  30.581  1.00  0.00    -0.014 A 
BRANCH  42  43
ATOM     43  C   UNL A   1      37.735  32.262  31.263  1.00  0.00     0.031 A 
ATOM     44  C   UNL A   1      38.487  31.134  30.605  1.00  0.00     0.074 A 
ATOM     45  C   UNL A   1      38.087  32.684  32.495  1.00  0.00     0.049 A 
ATOM     46  N   UNL A   1      39.460  30.399  31.079  1.00  0.00    -0.248 NA
ATOM     47  C   UNL A   1      38.069  30.766  29.242  1.00  0.00     0.031 C 
ATOM     48  C   UNL A   1      37.425  33.754  33.246  1.00  0.00     0.029 A 
ATOM     49  N   UNL A   1      39.080  32.254  33.345  1.00  0.00    -0.354 N 
ATOM     50  C   UNL A   1      39.749  29.466  30.089  1.00  0.00     0.074 A 
ATOM     51  C   UNL A   1      38.821  29.701  29.004  1.00  0.00     0.031 C 
ATOM     52  C   UNL A   1      38.039  33.906  34.431  1.00  0.00     0.029 A 
ATOM     53  C   UNL A   1      39.099  32.910  34.555  1.00  0.00     0.049 A 
ATOM     54  H   UNL A   1      39.717  31.542  33.109  1.00  0.00     0.167 HD
ATOM     55  C   UNL A   1      40.710  28.510  30.081  1.00  0.00     0.034 A 
ATOM     56  C   UNL A   1      39.866  32.716  35.648  1.00  0.00     0.034 A 
ATOM     57  C   UNL A   1      41.649  28.309  31.155  1.00  0.00     0.049 A 
ATOM     58  C   UNL A   1      40.910  31.621  35.620  1.00  0.00     0.074 A 
ATOM     59  C   UNL A   1      42.707  27.419  31.214  1.00  0.00     0.029 A 
ATOM     60  N   UNL A   1      41.641  28.998  32.361  1.00  0.00    -0.354 N 
ATOM     61  N   UNL A   1      41.205  30.785  34.650  1.00  0.00    -0.248 NA
ATOM     62  C   UNL A   1      41.729  31.449  36.828  1.00  0.00     0.031 C 
ATOM     63  C   UNL A   1      43.287  27.513  32.482  1.00  0.00     0.029 A 
ATOM     64  C   UNL A   1      42.653  28.526  33.182  1.00  0.00     0.049 A 
ATOM     65  H   UNL A   1      41.010  29.716  32.597  1.00  0.00     0.167 HD
ATOM     66  C   UNL A   1      42.276  30.027  35.118  1.00  0.00     0.074 A 
ATOM     67  C   UNL A   1      42.578  30.506  36.449  1.00  0.00     0.031 C 
ATOM     68  C   UNL A   1      42.953  29.025  34.501  1.00  0.00     0.034 A 
BRANCH  55  69
ATOM     69  C   UNL A   1      40.782  27.585  28.890  1.00  0.00     0.023 A 
ATOM     70  C   UNL A   1      41.741  27.749  27.875  1.00  0.00     0.031 A 
ATOM     71  C   UNL A   1      39.890  26.503  28.786  1.00  0.00     0.131 A 
ATOM     72  C   UNL A   1      41.756  26.872  26.780  1.00  0.00     0.055 A 
ATOM     73  C   UNL A   1      39.958  25.590  27.732  1.00  0.00     0.041 A 
ATOM     74  F   UNL A   1      38.939  26.309  29.714  1.00  0.00    -0.206 F 
ATOM     75  C   UNL A   1      40.890  25.777  26.715  1.00  0.00     0.022 A 
BRANCH  72  76
ATOM     76  S   UNL A   1      42.856  27.240  25.386  1.00  0.00     0.124 S 
ATOM     77  O   UNL A   1      42.846  25.972  24.660  1.00  0.00    -0.237 OA
ATOM     78  O   UNL A   1      42.179  28.354  24.734  1.00  0.00    -0.237 OA
ATOM     79  O   UNL A   1      44.126  27.571  26.029  1.00  0.00    -0.744 OA
ENDBRANCH  72  76
ENDBRANCH  55  69
BRANCH  56  80
ATOM     80  C   UNL A   1      39.678  33.540  36.881  1.00  0.00     0.023 A 
ATOM     81  C   UNL A   1      40.610  34.527  37.238  1.00  0.00     0.031 A 
ATOM     82  C   UNL A   1      38.617  33.289  37.771  1.00  0.00     0.131 A 
ATOM     83  C   UNL A   1      40.515  35.167  38.484  1.00  0.00     0.055 A 
ATOM     84  C   UNL A   1      38.484  33.982  38.977  1.00  0.00     0.041 A 
ATOM     85  F   UNL A   1      37.696  32.355  37.487  1.00  0.00    -0.206 F 
ATOM     86  C   UNL A   1      39.449  34.913  39.349  1.00  0.00     0.022 A 
BRANCH  83  87
ATOM     87  S   UNL A   1      41.887  36.226  39.020  1.00  0.00     0.124 S 
ATOM     88  O   UNL A   1      41.751  37.363  38.118  1.00  0.00    -0.237 OA
ATOM     89  O   UNL A   1      41.550  36.471  40.419  1.00  0.00    -0.237 OA
ATOM     90  O   UNL A   1      43.066  35.391  38.800  1.00  0.00    -0.744 OA
ENDBRANCH  83  87
ENDBRANCH  56  80
BRANCH  68  91
ATOM     91  C   UNL A   1      44.140  28.438  35.226  1.00  0.00     0.023 A 
ATOM     92  C   UNL A   1      44.003  27.418  36.182  1.00  0.00     0.031 A 
ATOM     93  C   UNL A   1      45.436  28.905  34.936  1.00  0.00     0.131 A 
ATOM     94  C   UNL A   1      45.138  26.931  36.850  1.00  0.00     0.055 A 
ATOM     95  C   UNL A   1      46.566  28.373  35.556  1.00  0.00     0.041 A 
ATOM     96  F   UNL A   1      45.625  29.880  34.033  1.00  0.00    -0.206 F 
ATOM     97  C   UNL A   1      46.419  27.387  36.528  1.00  0.00     0.022 A 
BRANCH  94  98
ATOM     98  S   UNL A   1      44.912  25.746  38.205  1.00  0.00     0.124 S 
ATOM     99  O   UNL A   1      43.917  26.417  39.033  1.00  0.00    -0.237 OA
ATOM    100  O   UNL A   1      44.456  24.550  37.502  1.00  0.00    -0.237 OA
ATOM    101  O   UNL A   1      46.245  25.644  38.797  1.00  0.00    -0.744 OA
ENDBRANCH  94  98
ENDBRANCH  68  91
ENDBRANCH  42  43
ENDBRANCH  34  37
ENDBRANCH  32  33
ENDBRANCH  31  32
ENDBRANCH  30  31
ENDBRANCH   1  30
TORSDOF 21
ENDMDL
MODEL 2
REMARK VINA RESULT:     -11.1      2.301      7.787
REMARK SMILES C[C@](NC(=O)[C@](C)([NH3+])C(F)(F)F)(C(=O)NCCCCCCNC(=O)c1ccc(-c2c3nc(c(-c4cc(S(=O)(=O)[O-])ccc4F)c4ccc([nH]4)c(-c4cc(S(=O)(=O)[O-])ccc4F)c4nc(c(-c5cc(S(=O)(=O)[O-])ccc5F)c5ccc2[nH]5)C=C4)C=C3)cc1)c1ccccc1
REMARK SMILES IDX 18 1 17 2 16 3 15 4 13 5 14 6 2 8 1 9 88 10 89 11 93 12
REMARK SMILES IDX 90 13 92 14 91 15 3 16 4 17 5 19 6 20 7 21 8 22 9 26 10 27
REMARK SMILES IDX 11 28 12 29 19 30 20 31 21 32 22 33 23 34 24 36 25 37 26 38
REMARK SMILES IDX 87 39 27 40 86 41 28 42 29 43 30 44 80 45 31 46 85 47 79 48
REMARK SMILES IDX 81 49 32 50 84 51 78 52 77 53 33 55 65 56 45 57 64 58 46 59
REMARK SMILES IDX 49 60 63 61 82 62 47 63 48 64 62 66 83 67 50 68 34 69 35 70
REMARK SMILES IDX 43 71 36 72 42 73 44 74 41 75 37 76 38 77 39 78 40 79 66 80
REMARK SMILES IDX 67 81 75 82 68 83 74 84 76 85 73 86 69 87 70 88 71 89 72 90
REMARK SMILES IDX 51 91 52 92 60 93 53 94 59 95 61 96 58 97 54 98 55 99 56 100
REMARK SMILES IDX 57 101
REMARK H PARENT 15 7 3 18 8 23 8 24 8 25 22 35 81 54 49 65
REMARK Flexibility Score: inf
ROOT
ATOM      1  C   UNL A   1      32.073  29.780  26.007  1.00  0.00     0.002 C 
ENDROOT
BRANCH   1   2
ATOM      2  C   UNL A   1      31.729  28.843  27.171  1.00  0.00     0.021 C 
BRANCH   2   3
ATOM      3  C   UNL A   1      31.935  27.359  26.880  1.00  0.00     0.116 C 
BRANCH   3   4
ATOM      4  N   UNL A   1      30.730  26.620  26.577  1.00  0.00    -0.354 N 
ATOM      5  C   UNL A   1      30.686  25.389  25.964  1.00  0.00     0.250 C 
ATOM      6  O   UNL A   1      30.024  24.526  26.557  1.00  0.00    -0.272 OA
ATOM      7  H   UNL A   1      29.872  27.029  26.831  1.00  0.00     0.163 HD
BRANCH   5   8
ATOM      8  C   UNL A   1      31.357  25.085  24.530  1.00  0.00     0.142 C 
ATOM      9  C   UNL A   1      30.618  23.976  23.765  1.00  0.00     0.051 C 
BRANCH   8  10
ATOM     10  C   UNL A   1      31.130  26.437  23.727  1.00  0.00    -0.013 A 
ATOM     11  C   UNL A   1      32.165  27.266  23.261  1.00  0.00     0.007 A 
ATOM     12  C   UNL A   1      29.815  26.960  23.593  1.00  0.00     0.007 A 
ATOM     13  C   UNL A   1      31.882  28.499  22.640  1.00  0.00     0.000 A 
ATOM     14  C   UNL A   1      29.530  28.161  22.942  1.00  0.00     0.000 A 
ATOM     15  C   UNL A   1      30.570  28.935  22.461  1.00  0.00     0.000 A 
ENDBRANCH   8  10
BRANCH   8  16
ATOM     16  N   UNL A   1      32.816  24.722  24.621  1.00  0.00    -0.332 N 
ATOM     17  C   UNL A   1      33.652  23.778  25.146  1.00  0.00     0.291 C 
ATOM     18  H   UNL A   1      33.349  25.394  24.137  1.00  0.00     0.165 HD
ATOM     19  O   UNL A   1      34.839  24.133  25.043  1.00  0.00    -0.267 OA
BRANCH  17  20
ATOM     20  C   UNL A   1      33.356  22.350  25.740  1.00  0.00     0.267 C 
ATOM     21  C   UNL A   1      33.595  21.332  24.617  1.00  0.00     0.100 C 
BRANCH  20  22
ATOM     22  N   UNL A   1      31.988  22.116  26.268  1.00  0.00    -0.337 N 
ATOM     23  H   UNL A   1      31.874  21.127  26.491  1.00  0.00     0.345 HD
ATOM     24  H   UNL A   1      31.300  22.388  25.566  1.00  0.00     0.345 HD
ATOM     25  H   UNL A   1      31.850  22.672  27.112  1.00  0.00     0.345 HD
ENDBRANCH  20  22
BRANCH  20  26
ATOM     26  C   UNL A   1      34.396  22.054  26.865  1.00  0.00     0.453 C 
ATOM     27  F   UNL A   1      33.946  21.077  27.694  1.00  0.00    -0.164 F 
ATOM     28  F   UNL A   1      35.612  21.672  26.437  1.00  0.00    -0.164 F 
ATOM     29  F   UNL A   1      34.565  23.147  27.646  1.00  0.00    -0.164 F 
ENDBRANCH  20  26
ENDBRANCH  17  20
ENDBRANCH   8  16
ENDBRANCH   5   8
ENDBRANCH   3   4
ENDBRANCH   2   3
ENDBRANCH   1   2
BRANCH   1  30
ATOM     30  C   UNL A   1      31.034  30.856  25.649  1.00  0.00     0.002 C 
BRANCH  30  31
ATOM     31  C   UNL A   1      31.187  32.226  26.314  1.00  0.00     0.021 C 
BRANCH  31  32
ATOM     32  C   UNL A   1      32.435  32.409  27.169  1.00  0.00     0.116 C 
BRANCH  32  33
ATOM     33  N   UNL A   1      32.685  33.813  27.452  1.00  0.00    -0.352 N 
ATOM     34  C   UNL A   1      33.598  34.383  28.308  1.00  0.00     0.251 C 
ATOM     35  H   UNL A   1      32.118  34.449  26.959  1.00  0.00     0.163 HD
ATOM     36  O   UNL A   1      33.484  35.562  28.621  1.00  0.00    -0.269 OA
BRANCH  34  37
ATOM     37  C   UNL A   1      34.707  33.568  28.859  1.00  0.00     0.039 A 
ATOM     38  C   UNL A   1      36.027  33.972  28.642  1.00  0.00     0.014 A 
ATOM     39  C   UNL A   1      34.447  32.394  29.570  1.00  0.00     0.014 A 
ATOM     40  C   UNL A   1      37.082  33.230  29.184  1.00  0.00     0.010 A 
ATOM     41  C   UNL A   1      35.493  31.699  30.174  1.00  0.00     0.010 A 
ATOM     42  C   UNL A   1      36.824  32.103  29.981  1.00  0.00    -0.014 A 
BRANCH  42  43
ATOM     43  C   UNL A   1      37.922  31.311  30.600  1.00  0.00     0.031 A 
ATOM     44  C   UNL A   1      38.325  31.583  32.027  1.00  0.00     0.074 A 
ATOM     45  C   UNL A   1      38.600  30.405  29.865  1.00  0.00     0.049 A 
ATOM     46  N   UNL A   1      39.329  31.097  32.712  1.00  0.00    -0.248 NA
ATOM     47  C   UNL A   1      37.505  32.552  32.774  1.00  0.00     0.031 C 
ATOM     48  C   UNL A   1      38.319  30.067  28.468  1.00  0.00     0.029 A 
ATOM     49  N   UNL A   1      39.678  29.612  30.184  1.00  0.00    -0.354 N 
ATOM     50  C   UNL A   1      39.279  31.721  33.954  1.00  0.00     0.074 A 
ATOM     51  C   UNL A   1      38.171  32.650  33.915  1.00  0.00     0.031 C 
ATOM     52  C   UNL A   1      39.187  29.127  28.058  1.00  0.00     0.029 A 
ATOM     53  C   UNL A   1      40.125  28.836  29.138  1.00  0.00     0.049 A 
ATOM     54  H   UNL A   1      40.091  29.601  31.077  1.00  0.00     0.167 HD
ATOM     55  C   UNL A   1      40.076  31.525  35.032  1.00  0.00     0.034 A 
ATOM     56  C   UNL A   1      41.184  28.003  29.052  1.00  0.00     0.034 A 
ATOM     57  C   UNL A   1      41.156  30.571  35.067  1.00  0.00     0.049 A 
ATOM     58  C   UNL A   1      42.074  27.829  30.262  1.00  0.00     0.074 A 
ATOM     59  C   UNL A   1      41.976  30.243  36.133  1.00  0.00     0.029 A 
ATOM     60  N   UNL A   1      41.574  29.800  33.992  1.00  0.00    -0.354 N 
ATOM     61  N   UNL A   1      41.975  28.386  31.448  1.00  0.00    -0.248 NA
ATOM     62  C   UNL A   1      43.210  26.907  30.128  1.00  0.00     0.031 C 
ATOM     63  C   UNL A   1      42.938  29.335  35.681  1.00  0.00     0.029 A 
ATOM     64  C   UNL A   1      42.662  29.025  34.360  1.00  0.00     0.049 A 
ATOM     65  H   UNL A   1      41.159  29.802  33.099  1.00  0.00     0.167 HD
ATOM     66  C   UNL A   1      43.007  27.842  32.209  1.00  0.00     0.074 A 
ATOM     67  C   UNL A   1      43.709  26.910  31.354  1.00  0.00     0.031 C 
ATOM     68  C   UNL A   1      43.342  28.086  33.501  1.00  0.00     0.034 A 
BRANCH  55  69
ATOM     69  C   UNL A   1      39.837  32.375  36.256  1.00  0.00     0.023 A 
ATOM     70  C   UNL A   1      38.882  32.031  37.228  1.00  0.00     0.031 A 
ATOM     71  C   UNL A   1      40.602  33.537  36.465  1.00  0.00     0.131 A 
ATOM     72  C   UNL A   1      38.687  32.864  38.341  1.00  0.00     0.055 A 
ATOM     73  C   UNL A   1      40.454  34.321  37.611  1.00  0.00     0.041 A 
ATOM     74  F   UNL A   1      41.514  33.927  35.560  1.00  0.00    -0.206 F 
ATOM     75  C   UNL A   1      39.485  33.991  38.553  1.00  0.00     0.022 A 
BRANCH  72  76
ATOM     76  S   UNL A   1      37.302  32.511  39.458  1.00  0.00     0.124 S 
ATOM     77  O   UNL A   1      37.571  33.431  40.560  1.00  0.00    -0.237 OA
ATOM     78  O   UNL A   1      36.142  32.827  38.633  1.00  0.00    -0.237 OA
ATOM     79  O   UNL A   1      37.472  31.096  39.780  1.00  0.00    -0.744 OA
ENDBRANCH  72  76
ENDBRANCH  55  69
BRANCH  56  80
ATOM     80  C   UNL A   1      41.500  27.285  27.779  1.00  0.00     0.023 A 
ATOM     81  C   UNL A   1      41.304  25.899  27.667  1.00  0.00     0.031 A 
ATOM     82  C   UNL A   1      42.093  27.953  26.692  1.00  0.00     0.131 A 
ATOM     83  C   UNL A   1      41.770  25.213  26.533  1.00  0.00     0.055 A 
ATOM     84  C   UNL A   1      42.487  27.276  25.534  1.00  0.00     0.041 A 
ATOM     85  F   UNL A   1      42.309  29.276  26.742  1.00  0.00    -0.206 F 
ATOM     86  C   UNL A   1      42.345  25.895  25.460  1.00  0.00     0.022 A 
BRANCH  83  87
ATOM     87  S   UNL A   1      41.748  23.399  26.550  1.00  0.00     0.124 S 
ATOM     88  O   UNL A   1      40.318  23.121  26.494  1.00  0.00    -0.237 OA
ATOM     89  O   UNL A   1      42.513  23.076  25.350  1.00  0.00    -0.237 OA
ATOM     90  O   UNL A   1      42.400  23.063  27.814  1.00  0.00    -0.744 OA
ENDBRANCH  83  87
ENDBRANCH  56  80
BRANCH  68  91
ATOM     91  C   UNL A   1      44.467  27.274  34.094  1.00  0.00     0.023 A 
ATOM     92  C   UNL A   1      45.797  27.728  34.100  1.00  0.00     0.031 A 
ATOM     93  C   UNL A   1      44.194  26.023  34.678  1.00  0.00     0.131 A 
ATOM     94  C   UNL A   1      46.810  26.917  34.635  1.00  0.00     0.055 A 
ATOM     95  C   UNL A   1      45.193  25.249  35.266  1.00  0.00     0.041 A 
ATOM     96  F   UNL A   1      42.942  25.538  34.698  1.00  0.00    -0.206 F 
ATOM     97  C   UNL A   1      46.513  25.690  35.236  1.00  0.00     0.022 A 
BRANCH  94  98
ATOM     98  S   UNL A   1      48.536  27.449  34.467  1.00  0.00     0.124 S 
ATOM     99  O   UNL A   1      49.204  26.204  34.106  1.00  0.00    -0.237 OA
ATOM    100  O   UNL A   1      48.452  28.456  33.413  1.00  0.00    -0.237 OA
ATOM    101  O   UNL A   1      48.866  27.968  35.793  1.00  0.00    -0.744 OA
ENDBRANCH  94  98
ENDBRANCH  68  91
ENDBRANCH  42  43
ENDBRANCH  34  37
ENDBRANCH  32  33
ENDBRANCH  31  32
ENDBRANCH  30  31
ENDBRANCH   1  30
TORSDOF 21
ENDMDL
MODEL 3
REMARK VINA RESULT:     -10.8      1.530      7.551
REMARK SMILES C[C@](NC(=O)[C@](C)([NH3+])C(F)(F)F)(C(=O)NCCCCCCNC(=O)c1ccc(-c2c3nc(c(-c4cc(S(=O)(=O)[O-])ccc4F)c4ccc([nH]4)c(-c4cc(S(=O)(=O)[O-])ccc4F)c4nc(c(-c5cc(S(=O)(=O)[O-])ccc5F)c5ccc2[nH]5)C=C4)C=C3)cc1)c1ccccc1
REMARK SMILES IDX 18 1 17 2 16 3 15 4 13 5 14 6 2 8 1 9 88 10 89 11 93 12
REMARK SMILES IDX 90 13 92 14 91 15 3 16 4 17 5 19 6 20 7 21 8 22 9 26 10 27
REMARK SMILES IDX 11 28 12 29 19 30 20 31 21 32 22 33 23 34 24 36 25 37 26 38
REMARK SMILES IDX 87 39 27 40 86 41 28 42 29 43 30 44 80 45 31 46 85 47 79 48
REMARK SMILES IDX 81 49 32 50 84 51 78 52 77 53 33 55 65 56 45 57 64 58 46 59
REMARK SMILES IDX 49 60 63 61 82 62 47 63 48 64 62 66 83 67 50 68 34 69 35 70
REMARK SMILES IDX 43 71 36 72 42 73 44 74 41 75 37 76 38 77 39 78 40 79 66 80
REMARK SMILES IDX 67 81 75 82 68 83 74 84 76 85 73 86 69 87 70 88 71 89 72 90
REMARK SMILES IDX 51 91 52 92 60 93 53 94 59 95 61 96 58 97 54 98 55 99 56 100
REMARK SMILES IDX 57 101
REMARK H PARENT 15 7 3 18 8 23 8 24 8 25 22 35 81 54 49 65
REMARK Flexibility Score: inf
ROOT
ATOM      1  C   UNL A   1      32.281  29.875  26.536  1.00  0.00     0.002 C 
ENDROOT
BRANCH   1   2
ATOM      2  C   UNL A   1      31.829  28.765  27.492  1.00  0.00     0.021 C 
BRANCH   2   3
ATOM      3  C   UNL A   1      32.020  27.346  26.962  1.00  0.00     0.116 C 
BRANCH   3   4
ATOM      4  N   UNL A   1      30.800  26.635  26.655  1.00  0.00    -0.354 N 
ATOM      5  C   UNL A   1      30.726  25.430  25.997  1.00  0.00     0.250 C 
ATOM      6  O   UNL A   1      30.064  24.553  26.569  1.00  0.00    -0.272 OA
ATOM      7  H   UNL A   1      29.953  27.046  26.942  1.00  0.00     0.163 HD
BRANCH   5   8
ATOM      8  C   UNL A   1      31.365  25.172  24.539  1.00  0.00     0.142 C 
ATOM      9  C   UNL A   1      30.583  24.118  23.739  1.00  0.00     0.051 C 
BRANCH   8  10
ATOM     10  C   UNL A   1      31.161  26.564  23.799  1.00  0.00    -0.013 A 
ATOM     11  C   UNL A   1      32.207  27.431  23.440  1.00  0.00     0.007 A 
ATOM     12  C   UNL A   1      29.847  27.077  23.620  1.00  0.00     0.007 A 
ATOM     13  C   UNL A   1      31.939  28.693  22.873  1.00  0.00     0.000 A 
ATOM     14  C   UNL A   1      29.579  28.308  23.022  1.00  0.00     0.000 A 
ATOM     15  C   UNL A   1      30.632  29.121  22.644  1.00  0.00     0.000 A 
ENDBRANCH   8  10
BRANCH   8  16
ATOM     16  N   UNL A   1      32.814  24.767  24.587  1.00  0.00    -0.332 N 
ATOM     17  C   UNL A   1      33.636  23.796  25.082  1.00  0.00     0.291 C 
ATOM     18  H   UNL A   1      33.354  25.428  24.095  1.00  0.00     0.165 HD
ATOM     19  O   UNL A   1      34.831  24.117  24.950  1.00  0.00    -0.267 OA
BRANCH  17  20
ATOM     20  C   UNL A   1      33.316  22.371  25.672  1.00  0.00     0.267 C 
ATOM     21  C   UNL A   1      33.538  21.352  24.547  1.00  0.00     0.100 C 
BRANCH  20  22
ATOM     22  N   UNL A   1      31.944  22.160  26.200  1.00  0.00    -0.337 N 
ATOM     23  H   UNL A   1      31.345  21.805  25.455  1.00  0.00     0.345 HD
ATOM     24  H   UNL A   1      31.572  23.044  26.545  1.00  0.00     0.345 HD
ATOM     25  H   UNL A   1      31.974  21.483  26.963  1.00  0.00     0.345 HD
ENDBRANCH  20  22
BRANCH  20  26
ATOM     26  C   UNL A   1      34.351  22.055  26.797  1.00  0.00     0.453 C 
ATOM     27  F   UNL A   1      33.885  21.081  27.622  1.00  0.00    -0.164 F 
ATOM     28  F   UNL A   1      35.562  21.657  26.369  1.00  0.00    -0.164 F 
ATOM     29  F   UNL A   1      34.536  23.142  27.583  1.00  0.00    -0.164 F 
ENDBRANCH  20  26
ENDBRANCH  17  20
ENDBRANCH   8  16
ENDBRANCH   5   8
ENDBRANCH   3   4
ENDBRANCH   2   3
ENDBRANCH   1   2
BRANCH   1  30
ATOM     30  C   UNL A   1      31.218  30.901  26.108  1.00  0.00     0.002 C 
BRANCH  30  31
ATOM     31  C   UNL A   1      31.383  32.334  26.620  1.00  0.00     0.021 C 
BRANCH  31  32
ATOM     32  C   UNL A   1      32.799  32.734  27.018  1.00  0.00     0.116 C 
BRANCH  32  33
ATOM     33  N   UNL A   1      32.819  34.030  27.677  1.00  0.00    -0.352 N 
ATOM     34  C   UNL A   1      33.535  34.438  28.778  1.00  0.00     0.251 C 
ATOM     35  H   UNL A   1      32.236  34.715  27.278  1.00  0.00     0.163 HD
ATOM     36  O   UNL A   1      33.225  35.474  29.355  1.00  0.00    -0.269 OA
BRANCH  34  37
ATOM     37  C   UNL A   1      34.669  33.620  29.272  1.00  0.00     0.039 A 
ATOM     38  C   UNL A   1      35.976  33.998  28.952  1.00  0.00     0.014 A 
ATOM     39  C   UNL A   1      34.442  32.468  30.030  1.00  0.00     0.014 A 
ATOM     40  C   UNL A   1      37.055  33.252  29.439  1.00  0.00     0.010 A 
ATOM     41  C   UNL A   1      35.518  31.772  30.577  1.00  0.00     0.010 A 
ATOM     42  C   UNL A   1      36.838  32.150  30.282  1.00  0.00    -0.014 A 
BRANCH  42  43
ATOM     43  C   UNL A   1      37.966  31.356  30.843  1.00  0.00     0.031 A 
ATOM     44  C   UNL A   1      38.490  31.676  32.219  1.00  0.00     0.074 A 
ATOM     45  C   UNL A   1      38.560  30.402  30.096  1.00  0.00     0.049 A 
ATOM     46  N   UNL A   1      39.536  31.194  32.840  1.00  0.00    -0.248 NA
ATOM     47  C   UNL A   1      37.757  32.697  32.987  1.00  0.00     0.031 C 
ATOM     48  C   UNL A   1      38.157  30.014  28.742  1.00  0.00     0.029 A 
ATOM     49  N   UNL A   1      39.642  29.596  30.359  1.00  0.00    -0.354 N 
ATOM     50  C   UNL A   1      39.603  31.870  34.054  1.00  0.00     0.074 A 
ATOM     51  C   UNL A   1      38.517  32.825  34.065  1.00  0.00     0.031 C 
ATOM     52  C   UNL A   1      38.967  29.036  28.304  1.00  0.00     0.029 A 
ATOM     53  C   UNL A   1      39.984  28.765  29.316  1.00  0.00     0.049 A 
ATOM     54  H   UNL A   1      40.127  29.612  31.215  1.00  0.00     0.167 HD
ATOM     55  C   UNL A   1      40.482  31.699  35.071  1.00  0.00     0.034 A 
ATOM     56  C   UNL A   1      41.013  27.903  29.179  1.00  0.00     0.034 A 
ATOM     57  C   UNL A   1      41.540  30.719  35.059  1.00  0.00     0.049 A 
ATOM     58  C   UNL A   1      41.996  27.756  30.320  1.00  0.00     0.074 A 
ATOM     59  C   UNL A   1      42.437  30.414  36.068  1.00  0.00     0.029 A 
ATOM     60  N   UNL A   1      41.850  29.893  33.988  1.00  0.00    -0.354 N 
ATOM     61  N   UNL A   1      42.008  28.365  31.484  1.00  0.00    -0.248 NA
ATOM     62  C   UNL A   1      43.096  26.800  30.134  1.00  0.00     0.031 C 
ATOM     63  C   UNL A   1      43.338  29.464  35.580  1.00  0.00     0.029 A 
ATOM     64  C   UNL A   1      42.947  29.106  34.300  1.00  0.00     0.049 A 
ATOM     65  H   UNL A   1      41.362  29.869  33.133  1.00  0.00     0.167 HD
ATOM     66  C   UNL A   1      43.087  27.826  32.182  1.00  0.00     0.074 A 
ATOM     67  C   UNL A   1      43.695  26.841  31.314  1.00  0.00     0.031 C 
ATOM     68  C   UNL A   1      43.533  28.115  33.431  1.00  0.00     0.034 A 
BRANCH  55  69
ATOM     69  C   UNL A   1      40.364  32.604  36.272  1.00  0.00     0.023 A 
ATOM     70  C   UNL A   1      41.247  33.677  36.488  1.00  0.00     0.031 A 
ATOM     71  C   UNL A   1      39.329  32.405  37.204  1.00  0.00     0.131 A 
ATOM     72  C   UNL A   1      41.104  34.480  37.630  1.00  0.00     0.055 A 
ATOM     73  C   UNL A   1      39.148  33.253  38.298  1.00  0.00     0.041 A 
ATOM     74  F   UNL A   1      38.469  31.383  37.062  1.00  0.00    -0.206 F 
ATOM     75  C   UNL A   1      40.045  34.293  38.521  1.00  0.00     0.022 A 
BRANCH  72  76
ATOM     76  S   UNL A   1      42.386  35.712  37.992  1.00  0.00     0.124 S 
ATOM     77  O   UNL A   1      41.833  36.907  37.360  1.00  0.00    -0.237 OA
ATOM     78  O   UNL A   1      42.417  35.717  39.449  1.00  0.00    -0.237 OA
ATOM     79  O   UNL A   1      43.577  35.168  37.344  1.00  0.00    -0.744 OA
ENDBRANCH  72  76
ENDBRANCH  55  69
BRANCH  56  80
ATOM     80  C   UNL A   1      41.207  27.124  27.918  1.00  0.00     0.023 A 
ATOM     81  C   UNL A   1      40.960  25.742  27.880  1.00  0.00     0.031 A 
ATOM     82  C   UNL A   1      41.733  27.728  26.762  1.00  0.00     0.131 A 
ATOM     83  C   UNL A   1      41.315  24.996  26.744  1.00  0.00     0.055 A 
ATOM     84  C   UNL A   1      42.015  26.993  25.607  1.00  0.00     0.041 A 
ATOM     85  F   UNL A   1      41.993  29.044  26.739  1.00  0.00    -0.206 F 
ATOM     86  C   UNL A   1      41.826  25.615  25.602  1.00  0.00     0.022 A 
BRANCH  83  87
ATOM     87  S   UNL A   1      41.238  23.186  26.839  1.00  0.00     0.124 S 
ATOM     88  O   UNL A   1      42.322  22.798  25.945  1.00  0.00    -0.237 OA
ATOM     89  O   UNL A   1      41.462  22.948  28.262  1.00  0.00    -0.237 OA
ATOM     90  O   UNL A   1      39.892  22.878  26.360  1.00  0.00    -0.744 OA
ENDBRANCH  83  87
ENDBRANCH  56  80
BRANCH  68  91
ATOM     91  C   UNL A   1      44.684  27.299  33.964  1.00  0.00     0.023 A 
ATOM     92  C   UNL A   1      44.488  26.154  34.754  1.00  0.00     0.031 A 
ATOM     93  C   UNL A   1      46.007  27.672  33.659  1.00  0.00     0.131 A 
ATOM     94  C   UNL A   1      45.595  25.450  35.252  1.00  0.00     0.055 A 
ATOM     95  C   UNL A   1      47.102  26.933  34.102  1.00  0.00     0.041 A 
ATOM     96  F   UNL A   1      46.254  28.759  32.910  1.00  0.00    -0.206 F 
ATOM     97  C   UNL A   1      46.900  25.821  34.914  1.00  0.00     0.022 A 
BRANCH  94  98
ATOM     98  S   UNL A   1      45.314  24.086  36.415  1.00  0.00     0.124 S 
ATOM     99  O   UNL A   1      44.438  24.705  37.402  1.00  0.00    -0.237 OA
ATOM    100  O   UNL A   1      44.700  23.072  35.564  1.00  0.00    -0.237 OA
ATOM    101  O   UNL A   1      46.657  23.761  36.893  1.00  0.00    -0.744 OA
ENDBRANCH  94  98
ENDBRANCH  68  91
ENDBRANCH  42  43
ENDBRANCH  34  37
ENDBRANCH  32  33
ENDBRANCH  31  32
ENDBRANCH  30  31
ENDBRANCH   1  30
TORSDOF 21
ENDMDL
