MODEL 1
REMARK VINA RESULT:     -11.1      0.000      0.000
REMARK SMILES Cc1cc(C)n2ncc(C(=O)N(C)CCCC(=O)NCCCCCCNC(=O)c3ccc(-c4c5nc(c(-c6cc(S(=O)(=O)[O-])ccc6F)c6ccc([nH]6)c(-c6cc(S(=O)(=O)[O-])ccc6F)c6nc(c(-c7cc(S(=O)(=O)[O-])ccc7F)c7ccc4[nH]7)C=C6)C=C5)cc3)c2n1
REMARK SMILES IDX 21 1 20 2 19 3 17 4 18 5 16 7 15 8 14 9 12 10 13 11 10 12
REMARK SMILES IDX 11 13 9 14 1 15 2 16 3 17 93 18 4 19 92 20 5 21 6 22 7 23
REMARK SMILES IDX 8 24 22 25 23 26 24 27 25 28 26 29 27 30 28 32 29 33 30 34
REMARK SMILES IDX 91 35 31 36 90 37 32 38 33 39 34 40 84 41 35 42 89 43 83 44
REMARK SMILES IDX 85 45 36 46 88 47 82 48 81 49 37 51 69 52 49 53 68 54 50 55
REMARK SMILES IDX 53 56 67 57 86 58 51 59 52 60 66 62 87 63 54 64 38 65 39 66
REMARK SMILES IDX 47 67 40 68 46 69 48 70 45 71 41 72 42 73 43 74 44 75 70 76
REMARK SMILES IDX 71 77 79 78 72 79 78 80 80 81 77 82 73 83 74 84 75 85 76 86
REMARK SMILES IDX 55 87 56 88 64 89 57 90 63 91 65 92 62 93 58 94 59 95 60 96
REMARK SMILES IDX 61 97
REMARK H PARENT 19 6 26 31 85 50 53 61
REMARK Flexibility Score: inf
ROOT
ATOM      1  C   UNL A   1      31.392  27.881  26.836  1.00  0.00     0.021 C 
ENDROOT
BRANCH   1   2
ATOM      2  C   UNL A   1      32.200  26.626  26.492  1.00  0.00     0.116 C 
BRANCH   2   3
ATOM      3  N   UNL A   1      31.417  25.431  26.679  1.00  0.00    -0.356 N 
ATOM      4  C   UNL A   1      31.759  24.139  26.880  1.00  0.00     0.220 C 
ATOM      5  O   UNL A   1      30.818  23.372  27.130  1.00  0.00    -0.275 OA
ATOM      6  H   UNL A   1      30.444  25.586  26.657  1.00  0.00     0.163 HD
BRANCH   4   7
ATOM      7  C   UNL A   1      33.181  23.602  26.946  1.00  0.00     0.102 C 
BRANCH   7   8
ATOM      8  C   UNL A   1      33.666  22.291  26.311  1.00  0.00     0.031 C 
BRANCH   8   9
ATOM      9  C   UNL A   1      33.658  21.952  24.812  1.00  0.00     0.120 C 
BRANCH   9  10
ATOM     10  N   UNL A   1      34.134  22.838  23.714  1.00  0.00    -0.342 N 
ATOM     11  C   UNL A   1      35.590  22.903  23.661  1.00  0.00     0.147 C 
BRANCH  10  12
ATOM     12  C   UNL A   1      33.257  23.390  22.758  1.00  0.00     0.259 C 
ATOM     13  O   UNL A   1      33.440  23.154  21.577  1.00  0.00    -0.269 OA
BRANCH  12  14
ATOM     14  C   UNL A   1      32.115  24.251  23.092  1.00  0.00     0.104 A 
ATOM     15  C   UNL A   1      34.032  28.767  22.430  1.00  0.00     0.067 C 
ATOM     16  C   UNL A   1      32.925  27.781  22.715  1.00  0.00     0.042 A 
ATOM     17  C   UNL A   1      31.548  28.351  22.817  1.00  0.00     0.047 A 
ATOM     18  N   UNL A   1      33.219  26.522  22.859  1.00  0.00    -0.233 NA
ATOM     19  C   UNL A   1      30.564  27.481  23.106  1.00  0.00     0.043 A 
ATOM     20  C   UNL A   1      32.179  25.649  23.077  1.00  0.00     0.168 A 
ATOM     21  C   UNL A   1      29.134  27.899  23.238  1.00  0.00     0.067 C 
ATOM     22  N   UNL A   1      30.873  26.118  23.251  1.00  0.00    -0.219 N 
ATOM     23  N   UNL A   1      30.017  25.102  23.511  1.00  0.00    -0.174 NA
ATOM     24  C   UNL A   1      30.754  24.002  23.351  1.00  0.00     0.151 A 
ENDBRANCH  12  14
ENDBRANCH  10  12
ENDBRANCH   9  10
ENDBRANCH   8   9
ENDBRANCH   7   8
ENDBRANCH   4   7
ENDBRANCH   2   3
ENDBRANCH   1   2
BRANCH   1  25
ATOM     25  C   UNL A   1      31.833  29.126  26.059  1.00  0.00     0.002 C 
BRANCH  25  26
ATOM     26  C   UNL A   1      33.246  29.639  26.383  1.00  0.00     0.002 C 
BRANCH  26  27
ATOM     27  C   UNL A   1      33.337  30.932  27.206  1.00  0.00     0.021 C 
BRANCH  27  28
ATOM     28  C   UNL A   1      34.583  31.014  28.073  1.00  0.00     0.116 C 
BRANCH  28  29
ATOM     29  N   UNL A   1      35.261  32.309  27.965  1.00  0.00    -0.352 N 
ATOM     30  C   UNL A   1      36.518  32.671  28.418  1.00  0.00     0.251 C 
ATOM     31  H   UNL A   1      34.753  33.019  27.509  1.00  0.00     0.163 HD
ATOM     32  O   UNL A   1      36.803  33.850  28.580  1.00  0.00    -0.269 OA
BRANCH  30  33
ATOM     33  C   UNL A   1      37.498  31.605  28.699  1.00  0.00     0.039 A 
ATOM     34  C   UNL A   1      37.612  30.459  27.909  1.00  0.00     0.014 A 
ATOM     35  C   UNL A   1      38.338  31.794  29.789  1.00  0.00     0.014 A 
ATOM     36  C   UNL A   1      38.625  29.546  28.205  1.00  0.00     0.010 A 
ATOM     37  C   UNL A   1      39.463  31.037  29.924  1.00  0.00     0.010 A 
ATOM     38  C   UNL A   1      39.553  29.855  29.213  1.00  0.00    -0.014 A 
BRANCH  38  39
ATOM     39  C   UNL A   1      40.687  28.997  29.521  1.00  0.00     0.031 A 
ATOM     40  C   UNL A   1      40.875  28.733  30.966  1.00  0.00     0.074 A 
ATOM     41  C   UNL A   1      41.381  28.325  28.574  1.00  0.00     0.049 A 
ATOM     42  N   UNL A   1      41.809  29.197  31.722  1.00  0.00    -0.248 NA
ATOM     43  C   UNL A   1      39.821  28.012  31.698  1.00  0.00     0.031 C 
ATOM     44  C   UNL A   1      41.150  28.264  27.124  1.00  0.00     0.029 A 
ATOM     45  N   UNL A   1      42.415  27.461  28.737  1.00  0.00    -0.354 N 
ATOM     46  C   UNL A   1      41.604  28.639  32.976  1.00  0.00     0.074 A 
ATOM     47  C   UNL A   1      40.272  28.091  32.952  1.00  0.00     0.031 C 
ATOM     48  C   UNL A   1      41.869  27.252  26.585  1.00  0.00     0.029 A 
ATOM     49  C   UNL A   1      42.744  26.711  27.610  1.00  0.00     0.049 A 
ATOM     50  H   UNL A   1      42.897  27.370  29.591  1.00  0.00     0.167 HD
ATOM     51  C   UNL A   1      42.636  28.481  33.849  1.00  0.00     0.034 A 
ATOM     52  C   UNL A   1      43.683  25.730  27.525  1.00  0.00     0.034 A 
ATOM     53  C   UNL A   1      43.790  29.249  33.433  1.00  0.00     0.049 A 
ATOM     54  C   UNL A   1      44.649  25.999  28.620  1.00  0.00     0.074 A 
ATOM     55  C   UNL A   1      44.030  30.596  33.233  1.00  0.00     0.029 A 
ATOM     56  N   UNL A   1      44.779  28.596  32.733  1.00  0.00    -0.354 N 
ATOM     57  N   UNL A   1      45.387  27.074  28.666  1.00  0.00    -0.248 NA
ATOM     58  C   UNL A   1      44.424  25.346  29.900  1.00  0.00     0.031 C 
ATOM     59  C   UNL A   1      44.805  30.657  32.034  1.00  0.00     0.029 A 
ATOM     60  C   UNL A   1      45.068  29.351  31.617  1.00  0.00     0.049 A 
ATOM     61  H   UNL A   1      45.203  27.743  32.983  1.00  0.00     0.167 HD
ATOM     62  C   UNL A   1      45.344  27.481  29.991  1.00  0.00     0.074 A 
ATOM     63  C   UNL A   1      44.813  26.328  30.720  1.00  0.00     0.031 C 
ATOM     64  C   UNL A   1      45.471  28.798  30.335  1.00  0.00     0.034 A 
BRANCH  51  65
ATOM     65  C   UNL A   1      42.725  27.392  34.886  1.00  0.00     0.023 A 
ATOM     66  C   UNL A   1      43.427  26.219  34.554  1.00  0.00     0.031 A 
ATOM     67  C   UNL A   1      41.949  27.336  36.067  1.00  0.00     0.131 A 
ATOM     68  C   UNL A   1      43.299  25.056  35.335  1.00  0.00     0.055 A 
ATOM     69  C   UNL A   1      41.872  26.197  36.873  1.00  0.00     0.041 A 
ATOM     70  F   UNL A   1      41.151  28.339  36.454  1.00  0.00    -0.206 F 
ATOM     71  C   UNL A   1      42.529  25.039  36.496  1.00  0.00     0.022 A 
BRANCH  68  72
ATOM     72  S   UNL A   1      44.050  23.522  34.734  1.00  0.00     0.124 S 
ATOM     73  O   UNL A   1      45.107  24.027  33.865  1.00  0.00    -0.237 OA
ATOM     74  O   UNL A   1      44.481  22.892  35.976  1.00  0.00    -0.237 OA
ATOM     75  O   UNL A   1      42.947  22.852  34.048  1.00  0.00    -0.744 OA
ENDBRANCH  68  72
ENDBRANCH  51  65
BRANCH  52  76
ATOM     76  C   UNL A   1      43.585  24.416  26.827  1.00  0.00     0.023 A 
ATOM     77  C   UNL A   1      42.620  23.446  27.181  1.00  0.00     0.031 A 
ATOM     78  C   UNL A   1      44.262  24.213  25.603  1.00  0.00     0.131 A 
ATOM     79  C   UNL A   1      42.355  22.351  26.323  1.00  0.00     0.055 A 
ATOM     80  C   UNL A   1      43.994  23.131  24.760  1.00  0.00     0.041 A 
ATOM     81  F   UNL A   1      45.143  25.114  25.138  1.00  0.00    -0.206 F 
ATOM     82  C   UNL A   1      43.028  22.202  25.110  1.00  0.00     0.022 A 
BRANCH  79  83
ATOM     83  S   UNL A   1      41.028  21.160  26.712  1.00  0.00     0.124 S 
ATOM     84  O   UNL A   1      39.959  21.589  25.819  1.00  0.00    -0.237 OA
ATOM     85  O   UNL A   1      41.651  19.876  26.408  1.00  0.00    -0.237 OA
ATOM     86  O   UNL A   1      40.773  21.391  28.135  1.00  0.00    -0.744 OA
ENDBRANCH  79  83
ENDBRANCH  52  76
BRANCH  64  87
ATOM     87  C   UNL A   1      45.885  29.780  29.250  1.00  0.00     0.023 A 
ATOM     88  C   UNL A   1      44.992  30.518  28.433  1.00  0.00     0.031 A 
ATOM     89  C   UNL A   1      47.257  30.053  29.114  1.00  0.00     0.131 A 
ATOM     90  C   UNL A   1      45.488  31.472  27.517  1.00  0.00     0.055 A 
ATOM     91  C   UNL A   1      47.741  31.011  28.223  1.00  0.00     0.041 A 
ATOM     92  F   UNL A   1      48.155  29.410  29.878  1.00  0.00    -0.206 F 
ATOM     93  C   UNL A   1      46.860  31.720  27.416  1.00  0.00     0.022 A 
BRANCH  90  94
ATOM     94  S   UNL A   1      44.353  32.408  26.435  1.00  0.00     0.124 S 
ATOM     95  O   UNL A   1      45.245  33.017  25.455  1.00  0.00    -0.237 OA
ATOM     96  O   UNL A   1      43.461  31.369  25.929  1.00  0.00    -0.237 OA
ATOM     97  O   UNL A   1      43.715  33.359  27.349  1.00  0.00    -0.744 OA
ENDBRANCH  90  94
ENDBRANCH  64  87
ENDBRANCH  38  39
ENDBRANCH  30  33
ENDBRANCH  28  29
ENDBRANCH  27  28
ENDBRANCH  26  27
ENDBRANCH  25  26
ENDBRANCH   1  25
TORSDOF 21
ENDMDL
MODEL 2
REMARK VINA RESULT:     -10.9      8.990     14.387
REMARK SMILES Cc1cc(C)n2ncc(C(=O)N(C)CCCC(=O)NCCCCCCNC(=O)c3ccc(-c4c5nc(c(-c6cc(S(=O)(=O)[O-])ccc6F)c6ccc([nH]6)c(-c6cc(S(=O)(=O)[O-])ccc6F)c6nc(c(-c7cc(S(=O)(=O)[O-])ccc7F)c7ccc4[nH]7)C=C6)C=C5)cc3)c2n1
REMARK SMILES IDX 21 1 20 2 19 3 17 4 18 5 16 7 15 8 14 9 12 10 13 11 10 12
REMARK SMILES IDX 11 13 9 14 1 15 2 16 3 17 93 18 4 19 92 20 5 21 6 22 7 23
REMARK SMILES IDX 8 24 22 25 23 26 24 27 25 28 26 29 27 30 28 32 29 33 30 34
REMARK SMILES IDX 91 35 31 36 90 37 32 38 33 39 34 40 84 41 35 42 89 43 83 44
REMARK SMILES IDX 85 45 36 46 88 47 82 48 81 49 37 51 69 52 49 53 68 54 50 55
REMARK SMILES IDX 53 56 67 57 86 58 51 59 52 60 66 62 87 63 54 64 38 65 39 66
REMARK SMILES IDX 47 67 40 68 46 69 48 70 45 71 41 72 42 73 43 74 44 75 70 76
REMARK SMILES IDX 71 77 79 78 72 79 78 80 80 81 77 82 73 83 74 84 75 85 76 86
REMARK SMILES IDX 55 87 56 88 64 89 57 90 63 91 65 92 62 93 58 94 59 95 60 96
REMARK SMILES IDX 61 97
REMARK H PARENT 19 6 26 31 85 50 53 61
REMARK Flexibility Score: inf
ROOT
ATOM      1  C   UNL A   1      41.343  40.108  26.142  1.00  0.00     0.021 C 
ENDROOT
BRANCH   1   2
ATOM      2  C   UNL A   1      41.929  41.267  25.331  1.00  0.00     0.116 C 
BRANCH   2   3
ATOM      3  N   UNL A   1      42.883  42.020  26.106  1.00  0.00    -0.356 N 
ATOM      4  C   UNL A   1      44.150  42.418  25.856  1.00  0.00     0.220 C 
ATOM      5  O   UNL A   1      44.649  43.170  26.705  1.00  0.00    -0.275 OA
ATOM      6  H   UNL A   1      42.545  42.298  26.989  1.00  0.00     0.163 HD
BRANCH   4   7
ATOM      7  C   UNL A   1      44.934  42.121  24.586  1.00  0.00     0.102 C 
BRANCH   7   8
ATOM      8  C   UNL A   1      44.860  42.935  23.286  1.00  0.00     0.031 C 
BRANCH   8   9
ATOM      9  C   UNL A   1      45.984  43.094  22.250  1.00  0.00     0.120 C 
BRANCH   9  10
ATOM     10  N   UNL A   1      46.126  44.215  21.282  1.00  0.00    -0.342 N 
ATOM     11  C   UNL A   1      46.360  45.488  21.955  1.00  0.00     0.147 C 
BRANCH  10  12
ATOM     12  C   UNL A   1      46.193  44.004  19.889  1.00  0.00     0.259 C 
ATOM     13  O   UNL A   1      46.727  42.994  19.466  1.00  0.00    -0.269 OA
BRANCH  12  14
ATOM     14  C   UNL A   1      45.655  44.937  18.891  1.00  0.00     0.104 A 
ATOM     15  C   UNL A   1      40.838  43.799  18.943  1.00  0.00     0.067 C 
ATOM     16  C   UNL A   1      42.047  44.603  18.532  1.00  0.00     0.042 A 
ATOM     17  C   UNL A   1      41.777  45.829  17.723  1.00  0.00     0.047 A 
ATOM     18  N   UNL A   1      43.230  44.196  18.887  1.00  0.00    -0.233 NA
ATOM     19  C   UNL A   1      42.854  46.528  17.324  1.00  0.00     0.043 A 
ATOM     20  C   UNL A   1      44.304  44.975  18.528  1.00  0.00     0.168 A 
ATOM     21  C   UNL A   1      42.745  47.779  16.511  1.00  0.00     0.067 C 
ATOM     22  N   UNL A   1      44.133  46.100  17.714  1.00  0.00    -0.219 N 
ATOM     23  N   UNL A   1      45.321  46.688  17.435  1.00  0.00    -0.174 NA
ATOM     24  C   UNL A   1      46.201  46.028  18.187  1.00  0.00     0.151 A 
ENDBRANCH  12  14
ENDBRANCH  10  12
ENDBRANCH   9  10
ENDBRANCH   8   9
ENDBRANCH   7   8
ENDBRANCH   4   7
ENDBRANCH   2   3
ENDBRANCH   1   2
BRANCH   1  25
ATOM     25  C   UNL A   1      42.407  39.216  26.792  1.00  0.00     0.002 C 
BRANCH  25  26
ATOM     26  C   UNL A   1      42.509  39.321  28.323  1.00  0.00     0.002 C 
BRANCH  26  27
ATOM     27  C   UNL A   1      43.883  39.697  28.897  1.00  0.00     0.021 C 
BRANCH  27  28
ATOM     28  C   UNL A   1      44.707  38.497  29.334  1.00  0.00     0.116 C 
BRANCH  28  29
ATOM     29  N   UNL A   1      45.176  37.692  28.203  1.00  0.00    -0.352 N 
ATOM     30  C   UNL A   1      45.108  36.320  28.026  1.00  0.00     0.251 C 
ATOM     31  H   UNL A   1      45.596  38.195  27.468  1.00  0.00     0.163 HD
ATOM     32  O   UNL A   1      45.844  35.762  27.223  1.00  0.00    -0.269 OA
BRANCH  30  33
ATOM     33  C   UNL A   1      44.134  35.556  28.826  1.00  0.00     0.039 A 
ATOM     34  C   UNL A   1      44.511  34.733  29.889  1.00  0.00     0.014 A 
ATOM     35  C   UNL A   1      42.793  35.703  28.492  1.00  0.00     0.014 A 
ATOM     36  C   UNL A   1      43.510  34.115  30.639  1.00  0.00     0.010 A 
ATOM     37  C   UNL A   1      41.824  35.303  29.364  1.00  0.00     0.010 A 
ATOM     38  C   UNL A   1      42.165  34.420  30.371  1.00  0.00    -0.014 A 
BRANCH  38  39
ATOM     39  C   UNL A   1      41.069  33.885  31.165  1.00  0.00     0.031 A 
ATOM     40  C   UNL A   1      41.325  33.869  32.623  1.00  0.00     0.074 A 
ATOM     41  C   UNL A   1      39.846  33.626  30.648  1.00  0.00     0.049 A 
ATOM     42  N   UNL A   1      41.545  32.833  33.358  1.00  0.00    -0.248 NA
ATOM     43  C   UNL A   1      41.527  35.148  33.322  1.00  0.00     0.031 C 
ATOM     44  C   UNL A   1      39.350  33.846  29.283  1.00  0.00     0.029 A 
ATOM     45  N   UNL A   1      38.736  33.179  31.289  1.00  0.00    -0.354 N 
ATOM     46  C   UNL A   1      41.678  33.303  34.657  1.00  0.00     0.074 A 
ATOM     47  C   UNL A   1      41.859  34.728  34.545  1.00  0.00     0.031 C 
ATOM     48  C   UNL A   1      38.001  33.741  29.259  1.00  0.00     0.029 A 
ATOM     49  C   UNL A   1      37.553  33.272  30.559  1.00  0.00     0.049 A 
ATOM     50  H   UNL A   1      38.764  32.817  32.204  1.00  0.00     0.167 HD
ATOM     51  C   UNL A   1      41.402  32.503  35.722  1.00  0.00     0.034 A 
ATOM     52  C   UNL A   1      36.299  32.965  30.989  1.00  0.00     0.034 A 
ATOM     53  C   UNL A   1      41.312  31.116  35.320  1.00  0.00     0.049 A 
ATOM     54  C   UNL A   1      36.479  32.006  32.107  1.00  0.00     0.074 A 
ATOM     55  C   UNL A   1      42.194  30.220  34.744  1.00  0.00     0.029 A 
ATOM     56  N   UNL A   1      40.059  30.595  35.085  1.00  0.00    -0.354 N 
ATOM     57  N   UNL A   1      37.005  30.822  31.948  1.00  0.00    -0.248 NA
ATOM     58  C   UNL A   1      36.556  32.541  33.457  1.00  0.00     0.031 C 
ATOM     59  C   UNL A   1      41.419  29.514  33.772  1.00  0.00     0.029 A 
ATOM     60  C   UNL A   1      40.096  29.953  33.867  1.00  0.00     0.049 A 
ATOM     61  H   UNL A   1      39.278  30.668  35.679  1.00  0.00     0.167 HD
ATOM     62  C   UNL A   1      37.857  30.659  33.030  1.00  0.00     0.074 A 
ATOM     63  C   UNL A   1      37.468  31.710  33.973  1.00  0.00     0.031 C 
ATOM     64  C   UNL A   1      38.976  29.881  32.944  1.00  0.00     0.034 A 
BRANCH  51  65
ATOM     65  C   UNL A   1      40.892  32.991  37.054  1.00  0.00     0.023 A 
ATOM     66  C   UNL A   1      41.636  32.668  38.203  1.00  0.00     0.031 A 
ATOM     67  C   UNL A   1      39.601  33.522  37.278  1.00  0.00     0.131 A 
ATOM     68  C   UNL A   1      41.080  32.819  39.487  1.00  0.00     0.055 A 
ATOM     69  C   UNL A   1      39.076  33.726  38.557  1.00  0.00     0.041 A 
ATOM     70  F   UNL A   1      38.744  33.781  36.284  1.00  0.00    -0.206 F 
ATOM     71  C   UNL A   1      39.806  33.351  39.672  1.00  0.00     0.022 A 
BRANCH  68  72
ATOM     72  S   UNL A   1      42.001  32.180  40.909  1.00  0.00     0.124 S 
ATOM     73  O   UNL A   1      43.090  31.458  40.261  1.00  0.00    -0.237 OA
ATOM     74  O   UNL A   1      42.366  33.409  41.606  1.00  0.00    -0.237 OA
ATOM     75  O   UNL A   1      41.021  31.343  41.599  1.00  0.00    -0.744 OA
ENDBRANCH  68  72
ENDBRANCH  51  65
BRANCH  52  76
ATOM     76  C   UNL A   1      35.032  33.716  30.753  1.00  0.00     0.023 A 
ATOM     77  C   UNL A   1      34.616  34.773  31.595  1.00  0.00     0.031 A 
ATOM     78  C   UNL A   1      34.354  33.588  29.521  1.00  0.00     0.131 A 
ATOM     79  C   UNL A   1      33.583  35.652  31.186  1.00  0.00     0.055 A 
ATOM     80  C   UNL A   1      33.337  34.461  29.122  1.00  0.00     0.041 A 
ATOM     81  F   UNL A   1      34.721  32.667  28.617  1.00  0.00    -0.206 F 
ATOM     82  C   UNL A   1      32.957  35.506  29.948  1.00  0.00     0.022 A 
BRANCH  79  83
ATOM     83  S   UNL A   1      33.122  37.089  32.211  1.00  0.00     0.124 S 
ATOM     84  O   UNL A   1      34.281  37.229  33.084  1.00  0.00    -0.237 OA
ATOM     85  O   UNL A   1      32.926  38.140  31.218  1.00  0.00    -0.237 OA
ATOM     86  O   UNL A   1      31.897  36.648  32.879  1.00  0.00    -0.744 OA
ENDBRANCH  79  83
ENDBRANCH  52  76
BRANCH  64  87
ATOM     87  C   UNL A   1      39.147  29.015  31.704  1.00  0.00     0.023 A 
ATOM     88  C   UNL A   1      39.918  29.362  30.566  1.00  0.00     0.031 A 
ATOM     89  C   UNL A   1      38.579  27.730  31.730  1.00  0.00     0.131 A 
ATOM     90  C   UNL A   1      40.081  28.441  29.509  1.00  0.00     0.055 A 
ATOM     91  C   UNL A   1      38.759  26.815  30.692  1.00  0.00     0.041 A 
ATOM     92  F   UNL A   1      37.860  27.327  32.790  1.00  0.00    -0.206 F 
ATOM     93  C   UNL A   1      39.505  27.168  29.574  1.00  0.00     0.022 A 
BRANCH  90  94
ATOM     94  S   UNL A   1      41.045  28.883  28.023  1.00  0.00     0.124 S 
ATOM     95  O   UNL A   1      40.020  29.139  27.017  1.00  0.00    -0.237 OA
ATOM     96  O   UNL A   1      41.807  30.047  28.469  1.00  0.00    -0.237 OA
ATOM     97  O   UNL A   1      41.856  27.690  27.773  1.00  0.00    -0.744 OA
ENDBRANCH  90  94
ENDBRANCH  64  87
ENDBRANCH  38  39
ENDBRANCH  30  33
ENDBRANCH  28  29
ENDBRANCH  27  28
ENDBRANCH  26  27
ENDBRANCH  25  26
ENDBRANCH   1  25
TORSDOF 21
ENDMDL
MODEL 3
REMARK VINA RESULT:     -10.9      3.624      8.129
REMARK SMILES Cc1cc(C)n2ncc(C(=O)N(C)CCCC(=O)NCCCCCCNC(=O)c3ccc(-c4c5nc(c(-c6cc(S(=O)(=O)[O-])ccc6F)c6ccc([nH]6)c(-c6cc(S(=O)(=O)[O-])ccc6F)c6nc(c(-c7cc(S(=O)(=O)[O-])ccc7F)c7ccc4[nH]7)C=C6)C=C5)cc3)c2n1
REMARK SMILES IDX 21 1 20 2 19 3 17 4 18 5 16 7 15 8 14 9 12 10 13 11 10 12
REMARK SMILES IDX 11 13 9 14 1 15 2 16 3 17 93 18 4 19 92 20 5 21 6 22 7 23
REMARK SMILES IDX 8 24 22 25 23 26 24 27 25 28 26 29 27 30 28 32 29 33 30 34
REMARK SMILES IDX 91 35 31 36 90 37 32 38 33 39 34 40 84 41 35 42 89 43 83 44
REMARK SMILES IDX 85 45 36 46 88 47 82 48 81 49 37 51 69 52 49 53 68 54 50 55
REMARK SMILES IDX 53 56 67 57 86 58 51 59 52 60 66 62 87 63 54 64 38 65 39 66
REMARK SMILES IDX 47 67 40 68 46 69 48 70 45 71 41 72 42 73 43 74 44 75 70 76
REMARK SMILES IDX 71 77 79 78 72 79 78 80 80 81 77 82 73 83 74 84 75 85 76 86
REMARK SMILES IDX 55 87 56 88 64 89 57 90 63 91 65 92 62 93 58 94 59 95 60 96
REMARK SMILES IDX 61 97
REMARK H PARENT 19 6 26 31 85 50 53 61
REMARK Flexibility Score: inf
ROOT
ATOM      1  C   UNL A   1      36.293  21.723  24.357  1.00  0.00     0.021 C 
ENDROOT
BRANCH   1   2
ATOM      2  C   UNL A   1      35.700  20.938  25.530  1.00  0.00     0.116 C 
BRANCH   2   3
ATOM      3  N   UNL A   1      35.096  19.707  25.085  1.00  0.00    -0.356 N 
ATOM      4  C   UNL A   1      33.893  19.428  24.536  1.00  0.00     0.220 C 
ATOM      5  O   UNL A   1      33.742  18.260  24.151  1.00  0.00    -0.275 OA
ATOM      6  H   UNL A   1      35.673  18.917  25.203  1.00  0.00     0.163 HD
BRANCH   4   7
ATOM      7  C   UNL A   1      32.796  20.443  24.251  1.00  0.00     0.102 C 
BRANCH   7   8
ATOM      8  C   UNL A   1      31.964  21.174  25.313  1.00  0.00     0.031 C 
BRANCH   8   9
ATOM      9  C   UNL A   1      32.447  22.326  26.209  1.00  0.00     0.120 C 
BRANCH   9  10
ATOM     10  N   UNL A   1      32.355  23.777  25.890  1.00  0.00    -0.342 N 
ATOM     11  C   UNL A   1      33.544  24.256  25.193  1.00  0.00     0.147 C 
BRANCH  10  12
ATOM     12  C   UNL A   1      31.176  24.521  26.098  1.00  0.00     0.259 C 
ATOM     13  O   UNL A   1      30.517  24.322  27.104  1.00  0.00    -0.269 OA
BRANCH  12  14
ATOM     14  C   UNL A   1      30.672  25.539  25.168  1.00  0.00     0.104 A 
ATOM     15  C   UNL A   1      32.415  29.705  27.195  1.00  0.00     0.067 C 
ATOM     16  C   UNL A   1      31.719  28.891  26.132  1.00  0.00     0.042 A 
ATOM     17  C   UNL A   1      31.336  29.624  24.889  1.00  0.00     0.047 A 
ATOM     18  N   UNL A   1      31.490  27.629  26.349  1.00  0.00    -0.233 NA
ATOM     19  C   UNL A   1      30.684  28.910  23.954  1.00  0.00     0.043 A 
ATOM     20  C   UNL A   1      30.890  26.911  25.341  1.00  0.00     0.168 A 
ATOM     21  C   UNL A   1      30.237  29.503  22.655  1.00  0.00     0.067 C 
ATOM     22  N   UNL A   1      30.444  27.544  24.177  1.00  0.00    -0.219 N 
ATOM     23  N   UNL A   1      29.834  26.667  23.345  1.00  0.00    -0.174 NA
ATOM     24  C   UNL A   1      30.033  25.479  23.915  1.00  0.00     0.151 A 
ENDBRANCH  12  14
ENDBRANCH  10  12
ENDBRANCH   9  10
ENDBRANCH   8   9
ENDBRANCH   7   8
ENDBRANCH   4   7
ENDBRANCH   2   3
ENDBRANCH   1   2
BRANCH   1  25
ATOM     25  C   UNL A   1      37.320  22.778  24.783  1.00  0.00     0.002 C 
BRANCH  25  26
ATOM     26  C   UNL A   1      38.509  22.247  25.602  1.00  0.00     0.002 C 
BRANCH  26  27
ATOM     27  C   UNL A   1      38.937  23.084  26.817  1.00  0.00     0.021 C 
BRANCH  27  28
ATOM     28  C   UNL A   1      39.026  24.574  26.527  1.00  0.00     0.116 C 
BRANCH  28  29
ATOM     29  N   UNL A   1      40.248  24.935  25.803  1.00  0.00    -0.352 N 
ATOM     30  C   UNL A   1      41.003  26.092  25.897  1.00  0.00     0.251 C 
ATOM     31  H   UNL A   1      40.579  24.264  25.163  1.00  0.00     0.163 HD
ATOM     32  O   UNL A   1      41.771  26.407  24.998  1.00  0.00    -0.269 OA
BRANCH  30  33
ATOM     33  C   UNL A   1      40.858  26.930  27.102  1.00  0.00     0.039 A 
ATOM     34  C   UNL A   1      41.081  26.441  28.392  1.00  0.00     0.014 A 
ATOM     35  C   UNL A   1      40.505  28.259  26.906  1.00  0.00     0.014 A 
ATOM     36  C   UNL A   1      41.000  27.331  29.463  1.00  0.00     0.010 A 
ATOM     37  C   UNL A   1      40.665  29.165  27.912  1.00  0.00     0.010 A 
ATOM     38  C   UNL A   1      40.801  28.697  29.207  1.00  0.00    -0.014 A 
BRANCH  38  39
ATOM     39  C   UNL A   1      40.792  29.698  30.262  1.00  0.00     0.031 A 
ATOM     40  C   UNL A   1      39.484  30.365  30.457  1.00  0.00     0.074 A 
ATOM     41  C   UNL A   1      41.816  29.861  31.130  1.00  0.00     0.049 A 
ATOM     42  N   UNL A   1      39.181  31.579  30.150  1.00  0.00    -0.248 NA
ATOM     43  C   UNL A   1      38.332  29.554  30.884  1.00  0.00     0.031 C 
ATOM     44  C   UNL A   1      43.067  29.098  31.244  1.00  0.00     0.029 A 
ATOM     45  N   UNL A   1      41.905  30.716  32.181  1.00  0.00    -0.354 N 
ATOM     46  C   UNL A   1      37.869  31.765  30.562  1.00  0.00     0.074 A 
ATOM     47  C   UNL A   1      37.343  30.448  30.815  1.00  0.00     0.031 C 
ATOM     48  C   UNL A   1      43.673  29.377  32.420  1.00  0.00     0.029 A 
ATOM     49  C   UNL A   1      42.956  30.465  33.061  1.00  0.00     0.049 A 
ATOM     50  H   UNL A   1      41.273  31.459  32.312  1.00  0.00     0.167 HD
ATOM     51  C   UNL A   1      37.403  33.005  30.874  1.00  0.00     0.034 A 
ATOM     52  C   UNL A   1      43.225  31.121  34.223  1.00  0.00     0.034 A 
ATOM     53  C   UNL A   1      38.305  34.033  30.400  1.00  0.00     0.049 A 
ATOM     54  C   UNL A   1      42.591  32.457  34.089  1.00  0.00     0.074 A 
ATOM     55  C   UNL A   1      38.768  34.408  29.153  1.00  0.00     0.029 A 
ATOM     56  N   UNL A   1      39.207  34.560  31.296  1.00  0.00    -0.354 N 
ATOM     57  N   UNL A   1      42.963  33.332  33.195  1.00  0.00    -0.248 NA
ATOM     58  C   UNL A   1      41.234  32.619  34.588  1.00  0.00     0.031 C 
ATOM     59  C   UNL A   1      40.159  34.676  29.342  1.00  0.00     0.029 A 
ATOM     60  C   UNL A   1      40.449  34.536  30.701  1.00  0.00     0.049 A 
ATOM     61  H   UNL A   1      39.003  34.894  32.200  1.00  0.00     0.167 HD
ATOM     62  C   UNL A   1      41.782  33.858  32.696  1.00  0.00     0.074 A 
ATOM     63  C   UNL A   1      40.755  33.449  33.656  1.00  0.00     0.031 C 
ATOM     64  C   UNL A   1      41.697  34.328  31.416  1.00  0.00     0.034 A 
BRANCH  51  65
ATOM     65  C   UNL A   1      36.318  33.287  31.882  1.00  0.00     0.023 A 
ATOM     66  C   UNL A   1      35.171  33.972  31.442  1.00  0.00     0.031 A 
ATOM     67  C   UNL A   1      36.461  33.152  33.282  1.00  0.00     0.131 A 
ATOM     68  C   UNL A   1      34.268  34.532  32.363  1.00  0.00     0.055 A 
ATOM     69  C   UNL A   1      35.530  33.658  34.193  1.00  0.00     0.041 A 
ATOM     70  F   UNL A   1      37.548  32.614  33.847  1.00  0.00    -0.206 F 
ATOM     71  C   UNL A   1      34.438  34.375  33.737  1.00  0.00     0.022 A 
BRANCH  68  72
ATOM     72  S   UNL A   1      32.936  35.587  31.739  1.00  0.00     0.124 S 
ATOM     73  O   UNL A   1      31.827  35.218  32.612  1.00  0.00    -0.237 OA
ATOM     74  O   UNL A   1      33.494  36.921  31.933  1.00  0.00    -0.237 OA
ATOM     75  O   UNL A   1      32.798  35.169  30.345  1.00  0.00    -0.744 OA
ENDBRANCH  68  72
ENDBRANCH  51  65
BRANCH  52  76
ATOM     76  C   UNL A   1      43.647  30.545  35.532  1.00  0.00     0.023 A 
ATOM     77  C   UNL A   1      43.339  29.217  35.904  1.00  0.00     0.031 A 
ATOM     78  C   UNL A   1      44.613  31.211  36.319  1.00  0.00     0.131 A 
ATOM     79  C   UNL A   1      43.996  28.607  37.001  1.00  0.00     0.055 A 
ATOM     80  C   UNL A   1      45.259  30.604  37.399  1.00  0.00     0.041 A 
ATOM     81  F   UNL A   1      45.033  32.447  36.006  1.00  0.00    -0.206 F 
ATOM     82  C   UNL A   1      44.964  29.293  37.737  1.00  0.00     0.022 A 
BRANCH  79  83
ATOM     83  S   UNL A   1      43.694  26.856  37.414  1.00  0.00     0.124 S 
ATOM     84  O   UNL A   1      44.300  26.743  38.736  1.00  0.00    -0.237 OA
ATOM     85  O   UNL A   1      42.239  26.761  37.358  1.00  0.00    -0.237 OA
ATOM     86  O   UNL A   1      44.392  26.132  36.352  1.00  0.00    -0.744 OA
ENDBRANCH  79  83
ENDBRANCH  52  76
BRANCH  64  87
ATOM     87  C   UNL A   1      42.988  34.469  30.623  1.00  0.00     0.023 A 
ATOM     88  C   UNL A   1      43.476  33.525  29.684  1.00  0.00     0.031 A 
ATOM     89  C   UNL A   1      43.700  35.672  30.755  1.00  0.00     0.131 A 
ATOM     90  C   UNL A   1      44.642  33.801  28.938  1.00  0.00     0.055 A 
ATOM     91  C   UNL A   1      44.840  35.951  30.000  1.00  0.00     0.041 A 
ATOM     92  F   UNL A   1      43.276  36.622  31.605  1.00  0.00    -0.206 F 
ATOM     93  C   UNL A   1      45.320  35.014  29.093  1.00  0.00     0.022 A 
BRANCH  90  94
ATOM     94  S   UNL A   1      45.302  32.583  27.748  1.00  0.00     0.124 S 
ATOM     95  O   UNL A   1      44.186  32.361  26.835  1.00  0.00    -0.237 OA
ATOM     96  O   UNL A   1      46.459  33.277  27.187  1.00  0.00    -0.237 OA
ATOM     97  O   UNL A   1      45.638  31.431  28.588  1.00  0.00    -0.744 OA
ENDBRANCH  90  94
ENDBRANCH  64  87
ENDBRANCH  38  39
ENDBRANCH  30  33
ENDBRANCH  28  29
ENDBRANCH  27  28
ENDBRANCH  26  27
ENDBRANCH  25  26
ENDBRANCH   1  25
TORSDOF 21
ENDMDL
