MODEL 1
REMARK VINA RESULT:     -12.4      0.000      0.000
REMARK SMILES Cc1ccc(-n2nc(C(=O)NCCCCCCNC(=O)c3ccc(-c4c5nc(c(-c6cc(S(=O)(=O)[O-])ccc6F)c6ccc([nH]6)c(-c6cc(S(=O)(=O)[O-])ccc6F)c6nc(c(-c7cc(S(=O)(=O)[O-])ccc7F)c7ccc4[nH]7)C=C6)C=C5)cc3)c(C)c(C#N)c2=O)cc1Cl
REMARK SMILES IDX 15 1 14 2 13 3 12 4 11 5 9 6 10 7 8 9 6 10 7 11 89 12 86 13
REMARK SMILES IDX 90 14 84 15 85 16 5 17 1 18 2 19 3 20 92 21 4 22 91 23 93 24
REMARK SMILES IDX 87 25 88 26 16 27 17 28 18 29 19 30 20 32 21 33 22 34 83 35
REMARK SMILES IDX 23 36 82 37 24 38 25 39 26 40 76 41 27 42 81 43 75 44 77 45
REMARK SMILES IDX 28 46 80 47 74 48 73 49 29 51 61 52 41 53 60 54 42 55 45 56
REMARK SMILES IDX 59 57 78 58 43 59 44 60 58 62 79 63 46 64 30 65 31 66 39 67
REMARK SMILES IDX 32 68 38 69 40 70 37 71 33 72 34 73 35 74 36 75 62 76 63 77
REMARK SMILES IDX 71 78 64 79 70 80 72 81 69 82 65 83 66 84 67 85 68 86 47 87
REMARK SMILES IDX 48 88 56 89 49 90 55 91 57 92 54 93 50 94 51 95 52 96 53 97
REMARK H PARENT 11 8 18 31 77 50 45 61
REMARK Flexibility Score: inf
ROOT
ATOM      1  C   UNL A   1      31.607  30.513  26.444  1.00  0.00     0.002 C 
ENDROOT
BRANCH   1   2
ATOM      2  C   UNL A   1      32.843  29.844  27.063  1.00  0.00     0.002 C 
BRANCH   2   3
ATOM      3  C   UNL A   1      32.716  28.330  27.244  1.00  0.00     0.021 C 
BRANCH   3   4
ATOM      4  C   UNL A   1      31.431  27.797  26.626  1.00  0.00     0.116 C 
BRANCH   4   5
ATOM      5  N   UNL A   1      31.215  26.413  26.909  1.00  0.00    -0.351 N 
ATOM      6  C   UNL A   1      31.654  25.222  26.423  1.00  0.00     0.272 C 
ATOM      7  O   UNL A   1      31.479  24.295  27.228  1.00  0.00    -0.267 OA
ATOM      8  H   UNL A   1      30.582  26.290  27.652  1.00  0.00     0.163 HD
BRANCH   6   9
ATOM      9  C   UNL A   1      32.279  24.839  25.050  1.00  0.00     0.153 A 
ATOM     10  N   UNL A   1      33.826  23.328  24.224  1.00  0.00    -0.195 N 
ATOM     11  N   UNL A   1      33.054  23.800  25.224  1.00  0.00    -0.159 NA
ATOM     12  C   UNL A   1      33.791  23.799  22.929  1.00  0.00     0.289 A 
ATOM     13  C   UNL A   1      32.835  24.892  22.690  1.00  0.00     0.124 A 
ATOM     14  O   UNL A   1      34.466  23.363  21.998  1.00  0.00    -0.266 OA
ATOM     15  C   UNL A   1      32.124  25.472  23.684  1.00  0.00     0.006 A 
ATOM     16  C   UNL A   1      31.267  26.645  23.340  1.00  0.00     0.048 C 
BRANCH  10  17
ATOM     17  C   UNL A   1      34.760  22.336  24.606  1.00  0.00     0.070 A 
ATOM     18  C   UNL A   1      37.847  19.382  25.123  1.00  0.00     0.046 C 
ATOM     19  C   UNL A   1      36.737  20.387  25.023  1.00  0.00    -0.032 A 
ATOM     20  C   UNL A   1      37.056  21.746  25.109  1.00  0.00     0.007 A 
ATOM     21  C   UNL A   1      35.400  20.017  24.790  1.00  0.00     0.046 A 
ATOM     22  C   UNL A   1      36.079  22.708  24.890  1.00  0.00     0.029 A 
ATOM     23  C   UNL A   1      34.405  20.986  24.622  1.00  0.00     0.049 A 
ATOM     24  Cl  UNL A   1      34.948  18.356  24.631  1.00  0.00    -0.084 Cl
ENDBRANCH  10  17
BRANCH  13  25
ATOM     25  C   UNL A   1      32.743  25.301  21.322  1.00  0.00     0.105 C 
ATOM     26  N   UNL A   1      32.727  25.618  20.211  1.00  0.00    -0.192 NA
ENDBRANCH  13  25
ENDBRANCH   6   9
ENDBRANCH   4   5
ENDBRANCH   3   4
ENDBRANCH   2   3
ENDBRANCH   1   2
BRANCH   1  27
ATOM     27  C   UNL A   1      31.457  32.001  26.762  1.00  0.00     0.021 C 
BRANCH  27  28
ATOM     28  C   UNL A   1      32.748  32.661  27.228  1.00  0.00     0.116 C 
BRANCH  28  29
ATOM     29  N   UNL A   1      32.531  34.053  27.591  1.00  0.00    -0.352 N 
ATOM     30  C   UNL A   1      33.033  34.765  28.649  1.00  0.00     0.251 C 
ATOM     31  H   UNL A   1      31.936  34.556  26.990  1.00  0.00     0.163 HD
ATOM     32  O   UNL A   1      32.522  35.835  28.963  1.00  0.00    -0.269 OA
BRANCH  30  33
ATOM     33  C   UNL A   1      34.179  34.224  29.403  1.00  0.00     0.039 A 
ATOM     34  C   UNL A   1      33.942  33.345  30.461  1.00  0.00     0.014 A 
ATOM     35  C   UNL A   1      35.484  34.591  29.062  1.00  0.00     0.014 A 
ATOM     36  C   UNL A   1      35.025  32.796  31.146  1.00  0.00     0.010 A 
ATOM     37  C   UNL A   1      36.561  33.977  29.689  1.00  0.00     0.010 A 
ATOM     38  C   UNL A   1      36.341  33.084  30.747  1.00  0.00    -0.014 A 
BRANCH  38  39
ATOM     39  C   UNL A   1      37.499  32.479  31.447  1.00  0.00     0.031 A 
ATOM     40  C   UNL A   1      38.243  31.338  30.813  1.00  0.00     0.074 A 
ATOM     41  C   UNL A   1      37.859  32.942  32.660  1.00  0.00     0.049 A 
ATOM     42  N   UNL A   1      39.261  30.660  31.278  1.00  0.00    -0.248 NA
ATOM     43  C   UNL A   1      37.771  30.883  29.496  1.00  0.00     0.031 C 
ATOM     44  C   UNL A   1      37.191  34.030  33.379  1.00  0.00     0.029 A 
ATOM     45  N   UNL A   1      38.875  32.565  33.500  1.00  0.00    -0.354 N 
ATOM     46  C   UNL A   1      39.547  29.701  30.314  1.00  0.00     0.074 A 
ATOM     47  C   UNL A   1      38.558  29.841  29.269  1.00  0.00     0.031 C 
ATOM     48  C   UNL A   1      37.841  34.259  34.530  1.00  0.00     0.029 A 
ATOM     49  C   UNL A   1      38.936  33.303  34.659  1.00  0.00     0.049 A 
ATOM     50  H   UNL A   1      39.502  31.834  33.293  1.00  0.00     0.167 HD
ATOM     51  C   UNL A   1      40.558  28.801  30.295  1.00  0.00     0.034 A 
ATOM     52  C   UNL A   1      39.773  33.215  35.711  1.00  0.00     0.034 A 
ATOM     53  C   UNL A   1      41.544  28.687  31.339  1.00  0.00     0.049 A 
ATOM     54  C   UNL A   1      40.862  32.177  35.690  1.00  0.00     0.074 A 
ATOM     55  C   UNL A   1      42.640  27.845  31.392  1.00  0.00     0.029 A 
ATOM     56  N   UNL A   1      41.548  29.423  32.516  1.00  0.00    -0.354 N 
ATOM     57  N   UNL A   1      41.142  31.300  34.754  1.00  0.00    -0.248 NA
ATOM     58  C   UNL A   1      41.746  32.113  36.860  1.00  0.00     0.031 C 
ATOM     59  C   UNL A   1      43.257  28.012  32.634  1.00  0.00     0.029 A 
ATOM     60  C   UNL A   1      42.601  29.021  33.323  1.00  0.00     0.049 A 
ATOM     61  H   UNL A   1      40.899  30.127  32.744  1.00  0.00     0.167 HD
ATOM     62  C   UNL A   1      42.247  30.590  35.215  1.00  0.00     0.074 A 
ATOM     63  C   UNL A   1      42.588  31.149  36.508  1.00  0.00     0.031 C 
ATOM     64  C   UNL A   1      42.918  29.573  34.618  1.00  0.00     0.034 A 
BRANCH  51  65
ATOM     65  C   UNL A   1      40.638  27.859  29.121  1.00  0.00     0.023 A 
ATOM     66  C   UNL A   1      41.527  28.078  28.055  1.00  0.00     0.031 A 
ATOM     67  C   UNL A   1      39.825  26.713  29.080  1.00  0.00     0.131 A 
ATOM     68  C   UNL A   1      41.552  27.187  26.972  1.00  0.00     0.055 A 
ATOM     69  C   UNL A   1      39.904  25.793  28.033  1.00  0.00     0.041 A 
ATOM     70  F   UNL A   1      38.942  26.465  30.060  1.00  0.00    -0.206 F 
ATOM     71  C   UNL A   1      40.765  26.032  26.966  1.00  0.00     0.022 A 
BRANCH  68  72
ATOM     72  S   UNL A   1      42.561  27.606  25.525  1.00  0.00     0.124 S 
ATOM     73  O   UNL A   1      42.320  26.458  24.655  1.00  0.00    -0.237 OA
ATOM     74  O   UNL A   1      41.979  28.871  25.090  1.00  0.00    -0.237 OA
ATOM     75  O   UNL A   1      43.915  27.698  26.067  1.00  0.00    -0.744 OA
ENDBRANCH  68  72
ENDBRANCH  51  65
BRANCH  52  76
ATOM     76  C   UNL A   1      39.597  34.136  36.869  1.00  0.00     0.023 A 
ATOM     77  C   UNL A   1      39.047  33.685  38.078  1.00  0.00     0.031 A 
ATOM     78  C   UNL A   1      40.020  35.475  36.792  1.00  0.00     0.131 A 
ATOM     79  C   UNL A   1      38.930  34.570  39.163  1.00  0.00     0.055 A 
ATOM     80  C   UNL A   1      39.937  36.339  37.883  1.00  0.00     0.041 A 
ATOM     81  F   UNL A   1      40.564  35.950  35.659  1.00  0.00    -0.206 F 
ATOM     82  C   UNL A   1      39.386  35.889  39.078  1.00  0.00     0.022 A 
BRANCH  79  83
ATOM     83  S   UNL A   1      38.163  33.976  40.695  1.00  0.00     0.124 S 
ATOM     84  O   UNL A   1      37.497  35.179  41.179  1.00  0.00    -0.237 OA
ATOM     85  O   UNL A   1      37.293  32.911  40.209  1.00  0.00    -0.237 OA
ATOM     86  O   UNL A   1      39.302  33.528  41.494  1.00  0.00    -0.744 OA
ENDBRANCH  79  83
ENDBRANCH  52  76
BRANCH  64  87
ATOM     87  C   UNL A   1      44.105  28.996  35.347  1.00  0.00     0.023 A 
ATOM     88  C   UNL A   1      43.954  27.973  36.298  1.00  0.00     0.031 A 
ATOM     89  C   UNL A   1      45.406  29.428  35.036  1.00  0.00     0.131 A 
ATOM     90  C   UNL A   1      45.086  27.433  36.925  1.00  0.00     0.055 A 
ATOM     91  C   UNL A   1      46.531  28.848  35.623  1.00  0.00     0.041 A 
ATOM     92  F   UNL A   1      45.605  30.401  34.131  1.00  0.00    -0.206 F 
ATOM     93  C   UNL A   1      46.374  27.849  36.577  1.00  0.00     0.022 A 
BRANCH  90  94
ATOM     94  S   UNL A   1      44.850  26.202  38.235  1.00  0.00     0.124 S 
ATOM     95  O   UNL A   1      45.055  24.950  37.512  1.00  0.00    -0.237 OA
ATOM     96  O   UNL A   1      45.888  26.562  39.195  1.00  0.00    -0.237 OA
ATOM     97  O   UNL A   1      43.480  26.440  38.687  1.00  0.00    -0.744 OA
ENDBRANCH  90  94
ENDBRANCH  64  87
ENDBRANCH  38  39
ENDBRANCH  30  33
ENDBRANCH  28  29
ENDBRANCH  27  28
ENDBRANCH   1  27
TORSDOF 18
ENDMDL
MODEL 2
REMARK VINA RESULT:     -12.3      5.491      8.742
REMARK SMILES Cc1ccc(-n2nc(C(=O)NCCCCCCNC(=O)c3ccc(-c4c5nc(c(-c6cc(S(=O)(=O)[O-])ccc6F)c6ccc([nH]6)c(-c6cc(S(=O)(=O)[O-])ccc6F)c6nc(c(-c7cc(S(=O)(=O)[O-])ccc7F)c7ccc4[nH]7)C=C6)C=C5)cc3)c(C)c(C#N)c2=O)cc1Cl
REMARK SMILES IDX 15 1 14 2 13 3 12 4 11 5 9 6 10 7 8 9 6 10 7 11 89 12 86 13
REMARK SMILES IDX 90 14 84 15 85 16 5 17 1 18 2 19 3 20 92 21 4 22 91 23 93 24
REMARK SMILES IDX 87 25 88 26 16 27 17 28 18 29 19 30 20 32 21 33 22 34 83 35
REMARK SMILES IDX 23 36 82 37 24 38 25 39 26 40 76 41 27 42 81 43 75 44 77 45
REMARK SMILES IDX 28 46 80 47 74 48 73 49 29 51 61 52 41 53 60 54 42 55 45 56
REMARK SMILES IDX 59 57 78 58 43 59 44 60 58 62 79 63 46 64 30 65 31 66 39 67
REMARK SMILES IDX 32 68 38 69 40 70 37 71 33 72 34 73 35 74 36 75 62 76 63 77
REMARK SMILES IDX 71 78 64 79 70 80 72 81 69 82 65 83 66 84 67 85 68 86 47 87
REMARK SMILES IDX 48 88 56 89 49 90 55 91 57 92 54 93 50 94 51 95 52 96 53 97
REMARK H PARENT 11 8 18 31 77 50 45 61
REMARK Flexibility Score: inf
ROOT
ATOM      1  C   UNL A   1      34.853  21.629  24.983  1.00  0.00     0.002 C 
ENDROOT
BRANCH   1   2
ATOM      2  C   UNL A   1      35.010  22.103  26.435  1.00  0.00     0.002 C 
BRANCH   2   3
ATOM      3  C   UNL A   1      34.042  21.447  27.422  1.00  0.00     0.021 C 
BRANCH   3   4
ATOM      4  C   UNL A   1      33.156  22.477  28.107  1.00  0.00     0.116 C 
BRANCH   4   5
ATOM      5  N   UNL A   1      31.862  22.578  27.508  1.00  0.00    -0.351 N 
ATOM      6  C   UNL A   1      31.348  23.019  26.330  1.00  0.00     0.272 C 
ATOM      7  O   UNL A   1      30.215  22.563  26.114  1.00  0.00    -0.267 OA
ATOM      8  H   UNL A   1      31.159  22.237  28.106  1.00  0.00     0.163 HD
BRANCH   6   9
ATOM      9  C   UNL A   1      31.913  24.006  25.267  1.00  0.00     0.153 A 
ATOM     10  N   UNL A   1      32.660  26.195  25.174  1.00  0.00    -0.195 N 
ATOM     11  N   UNL A   1      32.255  25.113  25.872  1.00  0.00    -0.159 NA
ATOM     12  C   UNL A   1      32.862  26.207  23.811  1.00  0.00     0.289 A 
ATOM     13  C   UNL A   1      32.594  24.929  23.131  1.00  0.00     0.124 A 
ATOM     14  O   UNL A   1      33.257  27.174  23.161  1.00  0.00    -0.266 OA
ATOM     15  C   UNL A   1      32.080  23.854  23.770  1.00  0.00     0.006 A 
ATOM     16  C   UNL A   1      31.748  22.648  22.957  1.00  0.00     0.048 C 
BRANCH  10  17
ATOM     17  C   UNL A   1      32.800  27.380  25.935  1.00  0.00     0.070 A 
ATOM     18  C   UNL A   1      33.276  31.305  27.636  1.00  0.00     0.046 C 
ATOM     19  C   UNL A   1      33.119  29.902  27.126  1.00  0.00    -0.032 A 
ATOM     20  C   UNL A   1      31.869  29.502  26.643  1.00  0.00     0.007 A 
ATOM     21  C   UNL A   1      34.192  28.995  27.065  1.00  0.00     0.046 A 
ATOM     22  C   UNL A   1      31.717  28.259  26.042  1.00  0.00     0.029 A 
ATOM     23  C   UNL A   1      34.027  27.723  26.507  1.00  0.00     0.049 A 
ATOM     24  Cl  UNL A   1      35.772  29.442  27.606  1.00  0.00    -0.084 Cl
ENDBRANCH  10  17
BRANCH  13  25
ATOM     25  C   UNL A   1      32.903  24.935  21.734  1.00  0.00     0.105 C 
ATOM     26  N   UNL A   1      33.178  24.886  20.612  1.00  0.00    -0.192 NA
ENDBRANCH  13  25
ENDBRANCH   6   9
ENDBRANCH   4   5
ENDBRANCH   3   4
ENDBRANCH   2   3
ENDBRANCH   1   2
BRANCH   1  27
ATOM     27  C   UNL A   1      35.541  22.512  23.942  1.00  0.00     0.021 C 
BRANCH  27  28
ATOM     28  C   UNL A   1      37.059  22.384  23.937  1.00  0.00     0.116 C 
BRANCH  28  29
ATOM     29  N   UNL A   1      37.499  21.257  24.745  1.00  0.00    -0.352 N 
ATOM     30  C   UNL A   1      38.557  21.169  25.612  1.00  0.00     0.251 C 
ATOM     31  H   UNL A   1      36.960  20.439  24.655  1.00  0.00     0.163 HD
ATOM     32  O   UNL A   1      38.951  20.070  25.985  1.00  0.00    -0.269 OA
BRANCH  30  33
ATOM     33  C   UNL A   1      39.214  22.405  26.076  1.00  0.00     0.039 A 
ATOM     34  C   UNL A   1      40.550  22.357  26.474  1.00  0.00     0.014 A 
ATOM     35  C   UNL A   1      38.502  23.608  26.119  1.00  0.00     0.014 A 
ATOM     36  C   UNL A   1      41.187  23.531  26.870  1.00  0.00     0.010 A 
ATOM     37  C   UNL A   1      39.162  24.790  26.431  1.00  0.00     0.010 A 
ATOM     38  C   UNL A   1      40.508  24.760  26.824  1.00  0.00    -0.014 A 
BRANCH  38  39
ATOM     39  C   UNL A   1      41.185  26.020  27.210  1.00  0.00     0.031 A 
ATOM     40  C   UNL A   1      42.571  26.310  26.706  1.00  0.00     0.074 A 
ATOM     41  C   UNL A   1      40.562  26.885  28.033  1.00  0.00     0.049 A 
ATOM     42  N   UNL A   1      43.338  27.340  26.953  1.00  0.00    -0.248 NA
ATOM     43  C   UNL A   1      43.185  25.302  25.827  1.00  0.00     0.031 C 
ATOM     44  C   UNL A   1      39.225  26.693  28.602  1.00  0.00     0.029 A 
ATOM     45  N   UNL A   1      40.961  28.099  28.531  1.00  0.00    -0.354 N 
ATOM     46  C   UNL A   1      44.521  27.103  26.264  1.00  0.00     0.074 A 
ATOM     47  C   UNL A   1      44.397  25.804  25.642  1.00  0.00     0.031 C 
ATOM     48  C   UNL A   1      38.901  27.769  29.334  1.00  0.00     0.029 A 
ATOM     49  C   UNL A   1      40.022  28.704  29.333  1.00  0.00     0.049 A 
ATOM     50  H   UNL A   1      41.839  28.501  28.331  1.00  0.00     0.167 HD
ATOM     51  C   UNL A   1      45.603  27.909  26.144  1.00  0.00     0.034 A 
ATOM     52  C   UNL A   1      40.062  29.874  30.000  1.00  0.00     0.034 A 
ATOM     53  C   UNL A   1      45.702  29.207  26.760  1.00  0.00     0.049 A 
ATOM     54  C   UNL A   1      41.292  30.733  29.891  1.00  0.00     0.074 A 
ATOM     55  C   UNL A   1      46.731  30.126  26.658  1.00  0.00     0.029 A 
ATOM     56  N   UNL A   1      44.748  29.767  27.599  1.00  0.00    -0.354 N 
ATOM     57  N   UNL A   1      42.390  30.511  29.206  1.00  0.00    -0.248 NA
ATOM     58  C   UNL A   1      41.293  31.995  30.640  1.00  0.00     0.031 C 
ATOM     59  C   UNL A   1      46.439  31.201  27.500  1.00  0.00     0.029 A 
ATOM     60  C   UNL A   1      45.187  30.998  28.060  1.00  0.00     0.049 A 
ATOM     61  H   UNL A   1      43.887  29.351  27.832  1.00  0.00     0.167 HD
ATOM     62  C   UNL A   1      43.208  31.615  29.428  1.00  0.00     0.074 A 
ATOM     63  C   UNL A   1      42.471  32.506  30.302  1.00  0.00     0.031 C 
ATOM     64  C   UNL A   1      44.451  31.868  28.947  1.00  0.00     0.034 A 
BRANCH  51  65
ATOM     65  C   UNL A   1      46.770  27.403  25.337  1.00  0.00     0.023 A 
ATOM     66  C   UNL A   1      47.012  27.847  24.025  1.00  0.00     0.031 A 
ATOM     67  C   UNL A   1      47.667  26.476  25.897  1.00  0.00     0.131 A 
ATOM     68  C   UNL A   1      48.097  27.332  23.302  1.00  0.00     0.055 A 
ATOM     69  C   UNL A   1      48.785  26.020  25.197  1.00  0.00     0.041 A 
ATOM     70  F   UNL A   1      47.473  26.000  27.137  1.00  0.00    -0.206 F 
ATOM     71  C   UNL A   1      49.001  26.441  23.888  1.00  0.00     0.022 A 
BRANCH  68  72
ATOM     72  S   UNL A   1      48.261  27.771  21.551  1.00  0.00     0.124 S 
ATOM     73  O   UNL A   1      49.348  28.746  21.592  1.00  0.00    -0.237 OA
ATOM     74  O   UNL A   1      48.576  26.488  20.932  1.00  0.00    -0.237 OA
ATOM     75  O   UNL A   1      46.951  28.321  21.212  1.00  0.00    -0.744 OA
ENDBRANCH  68  72
ENDBRANCH  51  65
BRANCH  52  76
ATOM     76  C   UNL A   1      38.897  30.284  30.834  1.00  0.00     0.023 A 
ATOM     77  C   UNL A   1      37.974  31.235  30.375  1.00  0.00     0.031 A 
ATOM     78  C   UNL A   1      38.669  29.691  32.089  1.00  0.00     0.131 A 
ATOM     79  C   UNL A   1      36.866  31.571  31.170  1.00  0.00     0.055 A 
ATOM     80  C   UNL A   1      37.546  30.000  32.858  1.00  0.00     0.041 A 
ATOM     81  F   UNL A   1      39.518  28.766  32.567  1.00  0.00    -0.206 F 
ATOM     82  C   UNL A   1      36.638  30.948  32.400  1.00  0.00     0.022 A 
BRANCH  79  83
ATOM     83  S   UNL A   1      35.721  32.847  30.577  1.00  0.00     0.124 S 
ATOM     84  O   UNL A   1      35.968  32.824  29.141  1.00  0.00    -0.237 OA
ATOM     85  O   UNL A   1      34.431  32.328  31.017  1.00  0.00    -0.237 OA
ATOM     86  O   UNL A   1      36.170  34.054  31.269  1.00  0.00    -0.744 OA
ENDBRANCH  79  83
ENDBRANCH  52  76
BRANCH  64  87
ATOM     87  C   UNL A   1      45.102  33.169  29.341  1.00  0.00     0.023 A 
ATOM     88  C   UNL A   1      44.881  34.349  28.612  1.00  0.00     0.031 A 
ATOM     89  C   UNL A   1      45.897  33.241  30.499  1.00  0.00     0.131 A 
ATOM     90  C   UNL A   1      45.471  35.549  29.034  1.00  0.00     0.055 A 
ATOM     91  C   UNL A   1      46.437  34.448  30.944  1.00  0.00     0.041 A 
ATOM     92  F   UNL A   1      46.137  32.142  31.233  1.00  0.00    -0.206 F 
ATOM     93  C   UNL A   1      46.230  35.610  30.208  1.00  0.00     0.022 A 
BRANCH  90  94
ATOM     94  S   UNL A   1      45.268  37.027  28.005  1.00  0.00     0.124 S 
ATOM     95  O   UNL A   1      44.890  38.033  28.994  1.00  0.00    -0.237 OA
ATOM     96  O   UNL A   1      46.592  37.182  27.412  1.00  0.00    -0.237 OA
ATOM     97  O   UNL A   1      44.211  36.651  27.069  1.00  0.00    -0.744 OA
ENDBRANCH  90  94
ENDBRANCH  64  87
ENDBRANCH  38  39
ENDBRANCH  30  33
ENDBRANCH  28  29
ENDBRANCH  27  28
ENDBRANCH   1  27
TORSDOF 18
ENDMDL
MODEL 3
REMARK VINA RESULT:     -12.3      0.897      7.654
REMARK SMILES Cc1ccc(-n2nc(C(=O)NCCCCCCNC(=O)c3ccc(-c4c5nc(c(-c6cc(S(=O)(=O)[O-])ccc6F)c6ccc([nH]6)c(-c6cc(S(=O)(=O)[O-])ccc6F)c6nc(c(-c7cc(S(=O)(=O)[O-])ccc7F)c7ccc4[nH]7)C=C6)C=C5)cc3)c(C)c(C#N)c2=O)cc1Cl
REMARK SMILES IDX 15 1 14 2 13 3 12 4 11 5 9 6 10 7 8 9 6 10 7 11 89 12 86 13
REMARK SMILES IDX 90 14 84 15 85 16 5 17 1 18 2 19 3 20 92 21 4 22 91 23 93 24
REMARK SMILES IDX 87 25 88 26 16 27 17 28 18 29 19 30 20 32 21 33 22 34 83 35
REMARK SMILES IDX 23 36 82 37 24 38 25 39 26 40 76 41 27 42 81 43 75 44 77 45
REMARK SMILES IDX 28 46 80 47 74 48 73 49 29 51 61 52 41 53 60 54 42 55 45 56
REMARK SMILES IDX 59 57 78 58 43 59 44 60 58 62 79 63 46 64 30 65 31 66 39 67
REMARK SMILES IDX 32 68 38 69 40 70 37 71 33 72 34 73 35 74 36 75 62 76 63 77
REMARK SMILES IDX 71 78 64 79 70 80 72 81 69 82 65 83 66 84 67 85 68 86 47 87
REMARK SMILES IDX 48 88 56 89 49 90 55 91 57 92 54 93 50 94 51 95 52 96 53 97
REMARK H PARENT 11 8 18 31 77 50 45 61
REMARK Flexibility Score: inf
ROOT
ATOM      1  C   UNL A   1      31.749  30.571  26.312  1.00  0.00     0.002 C 
ENDROOT
BRANCH   1   2
ATOM      2  C   UNL A   1      32.958  29.821  26.890  1.00  0.00     0.002 C 
BRANCH   2   3
ATOM      3  C   UNL A   1      32.752  28.312  27.040  1.00  0.00     0.021 C 
BRANCH   3   4
ATOM      4  C   UNL A   1      31.368  27.886  26.572  1.00  0.00     0.116 C 
BRANCH   4   5
ATOM      5  N   UNL A   1      31.075  26.523  26.884  1.00  0.00    -0.351 N 
ATOM      6  C   UNL A   1      31.420  25.300  26.404  1.00  0.00     0.272 C 
ATOM      7  O   UNL A   1      31.215  24.398  27.229  1.00  0.00    -0.267 OA
ATOM      8  H   UNL A   1      30.461  26.452  27.650  1.00  0.00     0.163 HD
BRANCH   6   9
ATOM      9  C   UNL A   1      31.971  24.859  25.016  1.00  0.00     0.153 A 
ATOM     10  N   UNL A   1      32.944  22.984  24.067  1.00  0.00    -0.195 N 
ATOM     11  N   UNL A   1      32.315  23.599  25.090  1.00  0.00    -0.159 NA
ATOM     12  C   UNL A   1      33.174  23.565  22.838  1.00  0.00     0.289 A 
ATOM     13  C   UNL A   1      32.685  24.946  22.701  1.00  0.00     0.124 A 
ATOM     14  O   UNL A   1      33.720  23.012  21.884  1.00  0.00    -0.266 OA
ATOM     15  C   UNL A   1      32.152  25.639  23.732  1.00  0.00     0.006 A 
ATOM     16  C   UNL A   1      31.791  27.069  23.504  1.00  0.00     0.048 C 
BRANCH  10  17
ATOM     17  C   UNL A   1      33.437  21.690  24.358  1.00  0.00     0.070 A 
ATOM     18  C   UNL A   1      35.238  17.790  24.620  1.00  0.00     0.046 C 
ATOM     19  C   UNL A   1      34.564  19.131  24.604  1.00  0.00    -0.032 A 
ATOM     20  C   UNL A   1      35.334  20.269  24.864  1.00  0.00     0.007 A 
ATOM     21  C   UNL A   1      33.203  19.290  24.283  1.00  0.00     0.046 A 
ATOM     22  C   UNL A   1      34.777  21.535  24.730  1.00  0.00     0.029 A 
ATOM     23  C   UNL A   1      32.630  20.563  24.199  1.00  0.00     0.049 A 
ATOM     24  Cl  UNL A   1      32.208  17.927  23.909  1.00  0.00    -0.084 Cl
ENDBRANCH  10  17
BRANCH  13  25
ATOM     25  C   UNL A   1      32.847  25.496  21.390  1.00  0.00     0.105 C 
ATOM     26  N   UNL A   1      32.998  25.888  20.313  1.00  0.00    -0.192 NA
ENDBRANCH  13  25
ENDBRANCH   6   9
ENDBRANCH   4   5
ENDBRANCH   3   4
ENDBRANCH   2   3
ENDBRANCH   1   2
BRANCH   1  27
ATOM     27  C   UNL A   1      31.610  32.019  26.780  1.00  0.00     0.021 C 
BRANCH  27  28
ATOM     28  C   UNL A   1      32.929  32.659  27.196  1.00  0.00     0.116 C 
BRANCH  28  29
ATOM     29  N   UNL A   1      32.727  34.005  27.709  1.00  0.00    -0.352 N 
ATOM     30  C   UNL A   1      33.253  34.597  28.828  1.00  0.00     0.251 C 
ATOM     31  H   UNL A   1      32.124  34.572  27.177  1.00  0.00     0.163 HD
ATOM     32  O   UNL A   1      32.755  35.629  29.264  1.00  0.00    -0.269 OA
BRANCH  30  33
ATOM     33  C   UNL A   1      34.409  33.973  29.498  1.00  0.00     0.039 A 
ATOM     34  C   UNL A   1      34.186  33.054  30.523  1.00  0.00     0.014 A 
ATOM     35  C   UNL A   1      35.712  34.304  29.110  1.00  0.00     0.014 A 
ATOM     36  C   UNL A   1      35.275  32.428  31.127  1.00  0.00     0.010 A 
ATOM     37  C   UNL A   1      36.789  33.617  29.653  1.00  0.00     0.010 A 
ATOM     38  C   UNL A   1      36.582  32.683  30.677  1.00  0.00    -0.014 A 
BRANCH  38  39
ATOM     39  C   UNL A   1      37.745  31.997  31.289  1.00  0.00     0.031 A 
ATOM     40  C   UNL A   1      38.247  32.434  32.637  1.00  0.00     0.074 A 
ATOM     41  C   UNL A   1      38.359  31.004  30.619  1.00  0.00     0.049 A 
ATOM     42  N   UNL A   1      39.264  31.979  33.323  1.00  0.00    -0.248 NA
ATOM     43  C   UNL A   1      37.529  33.540  33.290  1.00  0.00     0.031 C 
ATOM     44  C   UNL A   1      37.970  30.515  29.293  1.00  0.00     0.029 A 
ATOM     45  N   UNL A   1      39.433  30.221  30.958  1.00  0.00    -0.354 N 
ATOM     46  C   UNL A   1      39.307  32.743  34.483  1.00  0.00     0.074 A 
ATOM     47  C   UNL A   1      38.257  33.731  34.380  1.00  0.00     0.031 C 
ATOM     48  C   UNL A   1      38.766  29.490  28.953  1.00  0.00     0.029 A 
ATOM     49  C   UNL A   1      39.755  29.282  30.006  1.00  0.00     0.049 A 
ATOM     50  H   UNL A   1      39.927  30.322  31.804  1.00  0.00     0.167 HD
ATOM     51  C   UNL A   1      40.135  32.613  35.546  1.00  0.00     0.034 A 
ATOM     52  C   UNL A   1      40.740  28.362  29.979  1.00  0.00     0.034 A 
ATOM     53  C   UNL A   1      41.166  31.611  35.637  1.00  0.00     0.049 A 
ATOM     54  C   UNL A   1      41.677  28.266  31.151  1.00  0.00     0.074 A 
ATOM     55  C   UNL A   1      42.024  31.361  36.693  1.00  0.00     0.029 A 
ATOM     56  N   UNL A   1      41.488  30.706  34.636  1.00  0.00    -0.354 N 
ATOM     57  N   UNL A   1      41.684  28.973  32.258  1.00  0.00    -0.248 NA
ATOM     58  C   UNL A   1      42.739  27.255  31.076  1.00  0.00     0.031 C 
ATOM     59  C   UNL A   1      42.918  30.363  36.299  1.00  0.00     0.029 A 
ATOM     60  C   UNL A   1      42.564  29.926  35.031  1.00  0.00     0.049 A 
ATOM     61  H   UNL A   1      41.021  30.629  33.772  1.00  0.00     0.167 HD
ATOM     62  C   UNL A   1      42.739  28.479  33.020  1.00  0.00     0.074 A 
ATOM     63  C   UNL A   1      43.340  27.408  32.249  1.00  0.00     0.031 C 
ATOM     64  C   UNL A   1      43.166  28.875  34.245  1.00  0.00     0.034 A 
BRANCH  51  65
ATOM     65  C   UNL A   1      39.974  33.587  36.685  1.00  0.00     0.023 A 
ATOM     66  C   UNL A   1      39.360  33.218  37.895  1.00  0.00     0.031 A 
ATOM     67  C   UNL A   1      40.460  34.901  36.565  1.00  0.00     0.131 A 
ATOM     68  C   UNL A   1      39.211  34.164  38.919  1.00  0.00     0.055 A 
ATOM     69  C   UNL A   1      40.371  35.817  37.614  1.00  0.00     0.041 A 
ATOM     70  F   UNL A   1      41.036  35.315  35.424  1.00  0.00    -0.206 F 
ATOM     71  C   UNL A   1      39.736  35.453  38.797  1.00  0.00     0.022 A 
BRANCH  68  72
ATOM     72  S   UNL A   1      38.238  33.714  40.382  1.00  0.00     0.124 S 
ATOM     73  O   UNL A   1      38.082  35.008  41.042  1.00  0.00    -0.237 OA
ATOM     74  O   UNL A   1      37.030  33.147  39.795  1.00  0.00    -0.237 OA
ATOM     75  O   UNL A   1      39.096  32.762  41.084  1.00  0.00    -0.744 OA
ENDBRANCH  68  72
ENDBRANCH  51  65
BRANCH  52  76
ATOM     76  C   UNL A   1      40.882  27.473  28.792  1.00  0.00     0.023 A 
ATOM     77  C   UNL A   1      41.860  27.717  27.816  1.00  0.00     0.031 A 
ATOM     78  C   UNL A   1      40.066  26.338  28.643  1.00  0.00     0.131 A 
ATOM     79  C   UNL A   1      41.993  26.838  26.728  1.00  0.00     0.055 A 
ATOM     80  C   UNL A   1      40.227  25.447  27.582  1.00  0.00     0.041 A 
ATOM     81  F   UNL A   1      39.123  26.056  29.558  1.00  0.00    -0.206 F 
ATOM     82  C   UNL A   1      41.194  25.696  26.614  1.00  0.00     0.022 A 
BRANCH  79  83
ATOM     83  S   UNL A   1      43.226  27.209  25.451  1.00  0.00     0.124 S 
ATOM     84  O   UNL A   1      44.279  27.848  26.231  1.00  0.00    -0.237 OA
ATOM     85  O   UNL A   1      43.529  25.883  24.925  1.00  0.00    -0.237 OA
ATOM     86  O   UNL A   1      42.507  28.089  24.531  1.00  0.00    -0.744 OA
ENDBRANCH  79  83
ENDBRANCH  52  76
BRANCH  64  87
ATOM     87  C   UNL A   1      44.336  28.141  34.848  1.00  0.00     0.023 A 
ATOM     88  C   UNL A   1      44.175  26.898  35.481  1.00  0.00     0.031 A 
ATOM     89  C   UNL A   1      45.637  28.662  34.727  1.00  0.00     0.131 A 
ATOM     90  C   UNL A   1      45.294  26.226  35.993  1.00  0.00     0.055 A 
ATOM     91  C   UNL A   1      46.753  27.964  35.190  1.00  0.00     0.041 A 
ATOM     92  F   UNL A   1      45.847  29.846  34.128  1.00  0.00    -0.206 F 
ATOM     93  C   UNL A   1      46.584  26.741  35.832  1.00  0.00     0.022 A 
BRANCH  90  94
ATOM     94  S   UNL A   1      45.039  24.684  36.911  1.00  0.00     0.124 S 
ATOM     95  O   UNL A   1      43.923  24.084  36.187  1.00  0.00    -0.237 OA
ATOM     96  O   UNL A   1      46.327  24.015  36.767  1.00  0.00    -0.237 OA
ATOM     97  O   UNL A   1      44.727  25.140  38.265  1.00  0.00    -0.744 OA
ENDBRANCH  90  94
ENDBRANCH  64  87
ENDBRANCH  38  39
ENDBRANCH  30  33
ENDBRANCH  28  29
ENDBRANCH  27  28
ENDBRANCH   1  27
TORSDOF 18
ENDMDL
