MODEL 1
REMARK VINA RESULT:     -12.8      0.000      0.000
REMARK SMILES O=C(NCCCCCCNC(=O)[C@@H]1CC=CC[C@H]1C(=O)N1CC[NH+](Cc2ccc3c(c2)OCO3)CC1)c1ccc(-c2c3nc(c(-c4cc(S(=O)(=O)[O-])ccc4F)c4ccc([nH]4)c(-c4cc(S(=O)(=O)[O-])ccc4F)c4nc(c(-c5cc(S(=O)(=O)[O-])ccc5F)c5ccc2[nH]5)C=C4)C=C3)cc1
REMARK SMILES IDX 6 1 5 2 4 3 3 4 1 5 2 6 37 8 38 9 99 10 39 11 98 12 40 13
REMARK SMILES IDX 41 14 42 15 92 16 43 17 97 18 91 19 93 20 44 21 96 22 90 23
REMARK SMILES IDX 89 24 45 26 77 27 57 28 76 29 58 30 61 31 75 32 94 33 59 34
REMARK SMILES IDX 60 35 74 37 95 38 62 39 46 40 47 41 55 42 48 43 54 44 56 45
REMARK SMILES IDX 53 46 49 47 50 48 51 49 52 50 78 51 79 52 87 53 80 54 86 55
REMARK SMILES IDX 88 56 85 57 81 58 82 59 83 60 84 61 63 62 64 63 72 64 65 65
REMARK SMILES IDX 71 66 73 67 70 68 66 69 67 70 68 71 69 72 7 73 8 74 9 75
REMARK SMILES IDX 10 76 11 77 12 79 13 80 14 81 18 82 15 83 17 84 16 85 19 86
REMARK SMILES IDX 20 87 21 88 22 89 36 90 23 91 35 92 24 93 25 95 26 96 27 97
REMARK SMILES IDX 31 98 28 99 30 100 29 101 32 102 34 103 33 104
REMARK H PARENT 3 7 93 25 61 36 10 78 24 94
REMARK Flexibility Score: inf
ROOT
ATOM      1  C   UNL A   1      35.832  23.517  23.491  1.00  0.00     0.002 C 
ENDROOT
BRANCH   1   2
ATOM      2  C   UNL A   1      35.929  22.281  24.386  1.00  0.00     0.021 C 
BRANCH   2   3
ATOM      3  C   UNL A   1      36.815  22.433  25.617  1.00  0.00     0.116 C 
BRANCH   3   4
ATOM      4  N   UNL A   1      37.795  21.368  25.748  1.00  0.00    -0.352 N 
ATOM      5  O   UNL A   1      39.833  20.466  26.111  1.00  0.00    -0.269 OA
ATOM      6  C   UNL A   1      39.100  21.450  26.172  1.00  0.00     0.251 C 
ATOM      7  H   UNL A   1      37.482  20.467  25.501  1.00  0.00     0.163 HD
BRANCH   6   8
ATOM      8  C   UNL A   1      39.624  22.740  26.676  1.00  0.00     0.039 A 
ATOM      9  C   UNL A   1      39.154  23.949  26.158  1.00  0.00     0.014 A 
ATOM     10  C   UNL A   1      40.609  22.736  27.666  1.00  0.00     0.014 A 
ATOM     11  C   UNL A   1      39.767  25.142  26.526  1.00  0.00     0.010 A 
ATOM     12  C   UNL A   1      41.165  23.945  28.098  1.00  0.00     0.010 A 
ATOM     13  C   UNL A   1      40.771  25.156  27.508  1.00  0.00    -0.014 A 
BRANCH  13  14
ATOM     14  C   UNL A   1      41.355  26.457  27.931  1.00  0.00     0.031 A 
ATOM     15  C   UNL A   1      42.774  26.821  27.592  1.00  0.00     0.074 A 
ATOM     16  C   UNL A   1      40.572  27.328  28.598  1.00  0.00     0.049 A 
ATOM     17  N   UNL A   1      43.429  27.923  27.856  1.00  0.00    -0.248 NA
ATOM     18  C   UNL A   1      43.564  25.813  26.871  1.00  0.00     0.031 C 
ATOM     19  C   UNL A   1      39.181  27.079  28.986  1.00  0.00     0.029 A 
ATOM     20  N   UNL A   1      40.818  28.600  29.045  1.00  0.00    -0.354 N 
ATOM     21  C   UNL A   1      44.712  27.739  27.352  1.00  0.00     0.074 A 
ATOM     22  C   UNL A   1      44.749  26.400  26.797  1.00  0.00     0.031 C 
ATOM     23  C   UNL A   1      38.681  28.181  29.561  1.00  0.00     0.029 A 
ATOM     24  C   UNL A   1      39.731  29.189  29.649  1.00  0.00     0.049 A 
ATOM     25  H   UNL A   1      41.688  29.048  28.946  1.00  0.00     0.167 HD
ATOM     26  C   UNL A   1      45.756  28.607  27.346  1.00  0.00     0.034 A 
ATOM     27  C   UNL A   1      39.596  30.400  30.222  1.00  0.00     0.034 A 
ATOM     28  C   UNL A   1      45.698  29.939  27.905  1.00  0.00     0.049 A 
ATOM     29  C   UNL A   1      40.780  31.327  30.237  1.00  0.00     0.074 A 
ATOM     30  C   UNL A   1      46.683  30.912  27.924  1.00  0.00     0.029 A 
ATOM     31  N   UNL A   1      44.595  30.483  28.556  1.00  0.00    -0.354 N 
ATOM     32  N   UNL A   1      41.980  31.143  29.738  1.00  0.00    -0.248 NA
ATOM     33  C   UNL A   1      40.588  32.626  30.893  1.00  0.00     0.031 C 
ATOM     34  C   UNL A   1      46.201  32.014  28.642  1.00  0.00     0.029 A 
ATOM     35  C   UNL A   1      44.889  31.763  29.007  1.00  0.00     0.049 A 
ATOM     36  H   UNL A   1      43.731  30.026  28.678  1.00  0.00     0.167 HD
ATOM     37  C   UNL A   1      42.682  32.315  30.003  1.00  0.00     0.074 A 
ATOM     38  C   UNL A   1      41.761  33.204  30.686  1.00  0.00     0.031 C 
ATOM     39  C   UNL A   1      43.968  32.629  29.707  1.00  0.00     0.034 A 
BRANCH  26  40
ATOM     40  C   UNL A   1      47.061  28.121  26.757  1.00  0.00     0.023 A 
ATOM     41  C   UNL A   1      47.274  28.061  25.368  1.00  0.00     0.031 A 
ATOM     42  C   UNL A   1      48.100  27.682  27.598  1.00  0.00     0.131 A 
ATOM     43  C   UNL A   1      48.459  27.504  24.862  1.00  0.00     0.055 A 
ATOM     44  C   UNL A   1      49.310  27.203  27.089  1.00  0.00     0.041 A 
ATOM     45  F   UNL A   1      47.952  27.696  28.932  1.00  0.00    -0.206 F 
ATOM     46  C   UNL A   1      49.488  27.096  25.713  1.00  0.00     0.022 A 
BRANCH  43  47
ATOM     47  S   UNL A   1      48.572  27.180  23.080  1.00  0.00     0.124 S 
ATOM     48  O   UNL A   1      47.599  28.128  22.542  1.00  0.00    -0.237 OA
ATOM     49  O   UNL A   1      49.972  27.472  22.794  1.00  0.00    -0.237 OA
ATOM     50  O   UNL A   1      48.190  25.775  22.961  1.00  0.00    -0.744 OA
ENDBRANCH  43  47
ENDBRANCH  26  40
BRANCH  27  51
ATOM     51  C   UNL A   1      38.301  30.793  30.843  1.00  0.00     0.023 A 
ATOM     52  C   UNL A   1      37.326  31.482  30.108  1.00  0.00     0.031 A 
ATOM     53  C   UNL A   1      38.029  30.503  32.193  1.00  0.00     0.131 A 
ATOM     54  C   UNL A   1      36.138  31.889  30.734  1.00  0.00     0.055 A 
ATOM     55  C   UNL A   1      36.825  30.865  32.796  1.00  0.00     0.041 A 
ATOM     56  F   UNL A   1      38.928  29.841  32.940  1.00  0.00    -0.206 F 
ATOM     57  C   UNL A   1      35.875  31.573  32.068  1.00  0.00     0.022 A 
BRANCH  54  58
ATOM     58  S   UNL A   1      34.967  32.905  29.793  1.00  0.00     0.124 S 
ATOM     59  O   UNL A   1      34.103  33.420  30.848  1.00  0.00    -0.237 OA
ATOM     60  O   UNL A   1      35.852  33.876  29.156  1.00  0.00    -0.237 OA
ATOM     61  O   UNL A   1      34.341  31.947  28.883  1.00  0.00    -0.744 OA
ENDBRANCH  54  58
ENDBRANCH  27  51
BRANCH  39  62
ATOM     62  C   UNL A   1      44.432  34.012  30.097  1.00  0.00     0.023 A 
ATOM     63  C   UNL A   1      44.303  35.106  29.223  1.00  0.00     0.031 A 
ATOM     64  C   UNL A   1      45.050  34.226  31.341  1.00  0.00     0.131 A 
ATOM     65  C   UNL A   1      44.845  36.350  29.579  1.00  0.00     0.055 A 
ATOM     66  C   UNL A   1      45.531  35.482  31.715  1.00  0.00     0.041 A 
ATOM     67  F   UNL A   1      45.202  33.215  32.212  1.00  0.00    -0.206 F 
ATOM     68  C   UNL A   1      45.444  36.549  30.825  1.00  0.00     0.022 A 
BRANCH  65  69
ATOM     69  S   UNL A   1      44.851  37.681  28.346  1.00  0.00     0.124 S 
ATOM     70  O   UNL A   1      43.514  38.246  28.501  1.00  0.00    -0.237 OA
ATOM     71  O   UNL A   1      45.955  38.522  28.800  1.00  0.00    -0.237 OA
ATOM     72  O   UNL A   1      45.085  36.980  27.085  1.00  0.00    -0.744 OA
ENDBRANCH  65  69
ENDBRANCH  39  62
ENDBRANCH  13  14
ENDBRANCH   6   8
ENDBRANCH   3   4
ENDBRANCH   2   3
ENDBRANCH   1   2
BRANCH   1  73
ATOM     73  C   UNL A   1      35.087  24.716  24.086  1.00  0.00     0.002 C 
BRANCH  73  74
ATOM     74  C   UNL A   1      33.985  25.325  23.212  1.00  0.00     0.021 C 
BRANCH  74  75
ATOM     75  C   UNL A   1      33.612  26.763  23.549  1.00  0.00     0.116 C 
BRANCH  75  76
ATOM     76  N   UNL A   1      32.537  27.257  22.709  1.00  0.00    -0.356 N 
ATOM     77  C   UNL A   1      31.464  28.033  23.028  1.00  0.00     0.224 C 
ATOM     78  H   UNL A   1      32.592  26.991  21.764  1.00  0.00     0.163 HD
ATOM     79  O   UNL A   1      30.698  28.359  22.122  1.00  0.00    -0.275 OA
BRANCH  77  80
ATOM     80  C   UNL A   1      31.219  28.420  24.480  1.00  0.00     0.095 C 
ATOM     81  C   UNL A   1      32.180  29.569  24.830  1.00  0.00     0.041 C 
ATOM     82  C   UNL A   1      31.428  27.219  25.411  1.00  0.00     0.095 C 
ATOM     83  C   UNL A   1      32.226  29.859  26.300  1.00  0.00    -0.030 C 
ATOM     84  C   UNL A   1      31.268  27.627  26.892  1.00  0.00     0.041 C 
ATOM     85  C   UNL A   1      31.803  28.988  27.224  1.00  0.00    -0.030 C 
BRANCH  82  86
ATOM     86  C   UNL A   1      30.533  25.990  25.196  1.00  0.00     0.227 C 
ATOM     87  O   UNL A   1      29.353  26.145  24.865  1.00  0.00    -0.275 OA
ATOM     88  N   UNL A   1      31.155  24.754  25.070  1.00  0.00    -0.331 N 
ATOM     89  C   UNL A   1      30.641  23.859  24.038  1.00  0.00     0.181 C 
ATOM     90  C   UNL A   1      31.694  24.035  26.219  1.00  0.00     0.181 C 
ATOM     91  C   UNL A   1      31.651  22.756  23.653  1.00  0.00     0.284 C 
ATOM     92  C   UNL A   1      32.760  23.003  25.808  1.00  0.00     0.284 C 
ATOM     93  N   UNL A   1      32.340  22.071  24.755  1.00  0.00    -0.328 N 
ATOM     94  H   UNL A   1      33.200  21.713  24.340  1.00  0.00     0.348 HD
BRANCH  93  95
ATOM     95  C   UNL A   1      31.743  20.814  25.223  1.00  0.00     0.299 C 
BRANCH  95  96
ATOM     96  C   UNL A   1      32.407  19.541  24.745  1.00  0.00     0.010 A 
ATOM     97  C   UNL A   1      32.497  19.256  23.363  1.00  0.00     0.013 A 
ATOM     98  C   UNL A   1      32.860  18.589  25.676  1.00  0.00     0.060 A 
ATOM     99  C   UNL A   1      32.932  18.007  22.912  1.00  0.00     0.051 A 
ATOM    100  C   UNL A   1      33.271  17.362  25.202  1.00  0.00     0.166 A 
ATOM    101  C   UNL A   1      33.292  17.075  23.859  1.00  0.00     0.165 A 
ATOM    102  O   UNL A   1      33.636  16.298  25.967  1.00  0.00    -0.454 OA
ATOM    103  O   UNL A   1      33.675  15.794  23.608  1.00  0.00    -0.454 OA
ATOM    104  C   UNL A   1      33.831  15.294  24.952  1.00  0.00     0.468 C 
ENDBRANCH  95  96
ENDBRANCH  93  95
ENDBRANCH  82  86
ENDBRANCH  77  80
ENDBRANCH  75  76
ENDBRANCH  74  75
ENDBRANCH  73  74
ENDBRANCH   1  73
TORSDOF 19
ENDMDL
MODEL 2
REMARK VINA RESULT:     -12.7      1.867      2.155
REMARK SMILES O=C(NCCCCCCNC(=O)[C@@H]1CC=CC[C@H]1C(=O)N1CC[NH+](Cc2ccc3c(c2)OCO3)CC1)c1ccc(-c2c3nc(c(-c4cc(S(=O)(=O)[O-])ccc4F)c4ccc([nH]4)c(-c4cc(S(=O)(=O)[O-])ccc4F)c4nc(c(-c5cc(S(=O)(=O)[O-])ccc5F)c5ccc2[nH]5)C=C4)C=C3)cc1
REMARK SMILES IDX 6 1 5 2 4 3 3 4 1 5 2 6 37 8 38 9 99 10 39 11 98 12 40 13
REMARK SMILES IDX 41 14 42 15 92 16 43 17 97 18 91 19 93 20 44 21 96 22 90 23
REMARK SMILES IDX 89 24 45 26 77 27 57 28 76 29 58 30 61 31 75 32 94 33 59 34
REMARK SMILES IDX 60 35 74 37 95 38 62 39 46 40 47 41 55 42 48 43 54 44 56 45
REMARK SMILES IDX 53 46 49 47 50 48 51 49 52 50 78 51 79 52 87 53 80 54 86 55
REMARK SMILES IDX 88 56 85 57 81 58 82 59 83 60 84 61 63 62 64 63 72 64 65 65
REMARK SMILES IDX 71 66 73 67 70 68 66 69 67 70 68 71 69 72 7 73 8 74 9 75
REMARK SMILES IDX 10 76 11 77 12 79 13 80 14 81 18 82 15 83 17 84 16 85 19 86
REMARK SMILES IDX 20 87 21 88 22 89 36 90 23 91 35 92 24 93 25 95 26 96 27 97
REMARK SMILES IDX 31 98 28 99 30 100 29 101 32 102 34 103 33 104
REMARK H PARENT 3 7 93 25 61 36 10 78 24 94
REMARK Flexibility Score: inf
ROOT
ATOM      1  C   UNL A   1      35.547  23.580  23.231  1.00  0.00     0.002 C 
ENDROOT
BRANCH   1   2
ATOM      2  C   UNL A   1      35.542  22.286  24.045  1.00  0.00     0.021 C 
BRANCH   2   3
ATOM      3  C   UNL A   1      36.402  22.302  25.303  1.00  0.00     0.116 C 
BRANCH   3   4
ATOM      4  N   UNL A   1      37.282  21.150  25.407  1.00  0.00    -0.352 N 
ATOM      5  O   UNL A   1      39.233  20.060  25.735  1.00  0.00    -0.269 OA
ATOM      6  C   UNL A   1      38.593  21.106  25.821  1.00  0.00     0.251 C 
ATOM      7  H   UNL A   1      36.888  20.286  25.146  1.00  0.00     0.163 HD
BRANCH   6   8
ATOM      8  C   UNL A   1      39.235  22.333  26.343  1.00  0.00     0.039 A 
ATOM      9  C   UNL A   1      38.822  23.593  25.905  1.00  0.00     0.014 A 
ATOM     10  C   UNL A   1      40.275  22.218  27.269  1.00  0.00     0.014 A 
ATOM     11  C   UNL A   1      39.538  24.724  26.283  1.00  0.00     0.010 A 
ATOM     12  C   UNL A   1      40.939  23.365  27.714  1.00  0.00     0.010 A 
ATOM     13  C   UNL A   1      40.597  24.626  27.200  1.00  0.00    -0.014 A 
BRANCH  13  14
ATOM     14  C   UNL A   1      41.295  25.863  27.638  1.00  0.00     0.031 A 
ATOM     15  C   UNL A   1      42.716  26.143  27.230  1.00  0.00     0.074 A 
ATOM     16  C   UNL A   1      40.616  26.757  28.384  1.00  0.00     0.049 A 
ATOM     17  N   UNL A   1      43.462  27.184  27.499  1.00  0.00    -0.248 NA
ATOM     18  C   UNL A   1      43.390  25.114  26.426  1.00  0.00     0.031 C 
ATOM     19  C   UNL A   1      39.234  26.589  28.842  1.00  0.00     0.029 A 
ATOM     20  N   UNL A   1      40.976  27.988  28.865  1.00  0.00    -0.354 N 
ATOM     21  C   UNL A   1      44.698  26.934  26.913  1.00  0.00     0.074 A 
ATOM     22  C   UNL A   1      44.608  25.621  26.305  1.00  0.00     0.031 C 
ATOM     23  C   UNL A   1      38.847  27.697  29.488  1.00  0.00     0.029 A 
ATOM     24  C   UNL A   1      39.970  28.624  29.554  1.00  0.00     0.049 A 
ATOM     25  H   UNL A   1      41.869  28.379  28.733  1.00  0.00     0.167 HD
ATOM     26  C   UNL A   1      45.799  27.727  26.880  1.00  0.00     0.034 A 
ATOM     27  C   UNL A   1      39.954  29.816  30.181  1.00  0.00     0.034 A 
ATOM     28  C   UNL A   1      45.868  29.035  27.493  1.00  0.00     0.049 A 
ATOM     29  C   UNL A   1      41.200  30.658  30.163  1.00  0.00     0.074 A 
ATOM     30  C   UNL A   1      46.920  29.936  27.492  1.00  0.00     0.029 A 
ATOM     31  N   UNL A   1      44.845  29.625  28.228  1.00  0.00    -0.354 N 
ATOM     32  N   UNL A   1      42.354  30.413  29.587  1.00  0.00    -0.248 NA
ATOM     33  C   UNL A   1      41.138  31.937  30.879  1.00  0.00     0.031 C 
ATOM     34  C   UNL A   1      46.559  31.036  28.279  1.00  0.00     0.029 A 
ATOM     35  C   UNL A   1      45.255  30.861  28.711  1.00  0.00     0.049 A 
ATOM     36  H   UNL A   1      43.959  29.225  28.383  1.00  0.00     0.167 HD
ATOM     37  C   UNL A   1      43.152  31.521  29.856  1.00  0.00     0.074 A 
ATOM     38  C   UNL A   1      42.337  32.441  30.626  1.00  0.00     0.031 C 
ATOM     39  C   UNL A   1      44.439  31.758  29.498  1.00  0.00     0.034 A 
BRANCH  26  40
ATOM     40  C   UNL A   1      47.031  27.178  26.197  1.00  0.00     0.023 A 
ATOM     41  C   UNL A   1      48.004  26.443  26.896  1.00  0.00     0.031 A 
ATOM     42  C   UNL A   1      47.252  27.421  24.828  1.00  0.00     0.131 A 
ATOM     43  C   UNL A   1      49.184  26.043  26.249  1.00  0.00     0.055 A 
ATOM     44  C   UNL A   1      48.391  26.950  24.170  1.00  0.00     0.041 A 
ATOM     45  F   UNL A   1      46.371  28.132  24.109  1.00  0.00    -0.206 F 
ATOM     46  C   UNL A   1      49.373  26.271  24.884  1.00  0.00     0.022 A 
BRANCH  43  47
ATOM     47  S   UNL A   1      50.532  25.355  27.250  1.00  0.00     0.124 S 
ATOM     48  O   UNL A   1      51.529  25.035  26.230  1.00  0.00    -0.237 OA
ATOM     49  O   UNL A   1      50.863  26.463  28.139  1.00  0.00    -0.237 OA
ATOM     50  O   UNL A   1      49.922  24.196  27.897  1.00  0.00    -0.744 OA
ENDBRANCH  43  47
ENDBRANCH  26  40
BRANCH  27  51
ATOM     51  C   UNL A   1      38.727  30.271  30.892  1.00  0.00     0.023 A 
ATOM     52  C   UNL A   1      37.716  30.969  30.216  1.00  0.00     0.031 A 
ATOM     53  C   UNL A   1      38.559  30.032  32.268  1.00  0.00     0.131 A 
ATOM     54  C   UNL A   1      36.596  31.434  30.922  1.00  0.00     0.055 A 
ATOM     55  C   UNL A   1      37.420  30.452  32.955  1.00  0.00     0.041 A 
ATOM     56  F   UNL A   1      39.496  29.364  32.962  1.00  0.00    -0.206 F 
ATOM     57  C   UNL A   1      36.435  31.168  32.284  1.00  0.00     0.022 A 
BRANCH  54  58
ATOM     58  S   UNL A   1      35.383  32.458  30.047  1.00  0.00     0.124 S 
ATOM     59  O   UNL A   1      34.956  31.565  28.976  1.00  0.00    -0.237 OA
ATOM     60  O   UNL A   1      34.400  32.723  31.092  1.00  0.00    -0.237 OA
ATOM     61  O   UNL A   1      36.163  33.618  29.620  1.00  0.00    -0.744 OA
ENDBRANCH  54  58
ENDBRANCH  27  51
BRANCH  39  62
ATOM     62  C   UNL A   1      45.021  33.087  29.913  1.00  0.00     0.023 A 
ATOM     63  C   UNL A   1      45.701  33.245  31.134  1.00  0.00     0.031 A 
ATOM     64  C   UNL A   1      44.855  34.219  29.096  1.00  0.00     0.131 A 
ATOM     65  C   UNL A   1      46.132  34.519  31.532  1.00  0.00     0.055 A 
ATOM     66  C   UNL A   1      45.341  35.472  29.470  1.00  0.00     0.041 A 
ATOM     67  F   UNL A   1      44.210  34.124  27.921  1.00  0.00    -0.206 F 
ATOM     68  C   UNL A   1      45.969  35.630  30.702  1.00  0.00     0.022 A 
BRANCH  65  69
ATOM     69  S   UNL A   1      46.813  34.725  33.202  1.00  0.00     0.124 S 
ATOM     70  O   UNL A   1      48.111  34.069  33.084  1.00  0.00    -0.237 OA
ATOM     71  O   UNL A   1      46.844  36.177  33.349  1.00  0.00    -0.237 OA
ATOM     72  O   UNL A   1      45.845  34.037  34.054  1.00  0.00    -0.744 OA
ENDBRANCH  65  69
ENDBRANCH  39  62
ENDBRANCH  13  14
ENDBRANCH   6   8
ENDBRANCH   3   4
ENDBRANCH   2   3
ENDBRANCH   1   2
BRANCH   1  73
ATOM     73  C   UNL A   1      34.781  24.756  23.843  1.00  0.00     0.002 C 
BRANCH  73  74
ATOM     74  C   UNL A   1      33.860  25.528  22.891  1.00  0.00     0.021 C 
BRANCH  74  75
ATOM     75  C   UNL A   1      33.425  26.903  23.384  1.00  0.00     0.116 C 
BRANCH  75  76
ATOM     76  N   UNL A   1      32.329  27.440  22.598  1.00  0.00    -0.356 N 
ATOM     77  C   UNL A   1      31.270  28.205  22.985  1.00  0.00     0.224 C 
ATOM     78  H   UNL A   1      32.356  27.218  21.641  1.00  0.00     0.163 HD
ATOM     79  O   UNL A   1      30.481  28.576  22.117  1.00  0.00    -0.275 OA
BRANCH  77  80
ATOM     80  C   UNL A   1      31.069  28.525  24.459  1.00  0.00     0.095 C 
ATOM     81  C   UNL A   1      32.020  29.678  24.824  1.00  0.00     0.041 C 
ATOM     82  C   UNL A   1      31.335  27.291  25.330  1.00  0.00     0.095 C 
ATOM     83  C   UNL A   1      32.112  29.907  26.303  1.00  0.00    -0.030 C 
ATOM     84  C   UNL A   1      31.219  27.632  26.832  1.00  0.00     0.041 C 
ATOM     85  C   UNL A   1      31.739  28.989  27.204  1.00  0.00    -0.030 C 
BRANCH  82  86
ATOM     86  C   UNL A   1      30.457  26.053  25.093  1.00  0.00     0.227 C 
ATOM     87  O   UNL A   1      29.290  26.196  24.714  1.00  0.00    -0.275 OA
ATOM     88  N   UNL A   1      31.092  24.820  25.006  1.00  0.00    -0.331 N 
ATOM     89  C   UNL A   1      30.625  23.910  23.964  1.00  0.00     0.181 C 
ATOM     90  C   UNL A   1      31.590  24.118  26.183  1.00  0.00     0.181 C 
ATOM     91  C   UNL A   1      31.657  22.811  23.632  1.00  0.00     0.284 C 
ATOM     92  C   UNL A   1      32.678  23.089  25.827  1.00  0.00     0.284 C 
ATOM     93  N   UNL A   1      32.306  22.142  24.767  1.00  0.00    -0.328 N 
ATOM     94  H   UNL A   1      33.184  21.786  24.391  1.00  0.00     0.348 HD
BRANCH  93  95
ATOM     95  C   UNL A   1      31.699  20.886  25.225  1.00  0.00     0.299 C 
BRANCH  95  96
ATOM     96  C   UNL A   1      32.361  19.612  24.747  1.00  0.00     0.010 A 
ATOM     97  C   UNL A   1      32.480  19.344  23.364  1.00  0.00     0.013 A 
ATOM     98  C   UNL A   1      32.780  18.643  25.676  1.00  0.00     0.060 A 
ATOM     99  C   UNL A   1      32.912  18.096  22.907  1.00  0.00     0.051 A 
ATOM    100  C   UNL A   1      33.190  17.418  25.196  1.00  0.00     0.166 A 
ATOM    101  C   UNL A   1      33.239  17.147  23.850  1.00  0.00     0.165 A 
ATOM    102  O   UNL A   1      33.524  16.340  25.955  1.00  0.00    -0.454 OA
ATOM    103  O   UNL A   1      33.614  15.865  23.591  1.00  0.00    -0.454 OA
ATOM    104  C   UNL A   1      33.733  15.347  24.932  1.00  0.00     0.468 C 
ENDBRANCH  95  96
ENDBRANCH  93  95
ENDBRANCH  82  86
ENDBRANCH  77  80
ENDBRANCH  75  76
ENDBRANCH  74  75
ENDBRANCH  73  74
ENDBRANCH   1  73
TORSDOF 19
ENDMDL
MODEL 3
REMARK VINA RESULT:     -12.5      2.653      6.003
REMARK SMILES O=C(NCCCCCCNC(=O)[C@@H]1CC=CC[C@H]1C(=O)N1CC[NH+](Cc2ccc3c(c2)OCO3)CC1)c1ccc(-c2c3nc(c(-c4cc(S(=O)(=O)[O-])ccc4F)c4ccc([nH]4)c(-c4cc(S(=O)(=O)[O-])ccc4F)c4nc(c(-c5cc(S(=O)(=O)[O-])ccc5F)c5ccc2[nH]5)C=C4)C=C3)cc1
REMARK SMILES IDX 6 1 5 2 4 3 3 4 1 5 2 6 37 8 38 9 99 10 39 11 98 12 40 13
REMARK SMILES IDX 41 14 42 15 92 16 43 17 97 18 91 19 93 20 44 21 96 22 90 23
REMARK SMILES IDX 89 24 45 26 77 27 57 28 76 29 58 30 61 31 75 32 94 33 59 34
REMARK SMILES IDX 60 35 74 37 95 38 62 39 46 40 47 41 55 42 48 43 54 44 56 45
REMARK SMILES IDX 53 46 49 47 50 48 51 49 52 50 78 51 79 52 87 53 80 54 86 55
REMARK SMILES IDX 88 56 85 57 81 58 82 59 83 60 84 61 63 62 64 63 72 64 65 65
REMARK SMILES IDX 71 66 73 67 70 68 66 69 67 70 68 71 69 72 7 73 8 74 9 75
REMARK SMILES IDX 10 76 11 77 12 79 13 80 14 81 18 82 15 83 17 84 16 85 19 86
REMARK SMILES IDX 20 87 21 88 22 89 36 90 23 91 35 92 24 93 25 95 26 96 27 97
REMARK SMILES IDX 31 98 28 99 30 100 29 101 32 102 34 103 33 104
REMARK H PARENT 3 7 93 25 61 36 10 78 24 94
REMARK Flexibility Score: inf
ROOT
ATOM      1  C   UNL A   1      39.298  21.932  26.226  1.00  0.00     0.002 C 
ENDROOT
BRANCH   1   2
ATOM      2  C   UNL A   1      39.640  20.532  25.717  1.00  0.00     0.021 C 
BRANCH   2   3
ATOM      3  C   UNL A   1      40.546  19.709  26.625  1.00  0.00     0.116 C 
BRANCH   3   4
ATOM      4  N   UNL A   1      41.702  19.163  25.933  1.00  0.00    -0.352 N 
ATOM      5  O   UNL A   1      43.695  19.218  24.873  1.00  0.00    -0.269 OA
ATOM      6  C   UNL A   1      42.861  19.802  25.562  1.00  0.00     0.251 C 
ATOM      7  H   UNL A   1      41.647  18.208  25.699  1.00  0.00     0.163 HD
BRANCH   6   8
ATOM      8  C   UNL A   1      43.085  21.206  25.974  1.00  0.00     0.039 A 
ATOM      9  C   UNL A   1      43.095  22.232  25.026  1.00  0.00     0.014 A 
ATOM     10  C   UNL A   1      43.304  21.495  27.323  1.00  0.00     0.014 A 
ATOM     11  C   UNL A   1      43.463  23.518  25.405  1.00  0.00     0.010 A 
ATOM     12  C   UNL A   1      43.590  22.807  27.715  1.00  0.00     0.010 A 
ATOM     13  C   UNL A   1      43.703  23.824  26.755  1.00  0.00    -0.014 A 
BRANCH  13  14
ATOM     14  C   UNL A   1      44.024  25.225  27.136  1.00  0.00     0.031 A 
ATOM     15  C   UNL A   1      45.402  25.793  26.932  1.00  0.00     0.074 A 
ATOM     16  C   UNL A   1      43.040  25.998  27.637  1.00  0.00     0.049 A 
ATOM     17  N   UNL A   1      45.843  27.000  27.180  1.00  0.00    -0.248 NA
ATOM     18  C   UNL A   1      46.421  24.883  26.390  1.00  0.00     0.031 C 
ATOM     19  C   UNL A   1      41.666  25.552  27.882  1.00  0.00     0.029 A 
ATOM     20  N   UNL A   1      43.030  27.317  28.006  1.00  0.00    -0.354 N 
ATOM     21  C   UNL A   1      47.191  26.995  26.842  1.00  0.00     0.074 A 
ATOM     22  C   UNL A   1      47.502  25.649  26.404  1.00  0.00     0.031 C 
ATOM     23  C   UNL A   1      40.935  26.591  28.306  1.00  0.00     0.029 A 
ATOM     24  C   UNL A   1      41.799  27.759  28.433  1.00  0.00     0.049 A 
ATOM     25  H   UNL A   1      43.827  27.894  27.971  1.00  0.00     0.167 HD
ATOM     26  C   UNL A   1      48.082  28.019  26.885  1.00  0.00     0.034 A 
ATOM     27  C   UNL A   1      41.409  28.965  28.888  1.00  0.00     0.034 A 
ATOM     28  C   UNL A   1      47.751  29.356  27.325  1.00  0.00     0.049 A 
ATOM     29  C   UNL A   1      42.426  30.071  28.964  1.00  0.00     0.074 A 
ATOM     30  C   UNL A   1      48.565  30.475  27.379  1.00  0.00     0.029 A 
ATOM     31  N   UNL A   1      46.506  29.753  27.801  1.00  0.00    -0.354 N 
ATOM     32  N   UNL A   1      43.693  30.053  28.621  1.00  0.00    -0.248 NA
ATOM     33  C   UNL A   1      41.957  31.359  29.487  1.00  0.00     0.031 C 
ATOM     34  C   UNL A   1      47.835  31.526  27.946  1.00  0.00     0.029 A 
ATOM     35  C   UNL A   1      46.541  31.089  28.179  1.00  0.00     0.049 A 
ATOM     36  H   UNL A   1      45.714  29.171  27.860  1.00  0.00     0.167 HD
ATOM     37  C   UNL A   1      44.169  31.336  28.870  1.00  0.00     0.074 A 
ATOM     38  C   UNL A   1      43.044  32.105  29.369  1.00  0.00     0.031 C 
ATOM     39  C   UNL A   1      45.418  31.836  28.698  1.00  0.00     0.034 A 
BRANCH  26  40
ATOM     40  C   UNL A   1      49.510  27.715  26.490  1.00  0.00     0.023 A 
ATOM     41  C   UNL A   1      50.039  28.115  25.250  1.00  0.00     0.031 A 
ATOM     42  C   UNL A   1      50.347  26.987  27.356  1.00  0.00     0.131 A 
ATOM     43  C   UNL A   1      51.334  27.720  24.879  1.00  0.00     0.055 A 
ATOM     44  C   UNL A   1      51.663  26.667  27.013  1.00  0.00     0.041 A 
ATOM     45  F   UNL A   1      49.895  26.560  28.545  1.00  0.00    -0.206 F 
ATOM     46  C   UNL A   1      52.158  27.020  25.761  1.00  0.00     0.022 A 
BRANCH  43  47
ATOM     47  S   UNL A   1      51.870  28.007  23.169  1.00  0.00     0.124 S 
ATOM     48  O   UNL A   1      51.261  26.876  22.472  1.00  0.00    -0.237 OA
ATOM     49  O   UNL A   1      51.302  29.318  22.875  1.00  0.00    -0.237 OA
ATOM     50  O   UNL A   1      53.328  27.962  23.254  1.00  0.00    -0.744 OA
ENDBRANCH  43  47
ENDBRANCH  26  40
BRANCH  27  51
ATOM     51  C   UNL A   1      40.002  29.181  29.324  1.00  0.00     0.023 A 
ATOM     52  C   UNL A   1      39.645  29.102  30.678  1.00  0.00     0.031 A 
ATOM     53  C   UNL A   1      38.988  29.452  28.387  1.00  0.00     0.131 A 
ATOM     54  C   UNL A   1      38.302  29.255  31.055  1.00  0.00     0.055 A 
ATOM     55  C   UNL A   1      37.663  29.655  28.773  1.00  0.00     0.041 A 
ATOM     56  F   UNL A   1      39.278  29.543  27.079  1.00  0.00    -0.206 F 
ATOM     57  C   UNL A   1      37.311  29.545  30.114  1.00  0.00     0.022 A 
BRANCH  54  58
ATOM     58  S   UNL A   1      37.856  28.999  32.794  1.00  0.00     0.124 S 
ATOM     59  O   UNL A   1      36.570  29.681  32.876  1.00  0.00    -0.237 OA
ATOM     60  O   UNL A   1      37.816  27.542  32.885  1.00  0.00    -0.237 OA
ATOM     61  O   UNL A   1      38.951  29.636  33.523  1.00  0.00    -0.744 OA
ENDBRANCH  54  58
ENDBRANCH  27  51
BRANCH  39  62
ATOM     62  C   UNL A   1      45.612  33.296  29.026  1.00  0.00     0.023 A 
ATOM     63  C   UNL A   1      45.246  34.310  28.122  1.00  0.00     0.031 A 
ATOM     64  C   UNL A   1      46.212  33.676  30.239  1.00  0.00     0.131 A 
ATOM     65  C   UNL A   1      45.542  35.649  28.418  1.00  0.00     0.055 A 
ATOM     66  C   UNL A   1      46.448  35.014  30.554  1.00  0.00     0.041 A 
ATOM     67  F   UNL A   1      46.585  32.748  31.136  1.00  0.00    -0.206 F 
ATOM     68  C   UNL A   1      46.127  36.009  29.634  1.00  0.00     0.022 A 
BRANCH  65  69
ATOM     69  S   UNL A   1      45.250  36.907  27.143  1.00  0.00     0.124 S 
ATOM     70  O   UNL A   1      43.927  36.539  26.650  1.00  0.00    -0.237 OA
ATOM     71  O   UNL A   1      45.323  38.148  27.908  1.00  0.00    -0.237 OA
ATOM     72  O   UNL A   1      46.345  36.697  26.198  1.00  0.00    -0.744 OA
ENDBRANCH  65  69
ENDBRANCH  39  62
ENDBRANCH  13  14
ENDBRANCH   6   8
ENDBRANCH   3   4
ENDBRANCH   2   3
ENDBRANCH   1   2
BRANCH   1  73
ATOM     73  C   UNL A   1      37.954  22.502  25.761  1.00  0.00     0.002 C 
BRANCH  73  74
ATOM     74  C   UNL A   1      37.268  21.755  24.612  1.00  0.00     0.021 C 
BRANCH  74  75
ATOM     75  C   UNL A   1      36.100  20.866  25.024  1.00  0.00     0.116 C 
BRANCH  75  76
ATOM     76  N   UNL A   1      35.465  21.335  26.242  1.00  0.00    -0.356 N 
ATOM     77  C   UNL A   1      34.186  21.752  26.455  1.00  0.00     0.224 C 
ATOM     78  H   UNL A   1      36.047  21.353  27.034  1.00  0.00     0.163 HD
ATOM     79  O   UNL A   1      33.867  22.069  27.600  1.00  0.00    -0.275 OA
BRANCH  77  80
ATOM     80  C   UNL A   1      33.223  21.863  25.281  1.00  0.00     0.095 C 
ATOM     81  C   UNL A   1      33.012  20.451  24.710  1.00  0.00     0.041 C 
ATOM     82  C   UNL A   1      33.770  22.818  24.212  1.00  0.00     0.095 C 
ATOM     83  C   UNL A   1      32.300  20.460  23.391  1.00  0.00    -0.030 C 
ATOM     84  C   UNL A   1      32.841  22.866  22.980  1.00  0.00     0.041 C 
ATOM     85  C   UNL A   1      32.214  21.552  22.620  1.00  0.00    -0.030 C 
BRANCH  82  86
ATOM     86  C   UNL A   1      34.026  24.275  24.625  1.00  0.00     0.227 C 
ATOM     87  O   UNL A   1      35.159  24.618  24.978  1.00  0.00    -0.275 OA
ATOM     88  N   UNL A   1      33.064  25.219  24.288  1.00  0.00    -0.331 N 
ATOM     89  C   UNL A   1      33.547  26.500  23.782  1.00  0.00     0.181 C 
ATOM     90  C   UNL A   1      31.806  25.340  25.014  1.00  0.00     0.181 C 
ATOM     91  C   UNL A   1      32.463  27.278  23.006  1.00  0.00     0.284 C 
ATOM     92  C   UNL A   1      30.721  26.044  24.180  1.00  0.00     0.284 C 
ATOM     93  N   UNL A   1      31.125  27.335  23.609  1.00  0.00    -0.328 N 
ATOM     94  H   UNL A   1      30.494  27.503  22.826  1.00  0.00     0.348 HD
BRANCH  93  95
ATOM     95  C   UNL A   1      30.824  28.513  24.433  1.00  0.00     0.299 C 
BRANCH  95  96
ATOM     96  C   UNL A   1      30.201  29.689  23.712  1.00  0.00     0.010 A 
ATOM     97  C   UNL A   1      29.926  30.889  24.406  1.00  0.00     0.013 A 
ATOM     98  C   UNL A   1      29.808  29.564  22.368  1.00  0.00     0.060 A 
ATOM     99  C   UNL A   1      29.182  31.912  23.811  1.00  0.00     0.051 A 
ATOM    100  C   UNL A   1      29.064  30.583  21.812  1.00  0.00     0.166 A 
ATOM    101  C   UNL A   1      28.748  31.718  22.519  1.00  0.00     0.165 A 
ATOM    102  O   UNL A   1      28.515  30.577  20.567  1.00  0.00    -0.454 OA
ATOM    103  O   UNL A   1      27.962  32.571  21.808  1.00  0.00    -0.454 OA
ATOM    104  C   UNL A   1      27.771  31.810  20.597  1.00  0.00     0.468 C 
ENDBRANCH  95  96
ENDBRANCH  93  95
ENDBRANCH  82  86
ENDBRANCH  77  80
ENDBRANCH  75  76
ENDBRANCH  74  75
ENDBRANCH  73  74
ENDBRANCH   1  73
TORSDOF 19
ENDMDL
