MODEL 1
REMARK VINA RESULT:     -12.3      0.000      0.000
REMARK SMILES CN(C(=O)N1Cc2nc[nH]c2C[C@@H]1C(=O)NCCCCCCNC(=O)c1ccc(-c2c3nc(c(-c4cc(S(=O)(=O)[O-])ccc4F)c4ccc([nH]4)c(-c4cc(S(=O)(=O)[O-])ccc4F)c4nc(c(-c5cc(S(=O)(=O)[O-])ccc5F)c5ccc2[nH]5)C=C4)C=C3)cc1)C1CC1
REMARK SMILES IDX 19 1 18 2 17 3 16 4 14 5 15 6 13 8 5 9 6 10 7 11 12 12 8 13
REMARK SMILES IDX 11 14 9 15 10 16 3 18 4 19 2 20 1 21 89 22 90 23 91 24 20 25
REMARK SMILES IDX 21 26 22 27 23 28 24 29 25 31 26 32 27 33 88 34 28 35 87 36
REMARK SMILES IDX 29 37 30 38 31 39 81 40 32 41 86 42 80 43 82 44 33 45 85 46
REMARK SMILES IDX 79 47 78 48 34 50 66 51 46 52 65 53 47 54 50 55 64 56 83 57
REMARK SMILES IDX 48 58 49 59 63 61 84 62 51 63 35 64 36 65 44 66 37 67 43 68
REMARK SMILES IDX 45 69 42 70 38 71 39 72 40 73 41 74 67 75 68 76 76 77 69 78
REMARK SMILES IDX 75 79 77 80 74 81 70 82 71 83 72 84 73 85 52 86 53 87 61 88
REMARK SMILES IDX 54 89 60 90 62 91 59 92 55 93 56 94 57 95 58 96
REMARK H PARENT 16 7 10 17 23 30 82 49 50 60
REMARK Flexibility Score: inf
ROOT
ATOM      1  C   UNL A   1      31.561  28.394  25.305  1.00  0.00     0.002 C 
ENDROOT
BRANCH   1   2
ATOM      2  C   UNL A   1      31.087  26.972  25.643  1.00  0.00     0.021 C 
BRANCH   2   3
ATOM      3  C   UNL A   1      31.471  25.824  24.698  1.00  0.00     0.116 C 
BRANCH   3   4
ATOM      4  N   UNL A   1      31.132  24.498  25.195  1.00  0.00    -0.354 N 
ATOM      5  C   UNL A   1      31.866  23.891  26.207  1.00  0.00     0.243 C 
ATOM      6  O   UNL A   1      31.468  23.838  27.367  1.00  0.00    -0.273 OA
ATOM      7  H   UNL A   1      30.365  24.021  24.806  1.00  0.00     0.163 HD
BRANCH   5   8
ATOM      8  C   UNL A   1      33.288  23.493  25.797  1.00  0.00     0.182 C 
ATOM      9  N   UNL A   1      33.481  22.779  24.512  1.00  0.00    -0.306 N 
ATOM     10  C   UNL A   1      34.714  23.220  23.803  1.00  0.00     0.180 C 
ATOM     11  C   UNL A   1      35.828  23.291  24.811  1.00  0.00     0.081 A 
ATOM     12  C   UNL A   1      34.314  22.955  26.839  1.00  0.00     0.091 C 
ATOM     13  N   UNL A   1      37.101  23.702  24.532  1.00  0.00    -0.240 NA
ATOM     14  C   UNL A   1      35.652  23.148  26.178  1.00  0.00     0.042 A 
ATOM     15  C   UNL A   1      37.712  23.733  25.696  1.00  0.00     0.197 A 
ATOM     16  N   UNL A   1      36.884  23.355  26.724  1.00  0.00    -0.348 N 
ATOM     17  H   UNL A   1      37.131  23.253  27.672  1.00  0.00     0.167 HD
BRANCH   9  18
ATOM     18  C   UNL A   1      32.871  21.636  24.037  1.00  0.00     0.321 C 
ATOM     19  O   UNL A   1      31.802  21.720  23.425  1.00  0.00    -0.248 OA
BRANCH  18  20
ATOM     20  N   UNL A   1      33.315  20.377  24.439  1.00  0.00    -0.325 N 
ATOM     21  C   UNL A   1      34.672  20.035  24.861  1.00  0.00     0.149 C 
BRANCH  20  22
ATOM     22  C   UNL A   1      32.427  19.268  24.087  1.00  0.00     0.086 C 
ATOM     23  C   UNL A   1      32.344  18.674  22.714  1.00  0.00     0.027 C 
ATOM     24  C   UNL A   1      32.867  17.849  23.857  1.00  0.00     0.027 C 
ENDBRANCH  20  22
ENDBRANCH  18  20
ENDBRANCH   9  18
ENDBRANCH   5   8
ENDBRANCH   3   4
ENDBRANCH   2   3
ENDBRANCH   1   2
BRANCH   1  25
ATOM     25  C   UNL A   1      33.016  28.759  25.597  1.00  0.00     0.002 C 
BRANCH  25  26
ATOM     26  C   UNL A   1      33.397  28.679  27.076  1.00  0.00     0.021 C 
BRANCH  26  27
ATOM     27  C   UNL A   1      34.879  28.948  27.349  1.00  0.00     0.116 C 
BRANCH  27  28
ATOM     28  N   UNL A   1      35.085  30.033  28.302  1.00  0.00    -0.352 N 
ATOM     29  C   UNL A   1      36.125  30.187  29.196  1.00  0.00     0.251 C 
ATOM     30  H   UNL A   1      34.400  30.741  28.306  1.00  0.00     0.163 HD
ATOM     31  O   UNL A   1      36.006  30.904  30.173  1.00  0.00    -0.269 OA
BRANCH  29  32
ATOM     32  C   UNL A   1      37.380  29.454  28.942  1.00  0.00     0.039 A 
ATOM     33  C   UNL A   1      38.128  29.734  27.797  1.00  0.00     0.014 A 
ATOM     34  C   UNL A   1      37.823  28.522  29.883  1.00  0.00     0.014 A 
ATOM     35  C   UNL A   1      39.377  29.132  27.642  1.00  0.00     0.010 A 
ATOM     36  C   UNL A   1      39.079  27.952  29.742  1.00  0.00     0.010 A 
ATOM     37  C   UNL A   1      39.868  28.260  28.627  1.00  0.00    -0.014 A 
BRANCH  37  38
ATOM     38  C   UNL A   1      41.271  27.826  28.557  1.00  0.00     0.031 A 
ATOM     39  C   UNL A   1      41.535  26.563  27.801  1.00  0.00     0.074 A 
ATOM     40  C   UNL A   1      42.332  28.595  28.877  1.00  0.00     0.049 A 
ATOM     41  N   UNL A   1      42.109  25.477  28.210  1.00  0.00    -0.248 NA
ATOM     42  C   UNL A   1      41.041  26.481  26.419  1.00  0.00     0.031 C 
ATOM     43  C   UNL A   1      42.328  29.999  29.289  1.00  0.00     0.029 A 
ATOM     44  N   UNL A   1      43.663  28.308  28.758  1.00  0.00    -0.354 N 
ATOM     45  C   UNL A   1      42.229  24.643  27.096  1.00  0.00     0.074 A 
ATOM     46  C   UNL A   1      41.427  25.254  26.070  1.00  0.00     0.031 C 
ATOM     47  C   UNL A   1      43.572  30.505  29.147  1.00  0.00     0.029 A 
ATOM     48  C   UNL A   1      44.481  29.429  28.789  1.00  0.00     0.049 A 
ATOM     49  H   UNL A   1      44.010  27.392  28.659  1.00  0.00     0.167 HD
ATOM     50  C   UNL A   1      43.124  23.611  27.059  1.00  0.00     0.034 A 
ATOM     51  C   UNL A   1      45.802  29.497  28.490  1.00  0.00     0.034 A 
ATOM     52  C   UNL A   1      43.583  23.276  28.391  1.00  0.00     0.049 A 
ATOM     53  C   UNL A   1      46.372  28.140  28.659  1.00  0.00     0.074 A 
ATOM     54  C   UNL A   1      42.965  22.905  29.571  1.00  0.00     0.029 A 
ATOM     55  N   UNL A   1      44.867  23.618  28.756  1.00  0.00    -0.354 N 
ATOM     56  N   UNL A   1      46.426  27.518  29.805  1.00  0.00    -0.248 NA
ATOM     57  C   UNL A   1      46.534  27.290  27.490  1.00  0.00     0.031 C 
ATOM     58  C   UNL A   1      43.720  23.541  30.599  1.00  0.00     0.029 A 
ATOM     59  C   UNL A   1      44.782  24.211  29.989  1.00  0.00     0.049 A 
ATOM     60  H   UNL A   1      45.687  23.467  28.232  1.00  0.00     0.167 HD
ATOM     61  C   UNL A   1      46.195  26.187  29.503  1.00  0.00     0.074 A 
ATOM     62  C   UNL A   1      46.408  26.090  28.063  1.00  0.00     0.031 C 
ATOM     63  C   UNL A   1      45.575  25.355  30.393  1.00  0.00     0.034 A 
BRANCH  50  64
ATOM     64  C   UNL A   1      43.854  23.106  25.819  1.00  0.00     0.023 A 
ATOM     65  C   UNL A   1      43.651  21.754  25.466  1.00  0.00     0.031 A 
ATOM     66  C   UNL A   1      44.924  23.743  25.157  1.00  0.00     0.131 A 
ATOM     67  C   UNL A   1      44.569  21.062  24.656  1.00  0.00     0.055 A 
ATOM     68  C   UNL A   1      45.790  23.070  24.284  1.00  0.00     0.041 A 
ATOM     69  F   UNL A   1      45.247  25.024  25.360  1.00  0.00    -0.206 F 
ATOM     70  C   UNL A   1      45.646  21.711  24.066  1.00  0.00     0.022 A 
BRANCH  67  71
ATOM     71  S   UNL A   1      44.455  19.254  24.591  1.00  0.00     0.124 S 
ATOM     72  O   UNL A   1      43.053  19.040  24.935  1.00  0.00    -0.237 OA
ATOM     73  O   UNL A   1      44.828  18.982  23.207  1.00  0.00    -0.237 OA
ATOM     74  O   UNL A   1      45.419  18.817  25.597  1.00  0.00    -0.744 OA
ENDBRANCH  67  71
ENDBRANCH  50  64
BRANCH  51  75
ATOM     75  C   UNL A   1      46.503  30.628  27.835  1.00  0.00     0.023 A 
ATOM     76  C   UNL A   1      45.841  31.578  27.035  1.00  0.00     0.031 A 
ATOM     77  C   UNL A   1      47.850  30.906  28.169  1.00  0.00     0.131 A 
ATOM     78  C   UNL A   1      46.527  32.729  26.586  1.00  0.00     0.055 A 
ATOM     79  C   UNL A   1      48.528  32.035  27.710  1.00  0.00     0.041 A 
ATOM     80  F   UNL A   1      48.529  30.121  29.022  1.00  0.00    -0.206 F 
ATOM     81  C   UNL A   1      47.865  32.958  26.918  1.00  0.00     0.022 A 
BRANCH  78  82
ATOM     82  S   UNL A   1      45.642  34.010  25.642  1.00  0.00     0.124 S 
ATOM     83  O   UNL A   1      45.041  34.815  26.698  1.00  0.00    -0.237 OA
ATOM     84  O   UNL A   1      46.715  34.636  24.879  1.00  0.00    -0.237 OA
ATOM     85  O   UNL A   1      44.690  33.243  24.837  1.00  0.00    -0.744 OA
ENDBRANCH  78  82
ENDBRANCH  51  75
BRANCH  63  86
ATOM     86  C   UNL A   1      45.464  25.782  31.840  1.00  0.00     0.023 A 
ATOM     87  C   UNL A   1      44.271  26.224  32.454  1.00  0.00     0.031 A 
ATOM     88  C   UNL A   1      46.591  25.600  32.662  1.00  0.00     0.131 A 
ATOM     89  C   UNL A   1      44.242  26.477  33.839  1.00  0.00     0.055 A 
ATOM     90  C   UNL A   1      46.555  25.834  34.036  1.00  0.00     0.041 A 
ATOM     91  F   UNL A   1      47.746  25.147  32.145  1.00  0.00    -0.206 F 
ATOM     92  C   UNL A   1      45.379  26.278  34.629  1.00  0.00     0.022 A 
BRANCH  89  93
ATOM     93  S   UNL A   1      42.719  27.072  34.639  1.00  0.00     0.124 S 
ATOM     94  O   UNL A   1      42.006  27.747  33.561  1.00  0.00    -0.237 OA
ATOM     95  O   UNL A   1      42.117  25.836  35.130  1.00  0.00    -0.237 OA
ATOM     96  O   UNL A   1      43.214  27.962  35.691  1.00  0.00    -0.744 OA
ENDBRANCH  89  93
ENDBRANCH  63  86
ENDBRANCH  37  38
ENDBRANCH  29  32
ENDBRANCH  27  28
ENDBRANCH  26  27
ENDBRANCH  25  26
ENDBRANCH   1  25
TORSDOF 19
ENDMDL
MODEL 2
REMARK VINA RESULT:     -12.1      3.754      8.849
REMARK SMILES CN(C(=O)N1Cc2nc[nH]c2C[C@@H]1C(=O)NCCCCCCNC(=O)c1ccc(-c2c3nc(c(-c4cc(S(=O)(=O)[O-])ccc4F)c4ccc([nH]4)c(-c4cc(S(=O)(=O)[O-])ccc4F)c4nc(c(-c5cc(S(=O)(=O)[O-])ccc5F)c5ccc2[nH]5)C=C4)C=C3)cc1)C1CC1
REMARK SMILES IDX 19 1 18 2 17 3 16 4 14 5 15 6 13 8 5 9 6 10 7 11 12 12 8 13
REMARK SMILES IDX 11 14 9 15 10 16 3 18 4 19 2 20 1 21 89 22 90 23 91 24 20 25
REMARK SMILES IDX 21 26 22 27 23 28 24 29 25 31 26 32 27 33 88 34 28 35 87 36
REMARK SMILES IDX 29 37 30 38 31 39 81 40 32 41 86 42 80 43 82 44 33 45 85 46
REMARK SMILES IDX 79 47 78 48 34 50 66 51 46 52 65 53 47 54 50 55 64 56 83 57
REMARK SMILES IDX 48 58 49 59 63 61 84 62 51 63 35 64 36 65 44 66 37 67 43 68
REMARK SMILES IDX 45 69 42 70 38 71 39 72 40 73 41 74 67 75 68 76 76 77 69 78
REMARK SMILES IDX 75 79 77 80 74 81 70 82 71 83 72 84 73 85 52 86 53 87 61 88
REMARK SMILES IDX 54 89 60 90 62 91 59 92 55 93 56 94 57 95 58 96
REMARK H PARENT 16 7 10 17 23 30 82 49 50 60
REMARK Flexibility Score: inf
ROOT
ATOM      1  C   UNL A   1      35.602  22.269  24.140  1.00  0.00     0.002 C 
ENDROOT
BRANCH   1   2
ATOM      2  C   UNL A   1      34.925  23.433  23.400  1.00  0.00     0.021 C 
BRANCH   2   3
ATOM      3  C   UNL A   1      33.593  23.975  23.940  1.00  0.00     0.116 C 
BRANCH   3   4
ATOM      4  N   UNL A   1      32.801  24.707  22.962  1.00  0.00    -0.354 N 
ATOM      5  C   UNL A   1      33.150  25.990  22.558  1.00  0.00     0.243 C 
ATOM      6  O   UNL A   1      33.698  26.214  21.482  1.00  0.00    -0.273 OA
ATOM      7  H   UNL A   1      32.001  24.282  22.578  1.00  0.00     0.163 HD
BRANCH   5   8
ATOM      8  C   UNL A   1      32.988  27.055  23.647  1.00  0.00     0.182 C 
ATOM      9  N   UNL A   1      31.630  27.584  23.925  1.00  0.00    -0.306 N 
ATOM     10  C   UNL A   1      31.405  27.818  25.379  1.00  0.00     0.180 C 
ATOM     11  C   UNL A   1      32.621  28.508  25.932  1.00  0.00     0.081 A 
ATOM     12  C   UNL A   1      34.028  28.201  23.824  1.00  0.00     0.091 C 
ATOM     13  N   UNL A   1      32.792  28.843  27.246  1.00  0.00    -0.240 NA
ATOM     14  C   UNL A   1      33.796  28.703  25.224  1.00  0.00     0.042 A 
ATOM     15  C   UNL A   1      34.020  29.307  27.322  1.00  0.00     0.197 A 
ATOM     16  N   UNL A   1      34.656  29.288  26.105  1.00  0.00    -0.348 N 
ATOM     17  H   UNL A   1      35.557  29.631  25.907  1.00  0.00     0.167 HD
BRANCH   9  18
ATOM     18  C   UNL A   1      30.698  28.122  23.061  1.00  0.00     0.321 C 
ATOM     19  O   UNL A   1      31.052  28.947  22.214  1.00  0.00    -0.248 OA
BRANCH  18  20
ATOM     20  N   UNL A   1      29.335  27.931  23.282  1.00  0.00    -0.325 N 
ATOM     21  C   UNL A   1      28.700  26.695  23.736  1.00  0.00     0.149 C 
BRANCH  20  22
ATOM     22  C   UNL A   1      28.466  28.950  22.693  1.00  0.00     0.086 C 
ATOM     23  C   UNL A   1      27.011  29.092  23.023  1.00  0.00     0.027 C 
ATOM     24  C   UNL A   1      27.976  30.182  23.402  1.00  0.00     0.027 C 
ENDBRANCH  20  22
ENDBRANCH  18  20
ENDBRANCH   9  18
ENDBRANCH   5   8
ENDBRANCH   3   4
ENDBRANCH   2   3
ENDBRANCH   1   2
BRANCH   1  25
ATOM     25  C   UNL A   1      37.129  22.206  24.142  1.00  0.00     0.002 C 
BRANCH  25  26
ATOM     26  C   UNL A   1      37.728  21.564  25.394  1.00  0.00     0.021 C 
BRANCH  26  27
ATOM     27  C   UNL A   1      38.647  22.495  26.188  1.00  0.00     0.116 C 
BRANCH  27  28
ATOM     28  N   UNL A   1      40.052  22.121  26.078  1.00  0.00    -0.352 N 
ATOM     29  C   UNL A   1      41.159  22.919  26.292  1.00  0.00     0.251 C 
ATOM     30  H   UNL A   1      40.233  21.188  25.822  1.00  0.00     0.163 HD
ATOM     31  O   UNL A   1      42.242  22.622  25.821  1.00  0.00    -0.269 OA
BRANCH  29  32
ATOM     32  C   UNL A   1      40.993  24.142  27.101  1.00  0.00     0.039 A 
ATOM     33  C   UNL A   1      41.903  24.429  28.120  1.00  0.00     0.014 A 
ATOM     34  C   UNL A   1      39.949  25.018  26.797  1.00  0.00     0.014 A 
ATOM     35  C   UNL A   1      41.811  25.654  28.782  1.00  0.00     0.010 A 
ATOM     36  C   UNL A   1      39.882  26.249  27.434  1.00  0.00     0.010 A 
ATOM     37  C   UNL A   1      40.817  26.578  28.422  1.00  0.00    -0.014 A 
BRANCH  37  38
ATOM     38  C   UNL A   1      40.885  27.943  28.965  1.00  0.00     0.031 A 
ATOM     39  C   UNL A   1      41.941  28.832  28.391  1.00  0.00     0.074 A 
ATOM     40  C   UNL A   1      39.927  28.520  29.721  1.00  0.00     0.049 A 
ATOM     41  N   UNL A   1      42.897  29.456  29.000  1.00  0.00    -0.248 NA
ATOM     42  C   UNL A   1      41.967  29.001  26.931  1.00  0.00     0.031 C 
ATOM     43  C   UNL A   1      38.630  27.961  30.100  1.00  0.00     0.029 A 
ATOM     44  N   UNL A   1      39.865  29.802  30.190  1.00  0.00    -0.354 N 
ATOM     45  C   UNL A   1      43.531  30.252  28.043  1.00  0.00     0.074 A 
ATOM     46  C   UNL A   1      43.010  29.818  26.775  1.00  0.00     0.031 C 
ATOM     47  C   UNL A   1      37.823  28.960  30.517  1.00  0.00     0.029 A 
ATOM     48  C   UNL A   1      38.592  30.192  30.582  1.00  0.00     0.049 A 
ATOM     49  H   UNL A   1      40.650  30.395  30.246  1.00  0.00     0.167 HD
ATOM     50  C   UNL A   1      44.302  31.325  28.392  1.00  0.00     0.034 A 
ATOM     51  C   UNL A   1      38.169  31.443  30.889  1.00  0.00     0.034 A 
ATOM     52  C   UNL A   1      44.680  31.261  29.789  1.00  0.00     0.049 A 
ATOM     53  C   UNL A   1      39.357  32.237  31.278  1.00  0.00     0.074 A 
ATOM     54  C   UNL A   1      45.334  30.334  30.579  1.00  0.00     0.029 A 
ATOM     55  N   UNL A   1      44.084  32.128  30.678  1.00  0.00    -0.354 N 
ATOM     56  N   UNL A   1      40.085  31.977  32.330  1.00  0.00    -0.248 NA
ATOM     57  C   UNL A   1      39.988  33.097  30.290  1.00  0.00     0.031 C 
ATOM     58  C   UNL A   1      44.667  30.387  31.838  1.00  0.00     0.029 A 
ATOM     59  C   UNL A   1      43.689  31.378  31.756  1.00  0.00     0.049 A 
ATOM     60  H   UNL A   1      43.965  33.098  30.562  1.00  0.00     0.167 HD
ATOM     61  C   UNL A   1      41.384  32.266  31.946  1.00  0.00     0.074 A 
ATOM     62  C   UNL A   1      41.245  33.078  30.742  1.00  0.00     0.031 C 
ATOM     63  C   UNL A   1      42.446  31.585  32.473  1.00  0.00     0.034 A 
BRANCH  50  64
ATOM     64  C   UNL A   1      44.455  32.613  27.589  1.00  0.00     0.023 A 
ATOM     65  C   UNL A   1      43.837  33.769  28.115  1.00  0.00     0.031 A 
ATOM     66  C   UNL A   1      44.890  32.723  26.252  1.00  0.00     0.131 A 
ATOM     67  C   UNL A   1      43.522  34.868  27.297  1.00  0.00     0.055 A 
ATOM     68  C   UNL A   1      44.647  33.855  25.462  1.00  0.00     0.041 A 
ATOM     69  F   UNL A   1      45.507  31.731  25.604  1.00  0.00    -0.206 F 
ATOM     70  C   UNL A   1      43.918  34.917  25.966  1.00  0.00     0.022 A 
BRANCH  67  71
ATOM     71  S   UNL A   1      42.381  36.118  27.948  1.00  0.00     0.124 S 
ATOM     72  O   UNL A   1      42.869  37.326  27.288  1.00  0.00    -0.237 OA
ATOM     73  O   UNL A   1      41.092  35.610  27.492  1.00  0.00    -0.237 OA
ATOM     74  O   UNL A   1      42.604  36.060  29.390  1.00  0.00    -0.744 OA
ENDBRANCH  67  71
ENDBRANCH  50  64
BRANCH  51  75
ATOM     75  C   UNL A   1      36.828  32.015  30.612  1.00  0.00     0.023 A 
ATOM     76  C   UNL A   1      36.068  32.689  31.586  1.00  0.00     0.031 A 
ATOM     77  C   UNL A   1      36.354  32.077  29.279  1.00  0.00     0.131 A 
ATOM     78  C   UNL A   1      34.883  33.365  31.219  1.00  0.00     0.055 A 
ATOM     79  C   UNL A   1      35.175  32.732  28.924  1.00  0.00     0.041 A 
ATOM     80  F   UNL A   1      37.070  31.567  28.264  1.00  0.00    -0.206 F 
ATOM     81  C   UNL A   1      34.434  33.385  29.895  1.00  0.00     0.022 A 
BRANCH  78  82
ATOM     82  S   UNL A   1      33.958  34.326  32.457  1.00  0.00     0.124 S 
ATOM     83  O   UNL A   1      32.974  35.023  31.638  1.00  0.00    -0.237 OA
ATOM     84  O   UNL A   1      33.446  33.288  33.344  1.00  0.00    -0.237 OA
ATOM     85  O   UNL A   1      34.980  35.187  33.054  1.00  0.00    -0.744 OA
ENDBRANCH  78  82
ENDBRANCH  51  75
BRANCH  63  86
ATOM     86  C   UNL A   1      42.243  30.769  33.731  1.00  0.00     0.023 A 
ATOM     87  C   UNL A   1      42.108  29.364  33.759  1.00  0.00     0.031 A 
ATOM     88  C   UNL A   1      42.330  31.440  34.964  1.00  0.00     0.131 A 
ATOM     89  C   UNL A   1      42.052  28.685  34.991  1.00  0.00     0.055 A 
ATOM     90  C   UNL A   1      42.293  30.764  36.183  1.00  0.00     0.041 A 
ATOM     91  F   UNL A   1      42.496  32.774  35.005  1.00  0.00    -0.206 F 
ATOM     92  C   UNL A   1      42.148  29.382  36.200  1.00  0.00     0.022 A 
BRANCH  89  93
ATOM     93  S   UNL A   1      41.850  26.877  35.042  1.00  0.00     0.124 S 
ATOM     94  O   UNL A   1      43.021  26.380  34.329  1.00  0.00    -0.237 OA
ATOM     95  O   UNL A   1      41.810  26.604  36.477  1.00  0.00    -0.237 OA
ATOM     96  O   UNL A   1      40.579  26.657  34.350  1.00  0.00    -0.744 OA
ENDBRANCH  89  93
ENDBRANCH  63  86
ENDBRANCH  37  38
ENDBRANCH  29  32
ENDBRANCH  27  28
ENDBRANCH  26  27
ENDBRANCH  25  26
ENDBRANCH   1  25
TORSDOF 19
ENDMDL
MODEL 3
REMARK VINA RESULT:     -12.1      3.842      8.585
REMARK SMILES CN(C(=O)N1Cc2nc[nH]c2C[C@@H]1C(=O)NCCCCCCNC(=O)c1ccc(-c2c3nc(c(-c4cc(S(=O)(=O)[O-])ccc4F)c4ccc([nH]4)c(-c4cc(S(=O)(=O)[O-])ccc4F)c4nc(c(-c5cc(S(=O)(=O)[O-])ccc5F)c5ccc2[nH]5)C=C4)C=C3)cc1)C1CC1
REMARK SMILES IDX 19 1 18 2 17 3 16 4 14 5 15 6 13 8 5 9 6 10 7 11 12 12 8 13
REMARK SMILES IDX 11 14 9 15 10 16 3 18 4 19 2 20 1 21 89 22 90 23 91 24 20 25
REMARK SMILES IDX 21 26 22 27 23 28 24 29 25 31 26 32 27 33 88 34 28 35 87 36
REMARK SMILES IDX 29 37 30 38 31 39 81 40 32 41 86 42 80 43 82 44 33 45 85 46
REMARK SMILES IDX 79 47 78 48 34 50 66 51 46 52 65 53 47 54 50 55 64 56 83 57
REMARK SMILES IDX 48 58 49 59 63 61 84 62 51 63 35 64 36 65 44 66 37 67 43 68
REMARK SMILES IDX 45 69 42 70 38 71 39 72 40 73 41 74 67 75 68 76 76 77 69 78
REMARK SMILES IDX 75 79 77 80 74 81 70 82 71 83 72 84 73 85 52 86 53 87 61 88
REMARK SMILES IDX 54 89 60 90 62 91 59 92 55 93 56 94 57 95 58 96
REMARK H PARENT 16 7 10 17 23 30 82 49 50 60
REMARK Flexibility Score: inf
ROOT
ATOM      1  C   UNL A   1      34.530  23.611  23.701  1.00  0.00     0.002 C 
ENDROOT
BRANCH   1   2
ATOM      2  C   UNL A   1      33.623  24.791  23.320  1.00  0.00     0.021 C 
BRANCH   2   3
ATOM      3  C   UNL A   1      32.189  24.826  23.868  1.00  0.00     0.116 C 
BRANCH   3   4
ATOM      4  N   UNL A   1      32.097  24.741  25.318  1.00  0.00    -0.354 N 
ATOM      5  C   UNL A   1      31.455  25.722  26.065  1.00  0.00     0.243 C 
ATOM      6  O   UNL A   1      30.327  25.566  26.524  1.00  0.00    -0.273 OA
ATOM      7  H   UNL A   1      32.499  23.971  25.781  1.00  0.00     0.163 HD
BRANCH   5   8
ATOM      8  C   UNL A   1      32.180  27.072  26.080  1.00  0.00     0.182 C 
ATOM      9  N   UNL A   1      31.612  28.190  25.289  1.00  0.00    -0.306 N 
ATOM     10  C   UNL A   1      31.741  29.497  25.991  1.00  0.00     0.180 C 
ATOM     11  C   UNL A   1      33.134  29.589  26.550  1.00  0.00     0.081 A 
ATOM     12  C   UNL A   1      33.736  27.159  26.044  1.00  0.00     0.091 C 
ATOM     13  N   UNL A   1      33.603  30.633  27.297  1.00  0.00    -0.240 NA
ATOM     14  C   UNL A   1      34.042  28.542  26.553  1.00  0.00     0.042 A 
ATOM     15  C   UNL A   1      34.805  30.263  27.682  1.00  0.00     0.197 A 
ATOM     16  N   UNL A   1      35.138  29.017  27.212  1.00  0.00    -0.348 N 
ATOM     17  H   UNL A   1      36.000  28.556  27.327  1.00  0.00     0.167 HD
BRANCH   9  18
ATOM     18  C   UNL A   1      31.253  28.237  23.957  1.00  0.00     0.321 C 
ATOM     19  O   UNL A   1      32.102  28.505  23.102  1.00  0.00    -0.248 OA
BRANCH  18  20
ATOM     20  N   UNL A   1      29.910  28.222  23.586  1.00  0.00    -0.325 N 
ATOM     21  C   UNL A   1      29.038  27.048  23.548  1.00  0.00     0.149 C 
BRANCH  20  22
ATOM     22  C   UNL A   1      29.455  29.413  22.868  1.00  0.00     0.086 C 
ATOM     23  C   UNL A   1      28.026  29.861  22.826  1.00  0.00     0.027 C 
ATOM     24  C   UNL A   1      29.058  30.711  23.514  1.00  0.00     0.027 C 
ENDBRANCH  20  22
ENDBRANCH  18  20
ENDBRANCH   9  18
ENDBRANCH   5   8
ENDBRANCH   3   4
ENDBRANCH   2   3
ENDBRANCH   1   2
BRANCH   1  25
ATOM     25  C   UNL A   1      35.378  23.732  24.967  1.00  0.00     0.002 C 
BRANCH  25  26
ATOM     26  C   UNL A   1      36.794  23.171  24.829  1.00  0.00     0.021 C 
BRANCH  26  27
ATOM     27  C   UNL A   1      37.790  23.752  25.835  1.00  0.00     0.116 C 
BRANCH  27  28
ATOM     28  N   UNL A   1      38.931  22.872  26.065  1.00  0.00    -0.352 N 
ATOM     29  C   UNL A   1      40.147  23.195  26.632  1.00  0.00     0.251 C 
ATOM     30  H   UNL A   1      38.819  21.936  25.781  1.00  0.00     0.163 HD
ATOM     31  O   UNL A   1      41.130  22.503  26.436  1.00  0.00    -0.269 OA
BRANCH  29  32
ATOM     32  C   UNL A   1      40.226  24.403  27.476  1.00  0.00     0.039 A 
ATOM     33  C   UNL A   1      41.415  24.711  28.139  1.00  0.00     0.014 A 
ATOM     34  C   UNL A   1      39.116  25.246  27.557  1.00  0.00     0.014 A 
ATOM     35  C   UNL A   1      41.515  25.925  28.819  1.00  0.00     0.010 A 
ATOM     36  C   UNL A   1      39.230  26.467  28.206  1.00  0.00     0.010 A 
ATOM     37  C   UNL A   1      40.432  26.818  28.832  1.00  0.00    -0.014 A 
BRANCH  37  38
ATOM     38  C   UNL A   1      40.638  28.178  29.351  1.00  0.00     0.031 A 
ATOM     39  C   UNL A   1      41.696  28.990  28.675  1.00  0.00     0.074 A 
ATOM     40  C   UNL A   1      39.792  28.823  30.180  1.00  0.00     0.049 A 
ATOM     41  N   UNL A   1      42.742  29.552  29.190  1.00  0.00    -0.248 NA
ATOM     42  C   UNL A   1      41.605  29.148  27.216  1.00  0.00     0.031 C 
ATOM     43  C   UNL A   1      38.498  28.355  30.678  1.00  0.00     0.029 A 
ATOM     44  N   UNL A   1      39.857  30.110  30.637  1.00  0.00    -0.354 N 
ATOM     45  C   UNL A   1      43.340  30.298  28.172  1.00  0.00     0.074 A 
ATOM     46  C   UNL A   1      42.682  29.892  26.959  1.00  0.00     0.031 C 
ATOM     47  C   UNL A   1      37.800  29.409  31.153  1.00  0.00     0.029 A 
ATOM     48  C   UNL A   1      38.652  30.587  31.135  1.00  0.00     0.049 A 
ATOM     49  H   UNL A   1      40.681  30.648  30.616  1.00  0.00     0.167 HD
ATOM     50  C   UNL A   1      44.209  31.318  28.438  1.00  0.00     0.034 A 
ATOM     51  C   UNL A   1      38.342  31.866  31.462  1.00  0.00     0.034 A 
ATOM     52  C   UNL A   1      44.703  31.237  29.797  1.00  0.00     0.049 A 
ATOM     53  C   UNL A   1      39.610  32.580  31.736  1.00  0.00     0.074 A 
ATOM     54  C   UNL A   1      45.362  30.274  30.538  1.00  0.00     0.029 A 
ATOM     55  N   UNL A   1      44.248  32.148  30.724  1.00  0.00    -0.354 N 
ATOM     56  N   UNL A   1      40.409  32.278  32.722  1.00  0.00    -0.248 NA
ATOM     57  C   UNL A   1      40.208  33.389  30.686  1.00  0.00     0.031 C 
ATOM     58  C   UNL A   1      44.814  30.379  31.850  1.00  0.00     0.029 A 
ATOM     59  C   UNL A   1      43.901  31.434  31.842  1.00  0.00     0.049 A 
ATOM     60  H   UNL A   1      44.184  33.124  30.607  1.00  0.00     0.167 HD
ATOM     61  C   UNL A   1      41.685  32.476  32.223  1.00  0.00     0.074 A 
ATOM     62  C   UNL A   1      41.495  33.288  31.026  1.00  0.00     0.031 C 
ATOM     63  C   UNL A   1      42.742  31.729  32.662  1.00  0.00     0.034 A 
BRANCH  50  64
ATOM     64  C   UNL A   1      44.376  32.588  27.610  1.00  0.00     0.023 A 
ATOM     65  C   UNL A   1      43.753  33.757  28.100  1.00  0.00     0.031 A 
ATOM     66  C   UNL A   1      44.831  32.668  26.277  1.00  0.00     0.131 A 
ATOM     67  C   UNL A   1      43.451  34.838  27.253  1.00  0.00     0.055 A 
ATOM     68  C   UNL A   1      44.602  33.782  25.458  1.00  0.00     0.041 A 
ATOM     69  F   UNL A   1      45.456  31.661  25.660  1.00  0.00    -0.206 F 
ATOM     70  C   UNL A   1      43.867  34.856  25.928  1.00  0.00     0.022 A 
BRANCH  67  71
ATOM     71  S   UNL A   1      42.303  36.103  27.860  1.00  0.00     0.124 S 
ATOM     72  O   UNL A   1      41.047  35.359  27.895  1.00  0.00    -0.237 OA
ATOM     73  O   UNL A   1      42.889  36.442  29.152  1.00  0.00    -0.237 OA
ATOM     74  O   UNL A   1      42.382  37.147  26.842  1.00  0.00    -0.744 OA
ENDBRANCH  67  71
ENDBRANCH  50  64
BRANCH  51  75
ATOM     75  C   UNL A   1      37.023  32.525  31.297  1.00  0.00     0.023 A 
ATOM     76  C   UNL A   1      36.594  33.082  30.078  1.00  0.00     0.031 A 
ATOM     77  C   UNL A   1      36.058  32.430  32.328  1.00  0.00     0.131 A 
ATOM     78  C   UNL A   1      35.263  33.535  29.934  1.00  0.00     0.055 A 
ATOM     79  C   UNL A   1      34.750  32.893  32.187  1.00  0.00     0.041 A 
ATOM     80  F   UNL A   1      36.338  31.807  33.484  1.00  0.00    -0.206 F 
ATOM     81  C   UNL A   1      34.344  33.445  30.984  1.00  0.00     0.022 A 
BRANCH  78  82
ATOM     82  S   UNL A   1      34.677  34.156  28.327  1.00  0.00     0.124 S 
ATOM     83  O   UNL A   1      34.797  35.600  28.490  1.00  0.00    -0.237 OA
ATOM     84  O   UNL A   1      35.602  33.529  27.390  1.00  0.00    -0.237 OA
ATOM     85  O   UNL A   1      33.302  33.660  28.250  1.00  0.00    -0.744 OA
ENDBRANCH  78  82
ENDBRANCH  51  75
BRANCH  63  86
ATOM     86  C   UNL A   1      42.598  30.937  33.943  1.00  0.00     0.023 A 
ATOM     87  C   UNL A   1      42.232  29.574  34.003  1.00  0.00     0.031 A 
ATOM     88  C   UNL A   1      42.983  31.561  35.143  1.00  0.00     0.131 A 
ATOM     89  C   UNL A   1      42.249  28.892  35.235  1.00  0.00     0.055 A 
ATOM     90  C   UNL A   1      43.017  30.879  36.359  1.00  0.00     0.041 A 
ATOM     91  F   UNL A   1      43.377  32.846  35.147  1.00  0.00    -0.206 F 
ATOM     92  C   UNL A   1      42.645  29.541  36.409  1.00  0.00     0.022 A 
BRANCH  89  93
ATOM     93  S   UNL A   1      41.754  27.143  35.331  1.00  0.00     0.124 S 
ATOM     94  O   UNL A   1      41.107  27.040  36.634  1.00  0.00    -0.237 OA
ATOM     95  O   UNL A   1      40.883  26.997  34.169  1.00  0.00    -0.237 OA
ATOM     96  O   UNL A   1      43.026  26.424  35.227  1.00  0.00    -0.744 OA
ENDBRANCH  89  93
ENDBRANCH  63  86
ENDBRANCH  37  38
ENDBRANCH  29  32
ENDBRANCH  27  28
ENDBRANCH  26  27
ENDBRANCH  25  26
ENDBRANCH   1  25
TORSDOF 19
ENDMDL
