MODEL 1
REMARK VINA RESULT:     -11.6      0.000      0.000
REMARK SMILES C[C@@H](C(=O)NCCCCCCNC(=O)c1ccc(-c2c3nc(c(-c4cc(S(=O)(=O)[O-])ccc4F)c4ccc([nH]4)c(-c4cc(S(=O)(=O)[O-])ccc4F)c4nc(c(-c5cc(S(=O)(=O)[O-])ccc5F)c5ccc2[nH]5)C=C4)C=C3)cc1)n1ccc(C(=O)N2CC[NH+](Cc3cccc(F)c3)CC2)n1
REMARK SMILES IDX 8 1 7 2 6 3 5 4 3 5 4 6 2 8 1 9 78 10 79 11 98 12 80 13
REMARK SMILES IDX 81 14 82 15 83 16 84 17 85 18 97 19 86 20 96 21 87 22 88 24
REMARK SMILES IDX 89 25 90 26 95 27 91 28 93 29 92 30 94 31 9 32 10 33 11 34
REMARK SMILES IDX 12 35 13 36 14 38 15 39 16 40 77 41 17 42 76 43 18 44 19 45
REMARK SMILES IDX 20 46 70 47 21 48 75 49 69 50 71 51 22 52 74 53 68 54 67 55
REMARK SMILES IDX 23 57 55 58 35 59 54 60 36 61 39 62 53 63 72 64 37 65 38 66
REMARK SMILES IDX 52 68 73 69 40 70 24 71 25 72 33 73 26 74 32 75 34 76 31 77
REMARK SMILES IDX 27 78 28 79 29 80 30 81 56 82 57 83 65 84 58 85 64 86 66 87
REMARK SMILES IDX 63 88 59 89 60 90 61 91 62 92 41 93 42 94 50 95 43 96 49 97
REMARK SMILES IDX 51 98 48 99 44 100 45 101 46 102 47 103
REMARK H PARENT 5 7 87 23 12 37 71 56 39 67
REMARK Flexibility Score: inf
ROOT
ATOM      1  C   UNL A   1      35.000  31.866  28.517  1.00  0.00     0.002 C 
ENDROOT
BRANCH   1   2
ATOM      2  C   UNL A   1      34.586  30.644  27.688  1.00  0.00     0.021 C 
BRANCH   2   3
ATOM      3  C   UNL A   1      33.166  30.722  27.120  1.00  0.00     0.116 C 
BRANCH   3   4
ATOM      4  N   UNL A   1      32.555  29.406  27.088  1.00  0.00    -0.354 N 
ATOM      5  C   UNL A   1      31.815  28.807  26.106  1.00  0.00     0.244 C 
ATOM      6  O   UNL A   1      31.244  27.758  26.410  1.00  0.00    -0.273 OA
ATOM      7  H   UNL A   1      32.694  28.862  27.897  1.00  0.00     0.163 HD
BRANCH   5   8
ATOM      8  C   UNL A   1      31.767  29.431  24.713  1.00  0.00     0.193 C 
ATOM      9  C   UNL A   1      30.323  29.469  24.187  1.00  0.00     0.044 C 
BRANCH   8  10
ATOM     10  N   UNL A   1      32.656  28.745  23.766  1.00  0.00    -0.260 N 
ATOM     11  C   UNL A   1      33.812  29.181  23.183  1.00  0.00     0.110 A 
ATOM     12  N   UNL A   1      32.279  27.541  23.308  1.00  0.00    -0.167 NA
ATOM     13  C   UNL A   1      34.288  28.119  22.445  1.00  0.00     0.056 A 
ATOM     14  C   UNL A   1      33.300  27.109  22.553  1.00  0.00     0.150 A 
BRANCH  14  15
ATOM     15  C   UNL A   1      33.337  25.732  22.044  1.00  0.00     0.274 C 
ATOM     16  O   UNL A   1      33.186  25.502  20.837  1.00  0.00    -0.267 OA
ATOM     17  N   UNL A   1      33.612  24.706  22.961  1.00  0.00    -0.326 N 
ATOM     18  C   UNL A   1      34.012  23.423  22.409  1.00  0.00     0.181 C 
ATOM     19  C   UNL A   1      33.003  24.704  24.297  1.00  0.00     0.181 C 
ATOM     20  C   UNL A   1      34.555  22.421  23.442  1.00  0.00     0.284 C 
ATOM     21  C   UNL A   1      33.586  23.662  25.267  1.00  0.00     0.284 C 
ATOM     22  N   UNL A   1      33.821  22.327  24.708  1.00  0.00    -0.328 N 
ATOM     23  H   UNL A   1      34.440  21.843  25.358  1.00  0.00     0.348 HD
BRANCH  22  24
ATOM     24  C   UNL A   1      32.692  21.396  24.750  1.00  0.00     0.299 C 
BRANCH  24  25
ATOM     25  C   UNL A   1      32.915  19.994  24.234  1.00  0.00     0.009 A 
ATOM     26  C   UNL A   1      32.159  19.492  23.160  1.00  0.00     0.010 A 
ATOM     27  C   UNL A   1      33.899  19.171  24.801  1.00  0.00     0.048 A 
ATOM     28  C   UNL A   1      32.440  18.237  22.612  1.00  0.00     0.004 A 
ATOM     29  C   UNL A   1      34.177  17.928  24.242  1.00  0.00     0.123 A 
ATOM     30  C   UNL A   1      33.467  17.460  23.146  1.00  0.00     0.039 A 
ATOM     31  F   UNL A   1      35.163  17.182  24.759  1.00  0.00    -0.207 F 
ENDBRANCH  24  25
ENDBRANCH  22  24
ENDBRANCH  14  15
ENDBRANCH   8  10
ENDBRANCH   5   8
ENDBRANCH   3   4
ENDBRANCH   2   3
ENDBRANCH   1   2
BRANCH   1  32
ATOM     32  C   UNL A   1      35.380  33.104  27.700  1.00  0.00     0.002 C 
BRANCH  32  33
ATOM     33  C   UNL A   1      34.564  34.359  28.015  1.00  0.00     0.021 C 
BRANCH  33  34
ATOM     34  C   UNL A   1      33.202  34.088  28.645  1.00  0.00     0.116 C 
BRANCH  34  35
ATOM     35  N   UNL A   1      32.880  35.056  29.681  1.00  0.00    -0.352 N 
ATOM     36  C   UNL A   1      33.400  35.145  30.947  1.00  0.00     0.251 C 
ATOM     37  H   UNL A   1      32.205  35.733  29.444  1.00  0.00     0.163 HD
ATOM     38  O   UNL A   1      32.889  35.905  31.773  1.00  0.00    -0.269 OA
BRANCH  36  39
ATOM     39  C   UNL A   1      34.556  34.306  31.316  1.00  0.00     0.039 A 
ATOM     40  C   UNL A   1      35.850  34.776  31.072  1.00  0.00     0.014 A 
ATOM     41  C   UNL A   1      34.357  33.062  31.922  1.00  0.00     0.014 A 
ATOM     42  C   UNL A   1      36.949  34.019  31.486  1.00  0.00     0.010 A 
ATOM     43  C   UNL A   1      35.452  32.337  32.382  1.00  0.00     0.010 A 
ATOM     44  C   UNL A   1      36.758  32.806  32.164  1.00  0.00    -0.014 A 
BRANCH  44  45
ATOM     45  C   UNL A   1      37.897  31.976  32.628  1.00  0.00     0.031 A 
ATOM     46  C   UNL A   1      38.531  32.276  33.957  1.00  0.00     0.074 A 
ATOM     47  C   UNL A   1      38.426  31.040  31.818  1.00  0.00     0.049 A 
ATOM     48  N   UNL A   1      39.645  31.822  34.470  1.00  0.00    -0.248 NA
ATOM     49  C   UNL A   1      37.831  33.256  34.799  1.00  0.00     0.031 C 
ATOM     50  C   UNL A   1      37.918  30.681  30.493  1.00  0.00     0.029 A 
ATOM     51  N   UNL A   1      39.530  30.242  31.979  1.00  0.00    -0.354 N 
ATOM     52  C   UNL A   1      39.800  32.489  35.681  1.00  0.00     0.074 A 
ATOM     53  C   UNL A   1      38.688  33.410  35.795  1.00  0.00     0.031 C 
ATOM     54  C   UNL A   1      38.714  29.741  29.959  1.00  0.00     0.029 A 
ATOM     55  C   UNL A   1      39.810  29.461  30.883  1.00  0.00     0.049 A 
ATOM     56  H   UNL A   1      40.072  30.230  32.801  1.00  0.00     0.167 HD
ATOM     57  C   UNL A   1      40.774  32.337  36.613  1.00  0.00     0.034 A 
ATOM     58  C   UNL A   1      40.847  28.636  30.638  1.00  0.00     0.034 A 
ATOM     59  C   UNL A   1      41.860  31.396  36.489  1.00  0.00     0.049 A 
ATOM     60  C   UNL A   1      41.911  28.467  31.689  1.00  0.00     0.074 A 
ATOM     61  C   UNL A   1      42.871  31.115  37.391  1.00  0.00     0.029 A 
ATOM     62  N   UNL A   1      42.077  30.580  35.384  1.00  0.00    -0.354 N 
ATOM     63  N   UNL A   1      42.037  29.084  32.842  1.00  0.00    -0.248 NA
ATOM     64  C   UNL A   1      42.968  27.486  31.411  1.00  0.00     0.031 C 
ATOM     65  C   UNL A   1      43.726  30.168  36.813  1.00  0.00     0.029 A 
ATOM     66  C   UNL A   1      43.215  29.812  35.575  1.00  0.00     0.049 A 
ATOM     67  H   UNL A   1      41.507  30.554  34.582  1.00  0.00     0.167 HD
ATOM     68  C   UNL A   1      43.171  28.543  33.439  1.00  0.00     0.074 A 
ATOM     69  C   UNL A   1      43.694  27.553  32.519  1.00  0.00     0.031 C 
ATOM     70  C   UNL A   1      43.723  28.832  34.645  1.00  0.00     0.034 A 
BRANCH  57  71
ATOM     71  C   UNL A   1      40.713  33.241  37.822  1.00  0.00     0.023 A 
ATOM     72  C   UNL A   1      39.845  32.978  38.897  1.00  0.00     0.031 A 
ATOM     73  C   UNL A   1      41.477  34.420  37.869  1.00  0.00     0.131 A 
ATOM     74  C   UNL A   1      39.682  33.929  39.914  1.00  0.00     0.055 A 
ATOM     75  C   UNL A   1      41.380  35.319  38.934  1.00  0.00     0.041 A 
ATOM     76  F   UNL A   1      42.310  34.735  36.864  1.00  0.00    -0.206 F 
ATOM     77  C   UNL A   1      40.462  35.087  39.954  1.00  0.00     0.022 A 
BRANCH  74  78
ATOM     78  S   UNL A   1      38.306  33.717  41.078  1.00  0.00     0.124 S 
ATOM     79  O   UNL A   1      38.924  32.895  42.117  1.00  0.00    -0.237 OA
ATOM     80  O   UNL A   1      37.994  35.091  41.451  1.00  0.00    -0.237 OA
ATOM     81  O   UNL A   1      37.286  33.036  40.282  1.00  0.00    -0.744 OA
ENDBRANCH  74  78
ENDBRANCH  57  71
BRANCH  58  82
ATOM     82  C   UNL A   1      40.937  27.925  29.335  1.00  0.00     0.023 A 
ATOM     83  C   UNL A   1      41.872  28.311  28.364  1.00  0.00     0.031 A 
ATOM     84  C   UNL A   1      40.088  26.842  29.047  1.00  0.00     0.131 A 
ATOM     85  C   UNL A   1      41.918  27.636  27.134  1.00  0.00     0.055 A 
ATOM     86  C   UNL A   1      40.161  26.151  27.836  1.00  0.00     0.041 A 
ATOM     87  F   UNL A   1      39.187  26.426  29.952  1.00  0.00    -0.206 F 
ATOM     88  C   UNL A   1      41.076  26.552  26.868  1.00  0.00     0.022 A 
BRANCH  85  89
ATOM     89  S   UNL A   1      43.078  28.216  25.867  1.00  0.00     0.124 S 
ATOM     90  O   UNL A   1      44.225  27.342  26.092  1.00  0.00    -0.237 OA
ATOM     91  O   UNL A   1      42.327  27.986  24.638  1.00  0.00    -0.237 OA
ATOM     92  O   UNL A   1      43.286  29.621  26.214  1.00  0.00    -0.744 OA
ENDBRANCH  85  89
ENDBRANCH  58  82
BRANCH  70  93
ATOM     93  C   UNL A   1      44.922  28.023  35.060  1.00  0.00     0.023 A 
ATOM     94  C   UNL A   1      44.792  26.777  35.696  1.00  0.00     0.031 A 
ATOM     95  C   UNL A   1      46.216  28.507  34.797  1.00  0.00     0.131 A 
ATOM     96  C   UNL A   1      45.942  26.070  36.079  1.00  0.00     0.055 A 
ATOM     97  C   UNL A   1      47.355  27.780  35.143  1.00  0.00     0.041 A 
ATOM     98  F   UNL A   1      46.391  29.692  34.191  1.00  0.00    -0.206 F 
ATOM     99  C   UNL A   1      47.222  26.557  35.794  1.00  0.00     0.022 A 
BRANCH  96 100
ATOM    100  S   UNL A   1      45.749  24.519  37.001  1.00  0.00     0.124 S 
ATOM    101  O   UNL A   1      45.890  24.968  38.382  1.00  0.00    -0.237 OA
ATOM    102  O   UNL A   1      44.413  24.083  36.605  1.00  0.00    -0.237 OA
ATOM    103  O   UNL A   1      46.843  23.685  36.504  1.00  0.00    -0.744 OA
ENDBRANCH  96 100
ENDBRANCH  70  93
ENDBRANCH  44  45
ENDBRANCH  36  39
ENDBRANCH  34  35
ENDBRANCH  33  34
ENDBRANCH  32  33
ENDBRANCH   1  32
TORSDOF 20
ENDMDL
MODEL 2
REMARK VINA RESULT:     -11.5      5.988     11.811
REMARK SMILES C[C@@H](C(=O)NCCCCCCNC(=O)c1ccc(-c2c3nc(c(-c4cc(S(=O)(=O)[O-])ccc4F)c4ccc([nH]4)c(-c4cc(S(=O)(=O)[O-])ccc4F)c4nc(c(-c5cc(S(=O)(=O)[O-])ccc5F)c5ccc2[nH]5)C=C4)C=C3)cc1)n1ccc(C(=O)N2CC[NH+](Cc3cccc(F)c3)CC2)n1
REMARK SMILES IDX 8 1 7 2 6 3 5 4 3 5 4 6 2 8 1 9 78 10 79 11 98 12 80 13
REMARK SMILES IDX 81 14 82 15 83 16 84 17 85 18 97 19 86 20 96 21 87 22 88 24
REMARK SMILES IDX 89 25 90 26 95 27 91 28 93 29 92 30 94 31 9 32 10 33 11 34
REMARK SMILES IDX 12 35 13 36 14 38 15 39 16 40 77 41 17 42 76 43 18 44 19 45
REMARK SMILES IDX 20 46 70 47 21 48 75 49 69 50 71 51 22 52 74 53 68 54 67 55
REMARK SMILES IDX 23 57 55 58 35 59 54 60 36 61 39 62 53 63 72 64 37 65 38 66
REMARK SMILES IDX 52 68 73 69 40 70 24 71 25 72 33 73 26 74 32 75 34 76 31 77
REMARK SMILES IDX 27 78 28 79 29 80 30 81 56 82 57 83 65 84 58 85 64 86 66 87
REMARK SMILES IDX 63 88 59 89 60 90 61 91 62 92 41 93 42 94 50 95 43 96 49 97
REMARK SMILES IDX 51 98 48 99 44 100 45 101 46 102 47 103
REMARK H PARENT 5 7 87 23 12 37 71 56 39 67
REMARK Flexibility Score: inf
ROOT
ATOM      1  C   UNL A   1      39.929  22.875  26.130  1.00  0.00     0.002 C 
ENDROOT
BRANCH   1   2
ATOM      2  C   UNL A   1      39.052  23.952  26.780  1.00  0.00     0.021 C 
BRANCH   2   3
ATOM      3  C   UNL A   1      37.558  23.821  26.466  1.00  0.00     0.116 C 
BRANCH   3   4
ATOM      4  N   UNL A   1      37.353  23.575  25.051  1.00  0.00    -0.354 N 
ATOM      5  C   UNL A   1      36.889  22.456  24.415  1.00  0.00     0.244 C 
ATOM      6  O   UNL A   1      36.999  22.436  23.187  1.00  0.00    -0.273 OA
ATOM      7  H   UNL A   1      37.583  24.327  24.458  1.00  0.00     0.163 HD
BRANCH   5   8
ATOM      8  C   UNL A   1      36.244  21.339  25.232  1.00  0.00     0.193 C 
ATOM      9  C   UNL A   1      36.903  19.986  24.914  1.00  0.00     0.044 C 
BRANCH   8  10
ATOM     10  N   UNL A   1      34.790  21.276  25.037  1.00  0.00    -0.260 N 
ATOM     11  C   UNL A   1      33.995  20.205  24.739  1.00  0.00     0.110 A 
ATOM     12  N   UNL A   1      34.101  22.428  25.060  1.00  0.00    -0.167 NA
ATOM     13  C   UNL A   1      32.701  20.679  24.747  1.00  0.00     0.056 A 
ATOM     14  C   UNL A   1      32.811  22.077  24.957  1.00  0.00     0.150 A 
BRANCH  14  15
ATOM     15  C   UNL A   1      31.739  23.061  25.150  1.00  0.00     0.274 C 
ATOM     16  O   UNL A   1      30.736  22.778  25.818  1.00  0.00    -0.267 OA
ATOM     17  N   UNL A   1      31.925  24.341  24.607  1.00  0.00    -0.326 N 
ATOM     18  C   UNL A   1      31.061  25.398  25.106  1.00  0.00     0.181 C 
ATOM     19  C   UNL A   1      32.499  24.518  23.267  1.00  0.00     0.181 C 
ATOM     20  C   UNL A   1      31.475  26.819  24.684  1.00  0.00     0.284 C 
ATOM     21  C   UNL A   1      32.869  25.969  22.911  1.00  0.00     0.284 C 
ATOM     22  N   UNL A   1      31.888  26.990  23.288  1.00  0.00    -0.328 N 
ATOM     23  H   UNL A   1      32.370  27.889  23.244  1.00  0.00     0.348 HD
BRANCH  22  24
ATOM     24  C   UNL A   1      30.829  27.266  22.315  1.00  0.00     0.299 C 
BRANCH  24  25
ATOM     25  C   UNL A   1      29.782  28.291  22.683  1.00  0.00     0.009 A 
ATOM     26  C   UNL A   1      30.079  29.665  22.656  1.00  0.00     0.010 A 
ATOM     27  C   UNL A   1      28.485  27.895  23.034  1.00  0.00     0.048 A 
ATOM     28  C   UNL A   1      29.082  30.617  22.890  1.00  0.00     0.004 A 
ATOM     29  C   UNL A   1      27.498  28.849  23.256  1.00  0.00     0.123 A 
ATOM     30  C   UNL A   1      27.781  30.206  23.173  1.00  0.00     0.039 A 
ATOM     31  F   UNL A   1      26.249  28.451  23.530  1.00  0.00    -0.207 F 
ENDBRANCH  24  25
ENDBRANCH  22  24
ENDBRANCH  14  15
ENDBRANCH   8  10
ENDBRANCH   5   8
ENDBRANCH   3   4
ENDBRANCH   2   3
ENDBRANCH   1   2
BRANCH   1  32
ATOM     32  C   UNL A   1      40.254  21.678  27.027  1.00  0.00     0.002 C 
BRANCH  32  33
ATOM     33  C   UNL A   1      40.632  20.398  26.280  1.00  0.00     0.021 C 
BRANCH  33  34
ATOM     34  C   UNL A   1      41.785  19.616  26.901  1.00  0.00     0.116 C 
BRANCH  34  35
ATOM     35  N   UNL A   1      42.769  19.219  25.909  1.00  0.00    -0.352 N 
ATOM     36  C   UNL A   1      43.639  20.018  25.212  1.00  0.00     0.251 C 
ATOM     37  H   UNL A   1      42.819  18.255  25.713  1.00  0.00     0.163 HD
ATOM     38  O   UNL A   1      44.283  19.555  24.267  1.00  0.00    -0.269 OA
BRANCH  36  39
ATOM     39  C   UNL A   1      43.776  21.438  25.587  1.00  0.00     0.039 A 
ATOM     40  C   UNL A   1      44.242  21.769  26.862  1.00  0.00     0.014 A 
ATOM     41  C   UNL A   1      43.462  22.442  24.665  1.00  0.00     0.014 A 
ATOM     42  C   UNL A   1      44.444  23.110  27.198  1.00  0.00     0.010 A 
ATOM     43  C   UNL A   1      43.716  23.772  24.983  1.00  0.00     0.010 A 
ATOM     44  C   UNL A   1      44.205  24.119  26.253  1.00  0.00    -0.014 A 
BRANCH  44  45
ATOM     45  C   UNL A   1      44.415  25.554  26.566  1.00  0.00     0.031 A 
ATOM     46  C   UNL A   1      45.786  26.148  26.403  1.00  0.00     0.074 A 
ATOM     47  C   UNL A   1      43.416  26.285  27.096  1.00  0.00     0.049 A 
ATOM     48  N   UNL A   1      46.244  27.307  26.798  1.00  0.00    -0.248 NA
ATOM     49  C   UNL A   1      46.784  25.296  25.741  1.00  0.00     0.031 C 
ATOM     50  C   UNL A   1      42.052  25.809  27.332  1.00  0.00     0.029 A 
ATOM     51  N   UNL A   1      43.405  27.574  27.563  1.00  0.00    -0.354 N 
ATOM     52  C   UNL A   1      47.594  27.312  26.466  1.00  0.00     0.074 A 
ATOM     53  C   UNL A   1      47.884  26.018  25.881  1.00  0.00     0.031 C 
ATOM     54  C   UNL A   1      41.340  26.791  27.906  1.00  0.00     0.029 A 
ATOM     55  C   UNL A   1      42.204  27.949  28.118  1.00  0.00     0.049 A 
ATOM     56  H   UNL A   1      44.183  28.175  27.506  1.00  0.00     0.167 HD
ATOM     57  C   UNL A   1      48.503  28.306  26.625  1.00  0.00     0.034 A 
ATOM     58  C   UNL A   1      41.849  29.083  28.752  1.00  0.00     0.034 A 
ATOM     59  C   UNL A   1      48.188  29.595  27.189  1.00  0.00     0.049 A 
ATOM     60  C   UNL A   1      42.865  30.183  28.908  1.00  0.00     0.074 A 
ATOM     61  C   UNL A   1      49.010  30.697  27.349  1.00  0.00     0.029 A 
ATOM     62  N   UNL A   1      46.942  29.956  27.691  1.00  0.00    -0.354 N 
ATOM     63  N   UNL A   1      44.135  30.186  28.569  1.00  0.00    -0.248 NA
ATOM     64  C   UNL A   1      42.402  31.433  29.521  1.00  0.00     0.031 C 
ATOM     65  C   UNL A   1      48.277  31.703  27.990  1.00  0.00     0.029 A 
ATOM     66  C   UNL A   1      46.980  31.253  28.176  1.00  0.00     0.049 A 
ATOM     67  H   UNL A   1      46.148  29.373  27.701  1.00  0.00     0.167 HD
ATOM     68  C   UNL A   1      44.612  31.449  28.902  1.00  0.00     0.074 A 
ATOM     69  C   UNL A   1      43.496  32.179  29.471  1.00  0.00     0.031 C 
ATOM     70  C   UNL A   1      45.858  31.963  28.742  1.00  0.00     0.034 A 
BRANCH  57  71
ATOM     71  C   UNL A   1      49.926  28.007  26.213  1.00  0.00     0.023 A 
ATOM     72  C   UNL A   1      50.410  28.342  24.936  1.00  0.00     0.031 A 
ATOM     73  C   UNL A   1      50.787  27.312  27.080  1.00  0.00     0.131 A 
ATOM     74  C   UNL A   1      51.672  27.890  24.525  1.00  0.00     0.055 A 
ATOM     75  C   UNL A   1      52.080  26.947  26.697  1.00  0.00     0.041 A 
ATOM     76  F   UNL A   1      50.376  26.947  28.305  1.00  0.00    -0.206 F 
ATOM     77  C   UNL A   1      52.521  27.216  25.405  1.00  0.00     0.022 A 
BRANCH  74  78
ATOM     78  S   UNL A   1      52.108  28.035  22.770  1.00  0.00     0.124 S 
ATOM     79  O   UNL A   1      51.662  29.393  22.467  1.00  0.00    -0.237 OA
ATOM     80  O   UNL A   1      53.550  27.822  22.784  1.00  0.00    -0.237 OA
ATOM     81  O   UNL A   1      51.325  26.975  22.135  1.00  0.00    -0.744 OA
ENDBRANCH  74  78
ENDBRANCH  57  71
BRANCH  58  82
ATOM     82  C   UNL A   1      40.476  29.225  29.305  1.00  0.00     0.023 A 
ATOM     83  C   UNL A   1      40.239  29.131  30.684  1.00  0.00     0.031 A 
ATOM     84  C   UNL A   1      39.381  29.463  28.457  1.00  0.00     0.131 A 
ATOM     85  C   UNL A   1      38.928  29.246  31.175  1.00  0.00     0.055 A 
ATOM     86  C   UNL A   1      38.085  29.612  28.953  1.00  0.00     0.041 A 
ATOM     87  F   UNL A   1      39.561  29.576  27.131  1.00  0.00    -0.206 F 
ATOM     88  C   UNL A   1      37.852  29.496  30.319  1.00  0.00     0.022 A 
BRANCH  85  89
ATOM     89  S   UNL A   1      38.644  29.033  32.953  1.00  0.00     0.124 S 
ATOM     90  O   UNL A   1      37.362  28.338  32.968  1.00  0.00    -0.237 OA
ATOM     91  O   UNL A   1      39.806  28.246  33.354  1.00  0.00    -0.237 OA
ATOM     92  O   UNL A   1      38.618  30.404  33.460  1.00  0.00    -0.744 OA
ENDBRANCH  85  89
ENDBRANCH  58  82
BRANCH  70  93
ATOM     93  C   UNL A   1      46.061  33.402  29.134  1.00  0.00     0.023 A 
ATOM     94  C   UNL A   1      46.435  33.771  30.437  1.00  0.00     0.031 A 
ATOM     95  C   UNL A   1      45.890  34.417  28.176  1.00  0.00     0.131 A 
ATOM     96  C   UNL A   1      46.593  35.128  30.757  1.00  0.00     0.055 A 
ATOM     97  C   UNL A   1      46.090  35.762  28.489  1.00  0.00     0.041 A 
ATOM     98  F   UNL A   1      45.533  34.115  26.918  1.00  0.00    -0.206 F 
ATOM     99  C   UNL A   1      46.437  36.124  29.787  1.00  0.00     0.022 A 
BRANCH  96 100
ATOM    100  S   UNL A   1      46.963  35.585  32.473  1.00  0.00     0.124 S 
ATOM    101  O   UNL A   1      47.647  36.864  32.305  1.00  0.00    -0.237 OA
ATOM    102  O   UNL A   1      45.635  35.646  33.075  1.00  0.00    -0.237 OA
ATOM    103  O   UNL A   1      47.806  34.488  32.947  1.00  0.00    -0.744 OA
ENDBRANCH  96 100
ENDBRANCH  70  93
ENDBRANCH  44  45
ENDBRANCH  36  39
ENDBRANCH  34  35
ENDBRANCH  33  34
ENDBRANCH  32  33
ENDBRANCH   1  32
TORSDOF 20
ENDMDL
MODEL 3
REMARK VINA RESULT:     -11.5      6.150     12.459
REMARK SMILES C[C@@H](C(=O)NCCCCCCNC(=O)c1ccc(-c2c3nc(c(-c4cc(S(=O)(=O)[O-])ccc4F)c4ccc([nH]4)c(-c4cc(S(=O)(=O)[O-])ccc4F)c4nc(c(-c5cc(S(=O)(=O)[O-])ccc5F)c5ccc2[nH]5)C=C4)C=C3)cc1)n1ccc(C(=O)N2CC[NH+](Cc3cccc(F)c3)CC2)n1
REMARK SMILES IDX 8 1 7 2 6 3 5 4 3 5 4 6 2 8 1 9 78 10 79 11 98 12 80 13
REMARK SMILES IDX 81 14 82 15 83 16 84 17 85 18 97 19 86 20 96 21 87 22 88 24
REMARK SMILES IDX 89 25 90 26 95 27 91 28 93 29 92 30 94 31 9 32 10 33 11 34
REMARK SMILES IDX 12 35 13 36 14 38 15 39 16 40 77 41 17 42 76 43 18 44 19 45
REMARK SMILES IDX 20 46 70 47 21 48 75 49 69 50 71 51 22 52 74 53 68 54 67 55
REMARK SMILES IDX 23 57 55 58 35 59 54 60 36 61 39 62 53 63 72 64 37 65 38 66
REMARK SMILES IDX 52 68 73 69 40 70 24 71 25 72 33 73 26 74 32 75 34 76 31 77
REMARK SMILES IDX 27 78 28 79 29 80 30 81 56 82 57 83 65 84 58 85 64 86 66 87
REMARK SMILES IDX 63 88 59 89 60 90 61 91 62 92 41 93 42 94 50 95 43 96 49 97
REMARK SMILES IDX 51 98 48 99 44 100 45 101 46 102 47 103
REMARK H PARENT 5 7 87 23 12 37 71 56 39 67
REMARK Flexibility Score: inf
ROOT
ATOM      1  C   UNL A   1      40.636  22.094  26.217  1.00  0.00     0.002 C 
ENDROOT
BRANCH   1   2
ATOM      2  C   UNL A   1      39.185  22.582  26.311  1.00  0.00     0.021 C 
BRANCH   2   3
ATOM      3  C   UNL A   1      38.197  21.787  25.452  1.00  0.00     0.116 C 
BRANCH   3   4
ATOM      4  N   UNL A   1      37.009  21.455  26.216  1.00  0.00    -0.354 N 
ATOM      5  C   UNL A   1      35.689  21.657  25.915  1.00  0.00     0.244 C 
ATOM      6  O   UNL A   1      34.881  21.462  26.826  1.00  0.00    -0.273 OA
ATOM      7  H   UNL A   1      37.177  21.019  27.082  1.00  0.00     0.163 HD
BRANCH   5   8
ATOM      8  C   UNL A   1      35.295  22.065  24.497  1.00  0.00     0.193 C 
ATOM      9  C   UNL A   1      36.223  23.173  23.975  1.00  0.00     0.044 C 
BRANCH   8  10
ATOM     10  N   UNL A   1      33.886  22.471  24.408  1.00  0.00    -0.260 N 
ATOM     11  C   UNL A   1      32.831  21.839  23.812  1.00  0.00     0.110 A 
ATOM     12  N   UNL A   1      33.546  23.675  24.895  1.00  0.00    -0.167 NA
ATOM     13  C   UNL A   1      31.722  22.607  24.091  1.00  0.00     0.056 A 
ATOM     14  C   UNL A   1      32.212  23.747  24.776  1.00  0.00     0.150 A 
BRANCH  14  15
ATOM     15  C   UNL A   1      31.453  24.842  25.392  1.00  0.00     0.274 C 
ATOM     16  O   UNL A   1      31.009  24.733  26.543  1.00  0.00    -0.267 OA
ATOM     17  N   UNL A   1      31.309  26.028  24.656  1.00  0.00    -0.326 N 
ATOM     18  C   UNL A   1      30.896  27.211  25.392  1.00  0.00     0.181 C 
ATOM     19  C   UNL A   1      31.015  25.994  23.218  1.00  0.00     0.181 C 
ATOM     20  C   UNL A   1      31.009  28.529  24.606  1.00  0.00     0.284 C 
ATOM     21  C   UNL A   1      31.130  27.353  22.505  1.00  0.00     0.284 C 
ATOM     22  N   UNL A   1      30.551  28.498  23.213  1.00  0.00    -0.328 N 
ATOM     23  H   UNL A   1      30.930  29.337  22.773  1.00  0.00     0.348 HD
BRANCH  22  24
ATOM     24  C   UNL A   1      29.128  28.756  22.979  1.00  0.00     0.299 C 
BRANCH  24  25
ATOM     25  C   UNL A   1      28.722  30.154  22.576  1.00  0.00     0.009 A 
ATOM     26  C   UNL A   1      28.841  31.227  23.476  1.00  0.00     0.010 A 
ATOM     27  C   UNL A   1      28.242  30.415  21.285  1.00  0.00     0.048 A 
ATOM     28  C   UNL A   1      28.570  32.537  23.068  1.00  0.00     0.004 A 
ATOM     29  C   UNL A   1      27.984  31.722  20.886  1.00  0.00     0.123 A 
ATOM     30  C   UNL A   1      28.157  32.786  21.761  1.00  0.00     0.039 A 
ATOM     31  F   UNL A   1      27.585  31.958  19.629  1.00  0.00    -0.207 F 
ENDBRANCH  24  25
ENDBRANCH  22  24
ENDBRANCH  14  15
ENDBRANCH   8  10
ENDBRANCH   5   8
ENDBRANCH   3   4
ENDBRANCH   2   3
ENDBRANCH   1   2
BRANCH   1  32
ATOM     32  C   UNL A   1      40.944  20.824  27.015  1.00  0.00     0.002 C 
BRANCH  32  33
ATOM     33  C   UNL A   1      41.377  19.624  26.172  1.00  0.00     0.021 C 
BRANCH  33  34
ATOM     34  C   UNL A   1      42.743  19.051  26.537  1.00  0.00     0.116 C 
BRANCH  34  35
ATOM     35  N   UNL A   1      43.551  18.781  25.360  1.00  0.00    -0.352 N 
ATOM     36  C   UNL A   1      44.231  19.677  24.575  1.00  0.00     0.251 C 
ATOM     37  H   UNL A   1      43.620  17.835  25.092  1.00  0.00     0.163 HD
ATOM     38  O   UNL A   1      44.716  19.315  23.501  1.00  0.00    -0.269 OA
BRANCH  36  39
ATOM     39  C   UNL A   1      44.350  21.080  25.016  1.00  0.00     0.039 A 
ATOM     40  C   UNL A   1      45.108  21.379  26.152  1.00  0.00     0.014 A 
ATOM     41  C   UNL A   1      43.729  22.100  24.290  1.00  0.00     0.014 A 
ATOM     42  C   UNL A   1      45.286  22.712  26.533  1.00  0.00     0.010 A 
ATOM     43  C   UNL A   1      43.953  23.429  24.639  1.00  0.00     0.010 A 
ATOM     44  C   UNL A   1      44.730  23.746  25.766  1.00  0.00    -0.014 A 
BRANCH  44  45
ATOM     45  C   UNL A   1      44.902  25.175  26.129  1.00  0.00     0.031 A 
ATOM     46  C   UNL A   1      46.258  25.809  25.991  1.00  0.00     0.074 A 
ATOM     47  C   UNL A   1      43.884  25.860  26.682  1.00  0.00     0.049 A 
ATOM     48  N   UNL A   1      46.685  26.965  26.428  1.00  0.00    -0.248 NA
ATOM     49  C   UNL A   1      47.278  25.006  25.302  1.00  0.00     0.031 C 
ATOM     50  C   UNL A   1      42.532  25.341  26.897  1.00  0.00     0.029 A 
ATOM     51  N   UNL A   1      43.839  27.131  27.194  1.00  0.00    -0.354 N 
ATOM     52  C   UNL A   1      48.036  27.015  26.100  1.00  0.00     0.074 A 
ATOM     53  C   UNL A   1      48.359  25.751  25.471  1.00  0.00     0.031 C 
ATOM     54  C   UNL A   1      41.794  26.284  27.505  1.00  0.00     0.029 A 
ATOM     55  C   UNL A   1      42.628  27.455  27.760  1.00  0.00     0.049 A 
ATOM     56  H   UNL A   1      44.601  27.754  27.161  1.00  0.00     0.167 HD
ATOM     57  C   UNL A   1      48.918  28.026  26.296  1.00  0.00     0.034 A 
ATOM     58  C   UNL A   1      42.243  28.557  28.433  1.00  0.00     0.034 A 
ATOM     59  C   UNL A   1      48.569  29.286  26.905  1.00  0.00     0.049 A 
ATOM     60  C   UNL A   1      43.230  29.676  28.629  1.00  0.00     0.074 A 
ATOM     61  C   UNL A   1      49.363  30.402  27.106  1.00  0.00     0.029 A 
ATOM     62  N   UNL A   1      47.314  29.596  27.416  1.00  0.00    -0.354 N 
ATOM     63  N   UNL A   1      44.500  29.724  28.294  1.00  0.00    -0.248 NA
ATOM     64  C   UNL A   1      42.734  30.892  29.286  1.00  0.00     0.031 C 
ATOM     65  C   UNL A   1      48.603  31.366  27.780  1.00  0.00     0.029 A 
ATOM     66  C   UNL A   1      47.318  30.877  27.946  1.00  0.00     0.049 A 
ATOM     67  H   UNL A   1      46.535  28.993  27.403  1.00  0.00     0.167 HD
ATOM     68  C   UNL A   1      44.944  30.986  28.673  1.00  0.00     0.074 A 
ATOM     69  C   UNL A   1      43.809  31.667  29.265  1.00  0.00     0.031 C 
ATOM     70  C   UNL A   1      46.177  31.537  28.535  1.00  0.00     0.034 A 
BRANCH  57  71
ATOM     71  C   UNL A   1      50.349  27.778  25.878  1.00  0.00     0.023 A 
ATOM     72  C   UNL A   1      50.759  27.907  24.539  1.00  0.00     0.031 A 
ATOM     73  C   UNL A   1      51.299  27.336  26.815  1.00  0.00     0.131 A 
ATOM     74  C   UNL A   1      52.044  27.496  24.157  1.00  0.00     0.055 A 
ATOM     75  C   UNL A   1      52.608  27.017  26.444  1.00  0.00     0.041 A 
ATOM     76  F   UNL A   1      50.963  27.175  28.105  1.00  0.00    -0.206 F 
ATOM     77  C   UNL A   1      52.980  27.075  25.104  1.00  0.00     0.022 A 
BRANCH  74  78
ATOM     78  S   UNL A   1      52.408  27.343  22.386  1.00  0.00     0.124 S 
ATOM     79  O   UNL A   1      53.162  28.568  22.134  1.00  0.00    -0.237 OA
ATOM     80  O   UNL A   1      53.168  26.101  22.327  1.00  0.00    -0.237 OA
ATOM     81  O   UNL A   1      51.083  27.297  21.768  1.00  0.00    -0.744 OA
ENDBRANCH  74  78
ENDBRANCH  57  71
BRANCH  58  82
ATOM     82  C   UNL A   1      40.866  28.644  28.987  1.00  0.00     0.023 A 
ATOM     83  C   UNL A   1      40.639  28.593  30.370  1.00  0.00     0.031 A 
ATOM     84  C   UNL A   1      39.756  28.785  28.135  1.00  0.00     0.131 A 
ATOM     85  C   UNL A   1      39.325  28.655  30.862  1.00  0.00     0.055 A 
ATOM     86  C   UNL A   1      38.456  28.881  28.631  1.00  0.00     0.041 A 
ATOM     87  F   UNL A   1      39.926  28.853  26.805  1.00  0.00    -0.206 F 
ATOM     88  C   UNL A   1      38.233  28.808  30.003  1.00  0.00     0.022 A 
BRANCH  85  89
ATOM     89  S   UNL A   1      39.059  28.500  32.649  1.00  0.00     0.124 S 
ATOM     90  O   UNL A   1      37.723  27.916  32.701  1.00  0.00    -0.237 OA
ATOM     91  O   UNL A   1      40.158  27.626  33.045  1.00  0.00    -0.237 OA
ATOM     92  O   UNL A   1      39.159  29.877  33.128  1.00  0.00    -0.744 OA
ENDBRANCH  85  89
ENDBRANCH  58  82
BRANCH  70  93
ATOM     93  C   UNL A   1      46.342  32.966  28.978  1.00  0.00     0.023 A 
ATOM     94  C   UNL A   1      46.040  34.045  28.131  1.00  0.00     0.031 A 
ATOM     95  C   UNL A   1      46.797  33.245  30.279  1.00  0.00     0.131 A 
ATOM     96  C   UNL A   1      46.229  35.359  28.587  1.00  0.00     0.055 A 
ATOM     97  C   UNL A   1      46.943  34.554  30.740  1.00  0.00     0.041 A 
ATOM     98  F   UNL A   1      47.099  32.247  31.125  1.00  0.00    -0.206 F 
ATOM     99  C   UNL A   1      46.665  35.619  29.890  1.00  0.00     0.022 A 
BRANCH  96 100
ATOM    100  S   UNL A   1      45.941  36.733  27.437  1.00  0.00     0.124 S 
ATOM    101  O   UNL A   1      46.067  37.893  28.314  1.00  0.00    -0.237 OA
ATOM    102  O   UNL A   1      47.009  36.553  26.459  1.00  0.00    -0.237 OA
ATOM    103  O   UNL A   1      44.592  36.482  26.932  1.00  0.00    -0.744 OA
ENDBRANCH  96 100
ENDBRANCH  70  93
ENDBRANCH  44  45
ENDBRANCH  36  39
ENDBRANCH  34  35
ENDBRANCH  33  34
ENDBRANCH  32  33
ENDBRANCH   1  32
TORSDOF 20
ENDMDL
