MODEL 1
REMARK VINA RESULT:      -9.2      0.000      0.000
REMARK SMILES CCC[C@@H](C[NH2+]C(C)C)C(=O)NCCCCCCNC(=O)c1ccc(-c2c3nc(c(-c4cc(S(=O)(=O)[O-])ccc4F)c4ccc([nH]4)c(-c4cc(S(=O)(=O)[O-])ccc4F)c4nc(c(-c5cc(S(=O)(=O)[O-])ccc5F)c5ccc2[nH]5)C=C4)C=C3)cc1
REMARK SMILES IDX 15 1 14 2 13 3 12 4 10 5 11 6 4 8 3 9 2 10 1 11 5 12 6 13
REMARK SMILES IDX 7 16 8 17 9 18 16 19 17 20 18 21 19 22 20 23 21 25 22 26
REMARK SMILES IDX 23 27 84 28 24 29 83 30 25 31 26 32 27 33 77 34 28 35 82 36
REMARK SMILES IDX 76 37 78 38 29 39 81 40 75 41 74 42 30 44 62 45 42 46 61 47
REMARK SMILES IDX 43 48 46 49 60 50 79 51 44 52 45 53 59 55 80 56 47 57 31 58
REMARK SMILES IDX 32 59 40 60 33 61 39 62 41 63 38 64 34 65 35 66 36 67 37 68
REMARK SMILES IDX 63 69 64 70 72 71 65 72 71 73 73 74 70 75 66 76 67 77 68 78
REMARK SMILES IDX 69 79 48 80 49 81 57 82 50 83 56 84 58 85 55 86 51 87 52 88
REMARK SMILES IDX 53 89 54 90
REMARK H PARENT 12 7 6 14 6 15 19 24 78 43 46 54
REMARK Flexibility Score: inf
ROOT
ATOM      1  C   UNL A   1      36.729  21.793  25.498  1.00  0.00     0.002 C 
ENDROOT
BRANCH   1   2
ATOM      2  C   UNL A   1      35.402  22.013  26.222  1.00  0.00     0.021 C 
BRANCH   2   3
ATOM      3  C   UNL A   1      34.755  23.363  25.946  1.00  0.00     0.116 C 
BRANCH   3   4
ATOM      4  N   UNL A   1      33.309  23.292  25.925  1.00  0.00    -0.356 N 
ATOM      5  C   UNL A   1      32.479  22.592  25.107  1.00  0.00     0.228 C 
ATOM      6  O   UNL A   1      31.274  22.603  25.381  1.00  0.00    -0.275 OA
ATOM      7  H   UNL A   1      32.855  23.835  26.610  1.00  0.00     0.163 HD
BRANCH   5   8
ATOM      8  C   UNL A   1      32.976  21.818  23.881  1.00  0.00     0.133 C 
BRANCH   8   9
ATOM      9  C   UNL A   1      32.516  20.346  23.892  1.00  0.00     0.019 C 
BRANCH   9  10
ATOM     10  C   UNL A   1      33.487  19.349  24.525  1.00  0.00    -0.002 C 
ATOM     11  C   UNL A   1      32.805  18.341  25.433  1.00  0.00     0.004 C 
ENDBRANCH   9  10
ENDBRANCH   8   9
BRANCH   8  12
ATOM     12  C   UNL A   1      32.819  22.630  22.576  1.00  0.00     0.274 C 
BRANCH  12  13
ATOM     13  N   UNL A   1      32.236  23.956  22.747  1.00  0.00    -0.344 N 
ATOM     14  H   UNL A   1      32.123  24.128  23.745  1.00  0.00     0.346 HD
ATOM     15  H   UNL A   1      31.351  23.951  22.238  1.00  0.00     0.346 HD
BRANCH  13  16
ATOM     16  C   UNL A   1      33.031  25.049  22.183  1.00  0.00     0.176 C 
ATOM     17  C   UNL A   1      32.236  25.808  21.123  1.00  0.00     0.075 C 
ATOM     18  C   UNL A   1      33.403  25.981  23.337  1.00  0.00     0.075 C 
ENDBRANCH  13  16
ENDBRANCH  12  13
ENDBRANCH   8  12
ENDBRANCH   5   8
ENDBRANCH   3   4
ENDBRANCH   2   3
ENDBRANCH   1   2
BRANCH   1  19
ATOM     19  C   UNL A   1      36.834  20.480  24.716  1.00  0.00     0.002 C 
BRANCH  19  20
ATOM     20  C   UNL A   1      38.170  19.743  24.840  1.00  0.00     0.021 C 
BRANCH  20  21
ATOM     21  C   UNL A   1      39.159  20.362  25.822  1.00  0.00     0.116 C 
BRANCH  21  22
ATOM     22  N   UNL A   1      40.240  19.450  26.156  1.00  0.00    -0.352 N 
ATOM     23  C   UNL A   1      41.534  19.728  26.510  1.00  0.00     0.251 C 
ATOM     24  H   UNL A   1      40.009  18.494  26.123  1.00  0.00     0.163 HD
ATOM     25  O   UNL A   1      42.362  18.819  26.556  1.00  0.00    -0.269 OA
BRANCH  23  26
ATOM     26  C   UNL A   1      41.934  21.118  26.812  1.00  0.00     0.039 A 
ATOM     27  C   UNL A   1      42.028  22.036  25.765  1.00  0.00     0.014 A 
ATOM     28  C   UNL A   1      42.220  21.515  28.123  1.00  0.00     0.014 A 
ATOM     29  C   UNL A   1      42.354  23.366  26.039  1.00  0.00     0.010 A 
ATOM     30  C   UNL A   1      42.470  22.855  28.402  1.00  0.00     0.010 A 
ATOM     31  C   UNL A   1      42.544  23.795  27.363  1.00  0.00    -0.014 A 
BRANCH  31  32
ATOM     32  C   UNL A   1      42.826  25.221  27.675  1.00  0.00     0.031 A 
ATOM     33  C   UNL A   1      44.214  25.772  27.499  1.00  0.00     0.074 A 
ATOM     34  C   UNL A   1      41.842  26.003  28.162  1.00  0.00     0.049 A 
ATOM     35  N   UNL A   1      44.674  26.964  27.778  1.00  0.00    -0.248 NA
ATOM     36  C   UNL A   1      45.227  24.849  26.961  1.00  0.00     0.031 C 
ATOM     37  C   UNL A   1      40.464  25.572  28.405  1.00  0.00     0.029 A 
ATOM     38  N   UNL A   1      41.848  27.321  28.547  1.00  0.00    -0.354 N 
ATOM     39  C   UNL A   1      46.028  26.936  27.459  1.00  0.00     0.074 A 
ATOM     40  C   UNL A   1      46.326  25.586  27.026  1.00  0.00     0.031 C 
ATOM     41  C   UNL A   1      39.753  26.613  28.868  1.00  0.00     0.029 A 
ATOM     42  C   UNL A   1      40.631  27.769  29.008  1.00  0.00     0.049 A 
ATOM     43  H   UNL A   1      42.648  27.892  28.497  1.00  0.00     0.167 HD
ATOM     44  C   UNL A   1      46.931  27.946  27.498  1.00  0.00     0.034 A 
ATOM     45  C   UNL A   1      40.268  28.970  29.501  1.00  0.00     0.034 A 
ATOM     46  C   UNL A   1      46.613  29.287  27.926  1.00  0.00     0.049 A 
ATOM     47  C   UNL A   1      41.302  30.065  29.578  1.00  0.00     0.074 A 
ATOM     48  C   UNL A   1      47.439  30.397  27.965  1.00  0.00     0.029 A 
ATOM     49  N   UNL A   1      45.374  29.700  28.399  1.00  0.00    -0.354 N 
ATOM     50  N   UNL A   1      42.569  30.033  29.229  1.00  0.00    -0.248 NA
ATOM     51  C   UNL A   1      40.857  31.361  30.105  1.00  0.00     0.031 C 
ATOM     52  C   UNL A   1      46.724  31.458  28.531  1.00  0.00     0.029 A 
ATOM     53  C   UNL A   1      45.424  31.038  28.764  1.00  0.00     0.049 A 
ATOM     54  H   UNL A   1      44.576  29.128  28.466  1.00  0.00     0.167 HD
ATOM     55  C   UNL A   1      43.059  31.316  29.461  1.00  0.00     0.074 A 
ATOM     56  C   UNL A   1      41.948  32.098  29.964  1.00  0.00     0.031 C 
ATOM     57  C   UNL A   1      44.311  31.806  29.272  1.00  0.00     0.034 A 
BRANCH  44  58
ATOM     58  C   UNL A   1      48.351  27.629  27.091  1.00  0.00     0.023 A 
ATOM     59  C   UNL A   1      48.826  27.897  25.795  1.00  0.00     0.031 A 
ATOM     60  C   UNL A   1      49.240  27.038  28.006  1.00  0.00     0.131 A 
ATOM     61  C   UNL A   1      50.124  27.507  25.430  1.00  0.00     0.055 A 
ATOM     62  C   UNL A   1      50.558  26.730  27.662  1.00  0.00     0.041 A 
ATOM     63  F   UNL A   1      48.839  26.737  29.252  1.00  0.00    -0.206 F 
ATOM     64  C   UNL A   1      51.003  26.952  26.361  1.00  0.00     0.022 A 
BRANCH  61  65
ATOM     65  S   UNL A   1      50.595  27.605  23.681  1.00  0.00     0.124 S 
ATOM     66  O   UNL A   1      51.624  26.569  23.596  1.00  0.00    -0.237 OA
ATOM     67  O   UNL A   1      49.340  27.316  22.997  1.00  0.00    -0.237 OA
ATOM     68  O   UNL A   1      51.087  28.973  23.534  1.00  0.00    -0.744 OA
ENDBRANCH  61  65
ENDBRANCH  44  58
BRANCH  45  69
ATOM     69  C   UNL A   1      38.874  29.205  29.977  1.00  0.00     0.023 A 
ATOM     70  C   UNL A   1      37.913  29.796  29.139  1.00  0.00     0.031 A 
ATOM     71  C   UNL A   1      38.494  28.897  31.296  1.00  0.00     0.131 A 
ATOM     72  C   UNL A   1      36.642  30.110  29.643  1.00  0.00     0.055 A 
ATOM     73  C   UNL A   1      37.208  29.154  31.774  1.00  0.00     0.041 A 
ATOM     74  F   UNL A   1      39.371  28.331  32.141  1.00  0.00    -0.206 F 
ATOM     75  C   UNL A   1      36.277  29.779  30.950  1.00  0.00     0.022 A 
BRANCH  72  76
ATOM     76  S   UNL A   1      35.504  31.060  28.597  1.00  0.00     0.124 S 
ATOM     77  O   UNL A   1      36.430  31.773  27.726  1.00  0.00    -0.237 OA
ATOM     78  O   UNL A   1      34.717  30.003  27.971  1.00  0.00    -0.237 OA
ATOM     79  O   UNL A   1      34.778  31.892  29.554  1.00  0.00    -0.744 OA
ENDBRANCH  72  76
ENDBRANCH  45  69
BRANCH  57  80
ATOM     80  C   UNL A   1      44.529  33.271  29.562  1.00  0.00     0.023 A 
ATOM     81  C   UNL A   1      44.389  34.256  28.568  1.00  0.00     0.031 A 
ATOM     82  C   UNL A   1      44.895  33.687  30.855  1.00  0.00     0.131 A 
ATOM     83  C   UNL A   1      44.669  35.598  28.869  1.00  0.00     0.055 A 
ATOM     84  C   UNL A   1      45.107  35.030  31.165  1.00  0.00     0.041 A 
ATOM     85  F   UNL A   1      45.049  32.790  31.843  1.00  0.00    -0.206 F 
ATOM     86  C   UNL A   1      45.008  35.993  30.165  1.00  0.00     0.022 A 
BRANCH  83  87
ATOM     87  S   UNL A   1      44.684  36.807  27.517  1.00  0.00     0.124 S 
ATOM     88  O   UNL A   1      45.207  37.997  28.180  1.00  0.00    -0.237 OA
ATOM     89  O   UNL A   1      45.570  36.177  26.544  1.00  0.00    -0.237 OA
ATOM     90  O   UNL A   1      43.280  36.888  27.116  1.00  0.00    -0.744 OA
ENDBRANCH  83  87
ENDBRANCH  57  80
ENDBRANCH  31  32
ENDBRANCH  23  26
ENDBRANCH  21  22
ENDBRANCH  20  21
ENDBRANCH  19  20
ENDBRANCH   1  19
TORSDOF 21
ENDMDL
MODEL 2
REMARK VINA RESULT:      -9.1      4.604      9.623
REMARK SMILES CCC[C@@H](C[NH2+]C(C)C)C(=O)NCCCCCCNC(=O)c1ccc(-c2c3nc(c(-c4cc(S(=O)(=O)[O-])ccc4F)c4ccc([nH]4)c(-c4cc(S(=O)(=O)[O-])ccc4F)c4nc(c(-c5cc(S(=O)(=O)[O-])ccc5F)c5ccc2[nH]5)C=C4)C=C3)cc1
REMARK SMILES IDX 15 1 14 2 13 3 12 4 10 5 11 6 4 8 3 9 2 10 1 11 5 12 6 13
REMARK SMILES IDX 7 16 8 17 9 18 16 19 17 20 18 21 19 22 20 23 21 25 22 26
REMARK SMILES IDX 23 27 84 28 24 29 83 30 25 31 26 32 27 33 77 34 28 35 82 36
REMARK SMILES IDX 76 37 78 38 29 39 81 40 75 41 74 42 30 44 62 45 42 46 61 47
REMARK SMILES IDX 43 48 46 49 60 50 79 51 44 52 45 53 59 55 80 56 47 57 31 58
REMARK SMILES IDX 32 59 40 60 33 61 39 62 41 63 38 64 34 65 35 66 36 67 37 68
REMARK SMILES IDX 63 69 64 70 72 71 65 72 71 73 73 74 70 75 66 76 67 77 68 78
REMARK SMILES IDX 69 79 48 80 49 81 57 82 50 83 56 84 58 85 55 86 51 87 52 88
REMARK SMILES IDX 53 89 54 90
REMARK H PARENT 12 7 6 14 6 15 19 24 78 43 46 54
REMARK Flexibility Score: inf
ROOT
ATOM      1  C   UNL A   1      33.363  26.800  26.445  1.00  0.00     0.002 C 
ENDROOT
BRANCH   1   2
ATOM      2  C   UNL A   1      33.312  25.627  25.468  1.00  0.00     0.021 C 
BRANCH   2   3
ATOM      3  C   UNL A   1      32.161  24.661  25.710  1.00  0.00     0.116 C 
BRANCH   3   4
ATOM      4  N   UNL A   1      32.320  23.902  26.934  1.00  0.00    -0.356 N 
ATOM      5  C   UNL A   1      32.846  22.665  27.134  1.00  0.00     0.228 C 
ATOM      6  O   UNL A   1      32.984  22.292  28.304  1.00  0.00    -0.275 OA
ATOM      7  H   UNL A   1      31.998  24.353  27.748  1.00  0.00     0.163 HD
BRANCH   5   8
ATOM      8  C   UNL A   1      33.253  21.737  25.984  1.00  0.00     0.133 C 
BRANCH   8   9
ATOM      9  C   UNL A   1      32.092  21.475  25.004  1.00  0.00     0.019 C 
BRANCH   9  10
ATOM     10  C   UNL A   1      32.289  20.310  24.033  1.00  0.00    -0.002 C 
ATOM     11  C   UNL A   1      32.689  19.017  24.719  1.00  0.00     0.004 C 
ENDBRANCH   9  10
ENDBRANCH   8   9
BRANCH   8  12
ATOM     12  C   UNL A   1      34.640  22.099  25.406  1.00  0.00     0.274 C 
BRANCH  12  13
ATOM     13  N   UNL A   1      35.733  22.062  26.370  1.00  0.00    -0.344 N 
ATOM     14  H   UNL A   1      35.767  21.128  26.777  1.00  0.00     0.346 HD
ATOM     15  H   UNL A   1      35.539  22.792  27.056  1.00  0.00     0.346 HD
BRANCH  13  16
ATOM     16  C   UNL A   1      37.052  22.363  25.809  1.00  0.00     0.176 C 
ATOM     17  C   UNL A   1      37.066  22.129  24.300  1.00  0.00     0.075 C 
ATOM     18  C   UNL A   1      37.354  23.830  26.122  1.00  0.00     0.075 C 
ENDBRANCH  13  16
ENDBRANCH  12  13
ENDBRANCH   8  12
ENDBRANCH   5   8
ENDBRANCH   3   4
ENDBRANCH   2   3
ENDBRANCH   1   2
BRANCH   1  19
ATOM     19  C   UNL A   1      32.055  27.586  26.586  1.00  0.00     0.002 C 
BRANCH  19  20
ATOM     20  C   UNL A   1      32.197  29.012  27.126  1.00  0.00     0.021 C 
BRANCH  20  21
ATOM     21  C   UNL A   1      33.579  29.632  26.951  1.00  0.00     0.116 C 
BRANCH  21  22
ATOM     22  N   UNL A   1      33.608  31.025  27.364  1.00  0.00    -0.352 N 
ATOM     23  C   UNL A   1      34.507  31.675  28.168  1.00  0.00     0.251 C 
ATOM     24  H   UNL A   1      32.876  31.583  27.016  1.00  0.00     0.163 HD
ATOM     25  O   UNL A   1      34.254  32.809  28.574  1.00  0.00    -0.269 OA
BRANCH  23  26
ATOM     26  C   UNL A   1      35.763  31.004  28.563  1.00  0.00     0.039 A 
ATOM     27  C   UNL A   1      36.981  31.583  28.198  1.00  0.00     0.014 A 
ATOM     28  C   UNL A   1      35.743  29.807  29.285  1.00  0.00     0.014 A 
ATOM     29  C   UNL A   1      38.177  30.991  28.607  1.00  0.00     0.010 A 
ATOM     30  C   UNL A   1      36.933  29.260  29.755  1.00  0.00     0.010 A 
ATOM     31  C   UNL A   1      38.164  29.844  29.418  1.00  0.00    -0.014 A 
BRANCH  31  32
ATOM     32  C   UNL A   1      39.428  29.241  29.916  1.00  0.00     0.031 A 
ATOM     33  C   UNL A   1      40.136  29.842  31.099  1.00  0.00     0.074 A 
ATOM     34  C   UNL A   1      39.960  28.182  29.273  1.00  0.00     0.049 A 
ATOM     35  N   UNL A   1      41.278  29.504  31.641  1.00  0.00    -0.248 NA
ATOM     36  C   UNL A   1      39.485  30.995  31.742  1.00  0.00     0.031 C 
ATOM     37  C   UNL A   1      39.381  27.532  28.096  1.00  0.00     0.029 A 
ATOM     38  N   UNL A   1      41.109  27.469  29.511  1.00  0.00    -0.354 N 
ATOM     39  C   UNL A   1      41.488  30.404  32.681  1.00  0.00     0.074 A 
ATOM     40  C   UNL A   1      40.385  31.342  32.650  1.00  0.00     0.031 C 
ATOM     41  C   UNL A   1      40.160  26.500  27.735  1.00  0.00     0.029 A 
ATOM     42  C   UNL A   1      41.322  26.445  28.616  1.00  0.00     0.049 A 
ATOM     43  H   UNL A   1      41.723  27.671  30.253  1.00  0.00     0.167 HD
ATOM     44  C   UNL A   1      42.492  30.430  33.592  1.00  0.00     0.034 A 
ATOM     45  C   UNL A   1      42.343  25.572  28.508  1.00  0.00     0.034 A 
ATOM     46  C   UNL A   1      43.580  29.482  33.610  1.00  0.00     0.049 A 
ATOM     47  C   UNL A   1      43.472  25.650  29.506  1.00  0.00     0.074 A 
ATOM     48  C   UNL A   1      44.626  29.390  34.512  1.00  0.00     0.029 A 
ATOM     49  N   UNL A   1      43.769  28.468  32.680  1.00  0.00    -0.354 N 
ATOM     50  N   UNL A   1      43.632  26.481  30.512  1.00  0.00    -0.248 NA
ATOM     51  C   UNL A   1      44.554  24.668  29.361  1.00  0.00     0.031 C 
ATOM     52  C   UNL A   1      45.487  28.373  34.084  1.00  0.00     0.029 A 
ATOM     53  C   UNL A   1      44.933  27.770  32.966  1.00  0.00     0.049 A 
ATOM     54  H   UNL A   1      43.167  28.273  31.926  1.00  0.00     0.167 HD
ATOM     55  C   UNL A   1      44.814  26.094  31.139  1.00  0.00     0.074 A 
ATOM     56  C   UNL A   1      45.315  24.949  30.407  1.00  0.00     0.031 C 
ATOM     57  C   UNL A   1      45.427  26.632  32.224  1.00  0.00     0.034 A 
BRANCH  44  58
ATOM     58  C   UNL A   1      42.470  31.533  34.623  1.00  0.00     0.023 A 
ATOM     59  C   UNL A   1      41.532  31.547  35.671  1.00  0.00     0.031 A 
ATOM     60  C   UNL A   1      43.389  32.596  34.552  1.00  0.00     0.131 A 
ATOM     61  C   UNL A   1      41.487  32.634  36.558  1.00  0.00     0.055 A 
ATOM     62  C   UNL A   1      43.394  33.631  35.488  1.00  0.00     0.041 A 
ATOM     63  F   UNL A   1      44.294  32.651  33.562  1.00  0.00    -0.206 F 
ATOM     64  C   UNL A   1      42.429  33.662  36.491  1.00  0.00     0.022 A 
BRANCH  61  65
ATOM     65  S   UNL A   1      40.089  32.755  37.707  1.00  0.00     0.124 S 
ATOM     66  O   UNL A   1      40.751  32.559  38.996  1.00  0.00    -0.237 OA
ATOM     67  O   UNL A   1      39.580  34.096  37.447  1.00  0.00    -0.237 OA
ATOM     68  O   UNL A   1      39.211  31.663  37.295  1.00  0.00    -0.744 OA
ENDBRANCH  61  65
ENDBRANCH  44  58
BRANCH  45  69
ATOM     69  C   UNL A   1      42.364  24.559  27.414  1.00  0.00     0.023 A 
ATOM     70  C   UNL A   1      41.694  23.332  27.550  1.00  0.00     0.031 A 
ATOM     71  C   UNL A   1      43.101  24.777  26.235  1.00  0.00     0.131 A 
ATOM     72  C   UNL A   1      41.820  22.350  26.556  1.00  0.00     0.055 A 
ATOM     73  C   UNL A   1      43.173  23.821  25.221  1.00  0.00     0.041 A 
ATOM     74  F   UNL A   1      43.762  25.932  26.051  1.00  0.00    -0.206 F 
ATOM     75  C   UNL A   1      42.542  22.592  25.385  1.00  0.00     0.022 A 
BRANCH  72  76
ATOM     76  S   UNL A   1      41.116  20.707  26.864  1.00  0.00     0.124 S 
ATOM     77  O   UNL A   1      42.214  19.836  26.461  1.00  0.00    -0.237 OA
ATOM     78  O   UNL A   1      40.833  20.764  28.294  1.00  0.00    -0.237 OA
ATOM     79  O   UNL A   1      39.940  20.674  25.997  1.00  0.00    -0.744 OA
ENDBRANCH  72  76
ENDBRANCH  45  69
BRANCH  57  80
ATOM     80  C   UNL A   1      46.683  25.952  32.714  1.00  0.00     0.023 A 
ATOM     81  C   UNL A   1      47.947  26.244  32.171  1.00  0.00     0.031 A 
ATOM     82  C   UNL A   1      46.610  24.988  33.735  1.00  0.00     0.131 A 
ATOM     83  C   UNL A   1      49.077  25.536  32.610  1.00  0.00     0.055 A 
ATOM     84  C   UNL A   1      47.746  24.336  34.215  1.00  0.00     0.041 A 
ATOM     85  F   UNL A   1      45.430  24.665  34.288  1.00  0.00    -0.206 F 
ATOM     86  C   UNL A   1      48.987  24.599  33.642  1.00  0.00     0.022 A 
BRANCH  83  87
ATOM     87  S   UNL A   1      50.650  25.785  31.743  1.00  0.00     0.124 S 
ATOM     88  O   UNL A   1      50.570  27.194  31.369  1.00  0.00    -0.237 OA
ATOM     89  O   UNL A   1      51.630  25.453  32.771  1.00  0.00    -0.237 OA
ATOM     90  O   UNL A   1      50.578  24.843  30.627  1.00  0.00    -0.744 OA
ENDBRANCH  83  87
ENDBRANCH  57  80
ENDBRANCH  31  32
ENDBRANCH  23  26
ENDBRANCH  21  22
ENDBRANCH  20  21
ENDBRANCH  19  20
ENDBRANCH   1  19
TORSDOF 21
ENDMDL
MODEL 3
REMARK VINA RESULT:      -9.1      2.912      4.073
REMARK SMILES CCC[C@@H](C[NH2+]C(C)C)C(=O)NCCCCCCNC(=O)c1ccc(-c2c3nc(c(-c4cc(S(=O)(=O)[O-])ccc4F)c4ccc([nH]4)c(-c4cc(S(=O)(=O)[O-])ccc4F)c4nc(c(-c5cc(S(=O)(=O)[O-])ccc5F)c5ccc2[nH]5)C=C4)C=C3)cc1
REMARK SMILES IDX 15 1 14 2 13 3 12 4 10 5 11 6 4 8 3 9 2 10 1 11 5 12 6 13
REMARK SMILES IDX 7 16 8 17 9 18 16 19 17 20 18 21 19 22 20 23 21 25 22 26
REMARK SMILES IDX 23 27 84 28 24 29 83 30 25 31 26 32 27 33 77 34 28 35 82 36
REMARK SMILES IDX 76 37 78 38 29 39 81 40 75 41 74 42 30 44 62 45 42 46 61 47
REMARK SMILES IDX 43 48 46 49 60 50 79 51 44 52 45 53 59 55 80 56 47 57 31 58
REMARK SMILES IDX 32 59 40 60 33 61 39 62 41 63 38 64 34 65 35 66 36 67 37 68
REMARK SMILES IDX 63 69 64 70 72 71 65 72 71 73 73 74 70 75 66 76 67 77 68 78
REMARK SMILES IDX 69 79 48 80 49 81 57 82 50 83 56 84 58 85 55 86 51 87 52 88
REMARK SMILES IDX 53 89 54 90
REMARK H PARENT 12 7 6 14 6 15 19 24 78 43 46 54
REMARK Flexibility Score: inf
ROOT
ATOM      1  C   UNL A   1      34.140  22.583  23.596  1.00  0.00     0.002 C 
ENDROOT
BRANCH   1   2
ATOM      2  C   UNL A   1      32.924  21.709  23.900  1.00  0.00     0.021 C 
BRANCH   2   3
ATOM      3  C   UNL A   1      31.626  22.485  24.079  1.00  0.00     0.116 C 
BRANCH   3   4
ATOM      4  N   UNL A   1      31.327  22.752  25.471  1.00  0.00    -0.356 N 
ATOM      5  C   UNL A   1      31.159  23.936  26.118  1.00  0.00     0.228 C 
ATOM      6  O   UNL A   1      30.781  23.888  27.294  1.00  0.00    -0.275 OA
ATOM      7  H   UNL A   1      31.229  21.952  26.037  1.00  0.00     0.163 HD
BRANCH   5   8
ATOM      8  C   UNL A   1      31.427  25.292  25.457  1.00  0.00     0.133 C 
BRANCH   8   9
ATOM      9  C   UNL A   1      30.126  26.014  25.052  1.00  0.00     0.019 C 
BRANCH   9  10
ATOM     10  C   UNL A   1      30.041  26.467  23.595  1.00  0.00    -0.002 C 
ATOM     11  C   UNL A   1      29.835  27.963  23.442  1.00  0.00     0.004 C 
ENDBRANCH   9  10
ENDBRANCH   8   9
BRANCH   8  12
ATOM     12  C   UNL A   1      32.518  26.097  26.200  1.00  0.00     0.274 C 
BRANCH  12  13
ATOM     13  N   UNL A   1      32.808  27.406  25.627  1.00  0.00    -0.344 N 
ATOM     14  H   UNL A   1      32.180  27.555  24.839  1.00  0.00     0.346 HD
ATOM     15  H   UNL A   1      33.792  27.392  25.359  1.00  0.00     0.346 HD
BRANCH  13  16
ATOM     16  C   UNL A   1      32.649  28.527  26.556  1.00  0.00     0.176 C 
ATOM     17  C   UNL A   1      31.671  28.172  27.673  1.00  0.00     0.075 C 
ATOM     18  C   UNL A   1      34.030  28.835  27.136  1.00  0.00     0.075 C 
ENDBRANCH  13  16
ENDBRANCH  12  13
ENDBRANCH   8  12
ENDBRANCH   5   8
ENDBRANCH   3   4
ENDBRANCH   2   3
ENDBRANCH   1   2
BRANCH   1  19
ATOM     19  C   UNL A   1      35.467  22.072  24.167  1.00  0.00     0.002 C 
BRANCH  19  20
ATOM     20  C   UNL A   1      36.448  23.155  24.625  1.00  0.00     0.021 C 
BRANCH  20  21
ATOM     21  C   UNL A   1      36.985  22.981  26.041  1.00  0.00     0.116 C 
BRANCH  21  22
ATOM     22  N   UNL A   1      38.181  22.155  26.074  1.00  0.00    -0.352 N 
ATOM     23  C   UNL A   1      39.480  22.515  26.317  1.00  0.00     0.251 C 
ATOM     24  H   UNL A   1      38.036  21.198  25.897  1.00  0.00     0.163 HD
ATOM     25  O   UNL A   1      40.386  21.711  26.099  1.00  0.00    -0.269 OA
BRANCH  23  26
ATOM     26  C   UNL A   1      39.789  23.871  26.816  1.00  0.00     0.039 A 
ATOM     27  C   UNL A   1      39.857  24.084  28.195  1.00  0.00     0.014 A 
ATOM     28  C   UNL A   1      40.006  24.931  25.930  1.00  0.00     0.014 A 
ATOM     29  C   UNL A   1      40.198  25.346  28.683  1.00  0.00     0.010 A 
ATOM     30  C   UNL A   1      40.419  26.168  26.417  1.00  0.00     0.010 A 
ATOM     31  C   UNL A   1      40.516  26.391  27.799  1.00  0.00    -0.014 A 
BRANCH  31  32
ATOM     32  C   UNL A   1      40.946  27.721  28.304  1.00  0.00     0.031 A 
ATOM     33  C   UNL A   1      42.410  28.041  28.434  1.00  0.00     0.074 A 
ATOM     34  C   UNL A   1      40.017  28.619  28.690  1.00  0.00     0.049 A 
ATOM     35  N   UNL A   1      42.983  29.115  28.913  1.00  0.00    -0.248 NA
ATOM     36  C   UNL A   1      43.355  27.004  27.989  1.00  0.00     0.031 C 
ATOM     37  C   UNL A   1      38.569  28.409  28.640  1.00  0.00     0.029 A 
ATOM     38  N   UNL A   1      40.150  29.884  29.206  1.00  0.00    -0.354 N 
ATOM     39  C   UNL A   1      44.353  28.883  28.836  1.00  0.00     0.074 A 
ATOM     40  C   UNL A   1      44.519  27.539  28.324  1.00  0.00     0.031 C 
ATOM     41  C   UNL A   1      37.949  29.517  29.077  1.00  0.00     0.029 A 
ATOM     42  C   UNL A   1      38.950  30.496  29.490  1.00  0.00     0.049 A 
ATOM     43  H   UNL A   1      41.022  30.314  29.358  1.00  0.00     0.167 HD
ATOM     44  C   UNL A   1      45.375  29.721  29.140  1.00  0.00     0.034 A 
ATOM     45  C   UNL A   1      38.686  31.699  30.035  1.00  0.00     0.034 A 
ATOM     46  C   UNL A   1      45.188  31.060  29.643  1.00  0.00     0.049 A 
ATOM     47  C   UNL A   1      39.841  32.596  30.407  1.00  0.00     0.074 A 
ATOM     48  C   UNL A   1      46.150  32.009  29.943  1.00  0.00     0.029 A 
ATOM     49  N   UNL A   1      43.959  31.639  29.931  1.00  0.00    -0.354 N 
ATOM     50  N   UNL A   1      41.130  32.377  30.285  1.00  0.00    -0.248 NA
ATOM     51  C   UNL A   1      39.505  33.905  30.981  1.00  0.00     0.031 C 
ATOM     52  C   UNL A   1      45.510  33.129  30.483  1.00  0.00     0.029 A 
ATOM     53  C   UNL A   1      44.141  32.918  30.438  1.00  0.00     0.049 A 
ATOM     54  H   UNL A   1      43.085  31.206  29.797  1.00  0.00     0.167 HD
ATOM     55  C   UNL A   1      41.756  33.538  30.733  1.00  0.00     0.074 A 
ATOM     56  C   UNL A   1      40.702  34.456  31.112  1.00  0.00     0.031 C 
ATOM     57  C   UNL A   1      43.081  33.822  30.819  1.00  0.00     0.034 A 
BRANCH  44  58
ATOM     58  C   UNL A   1      46.781  29.201  28.958  1.00  0.00     0.023 A 
ATOM     59  C   UNL A   1      47.382  29.121  27.689  1.00  0.00     0.031 A 
ATOM     60  C   UNL A   1      47.529  28.763  30.066  1.00  0.00     0.131 A 
ATOM     61  C   UNL A   1      48.657  28.550  27.551  1.00  0.00     0.055 A 
ATOM     62  C   UNL A   1      48.830  28.275  29.932  1.00  0.00     0.041 A 
ATOM     63  F   UNL A   1      47.002  28.792  31.301  1.00  0.00    -0.206 F 
ATOM     64  C   UNL A   1      49.397  28.152  28.666  1.00  0.00     0.022 A 
BRANCH  61  65
ATOM     65  S   UNL A   1      49.272  28.202  25.881  1.00  0.00     0.124 S 
ATOM     66  O   UNL A   1      50.203  29.310  25.674  1.00  0.00    -0.237 OA
ATOM     67  O   UNL A   1      49.873  26.882  26.033  1.00  0.00    -0.237 OA
ATOM     68  O   UNL A   1      48.068  28.248  25.055  1.00  0.00    -0.744 OA
ENDBRANCH  61  65
ENDBRANCH  44  58
BRANCH  45  69
ATOM     69  C   UNL A   1      37.279  32.130  30.280  1.00  0.00     0.023 A 
ATOM     70  C   UNL A   1      36.512  32.713  29.258  1.00  0.00     0.031 A 
ATOM     71  C   UNL A   1      36.696  32.018  31.556  1.00  0.00     0.131 A 
ATOM     72  C   UNL A   1      35.231  33.213  29.541  1.00  0.00     0.055 A 
ATOM     73  C   UNL A   1      35.398  32.460  31.817  1.00  0.00     0.041 A 
ATOM     74  F   UNL A   1      37.383  31.469  32.571  1.00  0.00    -0.206 F 
ATOM     75  C   UNL A   1      34.663  33.076  30.809  1.00  0.00     0.022 A 
BRANCH  72  76
ATOM     76  S   UNL A   1      34.359  34.145  28.252  1.00  0.00     0.124 S 
ATOM     77  O   UNL A   1      35.406  34.314  27.251  1.00  0.00    -0.237 OA
ATOM     78  O   UNL A   1      33.276  33.232  27.900  1.00  0.00    -0.237 OA
ATOM     79  O   UNL A   1      33.945  35.367  28.937  1.00  0.00    -0.744 OA
ENDBRANCH  72  76
ENDBRANCH  45  69
BRANCH  57  80
ATOM     80  C   UNL A   1      43.460  35.204  31.296  1.00  0.00     0.023 A 
ATOM     81  C   UNL A   1      43.621  35.502  32.661  1.00  0.00     0.031 A 
ATOM     82  C   UNL A   1      43.652  36.243  30.367  1.00  0.00     0.131 A 
ATOM     83  C   UNL A   1      43.906  36.817  33.061  1.00  0.00     0.055 A 
ATOM     84  C   UNL A   1      44.001  37.533  30.766  1.00  0.00     0.041 A 
ATOM     85  F   UNL A   1      43.506  36.018  29.051  1.00  0.00    -0.206 F 
ATOM     86  C   UNL A   1      44.116  37.829  32.121  1.00  0.00     0.022 A 
BRANCH  83  87
ATOM     87  S   UNL A   1      43.898  37.208  34.832  1.00  0.00     0.124 S 
ATOM     88  O   UNL A   1      43.353  38.562  34.840  1.00  0.00    -0.237 OA
ATOM     89  O   UNL A   1      43.032  36.169  35.378  1.00  0.00    -0.237 OA
ATOM     90  O   UNL A   1      45.306  37.105  35.211  1.00  0.00    -0.744 OA
ENDBRANCH  83  87
ENDBRANCH  57  80
ENDBRANCH  31  32
ENDBRANCH  23  26
ENDBRANCH  21  22
ENDBRANCH  20  21
ENDBRANCH  19  20
ENDBRANCH   1  19
TORSDOF 21
ENDMDL
