MODEL 1
REMARK VINA RESULT:     -11.9      0.000      0.000
REMARK SMILES Cc1cnn(-c2ccccc2OCC(=O)NCCCCCCNC(=O)c2ccc(-c3c4nc(c(-c5cc(S(=O)(=O)[O-])ccc5F)c5ccc([nH]5)c(-c5cc(S(=O)(=O)[O-])ccc5F)c5nc(c(-c6cc(S(=O)(=O)[O-])ccc6F)c6ccc3[nH]6)C=C5)C=C4)cc2)c1
REMARK SMILES IDX 19 1 18 2 17 3 16 4 14 5 15 6 13 8 12 9 11 10 6 11 7 12 8 13
REMARK SMILES IDX 10 14 9 15 5 16 1 17 2 18 3 19 89 20 4 21 20 22 21 23 22 24
REMARK SMILES IDX 23 25 24 26 25 28 26 29 27 30 88 31 28 32 87 33 29 34 30 35
REMARK SMILES IDX 31 36 81 37 32 38 86 39 80 40 82 41 33 42 85 43 79 44 78 45
REMARK SMILES IDX 34 47 66 48 46 49 65 50 47 51 50 52 64 53 83 54 48 55 49 56
REMARK SMILES IDX 63 58 84 59 51 60 35 61 36 62 44 63 37 64 43 65 45 66 42 67
REMARK SMILES IDX 38 68 39 69 40 70 41 71 67 72 68 73 76 74 69 75 75 76 77 77
REMARK SMILES IDX 74 78 70 79 71 80 72 81 73 82 52 83 53 84 61 85 54 86 60 87
REMARK SMILES IDX 62 88 59 89 55 90 56 91 57 92 58 93
REMARK H PARENT 16 7 23 27 82 46 50 57
REMARK Flexibility Score: inf
ROOT
ATOM      1  C   UNL A   1      32.245  27.116  26.716  1.00  0.00     0.002 C 
ENDROOT
BRANCH   1   2
ATOM      2  C   UNL A   1      31.152  27.168  25.642  1.00  0.00     0.021 C 
BRANCH   2   3
ATOM      3  C   UNL A   1      30.464  25.850  25.310  1.00  0.00     0.116 C 
BRANCH   3   4
ATOM      4  N   UNL A   1      30.360  24.944  26.433  1.00  0.00    -0.353 N 
ATOM      5  C   UNL A   1      30.914  23.701  26.522  1.00  0.00     0.257 C 
ATOM      6  O   UNL A   1      31.323  23.339  27.629  1.00  0.00    -0.271 OA
ATOM      7  H   UNL A   1      29.839  25.254  27.208  1.00  0.00     0.163 HD
BRANCH   5   8
ATOM      8  C   UNL A   1      31.043  22.810  25.279  1.00  0.00     0.329 C 
BRANCH   8   9
ATOM      9  O   UNL A   1      32.185  22.963  24.469  1.00  0.00    -0.482 OA
BRANCH   9  10
ATOM     10  C   UNL A   1      33.476  22.955  24.895  1.00  0.00     0.145 A 
ATOM     11  C   UNL A   1      34.349  21.923  25.264  1.00  0.00     0.107 A 
ATOM     12  C   UNL A   1      35.628  22.214  25.782  1.00  0.00     0.032 A 
ATOM     13  C   UNL A   1      36.060  23.534  25.904  1.00  0.00     0.003 A 
ATOM     14  C   UNL A   1      33.936  24.276  25.051  1.00  0.00     0.049 A 
ATOM     15  C   UNL A   1      35.211  24.569  25.539  1.00  0.00     0.004 A 
BRANCH  11  16
ATOM     16  N   UNL A   1      34.015  20.563  25.200  1.00  0.00    -0.237 N 
ATOM     17  C   UNL A   1      34.095  17.210  23.778  1.00  0.00     0.048 C 
ATOM     18  C   UNL A   1      33.903  18.462  24.542  1.00  0.00    -0.013 A 
ATOM     19  C   UNL A   1      32.801  18.838  25.337  1.00  0.00     0.139 A 
ATOM     20  C   UNL A   1      34.736  19.561  24.599  1.00  0.00     0.118 A 
ATOM     21  N   UNL A   1      32.906  20.083  25.810  1.00  0.00    -0.176 NA
ENDBRANCH  11  16
ENDBRANCH   9  10
ENDBRANCH   8   9
ENDBRANCH   5   8
ENDBRANCH   3   4
ENDBRANCH   2   3
ENDBRANCH   1   2
BRANCH   1  22
ATOM     22  C   UNL A   1      32.725  28.447  27.313  1.00  0.00     0.002 C 
BRANCH  22  23
ATOM     23  C   UNL A   1      33.900  29.154  26.628  1.00  0.00     0.021 C 
BRANCH  23  24
ATOM     24  C   UNL A   1      35.250  28.950  27.296  1.00  0.00     0.116 C 
BRANCH  24  25
ATOM     25  N   UNL A   1      35.409  29.749  28.505  1.00  0.00    -0.352 N 
ATOM     26  C   UNL A   1      36.422  29.659  29.441  1.00  0.00     0.251 C 
ATOM     27  H   UNL A   1      34.717  30.428  28.673  1.00  0.00     0.163 HD
ATOM     28  O   UNL A   1      36.237  30.039  30.588  1.00  0.00    -0.269 OA
BRANCH  26  29
ATOM     29  C   UNL A   1      37.722  29.091  29.027  1.00  0.00     0.039 A 
ATOM     30  C   UNL A   1      38.407  29.588  27.918  1.00  0.00     0.014 A 
ATOM     31  C   UNL A   1      38.265  28.054  29.787  1.00  0.00     0.014 A 
ATOM     32  C   UNL A   1      39.679  29.091  27.637  1.00  0.00     0.010 A 
ATOM     33  C   UNL A   1      39.567  27.659  29.590  1.00  0.00     0.010 A 
ATOM     34  C   UNL A   1      40.271  28.144  28.495  1.00  0.00    -0.014 A 
BRANCH  34  35
ATOM     35  C   UNL A   1      41.679  27.778  28.339  1.00  0.00     0.031 A 
ATOM     36  C   UNL A   1      41.890  26.537  27.546  1.00  0.00     0.074 A 
ATOM     37  C   UNL A   1      42.724  28.556  28.699  1.00  0.00     0.049 A 
ATOM     38  N   UNL A   1      42.232  25.377  27.995  1.00  0.00    -0.248 NA
ATOM     39  C   UNL A   1      41.508  26.530  26.125  1.00  0.00     0.031 C 
ATOM     40  C   UNL A   1      42.700  29.923  29.229  1.00  0.00     0.029 A 
ATOM     41  N   UNL A   1      44.061  28.312  28.579  1.00  0.00    -0.354 N 
ATOM     42  C   UNL A   1      42.365  24.557  26.882  1.00  0.00     0.074 A 
ATOM     43  C   UNL A   1      41.701  25.247  25.808  1.00  0.00     0.031 C 
ATOM     44  C   UNL A   1      43.941  30.457  29.174  1.00  0.00     0.029 A 
ATOM     45  C   UNL A   1      44.879  29.425  28.767  1.00  0.00     0.049 A 
ATOM     46  H   UNL A   1      44.419  27.418  28.374  1.00  0.00     0.167 HD
ATOM     47  C   UNL A   1      43.229  23.503  26.895  1.00  0.00     0.034 A 
ATOM     48  C   UNL A   1      46.230  29.502  28.603  1.00  0.00     0.034 A 
ATOM     49  C   UNL A   1      43.654  23.207  28.248  1.00  0.00     0.049 A 
ATOM     50  C   UNL A   1      46.750  28.119  28.738  1.00  0.00     0.074 A 
ATOM     51  C   UNL A   1      42.999  22.870  29.418  1.00  0.00     0.029 A 
ATOM     52  N   UNL A   1      44.903  23.639  28.638  1.00  0.00    -0.354 N 
ATOM     53  N   UNL A   1      46.690  27.444  29.853  1.00  0.00    -0.248 NA
ATOM     54  C   UNL A   1      46.876  27.315  27.533  1.00  0.00     0.031 C 
ATOM     55  C   UNL A   1      43.680  23.597  30.439  1.00  0.00     0.029 A 
ATOM     56  C   UNL A   1      44.769  24.252  29.859  1.00  0.00     0.049 A 
ATOM     57  H   UNL A   1      45.740  23.529  28.132  1.00  0.00     0.167 HD
ATOM     58  C   UNL A   1      46.315  26.165  29.473  1.00  0.00     0.074 A 
ATOM     59  C   UNL A   1      46.542  26.119  28.029  1.00  0.00     0.031 C 
ATOM     60  C   UNL A   1      45.590  25.362  30.310  1.00  0.00     0.034 A 
BRANCH  47  61
ATOM     61  C   UNL A   1      43.996  22.984  25.696  1.00  0.00     0.023 A 
ATOM     62  C   UNL A   1      43.894  21.606  25.423  1.00  0.00     0.031 A 
ATOM     63  C   UNL A   1      45.022  23.671  25.010  1.00  0.00     0.131 A 
ATOM     64  C   UNL A   1      44.847  20.955  24.621  1.00  0.00     0.055 A 
ATOM     65  C   UNL A   1      45.925  23.029  24.156  1.00  0.00     0.041 A 
ATOM     66  F   UNL A   1      45.277  24.970  25.194  1.00  0.00    -0.206 F 
ATOM     67  C   UNL A   1      45.864  21.657  23.985  1.00  0.00     0.022 A 
BRANCH  64  68
ATOM     68  S   UNL A   1      44.838  19.145  24.584  1.00  0.00     0.124 S 
ATOM     69  O   UNL A   1      45.676  18.828  25.736  1.00  0.00    -0.237 OA
ATOM     70  O   UNL A   1      43.416  18.848  24.720  1.00  0.00    -0.237 OA
ATOM     71  O   UNL A   1      45.420  18.831  23.282  1.00  0.00    -0.744 OA
ENDBRANCH  64  68
ENDBRANCH  47  61
BRANCH  48  72
ATOM     72  C   UNL A   1      47.034  30.631  28.047  1.00  0.00     0.023 A 
ATOM     73  C   UNL A   1      46.483  31.652  27.238  1.00  0.00     0.031 A 
ATOM     74  C   UNL A   1      48.339  30.856  28.540  1.00  0.00     0.131 A 
ATOM     75  C   UNL A   1      47.223  32.830  26.966  1.00  0.00     0.055 A 
ATOM     76  C   UNL A   1      49.063  32.021  28.272  1.00  0.00     0.041 A 
ATOM     77  F   UNL A   1      48.925  29.987  29.380  1.00  0.00    -0.206 F 
ATOM     78  C   UNL A   1      48.502  33.019  27.493  1.00  0.00     0.022 A 
BRANCH  75  79
ATOM     79  S   UNL A   1      46.496  34.194  25.992  1.00  0.00     0.124 S 
ATOM     80  O   UNL A   1      46.097  35.137  27.029  1.00  0.00    -0.237 OA
ATOM     81  O   UNL A   1      47.606  34.597  25.137  1.00  0.00    -0.237 OA
ATOM     82  O   UNL A   1      45.385  33.555  25.285  1.00  0.00    -0.744 OA
ENDBRANCH  75  79
ENDBRANCH  48  72
BRANCH  60  83
ATOM     83  C   UNL A   1      45.474  25.753  31.772  1.00  0.00     0.023 A 
ATOM     84  C   UNL A   1      46.439  25.489  32.772  1.00  0.00     0.031 A 
ATOM     85  C   UNL A   1      44.362  26.535  32.133  1.00  0.00     0.131 A 
ATOM     86  C   UNL A   1      46.260  25.998  34.076  1.00  0.00     0.055 A 
ATOM     87  C   UNL A   1      44.202  27.057  33.415  1.00  0.00     0.041 A 
ATOM     88  F   UNL A   1      43.419  26.838  31.225  1.00  0.00    -0.206 F 
ATOM     89  C   UNL A   1      45.149  26.786  34.394  1.00  0.00     0.022 A 
BRANCH  86  90
ATOM     90  S   UNL A   1      47.460  25.627  35.398  1.00  0.00     0.124 S 
ATOM     91  O   UNL A   1      46.628  25.132  36.488  1.00  0.00    -0.237 OA
ATOM     92  O   UNL A   1      48.336  24.644  34.766  1.00  0.00    -0.237 OA
ATOM     93  O   UNL A   1      48.092  26.924  35.657  1.00  0.00    -0.744 OA
ENDBRANCH  86  90
ENDBRANCH  60  83
ENDBRANCH  34  35
ENDBRANCH  26  29
ENDBRANCH  24  25
ENDBRANCH  23  24
ENDBRANCH  22  23
ENDBRANCH   1  22
TORSDOF 19
ENDMDL
MODEL 2
REMARK VINA RESULT:     -11.8      1.822      2.514
REMARK SMILES Cc1cnn(-c2ccccc2OCC(=O)NCCCCCCNC(=O)c2ccc(-c3c4nc(c(-c5cc(S(=O)(=O)[O-])ccc5F)c5ccc([nH]5)c(-c5cc(S(=O)(=O)[O-])ccc5F)c5nc(c(-c6cc(S(=O)(=O)[O-])ccc6F)c6ccc3[nH]6)C=C5)C=C4)cc2)c1
REMARK SMILES IDX 19 1 18 2 17 3 16 4 14 5 15 6 13 8 12 9 11 10 6 11 7 12 8 13
REMARK SMILES IDX 10 14 9 15 5 16 1 17 2 18 3 19 89 20 4 21 20 22 21 23 22 24
REMARK SMILES IDX 23 25 24 26 25 28 26 29 27 30 88 31 28 32 87 33 29 34 30 35
REMARK SMILES IDX 31 36 81 37 32 38 86 39 80 40 82 41 33 42 85 43 79 44 78 45
REMARK SMILES IDX 34 47 66 48 46 49 65 50 47 51 50 52 64 53 83 54 48 55 49 56
REMARK SMILES IDX 63 58 84 59 51 60 35 61 36 62 44 63 37 64 43 65 45 66 42 67
REMARK SMILES IDX 38 68 39 69 40 70 41 71 67 72 68 73 76 74 69 75 75 76 77 77
REMARK SMILES IDX 74 78 70 79 71 80 72 81 73 82 52 83 53 84 61 85 54 86 60 87
REMARK SMILES IDX 62 88 59 89 55 90 56 91 57 92 58 93
REMARK H PARENT 16 7 23 27 82 46 50 57
REMARK Flexibility Score: inf
ROOT
ATOM      1  C   UNL A   1      32.931  29.202  24.883  1.00  0.00     0.002 C 
ENDROOT
BRANCH   1   2
ATOM      2  C   UNL A   1      31.513  28.997  24.336  1.00  0.00     0.021 C 
BRANCH   2   3
ATOM      3  C   UNL A   1      31.324  27.848  23.354  1.00  0.00     0.116 C 
BRANCH   3   4
ATOM      4  N   UNL A   1      32.401  27.710  22.399  1.00  0.00    -0.353 N 
ATOM      5  C   UNL A   1      33.142  26.588  22.173  1.00  0.00     0.257 C 
ATOM      6  O   UNL A   1      33.504  26.370  21.014  1.00  0.00    -0.271 OA
ATOM      7  H   UNL A   1      32.621  28.504  21.859  1.00  0.00     0.163 HD
BRANCH   5   8
ATOM      8  C   UNL A   1      33.479  25.628  23.323  1.00  0.00     0.329 C 
BRANCH   8   9
ATOM      9  O   UNL A   1      33.858  24.311  22.997  1.00  0.00    -0.482 OA
BRANCH   9  10
ATOM     10  C   UNL A   1      34.577  23.467  23.785  1.00  0.00     0.145 A 
ATOM     11  C   UNL A   1      34.355  22.942  25.064  1.00  0.00     0.107 A 
ATOM     12  C   UNL A   1      35.340  22.157  25.700  1.00  0.00     0.032 A 
ATOM     13  C   UNL A   1      36.539  21.863  25.053  1.00  0.00     0.003 A 
ATOM     14  C   UNL A   1      35.806  23.168  23.169  1.00  0.00     0.049 A 
ATOM     15  C   UNL A   1      36.774  22.372  23.783  1.00  0.00     0.004 A 
BRANCH  11  16
ATOM     16  N   UNL A   1      33.196  23.185  25.815  1.00  0.00    -0.237 N 
ATOM     17  C   UNL A   1      29.740  22.627  26.823  1.00  0.00     0.048 C 
ATOM     18  C   UNL A   1      31.142  23.045  26.602  1.00  0.00    -0.013 A 
ATOM     19  C   UNL A   1      31.718  24.314  26.820  1.00  0.00     0.139 A 
ATOM     20  C   UNL A   1      32.181  22.300  26.081  1.00  0.00     0.118 A 
ATOM     21  N   UNL A   1      32.992  24.377  26.422  1.00  0.00    -0.176 NA
ENDBRANCH  11  16
ENDBRANCH   9  10
ENDBRANCH   8   9
ENDBRANCH   5   8
ENDBRANCH   3   4
ENDBRANCH   2   3
ENDBRANCH   1   2
BRANCH   1  22
ATOM     22  C   UNL A   1      33.079  29.583  26.363  1.00  0.00     0.002 C 
BRANCH  22  23
ATOM     23  C   UNL A   1      34.042  28.754  27.220  1.00  0.00     0.021 C 
BRANCH  23  24
ATOM     24  C   UNL A   1      35.384  29.410  27.495  1.00  0.00     0.116 C 
BRANCH  24  25
ATOM     25  N   UNL A   1      35.521  29.866  28.873  1.00  0.00    -0.352 N 
ATOM     26  C   UNL A   1      36.483  29.485  29.789  1.00  0.00     0.251 C 
ATOM     27  H   UNL A   1      34.853  30.518  29.185  1.00  0.00     0.163 HD
ATOM     28  O   UNL A   1      36.260  29.572  30.989  1.00  0.00    -0.269 OA
BRANCH  26  29
ATOM     29  C   UNL A   1      37.774  28.968  29.290  1.00  0.00     0.039 A 
ATOM     30  C   UNL A   1      38.352  29.473  28.125  1.00  0.00     0.014 A 
ATOM     31  C   UNL A   1      38.419  27.972  30.025  1.00  0.00     0.014 A 
ATOM     32  C   UNL A   1      39.622  29.029  27.759  1.00  0.00     0.010 A 
ATOM     33  C   UNL A   1      39.720  27.633  29.738  1.00  0.00     0.010 A 
ATOM     34  C   UNL A   1      40.318  28.127  28.586  1.00  0.00    -0.014 A 
BRANCH  34  35
ATOM     35  C   UNL A   1      41.727  27.822  28.333  1.00  0.00     0.031 A 
ATOM     36  C   UNL A   1      41.940  26.543  27.605  1.00  0.00     0.074 A 
ATOM     37  C   UNL A   1      42.754  28.675  28.551  1.00  0.00     0.049 A 
ATOM     38  N   UNL A   1      42.382  25.434  28.096  1.00  0.00    -0.248 NA
ATOM     39  C   UNL A   1      41.443  26.420  26.225  1.00  0.00     0.031 C 
ATOM     40  C   UNL A   1      42.698  30.071  28.993  1.00  0.00     0.029 A 
ATOM     41  N   UNL A   1      44.087  28.489  28.332  1.00  0.00    -0.354 N 
ATOM     42  C   UNL A   1      42.467  24.548  27.030  1.00  0.00     0.074 A 
ATOM     43  C   UNL A   1      41.680  25.129  25.976  1.00  0.00     0.031 C 
ATOM     44  C   UNL A   1      43.898  30.661  28.797  1.00  0.00     0.029 A 
ATOM     45  C   UNL A   1      44.855  29.653  28.377  1.00  0.00     0.049 A 
ATOM     46  H   UNL A   1      44.477  27.603  28.154  1.00  0.00     0.167 HD
ATOM     47  C   UNL A   1      43.387  23.541  27.035  1.00  0.00     0.034 A 
ATOM     48  C   UNL A   1      46.181  29.786  28.092  1.00  0.00     0.034 A 
ATOM     49  C   UNL A   1      43.938  23.360  28.363  1.00  0.00     0.049 A 
ATOM     50  C   UNL A   1      46.786  28.443  28.270  1.00  0.00     0.074 A 
ATOM     51  C   UNL A   1      43.403  23.071  29.604  1.00  0.00     0.029 A 
ATOM     52  N   UNL A   1      45.189  23.880  28.614  1.00  0.00    -0.354 N 
ATOM     53  N   UNL A   1      46.858  27.843  29.426  1.00  0.00    -0.248 NA
ATOM     54  C   UNL A   1      46.857  27.566  27.112  1.00  0.00     0.031 C 
ATOM     55  C   UNL A   1      44.125  23.899  30.514  1.00  0.00     0.029 A 
ATOM     56  C   UNL A   1      45.124  24.567  29.801  1.00  0.00     0.049 A 
ATOM     57  H   UNL A   1      45.987  23.777  28.046  1.00  0.00     0.167 HD
ATOM     58  C   UNL A   1      46.523  26.524  29.162  1.00  0.00     0.074 A 
ATOM     59  C   UNL A   1      46.632  26.391  27.710  1.00  0.00     0.031 C 
ATOM     60  C   UNL A   1      45.916  25.745  30.108  1.00  0.00     0.034 A 
BRANCH  47  61
ATOM     61  C   UNL A   1      44.079  22.982  25.810  1.00  0.00     0.023 A 
ATOM     62  C   UNL A   1      44.072  21.581  25.659  1.00  0.00     0.031 A 
ATOM     63  C   UNL A   1      44.973  23.684  24.971  1.00  0.00     0.131 A 
ATOM     64  C   UNL A   1      44.997  20.939  24.819  1.00  0.00     0.055 A 
ATOM     65  C   UNL A   1      45.843  23.043  24.083  1.00  0.00     0.041 A 
ATOM     66  F   UNL A   1      45.130  25.010  25.023  1.00  0.00    -0.206 F 
ATOM     67  C   UNL A   1      45.886  21.660  24.029  1.00  0.00     0.022 A 
BRANCH  64  68
ATOM     68  S   UNL A   1      45.143  19.137  24.927  1.00  0.00     0.124 S 
ATOM     69  O   UNL A   1      44.968  18.748  23.532  1.00  0.00    -0.237 OA
ATOM     70  O   UNL A   1      46.485  18.978  25.477  1.00  0.00    -0.237 OA
ATOM     71  O   UNL A   1      44.052  18.763  25.823  1.00  0.00    -0.744 OA
ENDBRANCH  64  68
ENDBRANCH  47  61
BRANCH  48  72
ATOM     72  C   UNL A   1      46.872  30.912  27.398  1.00  0.00     0.023 A 
ATOM     73  C   UNL A   1      46.189  32.025  26.854  1.00  0.00     0.031 A 
ATOM     74  C   UNL A   1      48.277  31.027  27.500  1.00  0.00     0.131 A 
ATOM     75  C   UNL A   1      46.905  33.182  26.453  1.00  0.00     0.055 A 
ATOM     76  C   UNL A   1      48.978  32.170  27.106  1.00  0.00     0.041 A 
ATOM     77  F   UNL A   1      49.014  30.061  28.072  1.00  0.00    -0.206 F 
ATOM     78  C   UNL A   1      48.293  33.258  26.592  1.00  0.00     0.022 A 
BRANCH  75  79
ATOM     79  S   UNL A   1      46.032  34.658  25.826  1.00  0.00     0.124 S 
ATOM     80  O   UNL A   1      45.061  34.917  26.882  1.00  0.00    -0.237 OA
ATOM     81  O   UNL A   1      47.113  35.626  25.684  1.00  0.00    -0.237 OA
ATOM     82  O   UNL A   1      45.454  34.202  24.561  1.00  0.00    -0.744 OA
ENDBRANCH  75  79
ENDBRANCH  48  72
BRANCH  60  83
ATOM     83  C   UNL A   1      45.901  26.227  31.547  1.00  0.00     0.023 A 
ATOM     84  C   UNL A   1      44.790  26.801  32.209  1.00  0.00     0.031 A 
ATOM     85  C   UNL A   1      47.056  25.981  32.310  1.00  0.00     0.131 A 
ATOM     86  C   UNL A   1      44.873  27.113  33.583  1.00  0.00     0.055 A 
ATOM     87  C   UNL A   1      47.125  26.267  33.672  1.00  0.00     0.041 A 
ATOM     88  F   UNL A   1      48.139  25.420  31.745  1.00  0.00    -0.206 F 
ATOM     89  C   UNL A   1      46.034  26.840  34.313  1.00  0.00     0.022 A 
BRANCH  86  90
ATOM     90  S   UNL A   1      43.476  27.904  34.448  1.00  0.00     0.124 S 
ATOM     91  O   UNL A   1      42.399  26.931  34.323  1.00  0.00    -0.237 OA
ATOM     92  O   UNL A   1      44.007  28.101  35.795  1.00  0.00    -0.237 OA
ATOM     93  O   UNL A   1      43.267  29.143  33.694  1.00  0.00    -0.744 OA
ENDBRANCH  86  90
ENDBRANCH  60  83
ENDBRANCH  34  35
ENDBRANCH  26  29
ENDBRANCH  24  25
ENDBRANCH  23  24
ENDBRANCH  22  23
ENDBRANCH   1  22
TORSDOF 19
ENDMDL
MODEL 3
REMARK VINA RESULT:     -11.7      2.415      7.146
REMARK SMILES Cc1cnn(-c2ccccc2OCC(=O)NCCCCCCNC(=O)c2ccc(-c3c4nc(c(-c5cc(S(=O)(=O)[O-])ccc5F)c5ccc([nH]5)c(-c5cc(S(=O)(=O)[O-])ccc5F)c5nc(c(-c6cc(S(=O)(=O)[O-])ccc6F)c6ccc3[nH]6)C=C5)C=C4)cc2)c1
REMARK SMILES IDX 19 1 18 2 17 3 16 4 14 5 15 6 13 8 12 9 11 10 6 11 7 12 8 13
REMARK SMILES IDX 10 14 9 15 5 16 1 17 2 18 3 19 89 20 4 21 20 22 21 23 22 24
REMARK SMILES IDX 23 25 24 26 25 28 26 29 27 30 88 31 28 32 87 33 29 34 30 35
REMARK SMILES IDX 31 36 81 37 32 38 86 39 80 40 82 41 33 42 85 43 79 44 78 45
REMARK SMILES IDX 34 47 66 48 46 49 65 50 47 51 50 52 64 53 83 54 48 55 49 56
REMARK SMILES IDX 63 58 84 59 51 60 35 61 36 62 44 63 37 64 43 65 45 66 42 67
REMARK SMILES IDX 38 68 39 69 40 70 41 71 67 72 68 73 76 74 69 75 75 76 77 77
REMARK SMILES IDX 74 78 70 79 71 80 72 81 73 82 52 83 53 84 61 85 54 86 60 87
REMARK SMILES IDX 62 88 59 89 55 90 56 91 57 92 58 93
REMARK H PARENT 16 7 23 27 82 46 50 57
REMARK Flexibility Score: inf
ROOT
ATOM      1  C   UNL A   1      31.573  27.852  25.849  1.00  0.00     0.002 C 
ENDROOT
BRANCH   1   2
ATOM      2  C   UNL A   1      31.111  26.465  26.311  1.00  0.00     0.021 C 
BRANCH   2   3
ATOM      3  C   UNL A   1      30.994  25.395  25.234  1.00  0.00     0.116 C 
BRANCH   3   4
ATOM      4  N   UNL A   1      30.287  24.208  25.661  1.00  0.00    -0.353 N 
ATOM      5  C   UNL A   1      30.534  23.482  26.789  1.00  0.00     0.257 C 
ATOM      6  O   UNL A   1      29.565  22.980  27.365  1.00  0.00    -0.271 OA
ATOM      7  H   UNL A   1      29.557  23.892  25.081  1.00  0.00     0.163 HD
BRANCH   5   8
ATOM      8  C   UNL A   1      31.964  23.331  27.326  1.00  0.00     0.329 C 
BRANCH   8   9
ATOM      9  O   UNL A   1      32.798  22.366  26.728  1.00  0.00    -0.482 OA
BRANCH   9  10
ATOM     10  C   UNL A   1      33.692  22.590  25.729  1.00  0.00     0.145 A 
ATOM     11  C   UNL A   1      34.164  21.791  24.679  1.00  0.00     0.107 A 
ATOM     12  C   UNL A   1      35.195  22.250  23.833  1.00  0.00     0.032 A 
ATOM     13  C   UNL A   1      35.740  23.521  24.005  1.00  0.00     0.003 A 
ATOM     14  C   UNL A   1      34.279  23.859  25.887  1.00  0.00     0.049 A 
ATOM     15  C   UNL A   1      35.282  24.328  25.037  1.00  0.00     0.004 A 
BRANCH  11  16
ATOM     16  N   UNL A   1      33.702  20.492  24.423  1.00  0.00    -0.237 N 
ATOM     17  C   UNL A   1      34.072  16.919  23.812  1.00  0.00     0.048 C 
ATOM     18  C   UNL A   1      33.658  18.321  24.039  1.00  0.00    -0.013 A 
ATOM     19  C   UNL A   1      32.500  18.976  23.572  1.00  0.00     0.139 A 
ATOM     20  C   UNL A   1      34.343  19.313  24.713  1.00  0.00     0.118 A 
ATOM     21  N   UNL A   1      32.482  20.276  23.878  1.00  0.00    -0.176 NA
ENDBRANCH  11  16
ENDBRANCH   9  10
ENDBRANCH   8   9
ENDBRANCH   5   8
ENDBRANCH   3   4
ENDBRANCH   2   3
ENDBRANCH   1   2
BRANCH   1  22
ATOM     22  C   UNL A   1      32.865  28.416  26.458  1.00  0.00     0.002 C 
BRANCH  22  23
ATOM     23  C   UNL A   1      32.771  29.730  27.241  1.00  0.00     0.021 C 
BRANCH  23  24
ATOM     24  C   UNL A   1      33.950  30.670  27.061  1.00  0.00     0.116 C 
BRANCH  24  25
ATOM     25  N   UNL A   1      33.991  31.726  28.065  1.00  0.00    -0.352 N 
ATOM     26  C   UNL A   1      34.848  31.823  29.145  1.00  0.00     0.251 C 
ATOM     27  H   UNL A   1      33.334  32.452  27.962  1.00  0.00     0.163 HD
ATOM     28  O   UNL A   1      34.527  32.471  30.131  1.00  0.00    -0.269 OA
BRANCH  26  29
ATOM     29  C   UNL A   1      36.149  31.124  29.084  1.00  0.00     0.039 A 
ATOM     30  C   UNL A   1      37.351  31.827  29.174  1.00  0.00     0.014 A 
ATOM     31  C   UNL A   1      36.150  29.734  28.955  1.00  0.00     0.014 A 
ATOM     32  C   UNL A   1      38.545  31.109  29.222  1.00  0.00     0.010 A 
ATOM     33  C   UNL A   1      37.313  29.023  29.134  1.00  0.00     0.010 A 
ATOM     34  C   UNL A   1      38.521  29.701  29.231  1.00  0.00    -0.014 A 
BRANCH  34  35
ATOM     35  C   UNL A   1      39.741  28.939  29.499  1.00  0.00     0.031 A 
ATOM     36  C   UNL A   1      40.052  28.796  30.946  1.00  0.00     0.074 A 
ATOM     37  C   UNL A   1      40.444  28.254  28.569  1.00  0.00     0.049 A 
ATOM     38  N   UNL A   1      40.975  29.409  31.607  1.00  0.00    -0.248 NA
ATOM     39  C   UNL A   1      39.128  28.029  31.798  1.00  0.00     0.031 C 
ATOM     40  C   UNL A   1      40.123  28.052  27.153  1.00  0.00     0.029 A 
ATOM     41  N   UNL A   1      41.574  27.505  28.723  1.00  0.00    -0.354 N 
ATOM     42  C   UNL A   1      40.920  28.908  32.902  1.00  0.00     0.074 A 
ATOM     43  C   UNL A   1      39.647  28.247  33.010  1.00  0.00     0.031 C 
ATOM     44  C   UNL A   1      40.901  27.070  26.643  1.00  0.00     0.029 A 
ATOM     45  C   UNL A   1      41.888  26.688  27.638  1.00  0.00     0.049 A 
ATOM     46  H   UNL A   1      42.125  27.539  29.539  1.00  0.00     0.167 HD
ATOM     47  C   UNL A   1      42.038  28.871  33.681  1.00  0.00     0.034 A 
ATOM     48  C   UNL A   1      42.885  25.763  27.553  1.00  0.00     0.034 A 
ATOM     49  C   UNL A   1      43.084  29.695  33.111  1.00  0.00     0.049 A 
ATOM     50  C   UNL A   1      43.904  26.150  28.560  1.00  0.00     0.074 A 
ATOM     51  C   UNL A   1      43.190  31.031  32.773  1.00  0.00     0.029 A 
ATOM     52  N   UNL A   1      44.101  29.062  32.430  1.00  0.00    -0.354 N 
ATOM     53  N   UNL A   1      44.602  27.250  28.479  1.00  0.00    -0.248 NA
ATOM     54  C   UNL A   1      43.798  25.583  29.895  1.00  0.00     0.031 C 
ATOM     55  C   UNL A   1      43.904  31.039  31.538  1.00  0.00     0.029 A 
ATOM     56  C   UNL A   1      44.283  29.727  31.242  1.00  0.00     0.049 A 
ATOM     57  H   UNL A   1      44.605  28.275  32.738  1.00  0.00     0.167 HD
ATOM     58  C   UNL A   1      44.629  27.750  29.771  1.00  0.00     0.074 A 
ATOM     59  C   UNL A   1      44.206  26.632  30.615  1.00  0.00     0.031 C 
ATOM     60  C   UNL A   1      44.714  29.093  30.009  1.00  0.00     0.034 A 
BRANCH  47  61
ATOM     61  C   UNL A   1      42.343  27.816  34.724  1.00  0.00     0.023 A 
ATOM     62  C   UNL A   1      43.155  26.738  34.320  1.00  0.00     0.031 A 
ATOM     63  C   UNL A   1      41.669  27.648  35.953  1.00  0.00     0.131 A 
ATOM     64  C   UNL A   1      43.171  25.533  35.042  1.00  0.00     0.055 A 
ATOM     65  C   UNL A   1      41.745  26.472  36.706  1.00  0.00     0.041 A 
ATOM     66  F   UNL A   1      40.828  28.559  36.453  1.00  0.00    -0.206 F 
ATOM     67  C   UNL A   1      42.470  25.391  36.235  1.00  0.00     0.022 A 
BRANCH  64  68
ATOM     68  S   UNL A   1      43.974  24.095  34.290  1.00  0.00     0.124 S 
ATOM     69  O   UNL A   1      45.167  23.963  35.118  1.00  0.00    -0.237 OA
ATOM     70  O   UNL A   1      42.956  23.063  34.456  1.00  0.00    -0.237 OA
ATOM     71  O   UNL A   1      44.211  24.523  32.913  1.00  0.00    -0.744 OA
ENDBRANCH  64  68
ENDBRANCH  47  61
BRANCH  48  72
ATOM     72  C   UNL A   1      42.860  24.430  26.883  1.00  0.00     0.023 A 
ATOM     73  C   UNL A   1      43.866  23.990  25.991  1.00  0.00     0.031 A 
ATOM     74  C   UNL A   1      41.947  23.448  27.332  1.00  0.00     0.131 A 
ATOM     75  C   UNL A   1      43.934  22.629  25.599  1.00  0.00     0.055 A 
ATOM     76  C   UNL A   1      42.020  22.108  26.945  1.00  0.00     0.041 A 
ATOM     77  F   UNL A   1      41.002  23.742  28.239  1.00  0.00    -0.206 F 
ATOM     78  C   UNL A   1      43.022  21.689  26.086  1.00  0.00     0.022 A 
BRANCH  75  79
ATOM     79  S   UNL A   1      45.275  22.028  24.515  1.00  0.00     0.124 S 
ATOM     80  O   UNL A   1      45.313  23.046  23.474  1.00  0.00    -0.237 OA
ATOM     81  O   UNL A   1      46.415  21.980  25.422  1.00  0.00    -0.237 OA
ATOM     82  O   UNL A   1      44.795  20.717  24.072  1.00  0.00    -0.744 OA
ENDBRANCH  75  79
ENDBRANCH  48  72
BRANCH  60  83
ATOM     83  C   UNL A   1      45.102  30.011  28.864  1.00  0.00     0.023 A 
ATOM     84  C   UNL A   1      46.418  30.430  28.556  1.00  0.00     0.031 A 
ATOM     85  C   UNL A   1      44.077  30.384  27.976  1.00  0.00     0.131 A 
ATOM     86  C   UNL A   1      46.659  31.202  27.399  1.00  0.00     0.055 A 
ATOM     87  C   UNL A   1      44.323  31.124  26.822  1.00  0.00     0.041 A 
ATOM     88  F   UNL A   1      42.808  30.002  28.201  1.00  0.00    -0.206 F 
ATOM     89  C   UNL A   1      45.616  31.541  26.531  1.00  0.00     0.022 A 
BRANCH  86  90
ATOM     90  S   UNL A   1      48.335  31.802  27.008  1.00  0.00     0.124 S 
ATOM     91  O   UNL A   1      48.100  32.878  26.053  1.00  0.00    -0.237 OA
ATOM     92  O   UNL A   1      48.842  32.208  28.317  1.00  0.00    -0.237 OA
ATOM     93  O   UNL A   1      48.995  30.622  26.443  1.00  0.00    -0.744 OA
ENDBRANCH  86  90
ENDBRANCH  60  83
ENDBRANCH  34  35
ENDBRANCH  26  29
ENDBRANCH  24  25
ENDBRANCH  23  24
ENDBRANCH  22  23
ENDBRANCH   1  22
TORSDOF 19
ENDMDL
