MODEL 1
REMARK VINA RESULT:      -8.3      0.000      0.000
REMARK SMILES CC/C=C/C/C=C/C/C=C/C/C=C/CC/C=C/COCC(=O)NCCCCCCNC(=O)c1ccc(-c2c3nc(c(-c4cc(S(=O)(=O)[O-])ccc4F)c4ccc([nH]4)c(-c4cc(S(=O)(=O)[O-])ccc4F)c4nc(c(-c5cc(S(=O)(=O)[O-])ccc5F)c5ccc2[nH]5)C=C4)C=C3)cc1
REMARK SMILES IDX 20 1 19 2 18 3 17 4 16 5 15 6 14 7 13 8 12 9 11 10 10 11
REMARK SMILES IDX 9 12 8 13 7 14 6 15 5 16 4 17 3 18 2 19 1 20 21 21 22 22
REMARK SMILES IDX 23 23 24 25 25 26 26 27 27 28 28 29 29 30 30 31 31 32 32 34
REMARK SMILES IDX 33 35 34 36 95 37 35 38 94 39 36 40 37 41 38 42 88 43 39 44
REMARK SMILES IDX 93 45 87 46 89 47 40 48 92 49 86 50 85 51 41 53 73 54 53 55
REMARK SMILES IDX 72 56 54 57 57 58 71 59 90 60 55 61 56 62 70 64 91 65 58 66
REMARK SMILES IDX 42 67 43 68 51 69 44 70 50 71 52 72 49 73 45 74 46 75 47 76
REMARK SMILES IDX 48 77 74 78 75 79 83 80 76 81 82 82 84 83 81 84 77 85 78 86
REMARK SMILES IDX 79 87 80 88 59 89 60 90 68 91 61 92 67 93 69 94 66 95 62 96
REMARK SMILES IDX 63 97 64 98 65 99
REMARK H PARENT 23 24 30 33 89 52 57 63
REMARK Flexibility Score: inf
ROOT
ATOM      1  C   UNL A   1      40.363  20.832  26.170  1.00  0.00     0.260 C 
ENDROOT
BRANCH   1   2
ATOM      2  O   UNL A   1      40.093  22.181  25.810  1.00  0.00    -0.368 OA
BRANCH   2   3
ATOM      3  C   UNL A   1      38.710  22.531  25.847  1.00  0.00     0.188 C 
BRANCH   3   4
ATOM      4  C   UNL A   1      38.473  23.569  26.899  1.00  0.00    -0.003 C 
ATOM      5  C   UNL A   1      39.464  24.279  27.458  1.00  0.00    -0.029 C 
BRANCH   5   6
ATOM      6  C   UNL A   1      39.294  25.198  28.634  1.00  0.00     0.031 C 
BRANCH   6   7
ATOM      7  C   UNL A   1      40.018  26.540  28.436  1.00  0.00     0.031 C 
BRANCH   7   8
ATOM      8  C   UNL A   1      39.129  27.730  28.683  1.00  0.00    -0.031 C 
ATOM      9  C   UNL A   1      38.810  28.643  27.755  1.00  0.00    -0.027 C 
BRANCH   9  10
ATOM     10  C   UNL A   1      37.967  29.855  28.036  1.00  0.00     0.054 C 
BRANCH  10  11
ATOM     11  C   UNL A   1      36.620  29.714  27.387  1.00  0.00    -0.027 C 
ATOM     12  C   UNL A   1      35.453  29.859  28.035  1.00  0.00    -0.027 C 
BRANCH  12  13
ATOM     13  C   UNL A   1      34.106  29.673  27.398  1.00  0.00     0.054 C 
BRANCH  13  14
ATOM     14  C   UNL A   1      34.114  28.475  26.493  1.00  0.00    -0.027 C 
ATOM     15  C   UNL A   1      33.766  28.507  25.196  1.00  0.00    -0.027 C 
BRANCH  15  16
ATOM     16  C   UNL A   1      33.746  27.303  24.299  1.00  0.00     0.054 C 
BRANCH  16  17
ATOM     17  C   UNL A   1      33.617  26.042  25.103  1.00  0.00    -0.027 C 
ATOM     18  C   UNL A   1      34.561  25.090  25.172  1.00  0.00    -0.031 C 
BRANCH  18  19
ATOM     19  C   UNL A   1      34.420  23.826  25.967  1.00  0.00     0.023 C 
ATOM     20  C   UNL A   1      33.023  23.700  26.557  1.00  0.00     0.008 C 
ENDBRANCH  18  19
ENDBRANCH  16  17
ENDBRANCH  15  16
ENDBRANCH  13  14
ENDBRANCH  12  13
ENDBRANCH  10  11
ENDBRANCH   9  10
ENDBRANCH   7   8
ENDBRANCH   6   7
ENDBRANCH   5   6
ENDBRANCH   3   4
ENDBRANCH   2   3
ENDBRANCH   1   2
BRANCH   1  21
ATOM     21  C   UNL A   1      41.829  20.382  26.198  1.00  0.00     0.246 C 
ATOM     22  O   UNL A   1      42.272  19.542  25.412  1.00  0.00    -0.272 OA
ATOM     23  N   UNL A   1      42.674  20.951  27.106  1.00  0.00    -0.354 N 
ATOM     24  H   UNL A   1      43.621  20.691  27.037  1.00  0.00     0.163 HD
BRANCH  23  25
ATOM     25  C   UNL A   1      42.349  21.893  28.161  1.00  0.00     0.116 C 
BRANCH  25  26
ATOM     26  C   UNL A   1      43.021  23.243  27.922  1.00  0.00     0.021 C 
BRANCH  26  27
ATOM     27  C   UNL A   1      44.502  23.292  28.325  1.00  0.00     0.002 C 
BRANCH  27  28
ATOM     28  C   UNL A   1      45.373  24.242  27.498  1.00  0.00     0.002 C 
BRANCH  28  29
ATOM     29  C   UNL A   1      45.282  24.053  25.981  1.00  0.00     0.021 C 
BRANCH  29  30
ATOM     30  C   UNL A   1      44.768  25.268  25.216  1.00  0.00     0.116 C 
BRANCH  30  31
ATOM     31  N   UNL A   1      43.332  25.211  24.993  1.00  0.00    -0.352 N 
ATOM     32  C   UNL A   1      42.341  26.046  25.452  1.00  0.00     0.251 C 
ATOM     33  H   UNL A   1      43.023  24.465  24.430  1.00  0.00     0.163 HD
ATOM     34  O   UNL A   1      41.164  25.723  25.323  1.00  0.00    -0.269 OA
BRANCH  32  35
ATOM     35  C   UNL A   1      42.698  27.313  26.128  1.00  0.00     0.039 A 
ATOM     36  C   UNL A   1      42.166  28.510  25.644  1.00  0.00     0.014 A 
ATOM     37  C   UNL A   1      43.542  27.322  27.243  1.00  0.00     0.014 A 
ATOM     38  C   UNL A   1      42.409  29.702  26.328  1.00  0.00     0.010 A 
ATOM     39  C   UNL A   1      43.727  28.500  27.964  1.00  0.00     0.010 A 
ATOM     40  C   UNL A   1      43.149  29.701  27.523  1.00  0.00    -0.014 A 
BRANCH  40  41
ATOM     41  C   UNL A   1      43.282  30.933  28.347  1.00  0.00     0.031 A 
ATOM     42  C   UNL A   1      44.393  31.912  28.083  1.00  0.00     0.074 A 
ATOM     43  C   UNL A   1      42.437  31.130  29.378  1.00  0.00     0.049 A 
ATOM     44  N   UNL A   1      44.711  32.996  28.742  1.00  0.00    -0.248 NA
ATOM     45  C   UNL A   1      45.274  31.622  26.942  1.00  0.00     0.031 C 
ATOM     46  C   UNL A   1      41.341  30.231  29.755  1.00  0.00     0.029 A 
ATOM     47  N   UNL A   1      42.367  32.139  30.307  1.00  0.00    -0.354 N 
ATOM     48  C   UNL A   1      45.832  33.515  28.104  1.00  0.00     0.074 A 
ATOM     49  C   UNL A   1      46.167  32.596  27.037  1.00  0.00     0.031 C 
ATOM     50  C   UNL A   1      40.698  30.741  30.817  1.00  0.00     0.029 A 
ATOM     51  C   UNL A   1      41.366  31.968  31.237  1.00  0.00     0.049 A 
ATOM     52  H   UNL A   1      42.976  32.912  30.308  1.00  0.00     0.167 HD
ATOM     53  C   UNL A   1      46.504  34.663  28.373  1.00  0.00     0.034 A 
ATOM     54  C   UNL A   1      41.034  32.703  32.318  1.00  0.00     0.034 A 
ATOM     55  C   UNL A   1      46.154  35.570  29.440  1.00  0.00     0.049 A 
ATOM     56  C   UNL A   1      41.832  33.945  32.624  1.00  0.00     0.074 A 
ATOM     57  C   UNL A   1      46.731  36.786  29.759  1.00  0.00     0.029 A 
ATOM     58  N   UNL A   1      45.147  35.355  30.373  1.00  0.00    -0.354 N 
ATOM     59  N   UNL A   1      42.852  34.454  31.971  1.00  0.00    -0.248 NA
ATOM     60  C   UNL A   1      41.432  34.716  33.810  1.00  0.00     0.031 C 
ATOM     61  C   UNL A   1      46.132  37.265  30.928  1.00  0.00     0.029 A 
ATOM     62  C   UNL A   1      45.119  36.393  31.293  1.00  0.00     0.049 A 
ATOM     63  H   UNL A   1      44.541  34.578  30.380  1.00  0.00     0.167 HD
ATOM     64  C   UNL A   1      43.195  35.618  32.655  1.00  0.00     0.074 A 
ATOM     65  C   UNL A   1      42.261  35.747  33.753  1.00  0.00     0.031 C 
ATOM     66  C   UNL A   1      44.193  36.502  32.396  1.00  0.00     0.034 A 
BRANCH  53  67
ATOM     67  C   UNL A   1      47.708  34.986  27.519  1.00  0.00     0.023 A 
ATOM     68  C   UNL A   1      49.014  34.660  27.924  1.00  0.00     0.031 A 
ATOM     69  C   UNL A   1      47.544  35.625  26.275  1.00  0.00     0.131 A 
ATOM     70  C   UNL A   1      50.107  35.030  27.126  1.00  0.00     0.055 A 
ATOM     71  C   UNL A   1      48.631  35.918  25.450  1.00  0.00     0.041 A 
ATOM     72  F   UNL A   1      46.324  35.980  25.844  1.00  0.00    -0.206 F 
ATOM     73  C   UNL A   1      49.924  35.632  25.879  1.00  0.00     0.022 A 
BRANCH  70  74
ATOM     74  S   UNL A   1      51.779  34.831  27.801  1.00  0.00     0.124 S 
ATOM     75  O   UNL A   1      52.544  35.760  26.973  1.00  0.00    -0.237 OA
ATOM     76  O   UNL A   1      51.603  35.217  29.197  1.00  0.00    -0.237 OA
ATOM     77  O   UNL A   1      52.075  33.418  27.576  1.00  0.00    -0.744 OA
ENDBRANCH  70  74
ENDBRANCH  53  67
BRANCH  54  78
ATOM     78  C   UNL A   1      39.921  32.273  33.216  1.00  0.00     0.023 A 
ATOM     79  C   UNL A   1      38.681  32.930  33.197  1.00  0.00     0.031 A 
ATOM     80  C   UNL A   1      40.101  31.235  34.149  1.00  0.00     0.131 A 
ATOM     81  C   UNL A   1      37.689  32.582  34.127  1.00  0.00     0.055 A 
ATOM     82  C   UNL A   1      39.088  30.850  35.029  1.00  0.00     0.041 A 
ATOM     83  F   UNL A   1      41.267  30.572  34.212  1.00  0.00    -0.206 F 
ATOM     84  C   UNL A   1      37.879  31.535  35.032  1.00  0.00     0.022 A 
BRANCH  81  85
ATOM     85  S   UNL A   1      36.184  33.591  34.211  1.00  0.00     0.124 S 
ATOM     86  O   UNL A   1      36.626  34.833  33.586  1.00  0.00    -0.237 OA
ATOM     87  O   UNL A   1      35.239  32.788  33.443  1.00  0.00    -0.237 OA
ATOM     88  O   UNL A   1      35.911  33.675  35.643  1.00  0.00    -0.744 OA
ENDBRANCH  81  85
ENDBRANCH  54  78
BRANCH  66  89
ATOM     89  C   UNL A   1      44.299  37.703  33.305  1.00  0.00     0.023 A 
ATOM     90  C   UNL A   1      43.657  38.917  33.003  1.00  0.00     0.031 A 
ATOM     91  C   UNL A   1      45.059  37.635  34.486  1.00  0.00     0.131 A 
ATOM     92  C   UNL A   1      43.835  40.030  33.839  1.00  0.00     0.055 A 
ATOM     93  C   UNL A   1      45.178  38.725  35.349  1.00  0.00     0.041 A 
ATOM     94  F   UNL A   1      45.698  36.503  34.823  1.00  0.00    -0.206 F 
ATOM     95  C   UNL A   1      44.574  39.935  35.021  1.00  0.00     0.022 A 
BRANCH  92  96
ATOM     96  S   UNL A   1      43.163  41.631  33.314  1.00  0.00     0.124 S 
ATOM     97  O   UNL A   1      41.726  41.411  33.440  1.00  0.00    -0.237 OA
ATOM     98  O   UNL A   1      43.754  42.551  34.281  1.00  0.00    -0.237 OA
ATOM     99  O   UNL A   1      43.651  41.776  31.945  1.00  0.00    -0.744 OA
ENDBRANCH  92  96
ENDBRANCH  66  89
ENDBRANCH  40  41
ENDBRANCH  32  35
ENDBRANCH  30  31
ENDBRANCH  29  30
ENDBRANCH  28  29
ENDBRANCH  27  28
ENDBRANCH  26  27
ENDBRANCH  25  26
ENDBRANCH  23  25
ENDBRANCH   1  21
TORSDOF 29
ENDMDL
MODEL 2
REMARK VINA RESULT:      -7.5      2.191      8.088
REMARK SMILES CC/C=C/C/C=C/C/C=C/C/C=C/CC/C=C/COCC(=O)NCCCCCCNC(=O)c1ccc(-c2c3nc(c(-c4cc(S(=O)(=O)[O-])ccc4F)c4ccc([nH]4)c(-c4cc(S(=O)(=O)[O-])ccc4F)c4nc(c(-c5cc(S(=O)(=O)[O-])ccc5F)c5ccc2[nH]5)C=C4)C=C3)cc1
REMARK SMILES IDX 20 1 19 2 18 3 17 4 16 5 15 6 14 7 13 8 12 9 11 10 10 11
REMARK SMILES IDX 9 12 8 13 7 14 6 15 5 16 4 17 3 18 2 19 1 20 21 21 22 22
REMARK SMILES IDX 23 23 24 25 25 26 26 27 27 28 28 29 29 30 30 31 31 32 32 34
REMARK SMILES IDX 33 35 34 36 95 37 35 38 94 39 36 40 37 41 38 42 88 43 39 44
REMARK SMILES IDX 93 45 87 46 89 47 40 48 92 49 86 50 85 51 41 53 73 54 53 55
REMARK SMILES IDX 72 56 54 57 57 58 71 59 90 60 55 61 56 62 70 64 91 65 58 66
REMARK SMILES IDX 42 67 43 68 51 69 44 70 50 71 52 72 49 73 45 74 46 75 47 76
REMARK SMILES IDX 48 77 74 78 75 79 83 80 76 81 82 82 84 83 81 84 77 85 78 86
REMARK SMILES IDX 79 87 80 88 59 89 60 90 68 91 61 92 67 93 69 94 66 95 62 96
REMARK SMILES IDX 63 97 64 98 65 99
REMARK H PARENT 23 24 30 33 89 52 57 63
REMARK Flexibility Score: inf
ROOT
ATOM      1  C   UNL A   1      43.533  18.816  25.258  1.00  0.00     0.260 C 
ENDROOT
BRANCH   1   2
ATOM      2  O   UNL A   1      42.748  18.801  26.443  1.00  0.00    -0.368 OA
BRANCH   2   3
ATOM      3  C   UNL A   1      41.661  19.726  26.436  1.00  0.00     0.188 C 
BRANCH   3   4
ATOM      4  C   UNL A   1      42.108  21.045  26.986  1.00  0.00    -0.003 C 
ATOM      5  C   UNL A   1      41.425  21.708  27.932  1.00  0.00    -0.029 C 
BRANCH   5   6
ATOM      6  C   UNL A   1      41.738  23.106  28.384  1.00  0.00     0.031 C 
BRANCH   6   7
ATOM      7  C   UNL A   1      43.071  23.189  29.147  1.00  0.00     0.031 C 
BRANCH   7   8
ATOM      8  C   UNL A   1      43.538  24.604  29.360  1.00  0.00    -0.031 C 
ATOM      9  C   UNL A   1      42.782  25.692  29.151  1.00  0.00    -0.027 C 
BRANCH   9  10
ATOM     10  C   UNL A   1      43.284  27.098  29.315  1.00  0.00     0.054 C 
BRANCH  10  11
ATOM     11  C   UNL A   1      42.607  28.011  28.333  1.00  0.00    -0.027 C 
ATOM     12  C   UNL A   1      41.486  27.697  27.662  1.00  0.00    -0.027 C 
BRANCH  12  13
ATOM     13  C   UNL A   1      40.833  28.589  26.647  1.00  0.00     0.054 C 
BRANCH  13  14
ATOM     14  C   UNL A   1      39.513  29.090  27.159  1.00  0.00    -0.027 C 
ATOM     15  C   UNL A   1      39.301  29.508  28.418  1.00  0.00    -0.027 C 
BRANCH  15  16
ATOM     16  C   UNL A   1      37.974  29.980  28.937  1.00  0.00     0.054 C 
BRANCH  16  17
ATOM     17  C   UNL A   1      36.853  29.466  28.080  1.00  0.00    -0.027 C 
ATOM     18  C   UNL A   1      35.683  30.101  27.907  1.00  0.00    -0.031 C 
BRANCH  18  19
ATOM     19  C   UNL A   1      34.563  29.575  27.059  1.00  0.00     0.023 C 
ATOM     20  C   UNL A   1      33.264  30.315  27.342  1.00  0.00     0.008 C 
ENDBRANCH  18  19
ENDBRANCH  16  17
ENDBRANCH  15  16
ENDBRANCH  13  14
ENDBRANCH  12  13
ENDBRANCH  10  11
ENDBRANCH   9  10
ENDBRANCH   7   8
ENDBRANCH   6   7
ENDBRANCH   5   6
ENDBRANCH   3   4
ENDBRANCH   2   3
ENDBRANCH   1   2
BRANCH   1  21
ATOM     21  C   UNL A   1      45.059  18.791  25.414  1.00  0.00     0.246 C 
ATOM     22  O   UNL A   1      45.697  17.738  25.454  1.00  0.00    -0.272 OA
ATOM     23  N   UNL A   1      45.731  19.978  25.483  1.00  0.00    -0.354 N 
ATOM     24  H   UNL A   1      46.713  19.917  25.503  1.00  0.00     0.163 HD
BRANCH  23  25
ATOM     25  C   UNL A   1      45.175  21.317  25.531  1.00  0.00     0.116 C 
BRANCH  25  26
ATOM     26  C   UNL A   1      45.383  22.048  24.206  1.00  0.00     0.021 C 
BRANCH  26  27
ATOM     27  C   UNL A   1      44.799  23.467  24.170  1.00  0.00     0.002 C 
BRANCH  27  28
ATOM     28  C   UNL A   1      44.334  24.017  25.522  1.00  0.00     0.002 C 
BRANCH  28  29
ATOM     29  C   UNL A   1      43.245  25.090  25.447  1.00  0.00     0.021 C 
BRANCH  29  30
ATOM     30  C   UNL A   1      43.765  26.521  25.348  1.00  0.00     0.116 C 
BRANCH  30  31
ATOM     31  N   UNL A   1      45.186  26.571  25.044  1.00  0.00    -0.352 N 
ATOM     32  C   UNL A   1      46.126  27.506  25.405  1.00  0.00     0.251 C 
ATOM     33  H   UNL A   1      45.525  25.824  24.500  1.00  0.00     0.163 HD
ATOM     34  O   UNL A   1      47.239  27.482  24.886  1.00  0.00    -0.269 OA
BRANCH  32  35
ATOM     35  C   UNL A   1      45.784  28.555  26.390  1.00  0.00     0.039 A 
ATOM     36  C   UNL A   1      46.323  28.477  27.676  1.00  0.00     0.014 A 
ATOM     37  C   UNL A   1      44.945  29.621  26.046  1.00  0.00     0.014 A 
ATOM     38  C   UNL A   1      46.094  29.509  28.587  1.00  0.00     0.010 A 
ATOM     39  C   UNL A   1      44.774  30.682  26.932  1.00  0.00     0.010 A 
ATOM     40  C   UNL A   1      45.360  30.646  28.207  1.00  0.00    -0.014 A 
BRANCH  40  41
ATOM     41  C   UNL A   1      45.241  31.822  29.111  1.00  0.00     0.031 A 
ATOM     42  C   UNL A   1      44.071  31.953  30.046  1.00  0.00     0.074 A 
ATOM     43  C   UNL A   1      46.160  32.806  29.035  1.00  0.00     0.049 A 
ATOM     44  N   UNL A   1      43.762  32.939  30.848  1.00  0.00    -0.248 NA
ATOM     45  C   UNL A   1      43.112  30.838  30.065  1.00  0.00     0.031 C 
ATOM     46  C   UNL A   1      47.321  32.809  28.140  1.00  0.00     0.029 A 
ATOM     47  N   UNL A   1      46.262  33.999  29.707  1.00  0.00    -0.354 N 
ATOM     48  C   UNL A   1      42.570  32.571  31.463  1.00  0.00     0.074 A 
ATOM     49  C   UNL A   1      42.188  31.293  30.899  1.00  0.00     0.031 C 
ATOM     50  C   UNL A   1      48.027  33.933  28.337  1.00  0.00     0.029 A 
ATOM     51  C   UNL A   1      47.343  34.760  29.325  1.00  0.00     0.049 A 
ATOM     52  H   UNL A   1      45.622  34.282  30.400  1.00  0.00     0.167 HD
ATOM     53  C   UNL A   1      41.872  33.230  32.421  1.00  0.00     0.034 A 
ATOM     54  C   UNL A   1      47.731  35.994  29.708  1.00  0.00     0.034 A 
ATOM     55  C   UNL A   1      42.270  34.503  32.974  1.00  0.00     0.049 A 
ATOM     56  C   UNL A   1      46.907  36.727  30.737  1.00  0.00     0.074 A 
ATOM     57  C   UNL A   1      41.668  35.225  33.990  1.00  0.00     0.029 A 
ATOM     58  N   UNL A   1      43.359  35.253  32.549  1.00  0.00    -0.354 N 
ATOM     59  N   UNL A   1      45.816  36.335  31.354  1.00  0.00    -0.248 NA
ATOM     60  C   UNL A   1      47.370  38.066  31.127  1.00  0.00     0.031 C 
ATOM     61  C   UNL A   1      42.340  36.444  34.121  1.00  0.00     0.029 A 
ATOM     62  C   UNL A   1      43.417  36.449  33.249  1.00  0.00     0.049 A 
ATOM     63  H   UNL A   1      43.996  34.976  31.851  1.00  0.00     0.167 HD
ATOM     64  C   UNL A   1      45.479  37.370  32.222  1.00  0.00     0.074 A 
ATOM     65  C   UNL A   1      46.495  38.390  32.066  1.00  0.00     0.031 C 
ATOM     66  C   UNL A   1      44.426  37.468  33.073  1.00  0.00     0.034 A 
BRANCH  53  67
ATOM     67  C   UNL A   1      40.589  32.600  32.912  1.00  0.00     0.023 A 
ATOM     68  C   UNL A   1      39.345  32.910  32.337  1.00  0.00     0.031 A 
ATOM     69  C   UNL A   1      40.613  31.670  33.968  1.00  0.00     0.131 A 
ATOM     70  C   UNL A   1      38.171  32.346  32.861  1.00  0.00     0.055 A 
ATOM     71  C   UNL A   1      39.450  31.053  34.432  1.00  0.00     0.041 A 
ATOM     72  F   UNL A   1      41.769  31.350  34.571  1.00  0.00    -0.206 F 
ATOM     73  C   UNL A   1      38.218  31.398  33.886  1.00  0.00     0.022 A 
BRANCH  70  74
ATOM     74  S   UNL A   1      36.573  32.967  32.271  1.00  0.00     0.124 S 
ATOM     75  O   UNL A   1      35.658  32.427  33.274  1.00  0.00    -0.237 OA
ATOM     76  O   UNL A   1      36.767  34.413  32.297  1.00  0.00    -0.237 OA
ATOM     77  O   UNL A   1      36.445  32.378  30.940  1.00  0.00    -0.744 OA
ENDBRANCH  70  74
ENDBRANCH  53  67
BRANCH  54  78
ATOM     78  C   UNL A   1      48.932  36.637  29.097  1.00  0.00     0.023 A 
ATOM     79  C   UNL A   1      50.200  36.510  29.687  1.00  0.00     0.031 A 
ATOM     80  C   UNL A   1      48.820  37.437  27.946  1.00  0.00     0.131 A 
ATOM     81  C   UNL A   1      51.292  37.215  29.158  1.00  0.00     0.055 A 
ATOM     82  C   UNL A   1      49.923  38.085  27.386  1.00  0.00     0.041 A 
ATOM     83  F   UNL A   1      47.632  37.595  27.340  1.00  0.00    -0.206 F 
ATOM     84  C   UNL A   1      51.165  37.988  28.002  1.00  0.00     0.022 A 
BRANCH  81  85
ATOM     85  S   UNL A   1      52.861  37.194  30.067  1.00  0.00     0.124 S 
ATOM     86  O   UNL A   1      53.143  35.764  30.138  1.00  0.00    -0.237 OA
ATOM     87  O   UNL A   1      53.728  37.976  29.192  1.00  0.00    -0.237 OA
ATOM     88  O   UNL A   1      52.526  37.829  31.339  1.00  0.00    -0.744 OA
ENDBRANCH  81  85
ENDBRANCH  54  78
BRANCH  66  89
ATOM     89  C   UNL A   1      44.343  38.713  33.923  1.00  0.00     0.023 A 
ATOM     90  C   UNL A   1      43.546  39.810  33.550  1.00  0.00     0.031 A 
ATOM     91  C   UNL A   1      45.078  38.808  35.118  1.00  0.00     0.131 A 
ATOM     92  C   UNL A   1      43.548  40.975  34.333  1.00  0.00     0.055 A 
ATOM     93  C   UNL A   1      45.023  39.943  35.928  1.00  0.00     0.041 A 
ATOM     94  F   UNL A   1      45.859  37.793  35.522  1.00  0.00    -0.206 F 
ATOM     95  C   UNL A   1      44.266  41.040  35.530  1.00  0.00     0.022 A 
BRANCH  92  96
ATOM     96  S   UNL A   1      42.673  42.440  33.719  1.00  0.00     0.124 S 
ATOM     97  O   UNL A   1      43.774  43.274  33.246  1.00  0.00    -0.237 OA
ATOM     98  O   UNL A   1      41.810  41.878  32.685  1.00  0.00    -0.237 OA
ATOM     99  O   UNL A   1      41.976  42.945  34.899  1.00  0.00    -0.744 OA
ENDBRANCH  92  96
ENDBRANCH  66  89
ENDBRANCH  40  41
ENDBRANCH  32  35
ENDBRANCH  30  31
ENDBRANCH  29  30
ENDBRANCH  28  29
ENDBRANCH  27  28
ENDBRANCH  26  27
ENDBRANCH  25  26
ENDBRANCH  23  25
ENDBRANCH   1  21
TORSDOF 29
ENDMDL
MODEL 3
REMARK VINA RESULT:      -7.1      3.695      7.452
REMARK SMILES CC/C=C/C/C=C/C/C=C/C/C=C/CC/C=C/COCC(=O)NCCCCCCNC(=O)c1ccc(-c2c3nc(c(-c4cc(S(=O)(=O)[O-])ccc4F)c4ccc([nH]4)c(-c4cc(S(=O)(=O)[O-])ccc4F)c4nc(c(-c5cc(S(=O)(=O)[O-])ccc5F)c5ccc2[nH]5)C=C4)C=C3)cc1
REMARK SMILES IDX 20 1 19 2 18 3 17 4 16 5 15 6 14 7 13 8 12 9 11 10 10 11
REMARK SMILES IDX 9 12 8 13 7 14 6 15 5 16 4 17 3 18 2 19 1 20 21 21 22 22
REMARK SMILES IDX 23 23 24 25 25 26 26 27 27 28 28 29 29 30 30 31 31 32 32 34
REMARK SMILES IDX 33 35 34 36 95 37 35 38 94 39 36 40 37 41 38 42 88 43 39 44
REMARK SMILES IDX 93 45 87 46 89 47 40 48 92 49 86 50 85 51 41 53 73 54 53 55
REMARK SMILES IDX 72 56 54 57 57 58 71 59 90 60 55 61 56 62 70 64 91 65 58 66
REMARK SMILES IDX 42 67 43 68 51 69 44 70 50 71 52 72 49 73 45 74 46 75 47 76
REMARK SMILES IDX 48 77 74 78 75 79 83 80 76 81 82 82 84 83 81 84 77 85 78 86
REMARK SMILES IDX 79 87 80 88 59 89 60 90 68 91 61 92 67 93 69 94 66 95 62 96
REMARK SMILES IDX 63 97 64 98 65 99
REMARK H PARENT 23 24 30 33 89 52 57 63
REMARK Flexibility Score: inf
ROOT
ATOM      1  C   UNL A   1      39.597  20.956  26.131  1.00  0.00     0.260 C 
ENDROOT
BRANCH   1   2
ATOM      2  O   UNL A   1      39.575  22.329  25.761  1.00  0.00    -0.368 OA
BRANCH   2   3
ATOM      3  C   UNL A   1      38.300  22.954  25.907  1.00  0.00     0.188 C 
BRANCH   3   4
ATOM      4  C   UNL A   1      38.386  24.065  26.907  1.00  0.00    -0.003 C 
ATOM      5  C   UNL A   1      39.520  24.739  27.151  1.00  0.00    -0.029 C 
BRANCH   5   6
ATOM      6  C   UNL A   1      39.696  25.734  28.262  1.00  0.00     0.031 C 
BRANCH   6   7
ATOM      7  C   UNL A   1      39.763  27.181  27.745  1.00  0.00     0.031 C 
BRANCH   7   8
ATOM      8  C   UNL A   1      38.835  28.111  28.480  1.00  0.00    -0.031 C 
ATOM      9  C   UNL A   1      38.102  29.069  27.895  1.00  0.00    -0.027 C 
BRANCH   9  10
ATOM     10  C   UNL A   1      37.226  30.025  28.653  1.00  0.00     0.054 C 
BRANCH  10  11
ATOM     11  C   UNL A   1      35.986  30.332  27.863  1.00  0.00    -0.027 C 
ATOM     12  C   UNL A   1      35.020  31.171  28.273  1.00  0.00    -0.027 C 
BRANCH  12  13
ATOM     13  C   UNL A   1      33.759  31.443  27.506  1.00  0.00     0.054 C 
BRANCH  13  14
ATOM     14  C   UNL A   1      32.999  30.169  27.276  1.00  0.00    -0.027 C 
ATOM     15  C   UNL A   1      33.034  29.463  26.133  1.00  0.00    -0.027 C 
BRANCH  15  16
ATOM     16  C   UNL A   1      32.251  28.205  25.894  1.00  0.00     0.054 C 
BRANCH  16  17
ATOM     17  C   UNL A   1      31.579  28.244  24.551  1.00  0.00    -0.027 C 
ATOM     18  C   UNL A   1      30.813  29.259  24.119  1.00  0.00    -0.031 C 
BRANCH  18  19
ATOM     19  C   UNL A   1      30.134  29.284  22.782  1.00  0.00     0.023 C 
ATOM     20  C   UNL A   1      28.634  29.488  22.930  1.00  0.00     0.008 C 
ENDBRANCH  18  19
ENDBRANCH  16  17
ENDBRANCH  15  16
ENDBRANCH  13  14
ENDBRANCH  12  13
ENDBRANCH  10  11
ENDBRANCH   9  10
ENDBRANCH   7   8
ENDBRANCH   6   7
ENDBRANCH   5   6
ENDBRANCH   3   4
ENDBRANCH   2   3
ENDBRANCH   1   2
BRANCH   1  21
ATOM     21  C   UNL A   1      40.962  20.313  26.406  1.00  0.00     0.246 C 
ATOM     22  O   UNL A   1      41.391  19.372  25.737  1.00  0.00    -0.272 OA
ATOM     23  N   UNL A   1      41.737  20.821  27.409  1.00  0.00    -0.354 N 
ATOM     24  H   UNL A   1      42.636  20.432  27.500  1.00  0.00     0.163 HD
BRANCH  23  25
ATOM     25  C   UNL A   1      41.397  21.865  28.358  1.00  0.00     0.116 C 
BRANCH  25  26
ATOM     26  C   UNL A   1      42.419  23.000  28.319  1.00  0.00     0.021 C 
BRANCH  26  27
ATOM     27  C   UNL A   1      43.794  22.631  28.896  1.00  0.00     0.002 C 
BRANCH  27  28
ATOM     28  C   UNL A   1      44.978  23.403  28.304  1.00  0.00     0.002 C 
BRANCH  28  29
ATOM     29  C   UNL A   1      45.268  23.116  26.828  1.00  0.00     0.021 C 
BRANCH  29  30
ATOM     30  C   UNL A   1      45.476  24.357  25.965  1.00  0.00     0.116 C 
BRANCH  30  31
ATOM     31  N   UNL A   1      44.263  24.749  25.265  1.00  0.00    -0.352 N 
ATOM     32  C   UNL A   1      43.349  25.726  25.579  1.00  0.00     0.251 C 
ATOM     33  H   UNL A   1      44.069  24.241  24.445  1.00  0.00     0.163 HD
ATOM     34  O   UNL A   1      42.281  25.778  24.974  1.00  0.00    -0.269 OA
BRANCH  32  35
ATOM     35  C   UNL A   1      43.640  26.689  26.663  1.00  0.00     0.039 A 
ATOM     36  C   UNL A   1      44.191  27.930  26.335  1.00  0.00     0.014 A 
ATOM     37  C   UNL A   1      43.359  26.378  27.997  1.00  0.00     0.014 A 
ATOM     38  C   UNL A   1      44.378  28.889  27.332  1.00  0.00     0.010 A 
ATOM     39  C   UNL A   1      43.481  27.359  28.979  1.00  0.00     0.010 A 
ATOM     40  C   UNL A   1      43.978  28.631  28.654  1.00  0.00    -0.014 A 
BRANCH  40  41
ATOM     41  C   UNL A   1      44.022  29.696  29.692  1.00  0.00     0.031 A 
ATOM     42  C   UNL A   1      42.802  30.521  29.995  1.00  0.00     0.074 A 
ATOM     43  C   UNL A   1      45.189  29.962  30.314  1.00  0.00     0.049 A 
ATOM     44  N   UNL A   1      42.673  31.537  30.809  1.00  0.00    -0.248 NA
ATOM     45  C   UNL A   1      41.571  30.170  29.272  1.00  0.00     0.031 C 
ATOM     46  C   UNL A   1      46.451  29.253  30.078  1.00  0.00     0.029 A 
ATOM     47  N   UNL A   1      45.514  30.902  31.261  1.00  0.00    -0.354 N 
ATOM     48  C   UNL A   1      41.351  31.954  30.692  1.00  0.00     0.074 A 
ATOM     49  C   UNL A   1      40.736  31.111  29.688  1.00  0.00     0.031 C 
ATOM     50  C   UNL A   1      47.401  29.768  30.874  1.00  0.00     0.029 A 
ATOM     51  C   UNL A   1      46.839  30.879  31.633  1.00  0.00     0.049 A 
ATOM     52  H   UNL A   1      44.859  31.533  31.638  1.00  0.00     0.167 HD
ATOM     53  C   UNL A   1      40.710  32.936  31.374  1.00  0.00     0.034 A 
ATOM     54  C   UNL A   1      47.531  31.675  32.474  1.00  0.00     0.034 A 
ATOM     55  C   UNL A   1      41.339  33.765  32.374  1.00  0.00     0.049 A 
ATOM     56  C   UNL A   1      46.804  32.793  33.179  1.00  0.00     0.074 A 
ATOM     57  C   UNL A   1      40.764  34.744  33.165  1.00  0.00     0.029 A 
ATOM     58  N   UNL A   1      42.686  33.726  32.711  1.00  0.00    -0.354 N 
ATOM     59  N   UNL A   1      45.537  33.132  33.102  1.00  0.00    -0.248 NA
ATOM     60  C   UNL A   1      47.597  33.631  34.089  1.00  0.00     0.031 C 
ATOM     61  C   UNL A   1      41.775  35.353  33.915  1.00  0.00     0.029 A 
ATOM     62  C   UNL A   1      42.968  34.696  33.662  1.00  0.00     0.049 A 
ATOM     63  H   UNL A   1      43.346  33.102  32.329  1.00  0.00     0.167 HD
ATOM     64  C   UNL A   1      45.381  34.207  33.974  1.00  0.00     0.074 A 
ATOM     65  C   UNL A   1      46.673  34.442  34.581  1.00  0.00     0.031 C 
ATOM     66  C   UNL A   1      44.267  34.933  34.249  1.00  0.00     0.034 A 
BRANCH  53  67
ATOM     67  C   UNL A   1      39.258  33.187  31.038  1.00  0.00     0.023 A 
ATOM     68  C   UNL A   1      38.215  32.655  31.815  1.00  0.00     0.031 A 
ATOM     69  C   UNL A   1      38.913  33.978  29.927  1.00  0.00     0.131 A 
ATOM     70  C   UNL A   1      36.880  32.865  31.435  1.00  0.00     0.055 A 
ATOM     71  C   UNL A   1      37.583  34.249  29.600  1.00  0.00     0.041 A 
ATOM     72  F   UNL A   1      39.864  34.496  29.134  1.00  0.00    -0.206 F 
ATOM     73  C   UNL A   1      36.557  33.682  30.349  1.00  0.00     0.022 A 
BRANCH  70  74
ATOM     74  S   UNL A   1      35.577  31.950  32.302  1.00  0.00     0.124 S 
ATOM     75  O   UNL A   1      35.881  30.573  31.924  1.00  0.00    -0.237 OA
ATOM     76  O   UNL A   1      35.822  32.298  33.698  1.00  0.00    -0.237 OA
ATOM     77  O   UNL A   1      34.343  32.487  31.733  1.00  0.00    -0.744 OA
ENDBRANCH  70  74
ENDBRANCH  53  67
BRANCH  54  78
ATOM     78  C   UNL A   1      48.996  31.476  32.674  1.00  0.00     0.023 A 
ATOM     79  C   UNL A   1      49.482  30.660  33.708  1.00  0.00     0.031 A 
ATOM     80  C   UNL A   1      49.936  32.147  31.870  1.00  0.00     0.131 A 
ATOM     81  C   UNL A   1      50.863  30.578  33.947  1.00  0.00     0.055 A 
ATOM     82  C   UNL A   1      51.311  32.010  32.071  1.00  0.00     0.041 A 
ATOM     83  F   UNL A   1      49.529  32.941  30.867  1.00  0.00    -0.206 F 
ATOM     84  C   UNL A   1      51.781  31.235  33.125  1.00  0.00     0.022 A 
BRANCH  81  85
ATOM     85  S   UNL A   1      51.439  29.686  35.417  1.00  0.00     0.124 S 
ATOM     86  O   UNL A   1      52.883  29.870  35.327  1.00  0.00    -0.237 OA
ATOM     87  O   UNL A   1      50.766  30.408  36.491  1.00  0.00    -0.237 OA
ATOM     88  O   UNL A   1      50.967  28.322  35.194  1.00  0.00    -0.744 OA
ENDBRANCH  81  85
ENDBRANCH  54  78
BRANCH  66  89
ATOM     89  C   UNL A   1      44.399  36.031  35.277  1.00  0.00     0.023 A 
ATOM     90  C   UNL A   1      44.133  35.805  36.638  1.00  0.00     0.031 A 
ATOM     91  C   UNL A   1      44.789  37.325  34.887  1.00  0.00     0.131 A 
ATOM     92  C   UNL A   1      44.203  36.868  37.551  1.00  0.00     0.055 A 
ATOM     93  C   UNL A   1      44.923  38.363  35.810  1.00  0.00     0.041 A 
ATOM     94  F   UNL A   1      45.052  37.601  33.600  1.00  0.00    -0.206 F 
ATOM     95  C   UNL A   1      44.617  38.140  37.149  1.00  0.00     0.022 A 
BRANCH  92  96
ATOM     96  S   UNL A   1      43.657  36.588  39.259  1.00  0.00     0.124 S 
ATOM     97  O   UNL A   1      42.332  37.198  39.256  1.00  0.00    -0.237 OA
ATOM     98  O   UNL A   1      43.688  35.133  39.363  1.00  0.00    -0.237 OA
ATOM     99  O   UNL A   1      44.660  37.287  40.059  1.00  0.00    -0.744 OA
ENDBRANCH  92  96
ENDBRANCH  66  89
ENDBRANCH  40  41
ENDBRANCH  32  35
ENDBRANCH  30  31
ENDBRANCH  29  30
ENDBRANCH  28  29
ENDBRANCH  27  28
ENDBRANCH  26  27
ENDBRANCH  25  26
ENDBRANCH  23  25
ENDBRANCH   1  21
TORSDOF 29
ENDMDL
