MODEL 1
REMARK VINA RESULT:     -11.8      0.000      0.000
REMARK SMILES NC(=O)C1CC[NH+](Cc2ccc(C(=O)NCCCCCCNC(=O)c3ccc(-c4c5nc(c(-c6cc(S(=O)(=O)[O-])ccc6F)c6ccc([nH]6)c(-c6cc(S(=O)(=O)[O-])ccc6F)c6nc(c(-c7cc(S(=O)(=O)[O-])ccc7F)c7ccc4[nH]7)C=C6)C=C5)cc3)cc2)CC1
REMARK SMILES IDX 18 1 17 2 16 3 15 4 13 5 14 6 12 8 9 9 10 10 89 11 11 12
REMARK SMILES IDX 88 13 8 14 7 15 4 16 5 17 91 18 6 19 90 20 2 22 1 23 3 26
REMARK SMILES IDX 19 27 20 28 21 29 22 30 23 31 24 33 25 34 26 35 87 36 27 37
REMARK SMILES IDX 86 38 28 39 29 40 30 41 80 42 31 43 85 44 79 45 81 46 32 47
REMARK SMILES IDX 84 48 78 49 77 50 33 52 65 53 45 54 64 55 46 56 49 57 63 58
REMARK SMILES IDX 82 59 47 60 48 61 62 63 83 64 50 65 34 66 35 67 43 68 36 69
REMARK SMILES IDX 42 70 44 71 41 72 37 73 38 74 39 75 40 76 66 77 67 78 75 79
REMARK SMILES IDX 68 80 74 81 76 82 73 83 69 84 70 85 71 86 72 87 51 88 52 89
REMARK SMILES IDX 60 90 53 91 59 92 61 93 58 94 54 95 55 96 56 97 57 98
REMARK H PARENT 15 7 7 21 1 24 1 25 22 32 81 51 49 62
REMARK Flexibility Score: inf
ROOT
ATOM      1  C   UNL A   1      30.808  27.425  25.071  1.00  0.00     0.002 C 
ENDROOT
BRANCH   1   2
ATOM      2  C   UNL A   1      31.444  27.985  23.791  1.00  0.00     0.021 C 
BRANCH   2   3
ATOM      3  C   UNL A   1      32.871  27.489  23.544  1.00  0.00     0.116 C 
BRANCH   3   4
ATOM      4  N   UNL A   1      33.023  27.040  22.168  1.00  0.00    -0.352 N 
ATOM      5  C   UNL A   1      32.981  25.784  21.618  1.00  0.00     0.251 C 
ATOM      6  O   UNL A   1      33.059  25.669  20.395  1.00  0.00    -0.269 OA
ATOM      7  H   UNL A   1      33.184  27.764  21.521  1.00  0.00     0.163 HD
BRANCH   5   8
ATOM      8  C   UNL A   1      32.770  24.571  22.446  1.00  0.00     0.039 A 
ATOM      9  C   UNL A   1      32.429  22.128  23.801  1.00  0.00     0.006 A 
ATOM     10  C   UNL A   1      33.656  22.442  23.201  1.00  0.00     0.010 A 
ATOM     11  C   UNL A   1      31.416  23.100  23.809  1.00  0.00     0.010 A 
ATOM     12  C   UNL A   1      33.823  23.652  22.523  1.00  0.00     0.014 A 
ATOM     13  C   UNL A   1      31.592  24.320  23.152  1.00  0.00     0.014 A 
BRANCH   9  14
ATOM     14  C   UNL A   1      32.160  20.743  24.363  1.00  0.00     0.299 C 
BRANCH  14  15
ATOM     15  N   UNL A   1      33.064  19.670  23.892  1.00  0.00    -0.331 N 
ATOM     16  C   UNL A   1      34.206  16.958  23.862  1.00  0.00     0.089 C 
ATOM     17  C   UNL A   1      34.982  18.154  24.427  1.00  0.00     0.075 C 
ATOM     18  C   UNL A   1      33.292  17.481  22.750  1.00  0.00     0.075 C 
ATOM     19  C   UNL A   1      34.024  19.245  24.922  1.00  0.00     0.263 C 
ATOM     20  C   UNL A   1      32.340  18.555  23.280  1.00  0.00     0.263 C 
ATOM     21  H   UNL A   1      33.627  20.076  23.144  1.00  0.00     0.348 HD
BRANCH  16  22
ATOM     22  C   UNL A   1      33.472  16.214  24.985  1.00  0.00     0.220 C 
ATOM     23  N   UNL A   1      33.304  16.876  26.163  1.00  0.00    -0.369 N 
ATOM     24  H   UNL A   1      32.838  16.437  26.911  1.00  0.00     0.159 HD
ATOM     25  H   UNL A   1      33.647  17.792  26.266  1.00  0.00     0.159 HD
ATOM     26  O   UNL A   1      32.982  15.097  24.854  1.00  0.00    -0.275 OA
ENDBRANCH  16  22
ENDBRANCH  14  15
ENDBRANCH   9  14
ENDBRANCH   5   8
ENDBRANCH   3   4
ENDBRANCH   2   3
ENDBRANCH   1   2
BRANCH   1  27
ATOM     27  C   UNL A   1      31.801  27.035  26.172  1.00  0.00     0.002 C 
BRANCH  27  28
ATOM     28  C   UNL A   1      32.113  28.133  27.193  1.00  0.00     0.021 C 
BRANCH  28  29
ATOM     29  C   UNL A   1      33.500  28.759  27.059  1.00  0.00     0.116 C 
BRANCH  29  30
ATOM     30  N   UNL A   1      33.471  30.192  27.302  1.00  0.00    -0.352 N 
ATOM     31  C   UNL A   1      34.339  30.978  28.018  1.00  0.00     0.251 C 
ATOM     32  H   UNL A   1      32.715  30.670  26.892  1.00  0.00     0.163 HD
ATOM     33  O   UNL A   1      34.016  32.128  28.301  1.00  0.00    -0.269 OA
BRANCH  31  34
ATOM     34  C   UNL A   1      35.651  30.446  28.458  1.00  0.00     0.039 A 
ATOM     35  C   UNL A   1      36.764  30.639  27.636  1.00  0.00     0.014 A 
ATOM     36  C   UNL A   1      35.779  29.717  29.644  1.00  0.00     0.014 A 
ATOM     37  C   UNL A   1      38.012  30.142  28.023  1.00  0.00     0.010 A 
ATOM     38  C   UNL A   1      37.036  29.275  30.059  1.00  0.00     0.010 A 
ATOM     39  C   UNL A   1      38.164  29.475  29.250  1.00  0.00    -0.014 A 
BRANCH  39  40
ATOM     40  C   UNL A   1      39.492  28.962  29.682  1.00  0.00     0.031 A 
ATOM     41  C   UNL A   1      40.259  29.672  30.766  1.00  0.00     0.074 A 
ATOM     42  C   UNL A   1      40.019  27.879  29.077  1.00  0.00     0.049 A 
ATOM     43  N   UNL A   1      41.451  29.414  31.241  1.00  0.00    -0.248 NA
ATOM     44  C   UNL A   1      39.610  30.840  31.380  1.00  0.00     0.031 C 
ATOM     45  C   UNL A   1      39.385  27.126  27.992  1.00  0.00     0.029 A 
ATOM     46  N   UNL A   1      41.209  27.225  29.280  1.00  0.00    -0.354 N 
ATOM     47  C   UNL A   1      41.694  30.383  32.208  1.00  0.00     0.074 A 
ATOM     48  C   UNL A   1      40.553  31.273  32.204  1.00  0.00     0.031 C 
ATOM     49  C   UNL A   1      40.184  26.106  27.641  1.00  0.00     0.029 A 
ATOM     50  C   UNL A   1      41.404  26.152  28.441  1.00  0.00     0.049 A 
ATOM     51  H   UNL A   1      41.863  27.499  29.964  1.00  0.00     0.167 HD
ATOM     52  C   UNL A   1      42.758  30.507  33.040  1.00  0.00     0.034 A 
ATOM     53  C   UNL A   1      42.450  25.310  28.321  1.00  0.00     0.034 A 
ATOM     54  C   UNL A   1      43.888  29.610  33.040  1.00  0.00     0.049 A 
ATOM     55  C   UNL A   1      43.633  25.483  29.242  1.00  0.00     0.074 A 
ATOM     56  C   UNL A   1      45.008  29.630  33.854  1.00  0.00     0.029 A 
ATOM     57  N   UNL A   1      44.042  28.527  32.183  1.00  0.00    -0.354 N 
ATOM     58  N   UNL A   1      43.828  26.388  30.175  1.00  0.00    -0.248 NA
ATOM     59  C   UNL A   1      44.728  24.514  29.108  1.00  0.00     0.031 C 
ATOM     60  C   UNL A   1      45.861  28.597  33.456  1.00  0.00     0.029 A 
ATOM     61  C   UNL A   1      45.245  27.886  32.440  1.00  0.00     0.049 A 
ATOM     62  H   UNL A   1      43.393  28.255  31.496  1.00  0.00     0.167 HD
ATOM     63  C   UNL A   1      45.051  26.071  30.759  1.00  0.00     0.074 A 
ATOM     64  C   UNL A   1      45.538  24.884  30.087  1.00  0.00     0.031 C 
ATOM     65  C   UNL A   1      45.714  26.702  31.761  1.00  0.00     0.034 A 
BRANCH  52  66
ATOM     66  C   UNL A   1      42.751  31.661  34.012  1.00  0.00     0.023 A 
ATOM     67  C   UNL A   1      42.172  31.543  35.289  1.00  0.00     0.031 A 
ATOM     68  C   UNL A   1      43.327  32.896  33.664  1.00  0.00     0.131 A 
ATOM     69  C   UNL A   1      42.126  32.654  36.144  1.00  0.00     0.055 A 
ATOM     70  C   UNL A   1      43.345  33.976  34.548  1.00  0.00     0.041 A 
ATOM     71  F   UNL A   1      43.878  33.075  32.453  1.00  0.00    -0.206 F 
ATOM     72  C   UNL A   1      42.732  33.862  35.793  1.00  0.00     0.022 A 
BRANCH  69  73
ATOM     73  S   UNL A   1      41.163  32.530  37.676  1.00  0.00     0.124 S 
ATOM     74  O   UNL A   1      42.036  31.702  38.504  1.00  0.00    -0.237 OA
ATOM     75  O   UNL A   1      41.031  33.923  38.080  1.00  0.00    -0.237 OA
ATOM     76  O   UNL A   1      39.924  31.884  37.248  1.00  0.00    -0.744 OA
ENDBRANCH  69  73
ENDBRANCH  52  66
BRANCH  53  77
ATOM     77  C   UNL A   1      42.449  24.236  27.284  1.00  0.00     0.023 A 
ATOM     78  C   UNL A   1      41.808  23.008  27.512  1.00  0.00     0.031 A 
ATOM     79  C   UNL A   1      43.151  24.397  26.076  1.00  0.00     0.131 A 
ATOM     80  C   UNL A   1      41.936  21.967  26.579  1.00  0.00     0.055 A 
ATOM     81  C   UNL A   1      43.223  23.380  25.122  1.00  0.00     0.041 A 
ATOM     82  F   UNL A   1      43.780  25.551  25.803  1.00  0.00    -0.206 F 
ATOM     83  C   UNL A   1      42.628  22.148  25.380  1.00  0.00     0.022 A 
BRANCH  80  84
ATOM     84  S   UNL A   1      41.285  20.330  27.013  1.00  0.00     0.124 S 
ATOM     85  O   UNL A   1      42.441  19.476  26.764  1.00  0.00    -0.237 OA
ATOM     86  O   UNL A   1      40.912  20.514  28.411  1.00  0.00    -0.237 OA
ATOM     87  O   UNL A   1      40.168  20.152  26.088  1.00  0.00    -0.744 OA
ENDBRANCH  80  84
ENDBRANCH  53  77
BRANCH  65  88
ATOM     88  C   UNL A   1      47.009  26.082  32.222  1.00  0.00     0.023 A 
ATOM     89  C   UNL A   1      48.231  26.355  31.583  1.00  0.00     0.031 A 
ATOM     90  C   UNL A   1      47.017  25.194  33.313  1.00  0.00     0.131 A 
ATOM     91  C   UNL A   1      49.400  25.702  32.003  1.00  0.00     0.055 A 
ATOM     92  C   UNL A   1      48.192  24.593  33.763  1.00  0.00     0.041 A 
ATOM     93  F   UNL A   1      45.878  24.897  33.961  1.00  0.00    -0.206 F 
ATOM     94  C   UNL A   1      49.391  24.836  33.099  1.00  0.00     0.022 A 
BRANCH  91  95
ATOM     95  S   UNL A   1      50.920  25.936  31.042  1.00  0.00     0.124 S 
ATOM     96  O   UNL A   1      50.743  24.979  29.954  1.00  0.00    -0.237 OA
ATOM     97  O   UNL A   1      50.842  27.345  30.669  1.00  0.00    -0.237 OA
ATOM     98  O   UNL A   1      51.981  25.606  31.992  1.00  0.00    -0.744 OA
ENDBRANCH  91  95
ENDBRANCH  65  88
ENDBRANCH  39  40
ENDBRANCH  31  34
ENDBRANCH  29  30
ENDBRANCH  28  29
ENDBRANCH  27  28
ENDBRANCH   1  27
TORSDOF 19
ENDMDL
MODEL 2
REMARK VINA RESULT:     -11.8      1.525      1.755
REMARK SMILES NC(=O)C1CC[NH+](Cc2ccc(C(=O)NCCCCCCNC(=O)c3ccc(-c4c5nc(c(-c6cc(S(=O)(=O)[O-])ccc6F)c6ccc([nH]6)c(-c6cc(S(=O)(=O)[O-])ccc6F)c6nc(c(-c7cc(S(=O)(=O)[O-])ccc7F)c7ccc4[nH]7)C=C6)C=C5)cc3)cc2)CC1
REMARK SMILES IDX 18 1 17 2 16 3 15 4 13 5 14 6 12 8 9 9 10 10 89 11 11 12
REMARK SMILES IDX 88 13 8 14 7 15 4 16 5 17 91 18 6 19 90 20 2 22 1 23 3 26
REMARK SMILES IDX 19 27 20 28 21 29 22 30 23 31 24 33 25 34 26 35 87 36 27 37
REMARK SMILES IDX 86 38 28 39 29 40 30 41 80 42 31 43 85 44 79 45 81 46 32 47
REMARK SMILES IDX 84 48 78 49 77 50 33 52 65 53 45 54 64 55 46 56 49 57 63 58
REMARK SMILES IDX 82 59 47 60 48 61 62 63 83 64 50 65 34 66 35 67 43 68 36 69
REMARK SMILES IDX 42 70 44 71 41 72 37 73 38 74 39 75 40 76 66 77 67 78 75 79
REMARK SMILES IDX 68 80 74 81 76 82 73 83 69 84 70 85 71 86 72 87 51 88 52 89
REMARK SMILES IDX 60 90 53 91 59 92 61 93 58 94 54 95 55 96 56 97 57 98
REMARK H PARENT 15 7 7 21 1 24 1 25 22 32 81 51 49 62
REMARK Flexibility Score: inf
ROOT
ATOM      1  C   UNL A   1      30.761  27.131  24.961  1.00  0.00     0.002 C 
ENDROOT
BRANCH   1   2
ATOM      2  C   UNL A   1      31.440  27.913  23.829  1.00  0.00     0.021 C 
BRANCH   2   3
ATOM      3  C   UNL A   1      32.891  27.496  23.576  1.00  0.00     0.116 C 
BRANCH   3   4
ATOM      4  N   UNL A   1      33.052  27.015  22.212  1.00  0.00    -0.352 N 
ATOM      5  C   UNL A   1      32.998  25.748  21.688  1.00  0.00     0.251 C 
ATOM      6  O   UNL A   1      33.088  25.605  20.469  1.00  0.00    -0.269 OA
ATOM      7  H   UNL A   1      33.229  27.723  21.551  1.00  0.00     0.163 HD
BRANCH   5   8
ATOM      8  C   UNL A   1      32.762  24.556  22.541  1.00  0.00     0.039 A 
ATOM      9  C   UNL A   1      32.433  22.152  23.967  1.00  0.00     0.006 A 
ATOM     10  C   UNL A   1      33.712  22.590  23.598  1.00  0.00     0.010 A 
ATOM     11  C   UNL A   1      31.336  22.990  23.710  1.00  0.00     0.010 A 
ATOM     12  C   UNL A   1      33.875  23.780  22.885  1.00  0.00     0.014 A 
ATOM     13  C   UNL A   1      31.502  24.192  23.017  1.00  0.00     0.014 A 
BRANCH   9  14
ATOM     14  C   UNL A   1      32.215  20.771  24.559  1.00  0.00     0.299 C 
BRANCH  14  15
ATOM     15  N   UNL A   1      33.059  19.690  24.002  1.00  0.00    -0.331 N 
ATOM     16  C   UNL A   1      34.122  16.953  23.822  1.00  0.00     0.089 C 
ATOM     17  C   UNL A   1      34.962  18.110  24.376  1.00  0.00     0.075 C 
ATOM     18  C   UNL A   1      33.159  17.534  22.783  1.00  0.00     0.075 C 
ATOM     19  C   UNL A   1      34.066  19.209  24.960  1.00  0.00     0.263 C 
ATOM     20  C   UNL A   1      32.270  18.614  23.401  1.00  0.00     0.263 C 
ATOM     21  H   UNL A   1      33.588  20.106  23.234  1.00  0.00     0.348 HD
BRANCH  16  22
ATOM     22  C   UNL A   1      33.435  16.193  24.963  1.00  0.00     0.220 C 
ATOM     23  N   UNL A   1      33.277  16.853  26.144  1.00  0.00    -0.369 N 
ATOM     24  H   UNL A   1      32.841  16.403  26.904  1.00  0.00     0.159 HD
ATOM     25  H   UNL A   1      33.597  17.778  26.237  1.00  0.00     0.159 HD
ATOM     26  O   UNL A   1      32.973  15.062  24.847  1.00  0.00    -0.275 OA
ENDBRANCH  16  22
ENDBRANCH  14  15
ENDBRANCH   9  14
ENDBRANCH   5   8
ENDBRANCH   3   4
ENDBRANCH   2   3
ENDBRANCH   1   2
BRANCH   1  27
ATOM     27  C   UNL A   1      31.606  26.957  26.229  1.00  0.00     0.002 C 
BRANCH  27  28
ATOM     28  C   UNL A   1      31.826  28.231  27.050  1.00  0.00     0.021 C 
BRANCH  28  29
ATOM     29  C   UNL A   1      33.270  28.726  27.093  1.00  0.00     0.116 C 
BRANCH  29  30
ATOM     30  N   UNL A   1      33.343  30.177  27.142  1.00  0.00    -0.352 N 
ATOM     31  C   UNL A   1      34.269  30.990  27.747  1.00  0.00     0.251 C 
ATOM     32  H   UNL A   1      32.618  30.648  26.670  1.00  0.00     0.163 HD
ATOM     33  O   UNL A   1      34.027  32.186  27.874  1.00  0.00    -0.269 OA
BRANCH  31  34
ATOM     34  C   UNL A   1      35.544  30.431  28.256  1.00  0.00     0.039 A 
ATOM     35  C   UNL A   1      36.678  30.495  27.441  1.00  0.00     0.014 A 
ATOM     36  C   UNL A   1      35.616  29.802  29.503  1.00  0.00     0.014 A 
ATOM     37  C   UNL A   1      37.891  29.970  27.893  1.00  0.00     0.010 A 
ATOM     38  C   UNL A   1      36.843  29.334  29.978  1.00  0.00     0.010 A 
ATOM     39  C   UNL A   1      37.991  29.405  29.175  1.00  0.00    -0.014 A 
BRANCH  39  40
ATOM     40  C   UNL A   1      39.284  28.865  29.675  1.00  0.00     0.031 A 
ATOM     41  C   UNL A   1      39.966  29.507  30.853  1.00  0.00     0.074 A 
ATOM     42  C   UNL A   1      39.857  27.818  29.049  1.00  0.00     0.049 A 
ATOM     43  N   UNL A   1      41.119  29.218  31.401  1.00  0.00    -0.248 NA
ATOM     44  C   UNL A   1      39.270  30.639  31.485  1.00  0.00     0.031 C 
ATOM     45  C   UNL A   1      39.308  27.131  27.877  1.00  0.00     0.029 A 
ATOM     46  N   UNL A   1      41.029  27.150  29.302  1.00  0.00    -0.354 N 
ATOM     47  C   UNL A   1      41.287  30.129  32.439  1.00  0.00     0.074 A 
ATOM     48  C   UNL A   1      40.147  31.020  32.402  1.00  0.00     0.031 C 
ATOM     49  C   UNL A   1      40.133  26.132  27.526  1.00  0.00     0.029 A 
ATOM     50  C   UNL A   1      41.289  26.127  28.417  1.00  0.00     0.049 A 
ATOM     51  H   UNL A   1      41.630  27.381  30.048  1.00  0.00     0.167 HD
ATOM     52  C   UNL A   1      42.285  30.200  33.355  1.00  0.00     0.034 A 
ATOM     53  C   UNL A   1      42.343  25.292  28.326  1.00  0.00     0.034 A 
ATOM     54  C   UNL A   1      43.414  29.302  33.386  1.00  0.00     0.049 A 
ATOM     55  C   UNL A   1      43.453  25.408  29.343  1.00  0.00     0.074 A 
ATOM     56  C   UNL A   1      44.469  29.272  34.282  1.00  0.00     0.029 A 
ATOM     57  N   UNL A   1      43.634  28.271  32.481  1.00  0.00    -0.354 N 
ATOM     58  N   UNL A   1      43.576  26.255  30.339  1.00  0.00    -0.248 NA
ATOM     59  C   UNL A   1      44.557  24.445  29.234  1.00  0.00     0.031 C 
ATOM     60  C   UNL A   1      45.352  28.262  33.888  1.00  0.00     0.029 A 
ATOM     61  C   UNL A   1      44.815  27.613  32.788  1.00  0.00     0.049 A 
ATOM     62  H   UNL A   1      43.039  28.042  31.732  1.00  0.00     0.167 HD
ATOM     63  C   UNL A   1      44.752  25.901  30.994  1.00  0.00     0.074 A 
ATOM     64  C   UNL A   1      45.290  24.755  30.292  1.00  0.00     0.031 C 
ATOM     65  C   UNL A   1      45.337  26.470  32.078  1.00  0.00     0.034 A 
BRANCH  52  66
ATOM     66  C   UNL A   1      42.203  31.295  34.390  1.00  0.00     0.023 A 
ATOM     67  C   UNL A   1      41.174  31.324  35.348  1.00  0.00     0.031 A 
ATOM     68  C   UNL A   1      43.160  32.325  34.422  1.00  0.00     0.131 A 
ATOM     69  C   UNL A   1      41.091  32.390  36.257  1.00  0.00     0.055 A 
ATOM     70  C   UNL A   1      43.114  33.344  35.376  1.00  0.00     0.041 A 
ATOM     71  F   UNL A   1      44.154  32.362  33.521  1.00  0.00    -0.206 F 
ATOM     72  C   UNL A   1      42.069  33.386  36.293  1.00  0.00     0.022 A 
BRANCH  69  73
ATOM     73  S   UNL A   1      39.622  32.516  37.312  1.00  0.00     0.124 S 
ATOM     74  O   UNL A   1      40.224  32.655  38.636  1.00  0.00    -0.237 OA
ATOM     75  O   UNL A   1      38.954  33.700  36.786  1.00  0.00    -0.237 OA
ATOM     76  O   UNL A   1      38.925  31.252  37.081  1.00  0.00    -0.744 OA
ENDBRANCH  69  73
ENDBRANCH  52  66
BRANCH  53  77
ATOM     77  C   UNL A   1      42.422  24.282  27.231  1.00  0.00     0.023 A 
ATOM     78  C   UNL A   1      41.812  23.024  27.360  1.00  0.00     0.031 A 
ATOM     79  C   UNL A   1      43.170  24.534  26.068  1.00  0.00     0.131 A 
ATOM     80  C   UNL A   1      42.014  22.043  26.375  1.00  0.00     0.055 A 
ATOM     81  C   UNL A   1      43.317  23.576  25.061  1.00  0.00     0.041 A 
ATOM     82  F   UNL A   1      43.773  25.720  25.890  1.00  0.00    -0.206 F 
ATOM     83  C   UNL A   1      42.751  22.315  25.220  1.00  0.00     0.022 A 
BRANCH  80  84
ATOM     84  S   UNL A   1      41.398  20.364  26.684  1.00  0.00     0.124 S 
ATOM     85  O   UNL A   1      39.966  20.594  26.827  1.00  0.00    -0.237 OA
ATOM     86  O   UNL A   1      41.819  19.663  25.476  1.00  0.00    -0.237 OA
ATOM     87  O   UNL A   1      42.092  19.968  27.908  1.00  0.00    -0.744 OA
ENDBRANCH  80  84
ENDBRANCH  53  77
BRANCH  65  88
ATOM     88  C   UNL A   1      46.595  25.821  32.598  1.00  0.00     0.023 A 
ATOM     89  C   UNL A   1      46.560  24.829  33.594  1.00  0.00     0.031 A 
ATOM     90  C   UNL A   1      47.849  26.210  32.095  1.00  0.00     0.131 A 
ATOM     91  C   UNL A   1      47.759  24.303  34.097  1.00  0.00     0.055 A 
ATOM     92  C   UNL A   1      49.036  25.641  32.559  1.00  0.00     0.041 A 
ATOM     93  F   UNL A   1      47.942  27.154  31.143  1.00  0.00    -0.206 F 
ATOM     94  C   UNL A   1      48.995  24.690  33.574  1.00  0.00     0.022 A 
BRANCH  91  95
ATOM     95  S   UNL A   1      47.685  23.163  35.506  1.00  0.00     0.124 S 
ATOM     96  O   UNL A   1      48.675  22.156  35.135  1.00  0.00    -0.237 OA
ATOM     97  O   UNL A   1      48.045  24.027  36.626  1.00  0.00    -0.237 OA
ATOM     98  O   UNL A   1      46.298  22.702  35.503  1.00  0.00    -0.744 OA
ENDBRANCH  91  95
ENDBRANCH  65  88
ENDBRANCH  39  40
ENDBRANCH  31  34
ENDBRANCH  29  30
ENDBRANCH  28  29
ENDBRANCH  27  28
ENDBRANCH   1  27
TORSDOF 19
ENDMDL
MODEL 3
REMARK VINA RESULT:     -11.6      3.660      8.638
REMARK SMILES NC(=O)C1CC[NH+](Cc2ccc(C(=O)NCCCCCCNC(=O)c3ccc(-c4c5nc(c(-c6cc(S(=O)(=O)[O-])ccc6F)c6ccc([nH]6)c(-c6cc(S(=O)(=O)[O-])ccc6F)c6nc(c(-c7cc(S(=O)(=O)[O-])ccc7F)c7ccc4[nH]7)C=C6)C=C5)cc3)cc2)CC1
REMARK SMILES IDX 18 1 17 2 16 3 15 4 13 5 14 6 12 8 9 9 10 10 89 11 11 12
REMARK SMILES IDX 88 13 8 14 7 15 4 16 5 17 91 18 6 19 90 20 2 22 1 23 3 26
REMARK SMILES IDX 19 27 20 28 21 29 22 30 23 31 24 33 25 34 26 35 87 36 27 37
REMARK SMILES IDX 86 38 28 39 29 40 30 41 80 42 31 43 85 44 79 45 81 46 32 47
REMARK SMILES IDX 84 48 78 49 77 50 33 52 65 53 45 54 64 55 46 56 49 57 63 58
REMARK SMILES IDX 82 59 47 60 48 61 62 63 83 64 50 65 34 66 35 67 43 68 36 69
REMARK SMILES IDX 42 70 44 71 41 72 37 73 38 74 39 75 40 76 66 77 67 78 75 79
REMARK SMILES IDX 68 80 74 81 76 82 73 83 69 84 70 85 71 86 72 87 51 88 52 89
REMARK SMILES IDX 60 90 53 91 59 92 61 93 58 94 54 95 55 96 56 97 57 98
REMARK H PARENT 15 7 7 21 1 24 1 25 22 32 81 51 49 62
REMARK Flexibility Score: inf
ROOT
ATOM      1  C   UNL A   1      32.571  29.732  26.358  1.00  0.00     0.002 C 
ENDROOT
BRANCH   1   2
ATOM      2  C   UNL A   1      32.844  28.576  25.386  1.00  0.00     0.021 C 
BRANCH   2   3
ATOM      3  C   UNL A   1      33.359  29.030  24.017  1.00  0.00     0.116 C 
BRANCH   3   4
ATOM      4  N   UNL A   1      32.256  29.480  23.182  1.00  0.00    -0.352 N 
ATOM      5  C   UNL A   1      31.240  28.784  22.577  1.00  0.00     0.251 C 
ATOM      6  O   UNL A   1      30.367  29.412  21.976  1.00  0.00    -0.269 OA
ATOM      7  H   UNL A   1      32.236  30.451  23.023  1.00  0.00     0.163 HD
BRANCH   5   8
ATOM      8  C   UNL A   1      31.123  27.309  22.688  1.00  0.00     0.039 A 
ATOM      9  C   UNL A   1      30.957  24.539  23.157  1.00  0.00     0.006 A 
ATOM     10  C   UNL A   1      30.122  25.427  23.847  1.00  0.00     0.010 A 
ATOM     11  C   UNL A   1      31.794  25.047  22.151  1.00  0.00     0.010 A 
ATOM     12  C   UNL A   1      30.209  26.803  23.619  1.00  0.00     0.014 A 
ATOM     13  C   UNL A   1      31.864  26.421  21.906  1.00  0.00     0.014 A 
BRANCH   9  14
ATOM     14  C   UNL A   1      31.024  23.069  23.534  1.00  0.00     0.299 C 
BRANCH  14  15
ATOM     15  N   UNL A   1      32.197  22.663  24.340  1.00  0.00    -0.331 N 
ATOM     16  C   UNL A   1      33.994  20.749  25.667  1.00  0.00     0.089 C 
ATOM     17  C   UNL A   1      33.031  21.637  26.464  1.00  0.00     0.075 C 
ATOM     18  C   UNL A   1      34.392  21.514  24.402  1.00  0.00     0.075 C 
ATOM     19  C   UNL A   1      31.817  22.032  25.613  1.00  0.00     0.263 C 
ATOM     20  C   UNL A   1      33.162  21.878  23.570  1.00  0.00     0.263 C 
ATOM     21  H   UNL A   1      32.682  23.524  24.595  1.00  0.00     0.348 HD
BRANCH  16  22
ATOM     22  C   UNL A   1      33.365  19.376  25.402  1.00  0.00     0.220 C 
ATOM     23  N   UNL A   1      32.828  18.721  26.468  1.00  0.00    -0.369 N 
ATOM     24  H   UNL A   1      32.413  17.836  26.344  1.00  0.00     0.159 HD
ATOM     25  H   UNL A   1      32.853  19.132  27.362  1.00  0.00     0.159 HD
ATOM     26  O   UNL A   1      33.267  18.875  24.285  1.00  0.00    -0.275 OA
ENDBRANCH  16  22
ENDBRANCH  14  15
ENDBRANCH   9  14
ENDBRANCH   5   8
ENDBRANCH   3   4
ENDBRANCH   2   3
ENDBRANCH   1   2
BRANCH   1  27
ATOM     27  C   UNL A   1      31.434  30.673  25.945  1.00  0.00     0.002 C 
BRANCH  27  28
ATOM     28  C   UNL A   1      31.362  31.994  26.718  1.00  0.00     0.021 C 
BRANCH  28  29
ATOM     29  C   UNL A   1      32.702  32.505  27.243  1.00  0.00     0.116 C 
BRANCH  29  30
ATOM     30  N   UNL A   1      32.647  33.918  27.580  1.00  0.00    -0.352 N 
ATOM     31  C   UNL A   1      33.325  34.617  28.547  1.00  0.00     0.251 C 
ATOM     32  H   UNL A   1      32.029  34.455  27.032  1.00  0.00     0.163 HD
ATOM     33  O   UNL A   1      32.968  35.757  28.828  1.00  0.00    -0.269 OA
BRANCH  31  34
ATOM     34  C   UNL A   1      34.472  34.001  29.257  1.00  0.00     0.039 A 
ATOM     35  C   UNL A   1      34.223  32.969  30.166  1.00  0.00     0.014 A 
ATOM     36  C   UNL A   1      35.777  34.468  29.072  1.00  0.00     0.014 A 
ATOM     37  C   UNL A   1      35.285  32.376  30.854  1.00  0.00     0.010 A 
ATOM     38  C   UNL A   1      36.842  33.833  29.713  1.00  0.00     0.010 A 
ATOM     39  C   UNL A   1      36.607  32.786  30.617  1.00  0.00    -0.014 A 
BRANCH  39  40
ATOM     40  C   UNL A   1      37.747  32.145  31.327  1.00  0.00     0.031 A 
ATOM     41  C   UNL A   1      38.506  31.020  30.676  1.00  0.00     0.074 A 
ATOM     42  C   UNL A   1      38.075  32.554  32.569  1.00  0.00     0.049 A 
ATOM     43  N   UNL A   1      39.489  30.300  31.152  1.00  0.00    -0.248 NA
ATOM     44  C   UNL A   1      38.089  30.641  29.317  1.00  0.00     0.031 C 
ATOM     45  C   UNL A   1      37.393  33.613  33.317  1.00  0.00     0.029 A 
ATOM     46  N   UNL A   1      39.060  32.128  33.425  1.00  0.00    -0.354 N 
ATOM     47  C   UNL A   1      39.809  29.384  30.156  1.00  0.00     0.074 A 
ATOM     48  C   UNL A   1      38.871  29.599  29.074  1.00  0.00     0.031 C 
ATOM     49  C   UNL A   1      37.990  33.764  34.510  1.00  0.00     0.029 A 
ATOM     50  C   UNL A   1      39.070  32.789  34.633  1.00  0.00     0.049 A 
ATOM     51  H   UNL A   1      39.699  31.415  33.197  1.00  0.00     0.167 HD
ATOM     52  C   UNL A   1      40.807  28.467  30.132  1.00  0.00     0.034 A 
ATOM     53  C   UNL A   1      39.850  32.620  35.719  1.00  0.00     0.034 A 
ATOM     54  C   UNL A   1      41.741  28.266  31.214  1.00  0.00     0.049 A 
ATOM     55  C   UNL A   1      40.939  31.575  35.677  1.00  0.00     0.074 A 
ATOM     56  C   UNL A   1      42.802  27.380  31.285  1.00  0.00     0.029 A 
ATOM     57  N   UNL A   1      41.727  28.964  32.415  1.00  0.00    -0.354 N 
ATOM     58  N   UNL A   1      41.247  30.741  34.710  1.00  0.00    -0.248 NA
ATOM     59  C   UNL A   1      41.796  31.459  36.865  1.00  0.00     0.031 C 
ATOM     60  C   UNL A   1      43.395  27.503  32.546  1.00  0.00     0.029 A 
ATOM     61  C   UNL A   1      42.749  28.515  33.238  1.00  0.00     0.049 A 
ATOM     62  H   UNL A   1      41.085  29.673  32.648  1.00  0.00     0.167 HD
ATOM     63  C   UNL A   1      42.355  30.030  35.162  1.00  0.00     0.074 A 
ATOM     64  C   UNL A   1      42.671  30.544  36.478  1.00  0.00     0.031 C 
ATOM     65  C   UNL A   1      43.051  29.040  34.547  1.00  0.00     0.034 A 
BRANCH  52  66
ATOM     66  C   UNL A   1      40.932  27.604  28.900  1.00  0.00     0.023 A 
ATOM     67  C   UNL A   1      41.922  27.847  27.931  1.00  0.00     0.031 A 
ATOM     68  C   UNL A   1      40.052  26.529  28.686  1.00  0.00     0.131 A 
ATOM     69  C   UNL A   1      41.971  27.066  26.767  1.00  0.00     0.055 A 
ATOM     70  C   UNL A   1      40.153  25.708  27.560  1.00  0.00     0.041 A 
ATOM     71  F   UNL A   1      39.075  26.259  29.565  1.00  0.00    -0.206 F 
ATOM     72  C   UNL A   1      41.109  25.982  26.587  1.00  0.00     0.022 A 
BRANCH  69  73
ATOM     73  S   UNL A   1      43.102  27.560  25.438  1.00  0.00     0.124 S 
ATOM     74  O   UNL A   1      43.542  26.263  24.931  1.00  0.00    -0.237 OA
ATOM     75  O   UNL A   1      42.235  28.331  24.555  1.00  0.00    -0.237 OA
ATOM     76  O   UNL A   1      44.129  28.333  26.133  1.00  0.00    -0.744 OA
ENDBRANCH  69  73
ENDBRANCH  52  66
BRANCH  53  77
ATOM     77  C   UNL A   1      39.632  33.437  36.949  1.00  0.00     0.023 A 
ATOM     78  C   UNL A   1      38.982  32.899  38.071  1.00  0.00     0.031 A 
ATOM     79  C   UNL A   1      40.009  34.791  36.993  1.00  0.00     0.131 A 
ATOM     80  C   UNL A   1      38.669  33.726  39.162  1.00  0.00     0.055 A 
ATOM     81  C   UNL A   1      39.751  35.594  38.106  1.00  0.00     0.041 A 
ATOM     82  F   UNL A   1      40.636  35.357  35.950  1.00  0.00    -0.206 F 
ATOM     83  C   UNL A   1      39.060  35.066  39.193  1.00  0.00     0.022 A 
BRANCH  80  84
ATOM     84  S   UNL A   1      37.633  33.052  40.490  1.00  0.00     0.124 S 
ATOM     85  O   UNL A   1      37.705  34.111  41.490  1.00  0.00    -0.237 OA
ATOM     86  O   UNL A   1      36.348  32.890  39.818  1.00  0.00    -0.237 OA
ATOM     87  O   UNL A   1      38.309  31.808  40.851  1.00  0.00    -0.744 OA
ENDBRANCH  80  84
ENDBRANCH  53  77
BRANCH  65  88
ATOM     88  C   UNL A   1      44.254  28.495  35.274  1.00  0.00     0.023 A 
ATOM     89  C   UNL A   1      44.149  27.428  36.184  1.00  0.00     0.031 A 
ATOM     90  C   UNL A   1      45.524  29.061  35.061  1.00  0.00     0.131 A 
ATOM     91  C   UNL A   1      45.284  26.998  36.889  1.00  0.00     0.055 A 
ATOM     92  C   UNL A   1      46.659  28.591  35.723  1.00  0.00     0.041 A 
ATOM     93  F   UNL A   1      45.681  30.083  34.203  1.00  0.00    -0.206 F 
ATOM     94  C   UNL A   1      46.540  27.562  36.652  1.00  0.00     0.022 A 
BRANCH  91  95
ATOM     95  S   UNL A   1      45.080  25.747  38.186  1.00  0.00     0.124 S 
ATOM     96  O   UNL A   1      43.884  25.038  37.741  1.00  0.00    -0.237 OA
ATOM     97  O   UNL A   1      46.331  25.000  38.100  1.00  0.00    -0.237 OA
ATOM     98  O   UNL A   1      44.915  26.538  39.404  1.00  0.00    -0.744 OA
ENDBRANCH  91  95
ENDBRANCH  65  88
ENDBRANCH  39  40
ENDBRANCH  31  34
ENDBRANCH  29  30
ENDBRANCH  28  29
ENDBRANCH  27  28
ENDBRANCH   1  27
TORSDOF 19
ENDMDL
