MODEL 1
REMARK VINA RESULT:     -10.6      0.000      0.000
REMARK SMILES CC(C)N(CCCC(=O)NCCCCCCNC(=O)c1ccc(-c2c3nc(c(-c4cc(S(=O)(=O)[O-])ccc4F)c4ccc([nH]4)c(-c4cc(S(=O)(=O)[O-])ccc4F)c4nc(c(-c5cc(S(=O)(=O)[O-])ccc5F)c5ccc2[nH]5)C=C4)C=C3)cc1)C(=O)N[C@@H]1CCCC1(C)C
REMARK SMILES IDX 12 1 11 2 10 3 8 4 9 5 7 7 6 8 5 9 4 10 2 11 1 12 3 13 83 14
REMARK SMILES IDX 84 15 85 16 86 18 87 19 90 20 88 21 89 22 91 23 92 24 13 25
REMARK SMILES IDX 14 26 15 27 16 28 17 29 18 30 19 32 20 33 21 34 82 35 22 36
REMARK SMILES IDX 81 37 23 38 24 39 25 40 75 41 26 42 80 43 74 44 76 45 27 46
REMARK SMILES IDX 79 47 73 48 72 49 28 51 60 52 40 53 59 54 41 55 44 56 58 57
REMARK SMILES IDX 77 58 42 59 43 60 57 62 78 63 45 64 29 65 30 66 38 67 31 68
REMARK SMILES IDX 37 69 39 70 36 71 32 72 33 73 34 74 35 75 61 76 62 77 70 78
REMARK SMILES IDX 63 79 69 80 71 81 68 82 64 83 65 84 66 85 67 86 46 87 47 88
REMARK SMILES IDX 55 89 48 90 54 91 56 92 53 93 49 94 50 95 51 96 52 97
REMARK H PARENT 10 6 85 17 17 31 76 50 44 61
REMARK Flexibility Score: inf
ROOT
ATOM      1  C   UNL A   1      33.349  29.157  25.376  1.00  0.00     0.021 C 
ENDROOT
BRANCH   1   2
ATOM      2  C   UNL A   1      32.677  28.849  24.001  1.00  0.00     0.116 C 
BRANCH   2   3
ATOM      3  N   UNL A   1      33.256  27.776  23.166  1.00  0.00    -0.356 N 
ATOM      4  C   UNL A   1      32.763  26.691  22.476  1.00  0.00     0.220 C 
ATOM      5  O   UNL A   1      33.563  26.163  21.689  1.00  0.00    -0.275 OA
ATOM      6  H   UNL A   1      34.233  27.857  23.082  1.00  0.00     0.163 HD
BRANCH   4   7
ATOM      7  C   UNL A   1      31.345  26.087  22.603  1.00  0.00     0.102 C 
BRANCH   7   8
ATOM      8  C   UNL A   1      31.296  24.539  22.896  1.00  0.00     0.031 C 
BRANCH   8   9
ATOM      9  C   UNL A   1      32.352  23.828  23.806  1.00  0.00     0.122 C 
BRANCH   9  10
ATOM     10  N   UNL A   1      32.093  23.835  25.228  1.00  0.00    -0.322 N 
BRANCH  10  11
ATOM     11  C   UNL A   1      32.744  24.859  26.134  1.00  0.00     0.080 C 
ATOM     12  C   UNL A   1      34.125  25.425  25.688  1.00  0.00     0.031 C 
ATOM     13  C   UNL A   1      31.862  26.079  26.423  1.00  0.00     0.031 C 
ENDBRANCH  10  11
BRANCH  10  14
ATOM     14  C   UNL A   1      31.562  22.736  25.774  1.00  0.00     0.317 C 
ATOM     15  O   UNL A   1      30.398  22.817  26.162  1.00  0.00    -0.249 OA
ATOM     16  N   UNL A   1      32.223  21.621  26.091  1.00  0.00    -0.335 N 
ATOM     17  H   UNL A   1      31.572  21.026  26.529  1.00  0.00     0.165 HD
BRANCH  16  18
ATOM     18  C   UNL A   1      33.491  20.902  26.071  1.00  0.00     0.089 C 
ATOM     19  C   UNL A   1      34.772  21.661  25.747  1.00  0.00     0.025 C 
ATOM     20  C   UNL A   1      33.429  19.744  25.018  1.00  0.00    -0.015 C 
ATOM     21  C   UNL A   1      35.627  20.710  24.899  1.00  0.00     0.003 C 
ATOM     22  C   UNL A   1      34.909  19.367  24.913  1.00  0.00     0.008 C 
ATOM     23  C   UNL A   1      32.604  18.526  25.463  1.00  0.00     0.013 C 
ATOM     24  C   UNL A   1      32.884  20.226  23.656  1.00  0.00     0.013 C 
ENDBRANCH  16  18
ENDBRANCH  10  14
ENDBRANCH   9  10
ENDBRANCH   8   9
ENDBRANCH   7   8
ENDBRANCH   4   7
ENDBRANCH   2   3
ENDBRANCH   1   2
BRANCH   1  25
ATOM     25  C   UNL A   1      32.604  29.831  26.521  1.00  0.00     0.002 C 
BRANCH  25  26
ATOM     26  C   UNL A   1      31.488  30.779  26.077  1.00  0.00     0.002 C 
BRANCH  26  27
ATOM     27  C   UNL A   1      31.511  32.213  26.645  1.00  0.00     0.021 C 
BRANCH  27  28
ATOM     28  C   UNL A   1      32.816  32.659  27.309  1.00  0.00     0.116 C 
BRANCH  28  29
ATOM     29  N   UNL A   1      32.747  34.050  27.733  1.00  0.00    -0.352 N 
ATOM     30  C   UNL A   1      33.398  34.660  28.784  1.00  0.00     0.251 C 
ATOM     31  H   UNL A   1      32.160  34.632  27.198  1.00  0.00     0.163 HD
ATOM     32  O   UNL A   1      33.023  35.747  29.199  1.00  0.00    -0.269 OA
BRANCH  30  33
ATOM     33  C   UNL A   1      34.552  33.977  29.403  1.00  0.00     0.039 A 
ATOM     34  C   UNL A   1      35.851  34.380  29.084  1.00  0.00     0.014 A 
ATOM     35  C   UNL A   1      34.335  32.936  30.311  1.00  0.00     0.014 A 
ATOM     36  C   UNL A   1      36.936  33.775  29.725  1.00  0.00     0.010 A 
ATOM     37  C   UNL A   1      35.415  32.377  30.990  1.00  0.00     0.010 A 
ATOM     38  C   UNL A   1      36.725  32.788  30.703  1.00  0.00    -0.014 A 
BRANCH  38  39
ATOM     39  C   UNL A   1      37.863  32.158  31.423  1.00  0.00     0.031 A 
ATOM     40  C   UNL A   1      38.639  31.046  30.770  1.00  0.00     0.074 A 
ATOM     41  C   UNL A   1      38.151  32.536  32.685  1.00  0.00     0.049 A 
ATOM     42  N   UNL A   1      39.614  30.318  31.252  1.00  0.00    -0.248 NA
ATOM     43  C   UNL A   1      38.236  30.684  29.404  1.00  0.00     0.031 C 
ATOM     44  C   UNL A   1      37.437  33.568  33.439  1.00  0.00     0.029 A 
ATOM     45  N   UNL A   1      39.110  32.090  33.560  1.00  0.00    -0.354 N 
ATOM     46  C   UNL A   1      39.930  29.401  30.255  1.00  0.00     0.074 A 
ATOM     47  C   UNL A   1      38.994  29.624  29.173  1.00  0.00     0.031 C 
ATOM     48  C   UNL A   1      37.999  33.695  34.653  1.00  0.00     0.029 A 
ATOM     49  C   UNL A   1      39.086  32.728  34.779  1.00  0.00     0.049 A 
ATOM     50  H   UNL A   1      39.756  31.382  33.335  1.00  0.00     0.167 HD
ATOM     51  C   UNL A   1      40.925  28.479  30.232  1.00  0.00     0.034 A 
ATOM     52  C   UNL A   1      39.850  32.548  35.875  1.00  0.00     0.034 A 
ATOM     53  C   UNL A   1      41.853  28.281  31.319  1.00  0.00     0.049 A 
ATOM     54  C   UNL A   1      40.941  31.508  35.837  1.00  0.00     0.074 A 
ATOM     55  C   UNL A   1      42.935  27.421  31.387  1.00  0.00     0.029 A 
ATOM     56  N   UNL A   1      41.803  28.950  32.537  1.00  0.00    -0.354 N 
ATOM     57  N   UNL A   1      41.267  30.688  34.864  1.00  0.00    -0.248 NA
ATOM     58  C   UNL A   1      41.774  31.379  37.039  1.00  0.00     0.031 C 
ATOM     59  C   UNL A   1      43.497  27.521  32.666  1.00  0.00     0.029 A 
ATOM     60  C   UNL A   1      42.814  28.499  33.372  1.00  0.00     0.049 A 
ATOM     61  H   UNL A   1      41.146  29.643  32.773  1.00  0.00     0.167 HD
ATOM     62  C   UNL A   1      42.364  29.967  35.326  1.00  0.00     0.074 A 
ATOM     63  C   UNL A   1      42.650  30.460  36.660  1.00  0.00     0.031 C 
ATOM     64  C   UNL A   1      43.076  28.991  34.706  1.00  0.00     0.034 A 
BRANCH  51  65
ATOM     65  C   UNL A   1      41.029  27.605  29.003  1.00  0.00     0.023 A 
ATOM     66  C   UNL A   1      42.023  27.816  28.030  1.00  0.00     0.031 A 
ATOM     67  C   UNL A   1      40.093  26.582  28.770  1.00  0.00     0.131 A 
ATOM     68  C   UNL A   1      41.998  27.089  26.829  1.00  0.00     0.055 A 
ATOM     69  C   UNL A   1      40.129  25.798  27.614  1.00  0.00     0.041 A 
ATOM     70  F   UNL A   1      39.108  26.341  29.649  1.00  0.00    -0.206 F 
ATOM     71  C   UNL A   1      41.073  26.063  26.626  1.00  0.00     0.022 A 
BRANCH  68  72
ATOM     72  S   UNL A   1      43.079  27.622  25.473  1.00  0.00     0.124 S 
ATOM     73  O   UNL A   1      43.563  26.340  24.963  1.00  0.00    -0.237 OA
ATOM     74  O   UNL A   1      42.161  28.351  24.607  1.00  0.00    -0.237 OA
ATOM     75  O   UNL A   1      44.089  28.439  26.141  1.00  0.00    -0.744 OA
ENDBRANCH  68  72
ENDBRANCH  51  65
BRANCH  52  76
ATOM     76  C   UNL A   1      39.618  33.369  37.099  1.00  0.00     0.023 A 
ATOM     77  C   UNL A   1      40.490  34.414  37.441  1.00  0.00     0.031 A 
ATOM     78  C   UNL A   1      38.537  33.104  37.958  1.00  0.00     0.131 A 
ATOM     79  C   UNL A   1      40.290  35.132  38.631  1.00  0.00     0.055 A 
ATOM     80  C   UNL A   1      38.315  33.852  39.115  1.00  0.00     0.041 A 
ATOM     81  F   UNL A   1      37.670  32.119  37.673  1.00  0.00    -0.206 F 
ATOM     82  C   UNL A   1      39.201  34.867  39.464  1.00  0.00     0.022 A 
BRANCH  79  83
ATOM     83  S   UNL A   1      41.516  36.380  39.112  1.00  0.00     0.124 S 
ATOM     84  O   UNL A   1      41.491  37.280  37.963  1.00  0.00    -0.237 OA
ATOM     85  O   UNL A   1      40.946  36.903  40.349  1.00  0.00    -0.237 OA
ATOM     86  O   UNL A   1      42.745  35.607  39.273  1.00  0.00    -0.744 OA
ENDBRANCH  79  83
ENDBRANCH  52  76
BRANCH  64  87
ATOM     87  C   UNL A   1      44.258  28.425  35.454  1.00  0.00     0.023 A 
ATOM     88  C   UNL A   1      44.114  27.381  36.385  1.00  0.00     0.031 A 
ATOM     89  C   UNL A   1      45.545  28.947  35.237  1.00  0.00     0.131 A 
ATOM     90  C   UNL A   1      45.231  26.929  37.104  1.00  0.00     0.055 A 
ATOM     91  C   UNL A   1      46.662  28.452  35.911  1.00  0.00     0.041 A 
ATOM     92  F   UNL A   1      45.740  29.946  34.362  1.00  0.00    -0.206 F 
ATOM     93  C   UNL A   1      46.507  27.445  36.861  1.00  0.00     0.022 A 
BRANCH  90  94
ATOM     94  S   UNL A   1      44.981  25.717  38.430  1.00  0.00     0.124 S 
ATOM     95  O   UNL A   1      44.019  24.800  37.825  1.00  0.00    -0.237 OA
ATOM     96  O   UNL A   1      46.325  25.188  38.629  1.00  0.00    -0.237 OA
ATOM     97  O   UNL A   1      44.461  26.520  39.535  1.00  0.00    -0.744 OA
ENDBRANCH  90  94
ENDBRANCH  64  87
ENDBRANCH  38  39
ENDBRANCH  30  33
ENDBRANCH  28  29
ENDBRANCH  27  28
ENDBRANCH  26  27
ENDBRANCH  25  26
ENDBRANCH   1  25
TORSDOF 22
ENDMDL
MODEL 2
REMARK VINA RESULT:     -10.4      2.410      8.469
REMARK SMILES CC(C)N(CCCC(=O)NCCCCCCNC(=O)c1ccc(-c2c3nc(c(-c4cc(S(=O)(=O)[O-])ccc4F)c4ccc([nH]4)c(-c4cc(S(=O)(=O)[O-])ccc4F)c4nc(c(-c5cc(S(=O)(=O)[O-])ccc5F)c5ccc2[nH]5)C=C4)C=C3)cc1)C(=O)N[C@@H]1CCCC1(C)C
REMARK SMILES IDX 12 1 11 2 10 3 8 4 9 5 7 7 6 8 5 9 4 10 2 11 1 12 3 13 83 14
REMARK SMILES IDX 84 15 85 16 86 18 87 19 90 20 88 21 89 22 91 23 92 24 13 25
REMARK SMILES IDX 14 26 15 27 16 28 17 29 18 30 19 32 20 33 21 34 82 35 22 36
REMARK SMILES IDX 81 37 23 38 24 39 25 40 75 41 26 42 80 43 74 44 76 45 27 46
REMARK SMILES IDX 79 47 73 48 72 49 28 51 60 52 40 53 59 54 41 55 44 56 58 57
REMARK SMILES IDX 77 58 42 59 43 60 57 62 78 63 45 64 29 65 30 66 38 67 31 68
REMARK SMILES IDX 37 69 39 70 36 71 32 72 33 73 34 74 35 75 61 76 62 77 70 78
REMARK SMILES IDX 63 79 69 80 71 81 68 82 64 83 65 84 66 85 67 86 46 87 47 88
REMARK SMILES IDX 55 89 48 90 54 91 56 92 53 93 49 94 50 95 51 96 52 97
REMARK H PARENT 10 6 85 17 17 31 76 50 44 61
REMARK Flexibility Score: inf
ROOT
ATOM      1  C   UNL A   1      35.536  31.771  28.536  1.00  0.00     0.021 C 
ENDROOT
BRANCH   1   2
ATOM      2  C   UNL A   1      35.229  30.534  27.634  1.00  0.00     0.116 C 
BRANCH   2   3
ATOM      3  N   UNL A   1      34.013  30.567  26.795  1.00  0.00    -0.356 N 
ATOM      4  C   UNL A   1      32.976  29.702  26.532  1.00  0.00     0.220 C 
ATOM      5  O   UNL A   1      32.007  30.208  25.944  1.00  0.00    -0.275 OA
ATOM      6  H   UNL A   1      33.924  31.415  26.304  1.00  0.00     0.163 HD
BRANCH   4   7
ATOM      7  C   UNL A   1      32.919  28.198  26.888  1.00  0.00     0.102 C 
BRANCH   7   8
ATOM      8  C   UNL A   1      33.138  27.211  25.680  1.00  0.00     0.031 C 
BRANCH   8   9
ATOM      9  C   UNL A   1      32.006  26.889  24.648  1.00  0.00     0.122 C 
BRANCH   9  10
ATOM     10  N   UNL A   1      32.255  27.264  23.274  1.00  0.00    -0.322 N 
BRANCH  10  11
ATOM     11  C   UNL A   1      33.039  26.358  22.348  1.00  0.00     0.080 C 
ATOM     12  C   UNL A   1      33.600  25.038  22.955  1.00  0.00     0.031 C 
ATOM     13  C   UNL A   1      32.271  25.950  21.086  1.00  0.00     0.031 C 
ENDBRANCH  10  11
BRANCH  10  14
ATOM     14  C   UNL A   1      32.092  28.548  22.936  1.00  0.00     0.317 C 
ATOM     15  O   UNL A   1      33.095  29.156  22.571  1.00  0.00    -0.249 OA
ATOM     16  N   UNL A   1      30.986  29.272  23.119  1.00  0.00    -0.335 N 
ATOM     17  H   UNL A   1      31.201  30.187  22.828  1.00  0.00     0.165 HD
BRANCH  16  18
ATOM     18  C   UNL A   1      29.598  29.295  23.564  1.00  0.00     0.089 C 
ATOM     19  C   UNL A   1      28.658  28.177  23.129  1.00  0.00     0.025 C 
ATOM     20  C   UNL A   1      28.906  30.616  23.083  1.00  0.00    -0.015 C 
ATOM     21  C   UNL A   1      27.299  28.841  22.869  1.00  0.00     0.003 C 
ATOM     22  C   UNL A   1      27.434  30.283  23.338  1.00  0.00     0.008 C 
ATOM     23  C   UNL A   1      29.311  31.868  23.876  1.00  0.00     0.013 C 
ATOM     24  C   UNL A   1      29.159  30.890  21.585  1.00  0.00     0.013 C 
ENDBRANCH  16  18
ENDBRANCH  10  14
ENDBRANCH   9  10
ENDBRANCH   8   9
ENDBRANCH   7   8
ENDBRANCH   4   7
ENDBRANCH   2   3
ENDBRANCH   1   2
BRANCH   1  25
ATOM     25  C   UNL A   1      36.092  33.076  27.978  1.00  0.00     0.002 C 
BRANCH  25  26
ATOM     26  C   UNL A   1      35.769  34.312  28.821  1.00  0.00     0.002 C 
BRANCH  26  27
ATOM     27  C   UNL A   1      34.438  35.036  28.533  1.00  0.00     0.021 C 
BRANCH  27  28
ATOM     28  C   UNL A   1      33.207  34.518  29.281  1.00  0.00     0.116 C 
BRANCH  28  29
ATOM     29  N   UNL A   1      32.753  35.472  30.282  1.00  0.00    -0.352 N 
ATOM     30  C   UNL A   1      33.068  35.523  31.623  1.00  0.00     0.251 C 
ATOM     31  H   UNL A   1      32.141  36.172  29.959  1.00  0.00     0.163 HD
ATOM     32  O   UNL A   1      32.392  36.188  32.394  1.00  0.00    -0.269 OA
BRANCH  30  33
ATOM     33  C   UNL A   1      34.234  34.760  32.113  1.00  0.00     0.039 A 
ATOM     34  C   UNL A   1      34.070  33.443  32.547  1.00  0.00     0.014 A 
ATOM     35  C   UNL A   1      35.497  35.360  32.130  1.00  0.00     0.014 A 
ATOM     36  C   UNL A   1      35.189  32.704  32.945  1.00  0.00     0.010 A 
ATOM     37  C   UNL A   1      36.615  34.604  32.470  1.00  0.00     0.010 A 
ATOM     38  C   UNL A   1      36.473  33.270  32.884  1.00  0.00    -0.014 A 
BRANCH  38  39
ATOM     39  C   UNL A   1      37.681  32.491  33.267  1.00  0.00     0.031 A 
ATOM     40  C   UNL A   1      38.430  32.841  34.524  1.00  0.00     0.074 A 
ATOM     41  C   UNL A   1      38.140  31.521  32.451  1.00  0.00     0.049 A 
ATOM     42  N   UNL A   1      39.540  32.337  34.997  1.00  0.00    -0.248 NA
ATOM     43  C   UNL A   1      37.869  33.931  35.335  1.00  0.00     0.031 C 
ATOM     44  C   UNL A   1      37.525  31.126  31.182  1.00  0.00     0.029 A 
ATOM     45  N   UNL A   1      39.233  30.699  32.559  1.00  0.00    -0.354 N 
ATOM     46  C   UNL A   1      39.820  33.059  36.153  1.00  0.00     0.074 A 
ATOM     47  C   UNL A   1      38.799  34.078  36.266  1.00  0.00     0.031 C 
ATOM     48  C   UNL A   1      38.236  30.121  30.643  1.00  0.00     0.029 A 
ATOM     49  C   UNL A   1      39.377  29.826  31.505  1.00  0.00     0.049 A 
ATOM     50  H   UNL A   1      39.856  30.730  33.321  1.00  0.00     0.167 HD
ATOM     51  C   UNL A   1      40.820  32.870  37.052  1.00  0.00     0.034 A 
ATOM     52  C   UNL A   1      40.324  28.899  31.261  1.00  0.00     0.034 A 
ATOM     53  C   UNL A   1      41.822  31.840  36.925  1.00  0.00     0.049 A 
ATOM     54  C   UNL A   1      41.435  28.713  32.263  1.00  0.00     0.074 A 
ATOM     55  C   UNL A   1      42.845  31.516  37.798  1.00  0.00     0.029 A 
ATOM     56  N   UNL A   1      41.932  30.969  35.847  1.00  0.00    -0.354 N 
ATOM     57  N   UNL A   1      41.654  29.363  33.383  1.00  0.00    -0.248 NA
ATOM     58  C   UNL A   1      42.417  27.662  31.974  1.00  0.00     0.031 C 
ATOM     59  C   UNL A   1      43.611  30.497  37.220  1.00  0.00     0.029 A 
ATOM     60  C   UNL A   1      43.024  30.131  36.019  1.00  0.00     0.049 A 
ATOM     61  H   UNL A   1      41.324  30.949  35.073  1.00  0.00     0.167 HD
ATOM     62  C   UNL A   1      42.783  28.777  33.948  1.00  0.00     0.074 A 
ATOM     63  C   UNL A   1      43.189  27.715  33.050  1.00  0.00     0.031 C 
ATOM     64  C   UNL A   1      43.424  29.084  35.106  1.00  0.00     0.034 A 
BRANCH  51  65
ATOM     65  C   UNL A   1      40.881  33.821  38.226  1.00  0.00     0.023 A 
ATOM     66  C   UNL A   1      41.765  34.915  38.245  1.00  0.00     0.031 A 
ATOM     67  C   UNL A   1      40.087  33.603  39.366  1.00  0.00     0.131 A 
ATOM     68  C   UNL A   1      41.907  35.685  39.409  1.00  0.00     0.055 A 
ATOM     69  C   UNL A   1      40.166  34.431  40.489  1.00  0.00     0.041 A 
ATOM     70  F   UNL A   1      39.236  32.567  39.420  1.00  0.00    -0.206 F 
ATOM     71  C   UNL A   1      41.095  35.466  40.523  1.00  0.00     0.022 A 
BRANCH  68  72
ATOM     72  S   UNL A   1      43.287  36.859  39.505  1.00  0.00     0.124 S 
ATOM     73  O   UNL A   1      42.951  37.796  38.434  1.00  0.00    -0.237 OA
ATOM     74  O   UNL A   1      43.169  37.372  40.865  1.00  0.00    -0.237 OA
ATOM     75  O   UNL A   1      44.462  36.029  39.251  1.00  0.00    -0.744 OA
ENDBRANCH  68  72
ENDBRANCH  51  65
BRANCH  52  76
ATOM     76  C   UNL A   1      40.265  28.070  30.022  1.00  0.00     0.023 A 
ATOM     77  C   UNL A   1      41.105  28.342  28.931  1.00  0.00     0.031 A 
ATOM     78  C   UNL A   1      39.349  27.010  29.900  1.00  0.00     0.131 A 
ATOM     79  C   UNL A   1      40.988  27.591  27.752  1.00  0.00     0.055 A 
ATOM     80  C   UNL A   1      39.270  26.234  28.743  1.00  0.00     0.041 A 
ATOM     81  F   UNL A   1      38.527  26.704  30.917  1.00  0.00    -0.206 F 
ATOM     82  C   UNL A   1      40.085  26.530  27.654  1.00  0.00     0.022 A 
BRANCH  79  83
ATOM     83  S   UNL A   1      41.990  28.062  26.315  1.00  0.00     0.124 S 
ATOM     84  O   UNL A   1      41.385  29.334  25.934  1.00  0.00    -0.237 OA
ATOM     85  O   UNL A   1      43.329  28.135  26.890  1.00  0.00    -0.237 OA
ATOM     86  O   UNL A   1      41.778  26.964  25.375  1.00  0.00    -0.744 OA
ENDBRANCH  79  83
ENDBRANCH  52  76
BRANCH  64  87
ATOM     87  C   UNL A   1      44.607  28.226  35.481  1.00  0.00     0.023 A 
ATOM     88  C   UNL A   1      44.452  27.005  36.161  1.00  0.00     0.031 A 
ATOM     89  C   UNL A   1      45.911  28.645  35.159  1.00  0.00     0.131 A 
ATOM     90  C   UNL A   1      45.585  26.272  36.545  1.00  0.00     0.055 A 
ATOM     91  C   UNL A   1      47.030  27.880  35.490  1.00  0.00     0.041 A 
ATOM     92  F   UNL A   1      46.118  29.802  34.513  1.00  0.00    -0.206 F 
ATOM     93  C   UNL A   1      46.872  26.693  36.199  1.00  0.00     0.022 A 
BRANCH  90  94
ATOM     94  S   UNL A   1      45.359  24.803  37.585  1.00  0.00     0.124 S 
ATOM     95  O   UNL A   1      44.672  25.357  38.747  1.00  0.00    -0.237 OA
ATOM     96  O   UNL A   1      44.561  23.933  36.728  1.00  0.00    -0.237 OA
ATOM     97  O   UNL A   1      46.724  24.345  37.832  1.00  0.00    -0.744 OA
ENDBRANCH  90  94
ENDBRANCH  64  87
ENDBRANCH  38  39
ENDBRANCH  30  33
ENDBRANCH  28  29
ENDBRANCH  27  28
ENDBRANCH  26  27
ENDBRANCH  25  26
ENDBRANCH   1  25
TORSDOF 22
ENDMDL
MODEL 3
REMARK VINA RESULT:     -10.3      1.984      7.909
REMARK SMILES CC(C)N(CCCC(=O)NCCCCCCNC(=O)c1ccc(-c2c3nc(c(-c4cc(S(=O)(=O)[O-])ccc4F)c4ccc([nH]4)c(-c4cc(S(=O)(=O)[O-])ccc4F)c4nc(c(-c5cc(S(=O)(=O)[O-])ccc5F)c5ccc2[nH]5)C=C4)C=C3)cc1)C(=O)N[C@@H]1CCCC1(C)C
REMARK SMILES IDX 12 1 11 2 10 3 8 4 9 5 7 7 6 8 5 9 4 10 2 11 1 12 3 13 83 14
REMARK SMILES IDX 84 15 85 16 86 18 87 19 90 20 88 21 89 22 91 23 92 24 13 25
REMARK SMILES IDX 14 26 15 27 16 28 17 29 18 30 19 32 20 33 21 34 82 35 22 36
REMARK SMILES IDX 81 37 23 38 24 39 25 40 75 41 26 42 80 43 74 44 76 45 27 46
REMARK SMILES IDX 79 47 73 48 72 49 28 51 60 52 40 53 59 54 41 55 44 56 58 57
REMARK SMILES IDX 77 58 42 59 43 60 57 62 78 63 45 64 29 65 30 66 38 67 31 68
REMARK SMILES IDX 37 69 39 70 36 71 32 72 33 73 34 74 35 75 61 76 62 77 70 78
REMARK SMILES IDX 63 79 69 80 71 81 68 82 64 83 65 84 66 85 67 86 46 87 47 88
REMARK SMILES IDX 55 89 48 90 54 91 56 92 53 93 49 94 50 95 51 96 52 97
REMARK H PARENT 10 6 85 17 17 31 76 50 44 61
REMARK Flexibility Score: inf
ROOT
ATOM      1  C   UNL A   1      34.986  31.690  28.517  1.00  0.00     0.021 C 
ENDROOT
BRANCH   1   2
ATOM      2  C   UNL A   1      34.847  30.325  27.771  1.00  0.00     0.116 C 
BRANCH   2   3
ATOM      3  N   UNL A   1      33.967  30.265  26.585  1.00  0.00    -0.356 N 
ATOM      4  C   UNL A   1      32.691  29.818  26.328  1.00  0.00     0.220 C 
ATOM      5  O   UNL A   1      32.221  30.172  25.235  1.00  0.00    -0.275 OA
ATOM      6  H   UNL A   1      34.400  30.636  25.783  1.00  0.00     0.163 HD
BRANCH   4   7
ATOM      7  C   UNL A   1      31.823  28.932  27.252  1.00  0.00     0.102 C 
BRANCH   7   8
ATOM      8  C   UNL A   1      31.999  27.378  27.055  1.00  0.00     0.031 C 
BRANCH   8   9
ATOM      9  C   UNL A   1      31.225  26.583  25.951  1.00  0.00     0.122 C 
BRANCH   9  10
ATOM     10  N   UNL A   1      31.897  26.411  24.683  1.00  0.00    -0.322 N 
BRANCH  10  11
ATOM     11  C   UNL A   1      31.124  26.041  23.435  1.00  0.00     0.080 C 
ATOM     12  C   UNL A   1      31.912  26.021  22.092  1.00  0.00     0.031 C 
ATOM     13  C   UNL A   1      30.413  24.686  23.527  1.00  0.00     0.031 C 
ENDBRANCH  10  11
BRANCH  10  14
ATOM     14  C   UNL A   1      33.223  26.241  24.696  1.00  0.00     0.317 C 
ATOM     15  O   UNL A   1      33.908  27.196  24.337  1.00  0.00    -0.249 OA
ATOM     16  N   UNL A   1      33.863  25.086  24.895  1.00  0.00    -0.335 N 
ATOM     17  H   UNL A   1      34.822  25.276  24.781  1.00  0.00     0.165 HD
BRANCH  16  18
ATOM     18  C   UNL A   1      33.757  23.667  25.207  1.00  0.00     0.089 C 
ATOM     19  C   UNL A   1      34.452  23.123  26.449  1.00  0.00     0.025 C 
ATOM     20  C   UNL A   1      34.324  22.816  24.020  1.00  0.00    -0.015 C 
ATOM     21  C   UNL A   1      34.993  21.740  26.063  1.00  0.00     0.003 C 
ATOM     22  C   UNL A   1      34.438  21.439  24.678  1.00  0.00     0.008 C 
ATOM     23  C   UNL A   1      33.401  22.742  22.795  1.00  0.00     0.013 C 
ATOM     24  C   UNL A   1      35.707  23.321  23.554  1.00  0.00     0.013 C 
ENDBRANCH  16  18
ENDBRANCH  10  14
ENDBRANCH   9  10
ENDBRANCH   8   9
ENDBRANCH   7   8
ENDBRANCH   4   7
ENDBRANCH   2   3
ENDBRANCH   1   2
BRANCH   1  25
ATOM     25  C   UNL A   1      35.512  32.947  27.834  1.00  0.00     0.002 C 
BRANCH  25  26
ATOM     26  C   UNL A   1      35.522  34.192  28.725  1.00  0.00     0.002 C 
BRANCH  26  27
ATOM     27  C   UNL A   1      34.342  35.174  28.580  1.00  0.00     0.021 C 
BRANCH  27  28
ATOM     28  C   UNL A   1      32.997  34.707  29.140  1.00  0.00     0.116 C 
BRANCH  28  29
ATOM     29  N   UNL A   1      32.588  35.512  30.282  1.00  0.00    -0.352 N 
ATOM     30  C   UNL A   1      33.012  35.422  31.591  1.00  0.00     0.251 C 
ATOM     31  H   UNL A   1      31.923  36.214  30.095  1.00  0.00     0.163 HD
ATOM     32  O   UNL A   1      32.375  35.956  32.487  1.00  0.00    -0.269 OA
BRANCH  30  33
ATOM     33  C   UNL A   1      34.245  34.667  31.892  1.00  0.00     0.039 A 
ATOM     34  C   UNL A   1      35.464  35.340  31.997  1.00  0.00     0.014 A 
ATOM     35  C   UNL A   1      34.181  33.282  32.080  1.00  0.00     0.014 A 
ATOM     36  C   UNL A   1      36.615  34.629  32.351  1.00  0.00     0.010 A 
ATOM     37  C   UNL A   1      35.316  32.588  32.488  1.00  0.00     0.010 A 
ATOM     38  C   UNL A   1      36.545  33.252  32.625  1.00  0.00    -0.014 A 
BRANCH  38  39
ATOM     39  C   UNL A   1      37.749  32.484  33.039  1.00  0.00     0.031 A 
ATOM     40  C   UNL A   1      38.406  32.776  34.361  1.00  0.00     0.074 A 
ATOM     41  C   UNL A   1      38.289  31.579  32.198  1.00  0.00     0.049 A 
ATOM     42  N   UNL A   1      39.499  32.274  34.875  1.00  0.00    -0.248 NA
ATOM     43  C   UNL A   1      37.761  33.798  35.198  1.00  0.00     0.031 C 
ATOM     44  C   UNL A   1      37.770  31.247  30.870  1.00  0.00     0.029 A 
ATOM     45  N   UNL A   1      39.399  30.783  32.328  1.00  0.00    -0.354 N 
ATOM     46  C   UNL A   1      39.683  32.930  36.088  1.00  0.00     0.074 A 
ATOM     47  C   UNL A   1      38.624  33.913  36.194  1.00  0.00     0.031 C 
ATOM     48  C   UNL A   1      38.544  30.297  30.320  1.00  0.00     0.029 A 
ATOM     49  C   UNL A   1      39.636  29.981  31.235  1.00  0.00     0.049 A 
ATOM     50  H   UNL A   1      39.971  30.783  33.130  1.00  0.00     0.167 HD
ATOM     51  C   UNL A   1      40.628  32.714  37.037  1.00  0.00     0.034 A 
ATOM     52  C   UNL A   1      40.626  29.096  30.998  1.00  0.00     0.034 A 
ATOM     53  C   UNL A   1      41.668  31.722  36.913  1.00  0.00     0.049 A 
ATOM     54  C   UNL A   1      41.676  28.880  32.057  1.00  0.00     0.074 A 
ATOM     55  C   UNL A   1      42.644  31.373  37.831  1.00  0.00     0.029 A 
ATOM     56  N   UNL A   1      41.874  30.922  35.795  1.00  0.00    -0.354 N 
ATOM     57  N   UNL A   1      41.803  29.465  33.227  1.00  0.00    -0.248 NA
ATOM     58  C   UNL A   1      42.708  27.876  31.771  1.00  0.00     0.031 C 
ATOM     59  C   UNL A   1      43.477  30.413  37.244  1.00  0.00     0.029 A 
ATOM     60  C   UNL A   1      42.978  30.105  35.988  1.00  0.00     0.049 A 
ATOM     61  H   UNL A   1      41.317  30.934  34.983  1.00  0.00     0.167 HD
ATOM     62  C   UNL A   1      42.912  28.877  33.828  1.00  0.00     0.074 A 
ATOM     63  C   UNL A   1      43.408  27.883  32.896  1.00  0.00     0.031 C 
ATOM     64  C   UNL A   1      43.468  29.128  35.041  1.00  0.00     0.034 A 
BRANCH  51  65
ATOM     65  C   UNL A   1      40.585  33.591  38.267  1.00  0.00     0.023 A 
ATOM     66  C   UNL A   1      39.677  33.351  39.314  1.00  0.00     0.031 A 
ATOM     67  C   UNL A   1      41.424  34.715  38.375  1.00  0.00     0.131 A 
ATOM     68  C   UNL A   1      39.557  34.270  40.367  1.00  0.00     0.055 A 
ATOM     69  C   UNL A   1      41.365  35.577  39.474  1.00  0.00     0.041 A 
ATOM     70  F   UNL A   1      42.300  35.012  37.403  1.00  0.00    -0.206 F 
ATOM     71  C   UNL A   1      40.413  35.369  40.467  1.00  0.00     0.022 A 
BRANCH  68  72
ATOM     72  S   UNL A   1      38.154  34.103  41.506  1.00  0.00     0.124 S 
ATOM     73  O   UNL A   1      38.748  33.322  42.589  1.00  0.00    -0.237 OA
ATOM     74  O   UNL A   1      37.835  35.490  41.817  1.00  0.00    -0.237 OA
ATOM     75  O   UNL A   1      37.153  33.394  40.713  1.00  0.00    -0.744 OA
ENDBRANCH  68  72
ENDBRANCH  51  65
BRANCH  52  76
ATOM     76  C   UNL A   1      40.672  28.345  29.711  1.00  0.00     0.023 A 
ATOM     77  C   UNL A   1      41.620  28.660  28.724  1.00  0.00     0.031 A 
ATOM     78  C   UNL A   1      39.751  27.318  29.436  1.00  0.00     0.131 A 
ATOM     79  C   UNL A   1      41.603  27.983  27.495  1.00  0.00     0.055 A 
ATOM     80  C   UNL A   1      39.769  26.614  28.230  1.00  0.00     0.041 A 
ATOM     81  F   UNL A   1      38.828  26.973  30.347  1.00  0.00    -0.206 F 
ATOM     82  C   UNL A   1      40.693  26.954  27.245  1.00  0.00     0.022 A 
BRANCH  79  83
ATOM     83  S   UNL A   1      42.750  28.513  26.193  1.00  0.00     0.124 S 
ATOM     84  O   UNL A   1      43.820  27.528  26.321  1.00  0.00    -0.237 OA
ATOM     85  O   UNL A   1      41.921  28.408  24.998  1.00  0.00    -0.237 OA
ATOM     86  O   UNL A   1      43.106  29.875  26.584  1.00  0.00    -0.744 OA
ENDBRANCH  79  83
ENDBRANCH  52  76
BRANCH  64  87
ATOM     87  C   UNL A   1      44.652  28.282  35.440  1.00  0.00     0.023 A 
ATOM     88  C   UNL A   1      44.492  27.036  36.071  1.00  0.00     0.031 A 
ATOM     89  C   UNL A   1      45.959  28.737  35.192  1.00  0.00     0.131 A 
ATOM     90  C   UNL A   1      45.622  26.312  36.482  1.00  0.00     0.055 A 
ATOM     91  C   UNL A   1      47.079  27.984  35.547  1.00  0.00     0.041 A 
ATOM     92  F   UNL A   1      46.170  29.920  34.595  1.00  0.00    -0.206 F 
ATOM     93  C   UNL A   1      46.914  26.770  36.208  1.00  0.00     0.022 A 
BRANCH  90  94
ATOM     94  S   UNL A   1      45.382  24.804  37.460  1.00  0.00     0.124 S 
ATOM     95  O   UNL A   1      44.559  23.992  36.570  1.00  0.00    -0.237 OA
ATOM     96  O   UNL A   1      46.750  24.340  37.662  1.00  0.00    -0.237 OA
ATOM     97  O   UNL A   1      44.706  25.281  38.665  1.00  0.00    -0.744 OA
ENDBRANCH  90  94
ENDBRANCH  64  87
ENDBRANCH  38  39
ENDBRANCH  30  33
ENDBRANCH  28  29
ENDBRANCH  27  28
ENDBRANCH  26  27
ENDBRANCH  25  26
ENDBRANCH   1  25
TORSDOF 22
ENDMDL
