MODEL 1
REMARK VINA RESULT:     -10.4      0.000      0.000
REMARK SMILES CC[C@H](NC(=O)N1CCO[C@@H](CC(=O)NCCCCCCNC(=O)c2ccc(-c3c4nc(c(-c5cc(S(=O)(=O)[O-])ccc5F)c5ccc([nH]5)c(-c5cc(S(=O)(=O)[O-])ccc5F)c5nc(c(-c6cc(S(=O)(=O)[O-])ccc6F)c6ccc3[nH]6)C=C5)C=C4)cc2)C1)c1cccs1
REMARK SMILES IDX 18 1 17 2 16 3 15 4 13 5 14 6 12 8 11 9 7 10 8 11 88 12 9 13
REMARK SMILES IDX 10 14 5 15 4 16 6 18 3 19 2 20 1 21 89 22 90 23 93 24 91 25
REMARK SMILES IDX 92 26 19 27 20 28 21 29 22 30 23 31 24 33 25 34 26 35 87 36
REMARK SMILES IDX 27 37 86 38 28 39 29 40 30 41 80 42 31 43 85 44 79 45 81 46
REMARK SMILES IDX 32 47 84 48 78 49 77 50 33 52 65 53 45 54 64 55 46 56 49 57
REMARK SMILES IDX 63 58 82 59 47 60 48 61 62 63 83 64 50 65 34 66 35 67 43 68
REMARK SMILES IDX 36 69 42 70 44 71 41 72 37 73 38 74 39 75 40 76 66 77 67 78
REMARK SMILES IDX 75 79 68 80 74 81 76 82 73 83 69 84 70 85 71 86 72 87 51 88
REMARK SMILES IDX 52 89 60 90 53 91 59 92 61 93 58 94 54 95 55 96 56 97 57 98
REMARK H PARENT 15 7 4 17 22 32 81 51 49 62
REMARK Flexibility Score: inf
ROOT
ATOM      1  C   UNL A   1      34.833  31.591  28.482  1.00  0.00     0.002 C 
ENDROOT
BRANCH   1   2
ATOM      2  C   UNL A   1      34.938  30.336  27.617  1.00  0.00     0.021 C 
BRANCH   2   3
ATOM      3  C   UNL A   1      33.655  29.959  26.869  1.00  0.00     0.116 C 
BRANCH   3   4
ATOM      4  N   UNL A   1      33.960  29.448  25.539  1.00  0.00    -0.356 N 
ATOM      5  C   UNL A   1      33.723  28.227  24.977  1.00  0.00     0.222 C 
ATOM      6  O   UNL A   1      34.198  27.992  23.863  1.00  0.00    -0.275 OA
ATOM      7  H   UNL A   1      34.412  30.091  24.946  1.00  0.00     0.163 HD
BRANCH   5   8
ATOM      8  C   UNL A   1      32.913  27.179  25.706  1.00  0.00     0.133 C 
BRANCH   8   9
ATOM      9  C   UNL A   1      32.590  25.968  24.826  1.00  0.00     0.147 C 
ATOM     10  N   UNL A   1      31.364  23.753  24.906  1.00  0.00    -0.320 N 
ATOM     11  C   UNL A   1      30.563  24.226  23.775  1.00  0.00     0.150 C 
ATOM     12  C   UNL A   1      31.983  24.835  25.660  1.00  0.00     0.154 C 
ATOM     13  C   UNL A   1      31.282  25.314  22.974  1.00  0.00     0.182 C 
ATOM     14  O   UNL A   1      31.664  26.408  23.814  1.00  0.00    -0.374 OA
BRANCH  10  15
ATOM     15  C   UNL A   1      31.138  22.615  25.638  1.00  0.00     0.318 C 
ATOM     16  N   UNL A   1      31.737  21.447  25.375  1.00  0.00    -0.330 N 
ATOM     17  H   UNL A   1      31.351  20.697  25.884  1.00  0.00     0.166 HD
ATOM     18  O   UNL A   1      30.374  22.604  26.609  1.00  0.00    -0.249 OA
BRANCH  16  19
ATOM     19  C   UNL A   1      32.827  21.039  24.508  1.00  0.00     0.124 C 
BRANCH  19  20
ATOM     20  C   UNL A   1      34.180  21.404  25.144  1.00  0.00     0.027 C 
ATOM     21  C   UNL A   1      35.038  22.279  24.231  1.00  0.00     0.006 C 
ENDBRANCH  19  20
BRANCH  19  22
ATOM     22  C   UNL A   1      32.694  19.549  24.264  1.00  0.00     0.027 A 
ATOM     23  C   UNL A   1      32.533  18.869  23.067  1.00  0.00     0.017 A 
ATOM     24  S   UNL A   1      32.857  18.448  25.575  1.00  0.00    -0.147 S 
ATOM     25  C   UNL A   1      32.623  17.457  23.219  1.00  0.00     0.012 A 
ATOM     26  C   UNL A   1      32.800  17.093  24.533  1.00  0.00     0.065 A 
ENDBRANCH  19  22
ENDBRANCH  16  19
ENDBRANCH  10  15
ENDBRANCH   8   9
ENDBRANCH   5   8
ENDBRANCH   3   4
ENDBRANCH   2   3
ENDBRANCH   1   2
BRANCH   1  27
ATOM     27  C   UNL A   1      35.473  32.845  27.884  1.00  0.00     0.002 C 
BRANCH  27  28
ATOM     28  C   UNL A   1      34.604  34.108  27.896  1.00  0.00     0.021 C 
BRANCH  28  29
ATOM     29  C   UNL A   1      33.214  33.946  28.512  1.00  0.00     0.116 C 
BRANCH  29  30
ATOM     30  N   UNL A   1      32.959  34.932  29.550  1.00  0.00    -0.352 N 
ATOM     31  C   UNL A   1      33.488  35.044  30.812  1.00  0.00     0.251 C 
ATOM     32  H   UNL A   1      32.306  35.628  29.310  1.00  0.00     0.163 HD
ATOM     33  O   UNL A   1      32.971  35.813  31.618  1.00  0.00    -0.269 OA
BRANCH  31  34
ATOM     34  C   UNL A   1      34.662  34.233  31.211  1.00  0.00     0.039 A 
ATOM     35  C   UNL A   1      35.944  34.727  30.951  1.00  0.00     0.014 A 
ATOM     36  C   UNL A   1      34.505  32.973  31.793  1.00  0.00     0.014 A 
ATOM     37  C   UNL A   1      37.067  33.986  31.331  1.00  0.00     0.010 A 
ATOM     38  C   UNL A   1      35.626  32.261  32.226  1.00  0.00     0.010 A 
ATOM     39  C   UNL A   1      36.918  32.760  31.999  1.00  0.00    -0.014 A 
BRANCH  39  40
ATOM     40  C   UNL A   1      38.100  31.979  32.453  1.00  0.00     0.031 A 
ATOM     41  C   UNL A   1      38.735  32.279  33.786  1.00  0.00     0.074 A 
ATOM     42  C   UNL A   1      38.631  31.036  31.650  1.00  0.00     0.049 A 
ATOM     43  N   UNL A   1      39.822  31.781  34.316  1.00  0.00    -0.248 NA
ATOM     44  C   UNL A   1      38.067  33.291  34.618  1.00  0.00     0.031 C 
ATOM     45  C   UNL A   1      38.117  30.664  30.329  1.00  0.00     0.029 A 
ATOM     46  N   UNL A   1      39.724  30.222  31.819  1.00  0.00    -0.354 N 
ATOM     47  C   UNL A   1      39.973  32.420  35.544  1.00  0.00     0.074 A 
ATOM     48  C   UNL A   1      38.897  33.383  35.648  1.00  0.00     0.031 C 
ATOM     49  C   UNL A   1      38.882  29.686  29.819  1.00  0.00     0.029 A 
ATOM     50  C   UNL A   1      39.968  29.390  30.750  1.00  0.00     0.049 A 
ATOM     51  H   UNL A   1      40.282  30.234  32.629  1.00  0.00     0.167 HD
ATOM     52  C   UNL A   1      40.907  32.206  36.505  1.00  0.00     0.034 A 
ATOM     53  C   UNL A   1      40.959  28.501  30.538  1.00  0.00     0.034 A 
ATOM     54  C   UNL A   1      41.970  31.238  36.393  1.00  0.00     0.049 A 
ATOM     55  C   UNL A   1      42.011  28.316  31.605  1.00  0.00     0.074 A 
ATOM     56  C   UNL A   1      42.960  30.932  37.312  1.00  0.00     0.029 A 
ATOM     57  N   UNL A   1      42.182  30.413  35.296  1.00  0.00    -0.354 N 
ATOM     58  N   UNL A   1      42.127  28.917  32.766  1.00  0.00    -0.248 NA
ATOM     59  C   UNL A   1      43.060  27.323  31.335  1.00  0.00     0.031 C 
ATOM     60  C   UNL A   1      43.799  29.962  36.751  1.00  0.00     0.029 A 
ATOM     61  C   UNL A   1      43.294  29.613  35.510  1.00  0.00     0.049 A 
ATOM     62  H   UNL A   1      41.624  30.398  34.485  1.00  0.00     0.167 HD
ATOM     63  C   UNL A   1      43.237  28.343  33.380  1.00  0.00     0.074 A 
ATOM     64  C   UNL A   1      43.747  27.342  32.467  1.00  0.00     0.031 C 
ATOM     65  C   UNL A   1      43.786  28.615  34.590  1.00  0.00     0.034 A 
BRANCH  52  66
ATOM     66  C   UNL A   1      40.823  33.050  37.753  1.00  0.00     0.023 A 
ATOM     67  C   UNL A   1      40.070  32.639  38.867  1.00  0.00     0.031 A 
ATOM     68  C   UNL A   1      41.492  34.284  37.829  1.00  0.00     0.131 A 
ATOM     69  C   UNL A   1      39.950  33.482  39.981  1.00  0.00     0.055 A 
ATOM     70  C   UNL A   1      41.432  35.084  38.973  1.00  0.00     0.041 A 
ATOM     71  F   UNL A   1      42.211  34.738  36.791  1.00  0.00    -0.206 F 
ATOM     72  C   UNL A   1      40.647  34.689  40.053  1.00  0.00     0.022 A 
BRANCH  69  73
ATOM     73  S   UNL A   1      38.776  33.031  41.287  1.00  0.00     0.124 S 
ATOM     74  O   UNL A   1      38.561  31.612  41.011  1.00  0.00    -0.237 OA
ATOM     75  O   UNL A   1      39.520  33.339  42.502  1.00  0.00    -0.237 OA
ATOM     76  O   UNL A   1      37.625  33.892  41.024  1.00  0.00    -0.744 OA
ENDBRANCH  69  73
ENDBRANCH  52  66
BRANCH  53  77
ATOM     77  C   UNL A   1      41.030  27.722  29.268  1.00  0.00     0.023 A 
ATOM     78  C   UNL A   1      42.024  27.993  28.313  1.00  0.00     0.031 A 
ATOM     79  C   UNL A   1      40.063  26.752  28.953  1.00  0.00     0.131 A 
ATOM     80  C   UNL A   1      41.990  27.352  27.066  1.00  0.00     0.055 A 
ATOM     81  C   UNL A   1      40.070  26.072  27.733  1.00  0.00     0.041 A 
ATOM     82  F   UNL A   1      39.091  26.451  29.830  1.00  0.00    -0.206 F 
ATOM     83  C   UNL A   1      41.027  26.385  26.773  1.00  0.00     0.022 A 
BRANCH  80  84
ATOM     84  S   UNL A   1      43.154  27.893  25.783  1.00  0.00     0.124 S 
ATOM     85  O   UNL A   1      44.181  26.859  25.858  1.00  0.00    -0.237 OA
ATOM     86  O   UNL A   1      42.313  27.877  24.590  1.00  0.00    -0.237 OA
ATOM     87  O   UNL A   1      43.567  29.218  26.236  1.00  0.00    -0.744 OA
ENDBRANCH  80  84
ENDBRANCH  53  77
BRANCH  65  88
ATOM     88  C   UNL A   1      44.961  27.770  35.015  1.00  0.00     0.023 A 
ATOM     89  C   UNL A   1      44.790  26.533  35.659  1.00  0.00     0.031 A 
ATOM     90  C   UNL A   1      46.273  28.222  34.786  1.00  0.00     0.131 A 
ATOM     91  C   UNL A   1      45.910  25.816  36.104  1.00  0.00     0.055 A 
ATOM     92  C   UNL A   1      47.386  27.478  35.180  1.00  0.00     0.041 A 
ATOM     93  F   UNL A   1      46.494  29.397  34.174  1.00  0.00    -0.206 F 
ATOM     94  C   UNL A   1      47.207  26.273  35.855  1.00  0.00     0.022 A 
BRANCH  91  95
ATOM     95  S   UNL A   1      45.650  24.315  37.088  1.00  0.00     0.124 S 
ATOM     96  O   UNL A   1      44.607  23.631  36.330  1.00  0.00    -0.237 OA
ATOM     97  O   UNL A   1      46.970  23.692  37.061  1.00  0.00    -0.237 OA
ATOM     98  O   UNL A   1      45.235  24.827  38.392  1.00  0.00    -0.744 OA
ENDBRANCH  91  95
ENDBRANCH  65  88
ENDBRANCH  39  40
ENDBRANCH  31  34
ENDBRANCH  29  30
ENDBRANCH  28  29
ENDBRANCH  27  28
ENDBRANCH   1  27
TORSDOF 21
ENDMDL
MODEL 2
REMARK VINA RESULT:     -10.4      0.614      7.582
REMARK SMILES CC[C@H](NC(=O)N1CCO[C@@H](CC(=O)NCCCCCCNC(=O)c2ccc(-c3c4nc(c(-c5cc(S(=O)(=O)[O-])ccc5F)c5ccc([nH]5)c(-c5cc(S(=O)(=O)[O-])ccc5F)c5nc(c(-c6cc(S(=O)(=O)[O-])ccc6F)c6ccc3[nH]6)C=C5)C=C4)cc2)C1)c1cccs1
REMARK SMILES IDX 18 1 17 2 16 3 15 4 13 5 14 6 12 8 11 9 7 10 8 11 88 12 9 13
REMARK SMILES IDX 10 14 5 15 4 16 6 18 3 19 2 20 1 21 89 22 90 23 93 24 91 25
REMARK SMILES IDX 92 26 19 27 20 28 21 29 22 30 23 31 24 33 25 34 26 35 87 36
REMARK SMILES IDX 27 37 86 38 28 39 29 40 30 41 80 42 31 43 85 44 79 45 81 46
REMARK SMILES IDX 32 47 84 48 78 49 77 50 33 52 65 53 45 54 64 55 46 56 49 57
REMARK SMILES IDX 63 58 82 59 47 60 48 61 62 63 83 64 50 65 34 66 35 67 43 68
REMARK SMILES IDX 36 69 42 70 44 71 41 72 37 73 38 74 39 75 40 76 66 77 67 78
REMARK SMILES IDX 75 79 68 80 74 81 76 82 73 83 69 84 70 85 71 86 72 87 51 88
REMARK SMILES IDX 52 89 60 90 53 91 59 92 61 93 58 94 54 95 55 96 56 97 57 98
REMARK H PARENT 15 7 4 17 22 32 81 51 49 62
REMARK Flexibility Score: inf
ROOT
ATOM      1  C   UNL A   1      35.244  31.775  28.506  1.00  0.00     0.002 C 
ENDROOT
BRANCH   1   2
ATOM      2  C   UNL A   1      35.422  30.511  27.667  1.00  0.00     0.021 C 
BRANCH   2   3
ATOM      3  C   UNL A   1      34.122  29.784  27.311  1.00  0.00     0.116 C 
BRANCH   3   4
ATOM      4  N   UNL A   1      33.943  29.716  25.866  1.00  0.00    -0.356 N 
ATOM      5  C   UNL A   1      33.160  28.899  25.102  1.00  0.00     0.222 C 
ATOM      6  O   UNL A   1      33.281  28.950  23.876  1.00  0.00    -0.275 OA
ATOM      7  H   UNL A   1      34.476  30.367  25.355  1.00  0.00     0.163 HD
BRANCH   5   8
ATOM      8  C   UNL A   1      32.178  27.943  25.740  1.00  0.00     0.133 C 
BRANCH   8   9
ATOM      9  C   UNL A   1      32.168  26.571  25.062  1.00  0.00     0.147 C 
ATOM     10  N   UNL A   1      31.333  24.206  25.423  1.00  0.00    -0.320 N 
ATOM     11  C   UNL A   1      30.599  24.339  24.163  1.00  0.00     0.150 C 
ATOM     12  C   UNL A   1      31.669  25.489  26.026  1.00  0.00     0.154 C 
ATOM     13  C   UNL A   1      31.210  25.402  23.248  1.00  0.00     0.182 C 
ATOM     14  O   UNL A   1      31.302  26.666  23.914  1.00  0.00    -0.374 OA
BRANCH  10  15
ATOM     15  C   UNL A   1      31.220  23.175  26.321  1.00  0.00     0.318 C 
ATOM     16  N   UNL A   1      31.947  22.053  26.241  1.00  0.00    -0.330 N 
ATOM     17  H   UNL A   1      31.638  21.352  26.858  1.00  0.00     0.166 HD
ATOM     18  O   UNL A   1      30.446  23.228  27.282  1.00  0.00    -0.249 OA
BRANCH  16  19
ATOM     19  C   UNL A   1      33.090  21.642  25.446  1.00  0.00     0.124 C 
BRANCH  19  20
ATOM     20  C   UNL A   1      34.347  21.544  26.329  1.00  0.00     0.027 C 
ATOM     21  C   UNL A   1      35.608  21.247  25.519  1.00  0.00     0.006 C 
ENDBRANCH  19  20
BRANCH  19  22
ATOM     22  C   UNL A   1      32.747  20.318  24.792  1.00  0.00     0.027 A 
ATOM     23  C   UNL A   1      32.436  20.050  23.467  1.00  0.00     0.017 A 
ATOM     24  S   UNL A   1      32.830  18.863  25.706  1.00  0.00    -0.147 S 
ATOM     25  C   UNL A   1      32.345  18.657  23.194  1.00  0.00     0.012 A 
ATOM     26  C   UNL A   1      32.540  17.899  24.324  1.00  0.00     0.065 A 
ENDBRANCH  19  22
ENDBRANCH  16  19
ENDBRANCH  10  15
ENDBRANCH   8   9
ENDBRANCH   5   8
ENDBRANCH   3   4
ENDBRANCH   2   3
ENDBRANCH   1   2
BRANCH   1  27
ATOM     27  C   UNL A   1      35.660  33.075  27.816  1.00  0.00     0.002 C 
BRANCH  27  28
ATOM     28  C   UNL A   1      34.617  34.199  27.823  1.00  0.00     0.021 C 
BRANCH  28  29
ATOM     29  C   UNL A   1      33.291  33.862  28.506  1.00  0.00     0.116 C 
BRANCH  29  30
ATOM     30  N   UNL A   1      32.957  34.818  29.549  1.00  0.00    -0.352 N 
ATOM     31  C   UNL A   1      33.465  34.956  30.818  1.00  0.00     0.251 C 
ATOM     32  H   UNL A   1      32.258  35.467  29.309  1.00  0.00     0.163 HD
ATOM     33  O   UNL A   1      32.887  35.679  31.624  1.00  0.00    -0.269 OA
BRANCH  31  34
ATOM     34  C   UNL A   1      34.690  34.228  31.220  1.00  0.00     0.039 A 
ATOM     35  C   UNL A   1      35.937  34.780  30.910  1.00  0.00     0.014 A 
ATOM     36  C   UNL A   1      34.617  32.987  31.858  1.00  0.00     0.014 A 
ATOM     37  C   UNL A   1      37.107  34.118  31.292  1.00  0.00     0.010 A 
ATOM     38  C   UNL A   1      35.784  32.357  32.292  1.00  0.00     0.010 A 
ATOM     39  C   UNL A   1      37.042  32.915  32.013  1.00  0.00    -0.014 A 
BRANCH  39  40
ATOM     40  C   UNL A   1      38.275  32.219  32.471  1.00  0.00     0.031 A 
ATOM     41  C   UNL A   1      38.872  31.118  31.635  1.00  0.00     0.074 A 
ATOM     42  C   UNL A   1      38.829  32.544  33.656  1.00  0.00     0.049 A 
ATOM     43  N   UNL A   1      39.881  30.328  31.904  1.00  0.00    -0.248 NA
ATOM     44  C   UNL A   1      38.233  30.857  30.337  1.00  0.00     0.031 C 
ATOM     45  C   UNL A   1      38.335  33.583  34.563  1.00  0.00     0.029 A 
ATOM     46  N   UNL A   1      39.924  32.032  34.307  1.00  0.00    -0.354 N 
ATOM     47  C   UNL A   1      39.997  29.475  30.811  1.00  0.00     0.074 A 
ATOM     48  C   UNL A   1      38.917  29.807  29.905  1.00  0.00     0.031 C 
ATOM     49  C   UNL A   1      39.133  33.641  35.641  1.00  0.00     0.029 A 
ATOM     50  C   UNL A   1      40.168  32.617  35.528  1.00  0.00     0.049 A 
ATOM     51  H   UNL A   1      40.482  31.311  33.935  1.00  0.00     0.167 HD
ATOM     52  C   UNL A   1      40.931  28.520  30.572  1.00  0.00     0.034 A 
ATOM     53  C   UNL A   1      41.109  32.351  36.457  1.00  0.00     0.034 A 
ATOM     54  C   UNL A   1      42.008  28.203  31.478  1.00  0.00     0.049 A 
ATOM     55  C   UNL A   1      42.109  31.252  36.186  1.00  0.00     0.074 A 
ATOM     56  C   UNL A   1      43.015  27.264  31.329  1.00  0.00     0.029 A 
ATOM     57  N   UNL A   1      42.222  28.819  32.704  1.00  0.00    -0.354 N 
ATOM     58  N   UNL A   1      42.212  30.467  35.139  1.00  0.00    -0.248 NA
ATOM     59  C   UNL A   1      43.125  31.012  37.220  1.00  0.00     0.031 C 
ATOM     60  C   UNL A   1      43.805  27.277  32.483  1.00  0.00     0.029 A 
ATOM     61  C   UNL A   1      43.333  28.269  33.325  1.00  0.00     0.049 A 
ATOM     62  H   UNL A   1      41.667  29.542  33.077  1.00  0.00     0.167 HD
ATOM     63  C   UNL A   1      43.330  29.671  35.372  1.00  0.00     0.074 A 
ATOM     64  C   UNL A   1      43.871  30.078  36.651  1.00  0.00     0.031 C 
ATOM     65  C   UNL A   1      43.864  28.692  34.599  1.00  0.00     0.034 A 
BRANCH  52  66
ATOM     66  C   UNL A   1      40.814  27.741  29.284  1.00  0.00     0.023 A 
ATOM     67  C   UNL A   1      41.701  27.956  28.215  1.00  0.00     0.031 A 
ATOM     68  C   UNL A   1      39.800  26.783  29.118  1.00  0.00     0.131 A 
ATOM     69  C   UNL A   1      41.518  27.271  27.005  1.00  0.00     0.055 A 
ATOM     70  C   UNL A   1      39.670  26.048  27.937  1.00  0.00     0.041 A 
ATOM     71  F   UNL A   1      38.912  26.547  30.096  1.00  0.00    -0.206 F 
ATOM     72  C   UNL A   1      40.524  26.300  26.867  1.00  0.00     0.022 A 
BRANCH  69  73
ATOM     73  S   UNL A   1      42.522  27.755  25.575  1.00  0.00     0.124 S 
ATOM     74  O   UNL A   1      43.826  27.977  26.194  1.00  0.00    -0.237 OA
ATOM     75  O   UNL A   1      42.417  26.589  24.706  1.00  0.00    -0.237 OA
ATOM     76  O   UNL A   1      41.859  28.961  25.083  1.00  0.00    -0.744 OA
ENDBRANCH  69  73
ENDBRANCH  52  66
BRANCH  53  77
ATOM     77  C   UNL A   1      41.158  33.114  37.738  1.00  0.00     0.023 A 
ATOM     78  C   UNL A   1      40.434  32.681  38.860  1.00  0.00     0.031 A 
ATOM     79  C   UNL A   1      41.864  34.325  37.837  1.00  0.00     0.131 A 
ATOM     80  C   UNL A   1      40.376  33.484  40.009  1.00  0.00     0.055 A 
ATOM     81  C   UNL A   1      41.853  35.092  39.005  1.00  0.00     0.041 A 
ATOM     82  F   UNL A   1      42.575  34.786  36.796  1.00  0.00    -0.206 F 
ATOM     83  C   UNL A   1      41.090  34.681  40.093  1.00  0.00     0.022 A 
BRANCH  80  84
ATOM     84  S   UNL A   1      39.252  33.000  41.348  1.00  0.00     0.124 S 
ATOM     85  O   UNL A   1      39.981  33.456  42.527  1.00  0.00    -0.237 OA
ATOM     86  O   UNL A   1      38.045  33.747  41.012  1.00  0.00    -0.237 OA
ATOM     87  O   UNL A   1      39.149  31.551  41.199  1.00  0.00    -0.744 OA
ENDBRANCH  80  84
ENDBRANCH  53  77
BRANCH  65  88
ATOM     88  C   UNL A   1      45.133  28.045  35.094  1.00  0.00     0.023 A 
ATOM     89  C   UNL A   1      45.113  26.906  35.917  1.00  0.00     0.031 A 
ATOM     90  C   UNL A   1      46.383  28.591  34.749  1.00  0.00     0.131 A 
ATOM     91  C   UNL A   1      46.315  26.382  36.416  1.00  0.00     0.055 A 
ATOM     92  C   UNL A   1      47.579  28.033  35.201  1.00  0.00     0.041 A 
ATOM     93  F   UNL A   1      46.460  29.678  33.965  1.00  0.00    -0.206 F 
ATOM     94  C   UNL A   1      47.548  26.929  36.050  1.00  0.00     0.022 A 
BRANCH  91  95
ATOM     95  S   UNL A   1      46.243  25.025  37.617  1.00  0.00     0.124 S 
ATOM     96  O   UNL A   1      45.009  24.347  37.236  1.00  0.00    -0.237 OA
ATOM     97  O   UNL A   1      47.480  24.300  37.342  1.00  0.00    -0.237 OA
ATOM     98  O   UNL A   1      46.203  25.711  38.907  1.00  0.00    -0.744 OA
ENDBRANCH  91  95
ENDBRANCH  65  88
ENDBRANCH  39  40
ENDBRANCH  31  34
ENDBRANCH  29  30
ENDBRANCH  28  29
ENDBRANCH  27  28
ENDBRANCH   1  27
TORSDOF 21
ENDMDL
MODEL 3
REMARK VINA RESULT:     -10.3      6.081     11.719
REMARK SMILES CC[C@H](NC(=O)N1CCO[C@@H](CC(=O)NCCCCCCNC(=O)c2ccc(-c3c4nc(c(-c5cc(S(=O)(=O)[O-])ccc5F)c5ccc([nH]5)c(-c5cc(S(=O)(=O)[O-])ccc5F)c5nc(c(-c6cc(S(=O)(=O)[O-])ccc6F)c6ccc3[nH]6)C=C5)C=C4)cc2)C1)c1cccs1
REMARK SMILES IDX 18 1 17 2 16 3 15 4 13 5 14 6 12 8 11 9 7 10 8 11 88 12 9 13
REMARK SMILES IDX 10 14 5 15 4 16 6 18 3 19 2 20 1 21 89 22 90 23 93 24 91 25
REMARK SMILES IDX 92 26 19 27 20 28 21 29 22 30 23 31 24 33 25 34 26 35 87 36
REMARK SMILES IDX 27 37 86 38 28 39 29 40 30 41 80 42 31 43 85 44 79 45 81 46
REMARK SMILES IDX 32 47 84 48 78 49 77 50 33 52 65 53 45 54 64 55 46 56 49 57
REMARK SMILES IDX 63 58 82 59 47 60 48 61 62 63 83 64 50 65 34 66 35 67 43 68
REMARK SMILES IDX 36 69 42 70 44 71 41 72 37 73 38 74 39 75 40 76 66 77 67 78
REMARK SMILES IDX 75 79 68 80 74 81 76 82 73 83 69 84 70 85 71 86 72 87 51 88
REMARK SMILES IDX 52 89 60 90 53 91 59 92 61 93 58 94 54 95 55 96 56 97 57 98
REMARK H PARENT 15 7 4 17 22 32 81 51 49 62
REMARK Flexibility Score: inf
ROOT
ATOM      1  C   UNL A   1      40.012  22.219  27.212  1.00  0.00     0.002 C 
ENDROOT
BRANCH   1   2
ATOM      2  C   UNL A   1      39.145  23.431  26.876  1.00  0.00     0.021 C 
BRANCH   2   3
ATOM      3  C   UNL A   1      38.052  23.173  25.834  1.00  0.00     0.116 C 
BRANCH   3   4
ATOM      4  N   UNL A   1      36.790  22.830  26.477  1.00  0.00    -0.356 N 
ATOM      5  C   UNL A   1      35.545  23.371  26.342  1.00  0.00     0.222 C 
ATOM      6  O   UNL A   1      34.652  22.986  27.101  1.00  0.00    -0.275 OA
ATOM      7  H   UNL A   1      36.845  22.084  27.116  1.00  0.00     0.163 HD
BRANCH   5   8
ATOM      8  C   UNL A   1      35.265  24.429  25.298  1.00  0.00     0.133 C 
BRANCH   8   9
ATOM      9  C   UNL A   1      34.029  24.109  24.454  1.00  0.00     0.147 C 
ATOM     10  N   UNL A   1      33.002  24.630  22.196  1.00  0.00    -0.320 N 
ATOM     11  C   UNL A   1      33.005  23.190  21.932  1.00  0.00     0.150 C 
ATOM     12  C   UNL A   1      33.955  25.024  23.226  1.00  0.00     0.154 C 
ATOM     13  C   UNL A   1      33.020  22.366  23.221  1.00  0.00     0.182 C 
ATOM     14  O   UNL A   1      34.128  22.728  24.053  1.00  0.00    -0.374 OA
BRANCH  10  15
ATOM     15  C   UNL A   1      32.713  25.619  21.291  1.00  0.00     0.318 C 
ATOM     16  N   UNL A   1      32.223  26.814  21.647  1.00  0.00    -0.330 N 
ATOM     17  H   UNL A   1      31.920  27.347  20.877  1.00  0.00     0.166 HD
ATOM     18  O   UNL A   1      32.906  25.473  20.080  1.00  0.00    -0.249 OA
BRANCH  16  19
ATOM     19  C   UNL A   1      32.039  27.497  22.914  1.00  0.00     0.124 C 
BRANCH  19  20
ATOM     20  C   UNL A   1      33.094  28.606  23.081  1.00  0.00     0.027 C 
ATOM     21  C   UNL A   1      33.254  29.045  24.535  1.00  0.00     0.006 C 
ENDBRANCH  19  20
BRANCH  19  22
ATOM     22  C   UNL A   1      30.626  28.044  22.946  1.00  0.00     0.027 A 
ATOM     23  C   UNL A   1      30.133  29.229  22.421  1.00  0.00     0.017 A 
ATOM     24  S   UNL A   1      29.354  27.094  23.609  1.00  0.00    -0.147 S 
ATOM     25  C   UNL A   1      28.714  29.316  22.494  1.00  0.00     0.012 A 
ATOM     26  C   UNL A   1      28.165  28.220  23.116  1.00  0.00     0.065 A 
ENDBRANCH  19  22
ENDBRANCH  16  19
ENDBRANCH  10  15
ENDBRANCH   8   9
ENDBRANCH   5   8
ENDBRANCH   3   4
ENDBRANCH   2   3
ENDBRANCH   1   2
BRANCH   1  27
ATOM     27  C   UNL A   1      40.552  21.454  26.003  1.00  0.00     0.002 C 
BRANCH  27  28
ATOM     28  C   UNL A   1      40.695  19.938  26.181  1.00  0.00     0.021 C 
BRANCH  28  29
ATOM     29  C   UNL A   1      42.038  19.464  26.738  1.00  0.00     0.116 C 
BRANCH  29  30
ATOM     30  N   UNL A   1      43.012  19.226  25.686  1.00  0.00    -0.352 N 
ATOM     31  C   UNL A   1      43.794  20.112  24.987  1.00  0.00     0.251 C 
ATOM     32  H   UNL A   1      43.129  18.281  25.435  1.00  0.00     0.163 HD
ATOM     33  O   UNL A   1      44.383  19.733  23.979  1.00  0.00    -0.269 OA
BRANCH  31  34
ATOM     34  C   UNL A   1      43.916  21.519  25.432  1.00  0.00     0.039 A 
ATOM     35  C   UNL A   1      44.350  21.782  26.734  1.00  0.00     0.014 A 
ATOM     36  C   UNL A   1      43.562  22.577  24.590  1.00  0.00     0.014 A 
ATOM     37  C   UNL A   1      44.486  23.102  27.172  1.00  0.00     0.010 A 
ATOM     38  C   UNL A   1      43.755  23.894  25.007  1.00  0.00     0.010 A 
ATOM     39  C   UNL A   1      44.219  24.171  26.302  1.00  0.00    -0.014 A 
BRANCH  39  40
ATOM     40  C   UNL A   1      44.404  25.584  26.733  1.00  0.00     0.031 A 
ATOM     41  C   UNL A   1      45.773  26.209  26.699  1.00  0.00     0.074 A 
ATOM     42  C   UNL A   1      43.352  26.286  27.199  1.00  0.00     0.049 A 
ATOM     43  N   UNL A   1      46.157  27.387  27.121  1.00  0.00    -0.248 NA
ATOM     44  C   UNL A   1      46.856  25.389  26.135  1.00  0.00     0.031 C 
ATOM     45  C   UNL A   1      41.978  25.787  27.297  1.00  0.00     0.029 A 
ATOM     46  N   UNL A   1      43.271  27.567  27.686  1.00  0.00    -0.354 N 
ATOM     47  C   UNL A   1      47.526  27.450  26.879  1.00  0.00     0.074 A 
ATOM     48  C   UNL A   1      47.912  26.168  26.327  1.00  0.00     0.031 C 
ATOM     49  C   UNL A   1      41.192  26.755  27.793  1.00  0.00     0.029 A 
ATOM     50  C   UNL A   1      42.007  27.929  28.094  1.00  0.00     0.049 A 
ATOM     51  H   UNL A   1      44.047  28.172  27.739  1.00  0.00     0.167 HD
ATOM     52  C   UNL A   1      48.378  28.487  27.074  1.00  0.00     0.034 A 
ATOM     53  C   UNL A   1      41.559  29.068  28.658  1.00  0.00     0.034 A 
ATOM     54  C   UNL A   1      47.981  29.764  27.617  1.00  0.00     0.049 A 
ATOM     55  C   UNL A   1      42.538  30.191  28.906  1.00  0.00     0.074 A 
ATOM     56  C   UNL A   1      48.759  30.886  27.844  1.00  0.00     0.029 A 
ATOM     57  N   UNL A   1      46.691  30.091  28.017  1.00  0.00    -0.354 N 
ATOM     58  N   UNL A   1      43.825  30.238  28.654  1.00  0.00    -0.248 NA
ATOM     59  C   UNL A   1      41.998  31.419  29.506  1.00  0.00     0.031 C 
ATOM     60  C   UNL A   1      47.954  31.871  28.427  1.00  0.00     0.029 A 
ATOM     61  C   UNL A   1      46.659  31.389  28.502  1.00  0.00     0.049 A 
ATOM     62  H   UNL A   1      45.914  29.489  27.962  1.00  0.00     0.167 HD
ATOM     63  C   UNL A   1      44.237  31.515  29.026  1.00  0.00     0.074 A 
ATOM     64  C   UNL A   1      43.061  32.208  29.508  1.00  0.00     0.031 C 
ATOM     65  C   UNL A   1      45.475  32.068  28.974  1.00  0.00     0.034 A 
BRANCH  52  66
ATOM     66  C   UNL A   1      49.827  28.274  26.710  1.00  0.00     0.023 A 
ATOM     67  C   UNL A   1      50.305  28.546  25.416  1.00  0.00     0.031 A 
ATOM     68  C   UNL A   1      50.738  27.783  27.661  1.00  0.00     0.131 A 
ATOM     69  C   UNL A   1      51.640  28.264  25.090  1.00  0.00     0.055 A 
ATOM     70  C   UNL A   1      52.085  27.577  27.350  1.00  0.00     0.041 A 
ATOM     71  F   UNL A   1      50.336  27.487  28.906  1.00  0.00    -0.206 F 
ATOM     72  C   UNL A   1      52.539  27.806  26.055  1.00  0.00     0.022 A 
BRANCH  69  73
ATOM     73  S   UNL A   1      52.153  28.393  23.356  1.00  0.00     0.124 S 
ATOM     74  O   UNL A   1      51.278  29.456  22.869  1.00  0.00    -0.237 OA
ATOM     75  O   UNL A   1      53.567  28.731  23.468  1.00  0.00    -0.237 OA
ATOM     76  O   UNL A   1      51.871  27.065  22.816  1.00  0.00    -0.744 OA
ENDBRANCH  69  73
ENDBRANCH  52  66
BRANCH  53  77
ATOM     77  C   UNL A   1      40.127  29.219  29.046  1.00  0.00     0.023 A 
ATOM     78  C   UNL A   1      39.741  29.188  30.396  1.00  0.00     0.031 A 
ATOM     79  C   UNL A   1      39.116  29.316  28.075  1.00  0.00     0.131 A 
ATOM     80  C   UNL A   1      38.380  29.186  30.736  1.00  0.00     0.055 A 
ATOM     81  C   UNL A   1      37.764  29.376  28.421  1.00  0.00     0.041 A 
ATOM     82  F   UNL A   1      39.427  29.353  26.769  1.00  0.00    -0.206 F 
ATOM     83  C   UNL A   1      37.389  29.292  29.759  1.00  0.00     0.022 A 
BRANCH  80  84
ATOM     84  S   UNL A   1      37.921  28.919  32.471  1.00  0.00     0.124 S 
ATOM     85  O   UNL A   1      37.817  27.465  32.530  1.00  0.00    -0.237 OA
ATOM     86  O   UNL A   1      39.052  29.511  33.176  1.00  0.00    -0.237 OA
ATOM     87  O   UNL A   1      36.658  29.641  32.603  1.00  0.00    -0.744 OA
ENDBRANCH  80  84
ENDBRANCH  53  77
BRANCH  65  88
ATOM     88  C   UNL A   1      45.598  33.512  29.390  1.00  0.00     0.023 A 
ATOM     89  C   UNL A   1      45.515  34.561  28.458  1.00  0.00     0.031 A 
ATOM     90  C   UNL A   1      45.821  33.839  30.740  1.00  0.00     0.131 A 
ATOM     91  C   UNL A   1      45.710  35.886  28.879  1.00  0.00     0.055 A 
ATOM     92  C   UNL A   1      45.958  35.162  31.161  1.00  0.00     0.041 A 
ATOM     93  F   UNL A   1      45.908  32.876  31.671  1.00  0.00    -0.206 F 
ATOM     94  C   UNL A   1      45.916  36.194  30.226  1.00  0.00     0.022 A 
BRANCH  91  95
ATOM     95  S   UNL A   1      45.775  37.196  27.627  1.00  0.00     0.124 S 
ATOM     96  O   UNL A   1      45.657  36.439  26.386  1.00  0.00    -0.237 OA
ATOM     97  O   UNL A   1      44.625  38.023  27.982  1.00  0.00    -0.237 OA
ATOM     98  O   UNL A   1      47.077  37.821  27.851  1.00  0.00    -0.744 OA
ENDBRANCH  91  95
ENDBRANCH  65  88
ENDBRANCH  39  40
ENDBRANCH  31  34
ENDBRANCH  29  30
ENDBRANCH  28  29
ENDBRANCH  27  28
ENDBRANCH   1  27
TORSDOF 21
ENDMDL
