MODEL 1
REMARK VINA RESULT:     -10.5      0.000      0.000
REMARK SMILES CC(C)CN(C)c1cc2c(cc1Cl)C=C(C(=O)NCCCCCCNC(=O)c1ccc(-c3c4nc(c(-c5cc(S(=O)(=O)[O-])ccc5F)c5ccc([nH]5)c(-c5cc(S(=O)(=O)[O-])ccc5F)c5nc(c(-c6cc(S(=O)(=O)[O-])ccc6F)c6ccc3[nH]6)C=C5)C=C4)cc1)[C@H](C(F)(F)F)O2
REMARK SMILES IDX 21 1 20 2 19 3 18 4 16 5 17 6 15 8 7 9 8 10 12 11 9 12 11 13
REMARK SMILES IDX 13 14 10 15 96 16 14 17 91 18 5 19 6 20 4 21 2 22 1 23 3 24
REMARK SMILES IDX 92 25 93 26 94 27 95 28 22 29 23 30 24 31 25 32 26 33 27 35
REMARK SMILES IDX 28 36 29 37 90 38 30 39 89 40 31 41 32 42 33 43 83 44 34 45
REMARK SMILES IDX 88 46 82 47 84 48 35 49 87 50 81 51 80 52 36 54 68 55 48 56
REMARK SMILES IDX 67 57 49 58 52 59 66 60 85 61 50 62 51 63 65 65 86 66 53 67
REMARK SMILES IDX 37 68 38 69 46 70 39 71 45 72 47 73 44 74 40 75 41 76 42 77
REMARK SMILES IDX 43 78 69 79 70 80 78 81 71 82 77 83 79 84 76 85 72 86 73 87
REMARK SMILES IDX 74 88 75 89 54 90 55 91 63 92 56 93 62 94 64 95 61 96 57 97
REMARK SMILES IDX 58 98 59 99 60 100
REMARK H PARENT 18 7 25 34 84 53 52 64
REMARK Flexibility Score: inf
ROOT
ATOM      1  C   UNL A   1      37.746  23.074  25.761  1.00  0.00     0.002 C 
ENDROOT
BRANCH   1   2
ATOM      2  C   UNL A   1      36.927  22.170  24.833  1.00  0.00     0.021 C 
BRANCH   2   3
ATOM      3  C   UNL A   1      35.915  21.284  25.559  1.00  0.00     0.116 C 
BRANCH   3   4
ATOM      4  N   UNL A   1      34.781  21.000  24.702  1.00  0.00    -0.352 N 
ATOM      5  C   UNL A   1      33.672  21.665  24.308  1.00  0.00     0.251 C 
ATOM      6  O   UNL A   1      32.923  21.055  23.538  1.00  0.00    -0.270 OA
ATOM      7  H   UNL A   1      34.830  20.099  24.309  1.00  0.00     0.163 HD
BRANCH   5   8
ATOM      8  C   UNL A   1      33.328  23.057  24.721  1.00  0.00     0.067 C 
ATOM      9  C   UNL A   1      32.666  28.076  24.538  1.00  0.00     0.059 A 
ATOM     10  C   UNL A   1      32.257  27.051  25.405  1.00  0.00     0.074 A 
ATOM     11  C   UNL A   1      33.550  27.730  23.495  1.00  0.00     0.065 A 
ATOM     12  C   UNL A   1      32.656  25.729  25.206  1.00  0.00     0.130 A 
ATOM     13  C   UNL A   1      33.913  26.397  23.270  1.00  0.00     0.034 A 
ATOM     14  Cl  UNL A   1      34.241  28.920  22.444  1.00  0.00    -0.082 Cl
ATOM     15  C   UNL A   1      33.451  25.390  24.120  1.00  0.00     0.019 A 
ATOM     16  O   UNL A   1      32.213  24.830  26.125  1.00  0.00    -0.475 OA
ATOM     17  C   UNL A   1      33.773  23.998  23.870  1.00  0.00     0.025 C 
ATOM     18  C   UNL A   1      32.501  23.417  25.932  1.00  0.00     0.314 C 
BRANCH   9  19
ATOM     19  N   UNL A   1      32.167  29.380  24.702  1.00  0.00    -0.373 N 
ATOM     20  C   UNL A   1      32.708  30.101  25.854  1.00  0.00     0.143 C 
BRANCH  19  21
ATOM     21  C   UNL A   1      30.721  29.549  24.447  1.00  0.00     0.119 C 
BRANCH  21  22
ATOM     22  C   UNL A   1      30.321  29.117  23.021  1.00  0.00     0.002 C 
ATOM     23  C   UNL A   1      29.453  27.855  23.020  1.00  0.00     0.009 C 
ATOM     24  C   UNL A   1      29.560  30.236  22.304  1.00  0.00     0.009 C 
ENDBRANCH  21  22
ENDBRANCH  19  21
ENDBRANCH   9  19
BRANCH  18  25
ATOM     25  C   UNL A   1      31.164  22.661  26.058  1.00  0.00     0.429 C 
ATOM     26  F   UNL A   1      30.316  22.933  25.038  1.00  0.00    -0.167 F 
ATOM     27  F   UNL A   1      31.305  21.319  26.092  1.00  0.00    -0.167 F 
ATOM     28  F   UNL A   1      30.532  23.019  27.205  1.00  0.00    -0.167 F 
ENDBRANCH  18  25
ENDBRANCH   5   8
ENDBRANCH   3   4
ENDBRANCH   2   3
ENDBRANCH   1   2
BRANCH   1  29
ATOM     29  C   UNL A   1      39.080  22.485  26.236  1.00  0.00     0.002 C 
BRANCH  29  30
ATOM     30  C   UNL A   1      39.376  21.065  25.753  1.00  0.00     0.021 C 
BRANCH  30  31
ATOM     31  C   UNL A   1      39.999  20.150  26.801  1.00  0.00     0.116 C 
BRANCH  31  32
ATOM     32  N   UNL A   1      41.057  19.316  26.251  1.00  0.00    -0.352 N 
ATOM     33  C   UNL A   1      42.343  19.665  25.913  1.00  0.00     0.251 C 
ATOM     34  H   UNL A   1      40.818  18.373  26.102  1.00  0.00     0.163 HD
ATOM     35  O   UNL A   1      43.055  18.875  25.297  1.00  0.00    -0.269 OA
BRANCH  33  36
ATOM     36  C   UNL A   1      42.839  21.012  26.263  1.00  0.00     0.039 A 
ATOM     37  C   UNL A   1      43.109  21.339  27.595  1.00  0.00     0.014 A 
ATOM     38  C   UNL A   1      42.985  21.970  25.258  1.00  0.00     0.014 A 
ATOM     39  C   UNL A   1      43.358  22.664  27.940  1.00  0.00     0.010 A 
ATOM     40  C   UNL A   1      43.316  23.284  25.600  1.00  0.00     0.010 A 
ATOM     41  C   UNL A   1      43.453  23.653  26.948  1.00  0.00    -0.014 A 
BRANCH  41  42
ATOM     42  C   UNL A   1      43.687  25.069  27.338  1.00  0.00     0.031 A 
ATOM     43  C   UNL A   1      45.028  25.714  27.111  1.00  0.00     0.074 A 
ATOM     44  C   UNL A   1      42.675  25.782  27.869  1.00  0.00     0.049 A 
ATOM     45  N   UNL A   1      45.416  26.929  27.404  1.00  0.00    -0.248 NA
ATOM     46  C   UNL A   1      46.072  24.894  26.471  1.00  0.00     0.031 C 
ATOM     47  C   UNL A   1      41.332  25.262  28.123  1.00  0.00     0.029 A 
ATOM     48  N   UNL A   1      42.608  27.091  28.281  1.00  0.00    -0.354 N 
ATOM     49  C   UNL A   1      46.747  27.012  27.010  1.00  0.00     0.074 A 
ATOM     50  C   UNL A   1      47.111  25.719  26.479  1.00  0.00     0.031 C 
ATOM     51  C   UNL A   1      40.565  26.246  28.611  1.00  0.00     0.029 A 
ATOM     52  C   UNL A   1      41.376  27.448  28.778  1.00  0.00     0.049 A 
ATOM     53  H   UNL A   1      43.369  27.713  28.226  1.00  0.00     0.167 HD
ATOM     54  C   UNL A   1      47.580  28.078  27.076  1.00  0.00     0.034 A 
ATOM     55  C   UNL A   1      40.949  28.604  29.329  1.00  0.00     0.034 A 
ATOM     56  C   UNL A   1      47.191  29.370  27.579  1.00  0.00     0.049 A 
ATOM     57  C   UNL A   1      41.905  29.766  29.413  1.00  0.00     0.074 A 
ATOM     58  C   UNL A   1      47.957  30.521  27.653  1.00  0.00     0.029 A 
ATOM     59  N   UNL A   1      45.939  29.690  28.085  1.00  0.00    -0.354 N 
ATOM     60  N   UNL A   1      43.147  29.840  28.993  1.00  0.00    -0.248 NA
ATOM     61  C   UNL A   1      41.413  31.000  30.039  1.00  0.00     0.031 C 
ATOM     62  C   UNL A   1      47.191  31.516  28.258  1.00  0.00     0.029 A 
ATOM     63  C   UNL A   1      45.922  31.012  28.495  1.00  0.00     0.049 A 
ATOM     64  H   UNL A   1      45.178  29.070  28.143  1.00  0.00     0.167 HD
ATOM     65  C   UNL A   1      43.574  31.133  29.284  1.00  0.00     0.074 A 
ATOM     66  C   UNL A   1      42.451  31.814  29.891  1.00  0.00     0.031 C 
ATOM     67  C   UNL A   1      44.789  31.696  29.072  1.00  0.00     0.034 A 
BRANCH  54  68
ATOM     68  C   UNL A   1      48.999  27.932  26.585  1.00  0.00     0.023 A 
ATOM     69  C   UNL A   1      49.288  28.104  25.217  1.00  0.00     0.031 A 
ATOM     70  C   UNL A   1      50.021  27.460  27.426  1.00  0.00     0.131 A 
ATOM     71  C   UNL A   1      50.552  27.762  24.724  1.00  0.00     0.055 A 
ATOM     72  C   UNL A   1      51.293  27.158  26.936  1.00  0.00     0.041 A 
ATOM     73  F   UNL A   1      49.797  27.279  28.738  1.00  0.00    -0.206 F 
ATOM     74  C   UNL A   1      51.558  27.295  25.576  1.00  0.00     0.022 A 
BRANCH  71  75
ATOM     75  S   UNL A   1      50.918  27.839  22.949  1.00  0.00     0.124 S 
ATOM     76  O   UNL A   1      51.237  29.255  22.770  1.00  0.00    -0.237 OA
ATOM     77  O   UNL A   1      52.051  26.926  22.831  1.00  0.00    -0.237 OA
ATOM     78  O   UNL A   1      49.681  27.399  22.316  1.00  0.00    -0.744 OA
ENDBRANCH  71  75
ENDBRANCH  54  68
BRANCH  55  79
ATOM     79  C   UNL A   1      39.539  28.703  29.810  1.00  0.00     0.023 A 
ATOM     80  C   UNL A   1      38.523  29.191  28.967  1.00  0.00     0.031 A 
ATOM     81  C   UNL A   1      39.206  28.418  31.144  1.00  0.00     0.131 A 
ATOM     82  C   UNL A   1      37.247  29.448  29.484  1.00  0.00     0.055 A 
ATOM     83  C   UNL A   1      37.913  28.602  31.637  1.00  0.00     0.041 A 
ATOM     84  F   UNL A   1      40.142  27.963  31.993  1.00  0.00    -0.206 F 
ATOM     85  C   UNL A   1      36.930  29.139  30.810  1.00  0.00     0.022 A 
BRANCH  82  86
ATOM     86  S   UNL A   1      36.007  30.333  28.497  1.00  0.00     0.124 S 
ATOM     87  O   UNL A   1      35.025  29.285  28.235  1.00  0.00    -0.237 OA
ATOM     88  O   UNL A   1      35.581  31.382  29.421  1.00  0.00    -0.237 OA
ATOM     89  O   UNL A   1      36.760  30.799  27.338  1.00  0.00    -0.744 OA
ENDBRANCH  82  86
ENDBRANCH  55  79
BRANCH  67  90
ATOM     90  C   UNL A   1      45.004  33.134  29.474  1.00  0.00     0.023 A 
ATOM     91  C   UNL A   1      44.878  34.155  28.511  1.00  0.00     0.031 A 
ATOM     92  C   UNL A   1      45.506  33.472  30.742  1.00  0.00     0.131 A 
ATOM     93  C   UNL A   1      45.301  35.455  28.815  1.00  0.00     0.055 A 
ATOM     94  C   UNL A   1      45.879  34.780  31.056  1.00  0.00     0.041 A 
ATOM     95  F   UNL A   1      45.654  32.532  31.689  1.00  0.00    -0.206 F 
ATOM     96  C   UNL A   1      45.794  35.774  30.084  1.00  0.00     0.022 A 
BRANCH  93  97
ATOM     97  S   UNL A   1      45.322  36.752  27.546  1.00  0.00     0.124 S 
ATOM     98  O   UNL A   1      43.901  37.055  27.401  1.00  0.00    -0.237 OA
ATOM     99  O   UNL A   1      46.120  37.794  28.187  1.00  0.00    -0.237 OA
ATOM    100  O   UNL A   1      45.942  36.107  26.394  1.00  0.00    -0.744 OA
ENDBRANCH  93  97
ENDBRANCH  67  90
ENDBRANCH  41  42
ENDBRANCH  33  36
ENDBRANCH  31  32
ENDBRANCH  30  31
ENDBRANCH  29  30
ENDBRANCH   1  29
TORSDOF 20
ENDMDL
MODEL 2
REMARK VINA RESULT:     -10.3      5.988     11.115
REMARK SMILES CC(C)CN(C)c1cc2c(cc1Cl)C=C(C(=O)NCCCCCCNC(=O)c1ccc(-c3c4nc(c(-c5cc(S(=O)(=O)[O-])ccc5F)c5ccc([nH]5)c(-c5cc(S(=O)(=O)[O-])ccc5F)c5nc(c(-c6cc(S(=O)(=O)[O-])ccc6F)c6ccc3[nH]6)C=C5)C=C4)cc1)[C@H](C(F)(F)F)O2
REMARK SMILES IDX 21 1 20 2 19 3 18 4 16 5 17 6 15 8 7 9 8 10 12 11 9 12 11 13
REMARK SMILES IDX 13 14 10 15 96 16 14 17 91 18 5 19 6 20 4 21 2 22 1 23 3 24
REMARK SMILES IDX 92 25 93 26 94 27 95 28 22 29 23 30 24 31 25 32 26 33 27 35
REMARK SMILES IDX 28 36 29 37 90 38 30 39 89 40 31 41 32 42 33 43 83 44 34 45
REMARK SMILES IDX 88 46 82 47 84 48 35 49 87 50 81 51 80 52 36 54 68 55 48 56
REMARK SMILES IDX 67 57 49 58 52 59 66 60 85 61 50 62 51 63 65 65 86 66 53 67
REMARK SMILES IDX 37 68 38 69 46 70 39 71 45 72 47 73 44 74 40 75 41 76 42 77
REMARK SMILES IDX 43 78 69 79 70 80 78 81 71 82 77 83 79 84 76 85 72 86 73 87
REMARK SMILES IDX 74 88 75 89 54 90 55 91 63 92 56 93 62 94 64 95 61 96 57 97
REMARK SMILES IDX 58 98 59 99 60 100
REMARK H PARENT 18 7 25 34 84 53 52 64
REMARK Flexibility Score: inf
ROOT
ATOM      1  C   UNL A   1      32.898  29.614  27.039  1.00  0.00     0.002 C 
ENDROOT
BRANCH   1   2
ATOM      2  C   UNL A   1      32.864  28.486  26.003  1.00  0.00     0.021 C 
BRANCH   2   3
ATOM      3  C   UNL A   1      33.366  28.896  24.618  1.00  0.00     0.116 C 
BRANCH   3   4
ATOM      4  N   UNL A   1      32.289  28.841  23.650  1.00  0.00    -0.352 N 
ATOM      5  C   UNL A   1      31.564  27.865  23.059  1.00  0.00     0.251 C 
ATOM      6  O   UNL A   1      30.700  28.244  22.260  1.00  0.00    -0.270 OA
ATOM      7  H   UNL A   1      32.017  29.737  23.348  1.00  0.00     0.163 HD
BRANCH   5   8
ATOM      8  C   UNL A   1      31.731  26.407  23.326  1.00  0.00     0.067 C 
ATOM      9  C   UNL A   1      33.917  21.939  24.289  1.00  0.00     0.059 A 
ATOM     10  C   UNL A   1      32.604  22.433  24.334  1.00  0.00     0.074 A 
ATOM     11  C   UNL A   1      34.915  22.794  23.777  1.00  0.00     0.065 A 
ATOM     12  C   UNL A   1      32.306  23.741  23.949  1.00  0.00     0.130 A 
ATOM     13  C   UNL A   1      34.623  24.120  23.434  1.00  0.00     0.034 A 
ATOM     14  Cl  UNL A   1      36.545  22.262  23.536  1.00  0.00    -0.082 Cl
ATOM     15  C   UNL A   1      33.315  24.599  23.536  1.00  0.00     0.019 A 
ATOM     16  O   UNL A   1      30.995  24.096  24.016  1.00  0.00    -0.475 OA
ATOM     17  C   UNL A   1      33.004  25.984  23.237  1.00  0.00     0.025 C 
ATOM     18  C   UNL A   1      30.617  25.471  23.729  1.00  0.00     0.314 C 
BRANCH   9  19
ATOM     19  N   UNL A   1      34.204  20.653  24.778  1.00  0.00    -0.373 N 
ATOM     20  C   UNL A   1      35.616  20.413  25.075  1.00  0.00     0.143 C 
BRANCH  19  21
ATOM     21  C   UNL A   1      33.476  19.544  24.127  1.00  0.00     0.119 C 
BRANCH  21  22
ATOM     22  C   UNL A   1      33.838  18.169  24.728  1.00  0.00     0.002 C 
ATOM     23  C   UNL A   1      32.700  17.588  25.571  1.00  0.00     0.009 C 
ATOM     24  C   UNL A   1      34.192  17.168  23.625  1.00  0.00     0.009 C 
ENDBRANCH  21  22
ENDBRANCH  19  21
ENDBRANCH   9  19
BRANCH  18  25
ATOM     25  C   UNL A   1      29.750  25.957  24.908  1.00  0.00     0.429 C 
ATOM     26  F   UNL A   1      28.502  26.312  24.522  1.00  0.00    -0.167 F 
ATOM     27  F   UNL A   1      29.602  25.036  25.884  1.00  0.00    -0.167 F 
ATOM     28  F   UNL A   1      30.314  27.051  25.481  1.00  0.00    -0.167 F 
ENDBRANCH  18  25
ENDBRANCH   5   8
ENDBRANCH   3   4
ENDBRANCH   2   3
ENDBRANCH   1   2
BRANCH   1  29
ATOM     29  C   UNL A   1      34.240  30.344  27.167  1.00  0.00     0.002 C 
BRANCH  29  30
ATOM     30  C   UNL A   1      34.145  31.860  27.340  1.00  0.00     0.021 C 
BRANCH  30  31
ATOM     31  C   UNL A   1      32.806  32.360  27.872  1.00  0.00     0.116 C 
BRANCH  31  32
ATOM     32  N   UNL A   1      32.713  33.811  27.864  1.00  0.00    -0.352 N 
ATOM     33  C   UNL A   1      33.438  34.726  28.591  1.00  0.00     0.251 C 
ATOM     34  H   UNL A   1      32.040  34.190  27.254  1.00  0.00     0.163 HD
ATOM     35  O   UNL A   1      33.112  35.910  28.592  1.00  0.00    -0.269 OA
BRANCH  33  36
ATOM     36  C   UNL A   1      34.583  34.258  29.400  1.00  0.00     0.039 A 
ATOM     37  C   UNL A   1      35.892  34.528  28.989  1.00  0.00     0.014 A 
ATOM     38  C   UNL A   1      34.346  33.500  30.548  1.00  0.00     0.014 A 
ATOM     39  C   UNL A   1      36.955  33.898  29.628  1.00  0.00     0.010 A 
ATOM     40  C   UNL A   1      35.423  32.935  31.236  1.00  0.00     0.010 A 
ATOM     41  C   UNL A   1      36.732  33.086  30.751  1.00  0.00    -0.014 A 
BRANCH  41  42
ATOM     42  C   UNL A   1      37.878  32.395  31.401  1.00  0.00     0.031 A 
ATOM     43  C   UNL A   1      38.385  32.849  32.744  1.00  0.00     0.074 A 
ATOM     44  C   UNL A   1      38.440  31.334  30.790  1.00  0.00     0.049 A 
ATOM     45  N   UNL A   1      39.381  32.378  33.449  1.00  0.00    -0.248 NA
ATOM     46  C   UNL A   1      37.686  33.978  33.382  1.00  0.00     0.031 C 
ATOM     47  C   UNL A   1      38.022  30.800  29.493  1.00  0.00     0.029 A 
ATOM     48  N   UNL A   1      39.469  30.508  31.173  1.00  0.00    -0.354 N 
ATOM     49  C   UNL A   1      39.445  33.162  34.595  1.00  0.00     0.074 A 
ATOM     50  C   UNL A   1      38.403  34.157  34.484  1.00  0.00     0.031 C 
ATOM     51  C   UNL A   1      38.759  29.719  29.206  1.00  0.00     0.029 A 
ATOM     52  C   UNL A   1      39.754  29.523  30.257  1.00  0.00     0.049 A 
ATOM     53  H   UNL A   1      39.956  30.613  32.023  1.00  0.00     0.167 HD
ATOM     54  C   UNL A   1      40.289  33.048  35.648  1.00  0.00     0.034 A 
ATOM     55  C   UNL A   1      40.720  28.580  30.246  1.00  0.00     0.034 A 
ATOM     56  C   UNL A   1      41.301  32.029  35.757  1.00  0.00     0.049 A 
ATOM     57  C   UNL A   1      41.662  28.493  31.419  1.00  0.00     0.074 A 
ATOM     58  C   UNL A   1      42.181  31.814  36.804  1.00  0.00     0.029 A 
ATOM     59  N   UNL A   1      41.567  31.057  34.804  1.00  0.00    -0.354 N 
ATOM     60  N   UNL A   1      41.677  29.214  32.516  1.00  0.00    -0.248 NA
ATOM     61  C   UNL A   1      42.715  27.470  31.364  1.00  0.00     0.031 C 
ATOM     62  C   UNL A   1      43.018  30.754  36.458  1.00  0.00     0.029 A 
ATOM     63  C   UNL A   1      42.615  30.257  35.228  1.00  0.00     0.049 A 
ATOM     64  H   UNL A   1      41.084  30.953  33.954  1.00  0.00     0.167 HD
ATOM     65  C   UNL A   1      42.724  28.717  33.288  1.00  0.00     0.074 A 
ATOM     66  C   UNL A   1      43.302  27.618  32.545  1.00  0.00     0.031 C 
ATOM     67  C   UNL A   1      43.167  29.142  34.497  1.00  0.00     0.034 A 
BRANCH  54  68
ATOM     68  C   UNL A   1      40.171  34.024  36.792  1.00  0.00     0.023 A 
ATOM     69  C   UNL A   1      39.597  33.610  38.010  1.00  0.00     0.031 A 
ATOM     70  C   UNL A   1      40.463  35.389  36.625  1.00  0.00     0.131 A 
ATOM     71  C   UNL A   1      39.290  34.558  38.993  1.00  0.00     0.055 A 
ATOM     72  C   UNL A   1      40.192  36.324  37.625  1.00  0.00     0.041 A 
ATOM     73  F   UNL A   1      41.011  35.835  35.482  1.00  0.00    -0.206 F 
ATOM     74  C   UNL A   1      39.589  35.912  38.809  1.00  0.00     0.022 A 
BRANCH  71  75
ATOM     75  S   UNL A   1      38.427  34.083  40.516  1.00  0.00     0.124 S 
ATOM     76  O   UNL A   1      39.439  33.278  41.196  1.00  0.00    -0.237 OA
ATOM     77  O   UNL A   1      38.149  35.380  41.126  1.00  0.00    -0.237 OA
ATOM     78  O   UNL A   1      37.262  33.343  40.043  1.00  0.00    -0.744 OA
ENDBRANCH  71  75
ENDBRANCH  54  68
BRANCH  55  79
ATOM     79  C   UNL A   1      40.806  27.640  29.090  1.00  0.00     0.023 A 
ATOM     80  C   UNL A   1      41.765  27.830  28.076  1.00  0.00     0.031 A 
ATOM     81  C   UNL A   1      39.871  26.606  28.924  1.00  0.00     0.131 A 
ATOM     82  C   UNL A   1      41.718  27.051  26.913  1.00  0.00     0.055 A 
ATOM     83  C   UNL A   1      39.875  25.781  27.798  1.00  0.00     0.041 A 
ATOM     84  F   UNL A   1      38.927  26.392  29.856  1.00  0.00    -0.206 F 
ATOM     85  C   UNL A   1      40.790  26.015  26.776  1.00  0.00     0.022 A 
BRANCH  82  86
ATOM     86  S   UNL A   1      42.757  27.458  25.482  1.00  0.00     0.124 S 
ATOM     87  O   UNL A   1      42.041  28.590  24.900  1.00  0.00    -0.237 OA
ATOM     88  O   UNL A   1      44.033  27.778  26.119  1.00  0.00    -0.237 OA
ATOM     89  O   UNL A   1      42.751  26.232  24.693  1.00  0.00    -0.744 OA
ENDBRANCH  82  86
ENDBRANCH  55  79
BRANCH  67  90
ATOM     90  C   UNL A   1      44.329  28.426  35.139  1.00  0.00     0.023 A 
ATOM     91  C   UNL A   1      44.091  27.465  36.141  1.00  0.00     0.031 A 
ATOM     92  C   UNL A   1      45.655  28.819  34.895  1.00  0.00     0.131 A 
ATOM     93  C   UNL A   1      45.158  26.970  36.901  1.00  0.00     0.055 A 
ATOM     94  C   UNL A   1      46.722  28.285  35.621  1.00  0.00     0.041 A 
ATOM     95  F   UNL A   1      45.932  29.739  33.957  1.00  0.00    -0.206 F 
ATOM     96  C   UNL A   1      46.473  27.370  36.640  1.00  0.00     0.022 A 
BRANCH  93  97
ATOM     97  S   UNL A   1      44.870  25.872  38.316  1.00  0.00     0.124 S 
ATOM     98  O   UNL A   1      43.952  24.886  37.751  1.00  0.00    -0.237 OA
ATOM     99  O   UNL A   1      46.215  25.380  38.601  1.00  0.00    -0.237 OA
ATOM    100  O   UNL A   1      44.294  26.748  39.330  1.00  0.00    -0.744 OA
ENDBRANCH  93  97
ENDBRANCH  67  90
ENDBRANCH  41  42
ENDBRANCH  33  36
ENDBRANCH  31  32
ENDBRANCH  30  31
ENDBRANCH  29  30
ENDBRANCH   1  29
TORSDOF 20
ENDMDL
MODEL 3
REMARK VINA RESULT:     -10.1      5.706     11.617
REMARK SMILES CC(C)CN(C)c1cc2c(cc1Cl)C=C(C(=O)NCCCCCCNC(=O)c1ccc(-c3c4nc(c(-c5cc(S(=O)(=O)[O-])ccc5F)c5ccc([nH]5)c(-c5cc(S(=O)(=O)[O-])ccc5F)c5nc(c(-c6cc(S(=O)(=O)[O-])ccc6F)c6ccc3[nH]6)C=C5)C=C4)cc1)[C@H](C(F)(F)F)O2
REMARK SMILES IDX 21 1 20 2 19 3 18 4 16 5 17 6 15 8 7 9 8 10 12 11 9 12 11 13
REMARK SMILES IDX 13 14 10 15 96 16 14 17 91 18 5 19 6 20 4 21 2 22 1 23 3 24
REMARK SMILES IDX 92 25 93 26 94 27 95 28 22 29 23 30 24 31 25 32 26 33 27 35
REMARK SMILES IDX 28 36 29 37 90 38 30 39 89 40 31 41 32 42 33 43 83 44 34 45
REMARK SMILES IDX 88 46 82 47 84 48 35 49 87 50 81 51 80 52 36 54 68 55 48 56
REMARK SMILES IDX 67 57 49 58 52 59 66 60 85 61 50 62 51 63 65 65 86 66 53 67
REMARK SMILES IDX 37 68 38 69 46 70 39 71 45 72 47 73 44 74 40 75 41 76 42 77
REMARK SMILES IDX 43 78 69 79 70 80 78 81 71 82 77 83 79 84 76 85 72 86 73 87
REMARK SMILES IDX 74 88 75 89 54 90 55 91 63 92 56 93 62 94 64 95 61 96 57 97
REMARK SMILES IDX 58 98 59 99 60 100
REMARK H PARENT 18 7 25 34 84 53 52 64
REMARK Flexibility Score: inf
ROOT
ATOM      1  C   UNL A   1      38.784  31.579  36.406  1.00  0.00     0.002 C 
ENDROOT
BRANCH   1   2
ATOM      2  C   UNL A   1      38.199  31.605  34.990  1.00  0.00     0.021 C 
BRANCH   2   3
ATOM      3  C   UNL A   1      38.455  30.330  34.187  1.00  0.00     0.116 C 
BRANCH   3   4
ATOM      4  N   UNL A   1      37.423  30.144  33.186  1.00  0.00    -0.352 N 
ATOM      5  C   UNL A   1      37.365  29.639  31.933  1.00  0.00     0.251 C 
ATOM      6  O   UNL A   1      36.253  29.658  31.395  1.00  0.00    -0.270 OA
ATOM      7  H   UNL A   1      36.545  30.465  33.495  1.00  0.00     0.163 HD
BRANCH   5   8
ATOM      8  C   UNL A   1      38.528  29.061  31.200  1.00  0.00     0.067 C 
ATOM      9  C   UNL A   1      41.239  26.135  28.077  1.00  0.00     0.059 A 
ATOM     10  C   UNL A   1      41.477  27.328  28.776  1.00  0.00     0.074 A 
ATOM     11  C   UNL A   1      40.015  25.476  28.313  1.00  0.00     0.065 A 
ATOM     12  C   UNL A   1      40.514  27.878  29.623  1.00  0.00     0.130 A 
ATOM     13  C   UNL A   1      39.033  26.052  29.128  1.00  0.00     0.034 A 
ATOM     14  Cl  UNL A   1      39.657  23.928  27.626  1.00  0.00    -0.082 Cl
ATOM     15  C   UNL A   1      39.277  27.266  29.773  1.00  0.00     0.019 A 
ATOM     16  O   UNL A   1      40.869  29.025  30.262  1.00  0.00    -0.475 OA
ATOM     17  C   UNL A   1      38.251  27.903  30.577  1.00  0.00     0.025 C 
ATOM     18  C   UNL A   1      39.885  29.714  31.083  1.00  0.00     0.314 C 
BRANCH   9  19
ATOM     19  N   UNL A   1      42.186  25.658  27.153  1.00  0.00    -0.373 N 
ATOM     20  C   UNL A   1      41.715  25.600  25.770  1.00  0.00     0.143 C 
BRANCH  19  21
ATOM     21  C   UNL A   1      43.009  24.518  27.611  1.00  0.00     0.119 C 
BRANCH  21  22
ATOM     22  C   UNL A   1      44.479  24.635  27.158  1.00  0.00     0.002 C 
ATOM     23  C   UNL A   1      45.461  24.279  28.278  1.00  0.00     0.009 C 
ATOM     24  C   UNL A   1      44.754  23.725  25.957  1.00  0.00     0.009 C 
ENDBRANCH  21  22
ENDBRANCH  19  21
ENDBRANCH   9  19
BRANCH  18  25
ATOM     25  C   UNL A   1      39.864  31.185  30.624  1.00  0.00     0.429 C 
ATOM     26  F   UNL A   1      38.827  31.456  29.797  1.00  0.00    -0.167 F 
ATOM     27  F   UNL A   1      39.781  32.066  31.645  1.00  0.00    -0.167 F 
ATOM     28  F   UNL A   1      41.002  31.478  29.943  1.00  0.00    -0.167 F 
ENDBRANCH  18  25
ENDBRANCH   5   8
ENDBRANCH   3   4
ENDBRANCH   2   3
ENDBRANCH   1   2
BRANCH   1  29
ATOM     29  C   UNL A   1      37.776  31.829  37.535  1.00  0.00     0.002 C 
BRANCH  29  30
ATOM     30  C   UNL A   1      37.670  33.279  38.006  1.00  0.00     0.021 C 
BRANCH  30  31
ATOM     31  C   UNL A   1      38.819  33.748  38.892  1.00  0.00     0.116 C 
BRANCH  31  32
ATOM     32  N   UNL A   1      38.939  35.198  38.924  1.00  0.00    -0.352 N 
ATOM     33  C   UNL A   1      39.682  36.020  38.109  1.00  0.00     0.251 C 
ATOM     34  H   UNL A   1      38.417  35.652  39.623  1.00  0.00     0.163 HD
ATOM     35  O   UNL A   1      39.806  37.211  38.383  1.00  0.00    -0.269 OA
BRANCH  33  36
ATOM     36  C   UNL A   1      40.358  35.443  36.928  1.00  0.00     0.039 A 
ATOM     37  C   UNL A   1      39.657  35.267  35.731  1.00  0.00     0.014 A 
ATOM     38  C   UNL A   1      41.686  35.028  37.035  1.00  0.00     0.014 A 
ATOM     39  C   UNL A   1      40.230  34.525  34.704  1.00  0.00     0.010 A 
ATOM     40  C   UNL A   1      42.286  34.354  35.969  1.00  0.00     0.010 A 
ATOM     41  C   UNL A   1      41.546  34.050  34.815  1.00  0.00    -0.014 A 
BRANCH  41  42
ATOM     42  C   UNL A   1      42.130  33.230  33.720  1.00  0.00     0.031 A 
ATOM     43  C   UNL A   1      42.346  31.751  33.902  1.00  0.00     0.074 A 
ATOM     44  C   UNL A   1      42.436  33.818  32.547  1.00  0.00     0.049 A 
ATOM     45  N   UNL A   1      42.859  30.886  33.065  1.00  0.00    -0.248 NA
ATOM     46  C   UNL A   1      41.935  31.163  35.188  1.00  0.00     0.031 C 
ATOM     47  C   UNL A   1      42.257  35.241  32.256  1.00  0.00     0.029 A 
ATOM     48  N   UNL A   1      42.947  33.302  31.381  1.00  0.00    -0.354 N 
ATOM     49  C   UNL A   1      42.855  29.664  33.727  1.00  0.00     0.074 A 
ATOM     50  C   UNL A   1      42.312  29.899  35.045  1.00  0.00     0.031 C 
ATOM     51  C   UNL A   1      42.616  35.478  30.988  1.00  0.00     0.029 A 
ATOM     52  C   UNL A   1      43.123  34.244  30.393  1.00  0.00     0.049 A 
ATOM     53  H   UNL A   1      43.167  32.350  31.264  1.00  0.00     0.167 HD
ATOM     54  C   UNL A   1      43.256  28.454  33.266  1.00  0.00     0.034 A 
ATOM     55  C   UNL A   1      43.653  34.137  29.157  1.00  0.00     0.034 A 
ATOM     56  C   UNL A   1      43.765  28.232  31.937  1.00  0.00     0.049 A 
ATOM     57  C   UNL A   1      44.115  32.784  28.680  1.00  0.00     0.074 A 
ATOM     58  C   UNL A   1      44.164  27.034  31.369  1.00  0.00     0.029 A 
ATOM     59  N   UNL A   1      43.939  29.211  30.970  1.00  0.00    -0.354 N 
ATOM     60  N   UNL A   1      44.060  31.630  29.303  1.00  0.00    -0.248 NA
ATOM     61  C   UNL A   1      44.707  32.709  27.337  1.00  0.00     0.031 C 
ATOM     62  C   UNL A   1      44.637  27.298  30.084  1.00  0.00     0.029 A 
ATOM     63  C   UNL A   1      44.464  28.648  29.819  1.00  0.00     0.049 A 
ATOM     64  H   UNL A   1      43.723  30.164  31.085  1.00  0.00     0.167 HD
ATOM     65  C   UNL A   1      44.589  30.692  28.421  1.00  0.00     0.074 A 
ATOM     66  C   UNL A   1      44.934  31.408  27.212  1.00  0.00     0.031 C 
ATOM     67  C   UNL A   1      44.777  29.361  28.605  1.00  0.00     0.034 A 
BRANCH  54  68
ATOM     68  C   UNL A   1      43.159  27.254  34.174  1.00  0.00     0.023 A 
ATOM     69  C   UNL A   1      44.333  26.637  34.647  1.00  0.00     0.031 A 
ATOM     70  C   UNL A   1      41.928  26.626  34.430  1.00  0.00     0.131 A 
ATOM     71  C   UNL A   1      44.255  25.405  35.308  1.00  0.00     0.055 A 
ATOM     72  C   UNL A   1      41.852  25.418  35.126  1.00  0.00     0.041 A 
ATOM     73  F   UNL A   1      40.779  27.174  34.000  1.00  0.00    -0.206 F 
ATOM     74  C   UNL A   1      43.020  24.796  35.555  1.00  0.00     0.022 A 
BRANCH  71  75
ATOM     75  S   UNL A   1      45.752  24.514  35.810  1.00  0.00     0.124 S 
ATOM     76  O   UNL A   1      46.011  25.081  37.132  1.00  0.00    -0.237 OA
ATOM     77  O   UNL A   1      45.296  23.127  35.806  1.00  0.00    -0.237 OA
ATOM     78  O   UNL A   1      46.729  24.863  34.785  1.00  0.00    -0.744 OA
ENDBRANCH  71  75
ENDBRANCH  54  68
BRANCH  55  79
ATOM     79  C   UNL A   1      43.738  35.352  28.294  1.00  0.00     0.023 A 
ATOM     80  C   UNL A   1      44.950  36.057  28.160  1.00  0.00     0.031 A 
ATOM     81  C   UNL A   1      42.595  35.888  27.680  1.00  0.00     0.131 A 
ATOM     82  C   UNL A   1      44.973  37.290  27.496  1.00  0.00     0.055 A 
ATOM     83  C   UNL A   1      42.637  37.079  26.954  1.00  0.00     0.041 A 
ATOM     84  F   UNL A   1      41.412  35.261  27.790  1.00  0.00    -0.206 F 
ATOM     85  C   UNL A   1      43.826  37.797  26.876  1.00  0.00     0.022 A 
BRANCH  82  86
ATOM     86  S   UNL A   1      46.449  38.345  27.550  1.00  0.00     0.124 S 
ATOM     87  O   UNL A   1      46.052  39.372  28.509  1.00  0.00    -0.237 OA
ATOM     88  O   UNL A   1      47.470  37.408  28.014  1.00  0.00    -0.237 OA
ATOM     89  O   UNL A   1      46.602  38.792  26.170  1.00  0.00    -0.744 OA
ENDBRANCH  82  86
ENDBRANCH  55  79
BRANCH  67  90
ATOM     90  C   UNL A   1      45.370  28.548  27.480  1.00  0.00     0.023 A 
ATOM     91  C   UNL A   1      46.756  28.296  27.456  1.00  0.00     0.031 A 
ATOM     92  C   UNL A   1      44.608  28.189  26.357  1.00  0.00     0.131 A 
ATOM     93  C   UNL A   1      47.345  27.751  26.309  1.00  0.00     0.055 A 
ATOM     94  C   UNL A   1      45.192  27.599  25.234  1.00  0.00     0.041 A 
ATOM     95  F   UNL A   1      43.285  28.420  26.328  1.00  0.00    -0.206 F 
ATOM     96  C   UNL A   1      46.569  27.395  25.201  1.00  0.00     0.022 A 
BRANCH  93  97
ATOM     97  S   UNL A   1      49.146  27.579  26.173  1.00  0.00     0.124 S 
ATOM     98  O   UNL A   1      49.480  26.899  27.422  1.00  0.00    -0.237 OA
ATOM     99  O   UNL A   1      49.286  26.770  24.965  1.00  0.00    -0.237 OA
ATOM    100  O   UNL A   1      49.624  28.953  26.067  1.00  0.00    -0.744 OA
ENDBRANCH  93  97
ENDBRANCH  67  90
ENDBRANCH  41  42
ENDBRANCH  33  36
ENDBRANCH  31  32
ENDBRANCH  30  31
ENDBRANCH  29  30
ENDBRANCH   1  29
TORSDOF 20
ENDMDL
