MODEL 1
REMARK VINA RESULT:     -10.2      0.000      0.000
REMARK SMILES COc1ccc(Cl)c2c1N[C@@H](c1ccc(C(=O)NCCCCCCNC(=O)c3ccc(-c4c5nc(c(-c6cc(S(=O)(=O)[O-])ccc6F)c6ccc([nH]6)c(-c6cc(S(=O)(=O)[O-])ccc6F)c6nc(c(-c7cc(S(=O)(=O)[O-])ccc7F)c7ccc4[nH]7)C=C6)C=C5)cc3)cc1)[C@@H]1CC=C[C@H]21
REMARK SMILES IDX 22 1 21 2 20 3 19 4 18 5 16 6 17 7 15 9 12 10 13 11 92 12
REMARK SMILES IDX 14 13 91 14 11 15 3 16 4 17 9 18 5 19 8 20 10 21 6 22 97 23
REMARK SMILES IDX 7 25 93 26 96 27 94 28 95 29 2 30 1 31 23 32 24 33 25 34
REMARK SMILES IDX 26 35 27 37 28 38 29 39 90 40 30 41 89 42 31 43 32 44 33 45
REMARK SMILES IDX 83 46 34 47 88 48 82 49 84 50 35 51 87 52 81 53 80 54 36 56
REMARK SMILES IDX 68 57 48 58 67 59 49 60 52 61 66 62 85 63 50 64 51 65 65 67
REMARK SMILES IDX 86 68 53 69 37 70 38 71 46 72 39 73 45 74 47 75 44 76 40 77
REMARK SMILES IDX 41 78 42 79 43 80 69 81 70 82 78 83 71 84 77 85 79 86 76 87
REMARK SMILES IDX 72 88 73 89 74 90 75 91 54 92 55 93 63 94 56 95 62 96 64 97
REMARK SMILES IDX 61 98 57 99 58 100 59 101 60 102
REMARK H PARENT 18 8 10 24 25 36 84 55 52 66
REMARK Flexibility Score: inf
ROOT
ATOM      1  C   UNL A   1      42.831  22.681  26.348  1.00  0.00     0.002 C 
ENDROOT
BRANCH   1   2
ATOM      2  C   UNL A   1      43.792  22.545  25.160  1.00  0.00     0.002 C 
BRANCH   2   3
ATOM      3  C   UNL A   1      44.388  23.869  24.664  1.00  0.00     0.021 C 
BRANCH   3   4
ATOM      4  C   UNL A   1      44.863  24.780  25.797  1.00  0.00     0.116 C 
BRANCH   4   5
ATOM      5  N   UNL A   1      46.244  24.478  26.120  1.00  0.00    -0.352 N 
ATOM      6  C   UNL A   1      46.926  24.458  27.308  1.00  0.00     0.251 C 
ATOM      7  O   UNL A   1      48.129  24.196  27.271  1.00  0.00    -0.269 OA
ATOM      8  H   UNL A   1      46.794  24.244  25.339  1.00  0.00     0.163 HD
BRANCH   6   9
ATOM      9  C   UNL A   1      46.270  24.663  28.629  1.00  0.00     0.039 A 
ATOM     10  C   UNL A   1      44.799  24.983  31.035  1.00  0.00    -0.025 A 
ATOM     11  C   UNL A   1      44.415  24.034  30.077  1.00  0.00     0.006 A 
ATOM     12  C   UNL A   1      45.963  25.730  30.788  1.00  0.00     0.006 A 
ATOM     13  C   UNL A   1      45.153  23.864  28.902  1.00  0.00     0.014 A 
ATOM     14  C   UNL A   1      46.694  25.567  29.605  1.00  0.00     0.014 A 
BRANCH  10  15
ATOM     15  C   UNL A   1      44.019  25.211  32.328  1.00  0.00     0.114 C 
ATOM     16  C   UNL A   1      42.416  28.335  33.574  1.00  0.00     0.142 A 
ATOM     17  C   UNL A   1      41.814  28.858  34.715  1.00  0.00     0.050 A 
ATOM     18  C   UNL A   1      43.089  27.097  33.606  1.00  0.00     0.083 A 
ATOM     19  C   UNL A   1      41.847  28.133  35.902  1.00  0.00     0.025 A 
ATOM     20  C   UNL A   1      43.124  26.358  34.804  1.00  0.00     0.005 A 
ATOM     21  N   UNL A   1      43.735  26.628  32.474  1.00  0.00    -0.375 N 
ATOM     22  C   UNL A   1      42.497  26.896  35.949  1.00  0.00     0.047 A 
ATOM     23  C   UNL A   1      43.889  25.054  34.855  1.00  0.00     0.051 C 
ATOM     24  H   UNL A   1      44.003  27.257  31.765  1.00  0.00     0.161 HD
ATOM     25  Cl  UNL A   1      42.530  26.093  37.482  1.00  0.00    -0.084 Cl
ATOM     26  C   UNL A   1      44.743  24.720  33.602  1.00  0.00     0.031 C 
ATOM     27  C   UNL A   1      43.032  23.817  34.964  1.00  0.00    -0.023 C 
ATOM     28  C   UNL A   1      44.879  23.187  33.678  1.00  0.00     0.034 C 
ATOM     29  C   UNL A   1      43.591  22.783  34.322  1.00  0.00    -0.030 C 
BRANCH  16  30
ATOM     30  O   UNL A   1      42.382  29.118  32.444  1.00  0.00    -0.495 OA
ATOM     31  C   UNL A   1      42.639  30.492  32.743  1.00  0.00     0.278 C 
ENDBRANCH  16  30
ENDBRANCH  10  15
ENDBRANCH   6   9
ENDBRANCH   4   5
ENDBRANCH   3   4
ENDBRANCH   2   3
ENDBRANCH   1   2
BRANCH   1  32
ATOM     32  C   UNL A   1      42.242  21.359  26.846  1.00  0.00     0.021 C 
BRANCH  32  33
ATOM     33  C   UNL A   1      40.909  21.516  27.571  1.00  0.00     0.116 C 
BRANCH  33  34
ATOM     34  N   UNL A   1      39.810  21.609  26.622  1.00  0.00    -0.352 N 
ATOM     35  C   UNL A   1      38.998  22.687  26.368  1.00  0.00     0.251 C 
ATOM     36  H   UNL A   1      39.625  20.797  26.097  1.00  0.00     0.163 HD
ATOM     37  O   UNL A   1      37.946  22.551  25.762  1.00  0.00    -0.269 OA
BRANCH  35  38
ATOM     38  C   UNL A   1      39.430  24.018  26.839  1.00  0.00     0.039 A 
ATOM     39  C   UNL A   1      40.038  24.899  25.944  1.00  0.00     0.014 A 
ATOM     40  C   UNL A   1      39.219  24.381  28.173  1.00  0.00     0.014 A 
ATOM     41  C   UNL A   1      40.410  26.169  26.384  1.00  0.00     0.010 A 
ATOM     42  C   UNL A   1      39.540  25.665  28.595  1.00  0.00     0.010 A 
ATOM     43  C   UNL A   1      40.155  26.562  27.709  1.00  0.00    -0.014 A 
BRANCH  43  44
ATOM     44  C   UNL A   1      40.573  27.891  28.208  1.00  0.00     0.031 A 
ATOM     45  C   UNL A   1      42.036  28.208  28.327  1.00  0.00     0.074 A 
ATOM     46  C   UNL A   1      39.646  28.782  28.602  1.00  0.00     0.049 A 
ATOM     47  N   UNL A   1      42.608  29.293  28.775  1.00  0.00    -0.248 NA
ATOM     48  C   UNL A   1      42.981  27.158  27.907  1.00  0.00     0.031 C 
ATOM     49  C   UNL A   1      38.200  28.561  28.570  1.00  0.00     0.029 A 
ATOM     50  N   UNL A   1      39.781  30.046  29.121  1.00  0.00    -0.354 N 
ATOM     51  C   UNL A   1      43.974  29.060  28.691  1.00  0.00     0.074 A 
ATOM     52  C   UNL A   1      44.147  27.709  28.207  1.00  0.00     0.031 C 
ATOM     53  C   UNL A   1      37.581  29.654  29.043  1.00  0.00     0.029 A 
ATOM     54  C   UNL A   1      38.584  30.643  29.436  1.00  0.00     0.049 A 
ATOM     55  H   UNL A   1      40.653  30.483  29.255  1.00  0.00     0.167 HD
ATOM     56  C   UNL A   1      44.991  29.908  28.965  1.00  0.00     0.034 A 
ATOM     57  C   UNL A   1      38.324  31.849  29.983  1.00  0.00     0.034 A 
ATOM     58  C   UNL A   1      44.804  31.256  29.429  1.00  0.00     0.049 A 
ATOM     59  C   UNL A   1      39.471  32.778  30.285  1.00  0.00     0.074 A 
ATOM     60  C   UNL A   1      45.770  32.212  29.681  1.00  0.00     0.029 A 
ATOM     61  N   UNL A   1      43.576  31.839  29.707  1.00  0.00    -0.354 N 
ATOM     62  N   UNL A   1      40.757  32.578  30.110  1.00  0.00    -0.248 NA
ATOM     63  C   UNL A   1      39.142  34.098  30.840  1.00  0.00     0.031 C 
ATOM     64  C   UNL A   1      45.132  33.357  30.160  1.00  0.00     0.029 A 
ATOM     65  C   UNL A   1      43.762  33.136  30.151  1.00  0.00     0.049 A 
ATOM     66  H   UNL A   1      42.704  31.395  29.606  1.00  0.00     0.167 HD
ATOM     67  C   UNL A   1      41.386  33.753  30.510  1.00  0.00     0.074 A 
ATOM     68  C   UNL A   1      40.339  34.666  30.920  1.00  0.00     0.031 C 
ATOM     69  C   UNL A   1      42.711  34.046  30.536  1.00  0.00     0.034 A 
BRANCH  56  70
ATOM     70  C   UNL A   1      46.401  29.431  28.743  1.00  0.00     0.023 A 
ATOM     71  C   UNL A   1      46.856  29.155  27.442  1.00  0.00     0.031 A 
ATOM     72  C   UNL A   1      47.248  29.138  29.826  1.00  0.00     0.131 A 
ATOM     73  C   UNL A   1      48.114  28.569  27.258  1.00  0.00     0.055 A 
ATOM     74  C   UNL A   1      48.516  28.590  29.635  1.00  0.00     0.041 A 
ATOM     75  F   UNL A   1      46.856  29.390  31.086  1.00  0.00    -0.206 F 
ATOM     76  C   UNL A   1      48.949  28.292  28.346  1.00  0.00     0.022 A 
BRANCH  73  77
ATOM     77  S   UNL A   1      48.698  28.111  25.605  1.00  0.00     0.124 S 
ATOM     78  O   UNL A   1      47.613  28.597  24.755  1.00  0.00    -0.237 OA
ATOM     79  O   UNL A   1      49.949  28.860  25.508  1.00  0.00    -0.237 OA
ATOM     80  O   UNL A   1      48.830  26.660  25.669  1.00  0.00    -0.744 OA
ENDBRANCH  73  77
ENDBRANCH  56  70
BRANCH  57  81
ATOM     81  C   UNL A   1      36.906  32.248  30.210  1.00  0.00     0.023 A 
ATOM     82  C   UNL A   1      36.199  32.985  29.243  1.00  0.00     0.031 A 
ATOM     83  C   UNL A   1      36.277  31.990  31.439  1.00  0.00     0.131 A 
ATOM     84  C   UNL A   1      34.928  33.490  29.546  1.00  0.00     0.055 A 
ATOM     85  C   UNL A   1      34.985  32.442  31.713  1.00  0.00     0.041 A 
ATOM     86  F   UNL A   1      36.919  31.302  32.395  1.00  0.00    -0.206 F 
ATOM     87  C   UNL A   1      34.309  33.209  30.768  1.00  0.00     0.022 A 
BRANCH  84  88
ATOM     88  S   UNL A   1      34.078  34.612  28.402  1.00  0.00     0.124 S 
ATOM     89  O   UNL A   1      34.946  34.573  27.229  1.00  0.00    -0.237 OA
ATOM     90  O   UNL A   1      32.782  33.954  28.251  1.00  0.00    -0.237 OA
ATOM     91  O   UNL A   1      34.050  35.882  29.121  1.00  0.00    -0.744 OA
ENDBRANCH  84  88
ENDBRANCH  57  81
BRANCH  69  92
ATOM     92  C   UNL A   1      43.144  35.410  31.008  1.00  0.00     0.023 A 
ATOM     93  C   UNL A   1      43.385  36.432  30.070  1.00  0.00     0.031 A 
ATOM     94  C   UNL A   1      43.488  35.642  32.350  1.00  0.00     0.131 A 
ATOM     95  C   UNL A   1      43.998  37.622  30.479  1.00  0.00     0.055 A 
ATOM     96  C   UNL A   1      44.058  36.847  32.761  1.00  0.00     0.041 A 
ATOM     97  F   UNL A   1      43.287  34.692  33.279  1.00  0.00    -0.206 F 
ATOM     98  C   UNL A   1      44.329  37.837  31.821  1.00  0.00     0.022 A 
BRANCH  95  99
ATOM     99  S   UNL A   1      44.459  38.899  29.275  1.00  0.00     0.124 S 
ATOM    100  O   UNL A   1      43.277  39.757  29.276  1.00  0.00    -0.237 OA
ATOM    101  O   UNL A   1      45.651  39.477  29.886  1.00  0.00    -0.237 OA
ATOM    102  O   UNL A   1      44.682  38.153  28.040  1.00  0.00    -0.744 OA
ENDBRANCH  95  99
ENDBRANCH  69  92
ENDBRANCH  43  44
ENDBRANCH  35  38
ENDBRANCH  33  34
ENDBRANCH  32  33
ENDBRANCH   1  32
TORSDOF 18
ENDMDL
MODEL 2
REMARK VINA RESULT:     -10.0      3.645      7.780
REMARK SMILES COc1ccc(Cl)c2c1N[C@@H](c1ccc(C(=O)NCCCCCCNC(=O)c3ccc(-c4c5nc(c(-c6cc(S(=O)(=O)[O-])ccc6F)c6ccc([nH]6)c(-c6cc(S(=O)(=O)[O-])ccc6F)c6nc(c(-c7cc(S(=O)(=O)[O-])ccc7F)c7ccc4[nH]7)C=C6)C=C5)cc3)cc1)[C@@H]1CC=C[C@H]21
REMARK SMILES IDX 22 1 21 2 20 3 19 4 18 5 16 6 17 7 15 9 12 10 13 11 92 12
REMARK SMILES IDX 14 13 91 14 11 15 3 16 4 17 9 18 5 19 8 20 10 21 6 22 97 23
REMARK SMILES IDX 7 25 93 26 96 27 94 28 95 29 2 30 1 31 23 32 24 33 25 34
REMARK SMILES IDX 26 35 27 37 28 38 29 39 90 40 30 41 89 42 31 43 32 44 33 45
REMARK SMILES IDX 83 46 34 47 88 48 82 49 84 50 35 51 87 52 81 53 80 54 36 56
REMARK SMILES IDX 68 57 48 58 67 59 49 60 52 61 66 62 85 63 50 64 51 65 65 67
REMARK SMILES IDX 86 68 53 69 37 70 38 71 46 72 39 73 45 74 47 75 44 76 40 77
REMARK SMILES IDX 41 78 42 79 43 80 69 81 70 82 78 83 71 84 77 85 79 86 76 87
REMARK SMILES IDX 72 88 73 89 74 90 75 91 54 92 55 93 63 94 56 95 62 96 64 97
REMARK SMILES IDX 61 98 57 99 58 100 59 101 60 102
REMARK H PARENT 18 8 10 24 25 36 84 55 52 66
REMARK Flexibility Score: inf
ROOT
ATOM      1  C   UNL A   1      45.791  24.047  28.030  1.00  0.00     0.002 C 
ENDROOT
BRANCH   1   2
ATOM      2  C   UNL A   1      44.382  23.782  27.488  1.00  0.00     0.002 C 
BRANCH   2   3
ATOM      3  C   UNL A   1      43.342  23.420  28.557  1.00  0.00     0.021 C 
BRANCH   3   4
ATOM      4  C   UNL A   1      42.127  24.350  28.557  1.00  0.00     0.116 C 
BRANCH   4   5
ATOM      5  N   UNL A   1      41.866  24.811  27.207  1.00  0.00    -0.352 N 
ATOM      6  C   UNL A   1      41.173  25.889  26.724  1.00  0.00     0.251 C 
ATOM      7  O   UNL A   1      41.085  26.009  25.501  1.00  0.00    -0.269 OA
ATOM      8  H   UNL A   1      42.260  24.242  26.508  1.00  0.00     0.163 HD
BRANCH   6   9
ATOM      9  C   UNL A   1      40.595  26.947  27.598  1.00  0.00     0.039 A 
ATOM     10  C   UNL A   1      39.284  28.814  29.287  1.00  0.00    -0.025 A 
ATOM     11  C   UNL A   1      39.039  27.438  29.406  1.00  0.00     0.006 A 
ATOM     12  C   UNL A   1      40.236  29.230  28.342  1.00  0.00     0.006 A 
ATOM     13  C   UNL A   1      39.701  26.519  28.587  1.00  0.00     0.014 A 
ATOM     14  C   UNL A   1      40.890  28.308  27.514  1.00  0.00     0.014 A 
BRANCH  10  15
ATOM     15  C   UNL A   1      38.578  29.854  30.152  1.00  0.00     0.114 C 
ATOM     16  C   UNL A   1      36.353  32.652  29.100  1.00  0.00     0.142 A 
ATOM     17  C   UNL A   1      35.732  33.789  29.611  1.00  0.00     0.050 A 
ATOM     18  C   UNL A   1      37.313  31.944  29.850  1.00  0.00     0.083 A 
ATOM     19  C   UNL A   1      36.039  34.217  30.898  1.00  0.00     0.025 A 
ATOM     20  C   UNL A   1      37.626  32.372  31.155  1.00  0.00     0.005 A 
ATOM     21  N   UNL A   1      37.962  30.853  29.295  1.00  0.00    -0.375 N 
ATOM     22  C   UNL A   1      36.978  33.518  31.664  1.00  0.00     0.047 A 
ATOM     23  C   UNL A   1      38.692  31.645  31.943  1.00  0.00     0.051 C 
ATOM     24  H   UNL A   1      38.008  30.755  28.316  1.00  0.00     0.161 HD
ATOM     25  Cl  UNL A   1      37.332  34.158  33.232  1.00  0.00    -0.084 Cl
ATOM     26  C   UNL A   1      39.501  30.573  31.162  1.00  0.00     0.031 C 
ATOM     27  C   UNL A   1      38.182  30.836  33.110  1.00  0.00    -0.023 C 
ATOM     28  C   UNL A   1      40.019  29.651  32.283  1.00  0.00     0.034 C 
ATOM     29  C   UNL A   1      38.928  29.740  33.301  1.00  0.00    -0.030 C 
BRANCH  16  30
ATOM     30  O   UNL A   1      36.035  32.303  27.808  1.00  0.00    -0.495 OA
ATOM     31  C   UNL A   1      34.777  31.627  27.735  1.00  0.00     0.278 C 
ENDBRANCH  16  30
ENDBRANCH  10  15
ENDBRANCH   6   9
ENDBRANCH   4   5
ENDBRANCH   3   4
ENDBRANCH   2   3
ENDBRANCH   1   2
BRANCH   1  32
ATOM     32  C   UNL A   1      46.894  24.042  26.968  1.00  0.00     0.021 C 
BRANCH  32  33
ATOM     33  C   UNL A   1      46.367  24.017  25.537  1.00  0.00     0.116 C 
BRANCH  33  34
ATOM     34  N   UNL A   1      47.082  24.971  24.703  1.00  0.00    -0.352 N 
ATOM     35  C   UNL A   1      46.997  26.343  24.719  1.00  0.00     0.251 C 
ATOM     36  H   UNL A   1      47.706  24.587  24.046  1.00  0.00     0.163 HD
ATOM     37  O   UNL A   1      47.429  27.009  23.792  1.00  0.00    -0.269 OA
BRANCH  35  38
ATOM     38  C   UNL A   1      46.374  26.993  25.889  1.00  0.00     0.039 A 
ATOM     39  C   UNL A   1      44.983  27.043  25.988  1.00  0.00     0.014 A 
ATOM     40  C   UNL A   1      47.184  27.545  26.886  1.00  0.00     0.014 A 
ATOM     41  C   UNL A   1      44.399  27.624  27.114  1.00  0.00     0.010 A 
ATOM     42  C   UNL A   1      46.602  28.075  28.031  1.00  0.00     0.010 A 
ATOM     43  C   UNL A   1      45.206  28.135  28.144  1.00  0.00    -0.014 A 
BRANCH  43  44
ATOM     44  C   UNL A   1      44.609  28.788  29.331  1.00  0.00     0.031 A 
ATOM     45  C   UNL A   1      44.436  28.001  30.597  1.00  0.00     0.074 A 
ATOM     46  C   UNL A   1      44.176  30.060  29.251  1.00  0.00     0.049 A 
ATOM     47  N   UNL A   1      43.903  28.373  31.730  1.00  0.00    -0.248 NA
ATOM     48  C   UNL A   1      44.905  26.605  30.582  1.00  0.00     0.031 C 
ATOM     49  C   UNL A   1      44.255  30.901  28.057  1.00  0.00     0.029 A 
ATOM     50  N   UNL A   1      43.570  30.860  30.187  1.00  0.00    -0.354 N 
ATOM     51  C   UNL A   1      43.971  27.262  32.560  1.00  0.00     0.074 A 
ATOM     52  C   UNL A   1      44.542  26.184  31.785  1.00  0.00     0.031 C 
ATOM     53  C   UNL A   1      43.724  32.103  28.334  1.00  0.00     0.029 A 
ATOM     54  C   UNL A   1      43.242  32.109  29.715  1.00  0.00     0.049 A 
ATOM     55  H   UNL A   1      43.388  30.568  31.109  1.00  0.00     0.167 HD
ATOM     56  C   UNL A   1      43.618  27.162  33.862  1.00  0.00     0.034 A 
ATOM     57  C   UNL A   1      42.621  33.140  30.324  1.00  0.00     0.034 A 
ATOM     58  C   UNL A   1      43.068  28.248  34.626  1.00  0.00     0.049 A 
ATOM     59  C   UNL A   1      42.231  33.006  31.773  1.00  0.00     0.074 A 
ATOM     60  C   UNL A   1      42.730  28.261  35.967  1.00  0.00     0.029 A 
ATOM     61  N   UNL A   1      42.778  29.508  34.125  1.00  0.00    -0.354 N 
ATOM     62  N   UNL A   1      42.390  31.979  32.574  1.00  0.00    -0.248 NA
ATOM     63  C   UNL A   1      41.595  34.168  32.410  1.00  0.00     0.031 C 
ATOM     64  C   UNL A   1      42.189  29.512  36.266  1.00  0.00     0.029 A 
ATOM     65  C   UNL A   1      42.244  30.301  35.125  1.00  0.00     0.049 A 
ATOM     66  H   UNL A   1      42.929  29.795  33.196  1.00  0.00     0.167 HD
ATOM     67  C   UNL A   1      41.897  32.378  33.813  1.00  0.00     0.074 A 
ATOM     68  C   UNL A   1      41.450  33.747  33.661  1.00  0.00     0.031 C 
ATOM     69  C   UNL A   1      41.822  31.672  34.969  1.00  0.00     0.034 A 
BRANCH  56  70
ATOM     70  C   UNL A   1      43.840  25.850  34.565  1.00  0.00     0.023 A 
ATOM     71  C   UNL A   1      45.146  25.377  34.781  1.00  0.00     0.031 A 
ATOM     72  C   UNL A   1      42.760  25.018  34.909  1.00  0.00     0.131 A 
ATOM     73  C   UNL A   1      45.340  24.090  35.297  1.00  0.00     0.055 A 
ATOM     74  C   UNL A   1      42.959  23.752  35.459  1.00  0.00     0.041 A 
ATOM     75  F   UNL A   1      41.495  25.431  34.725  1.00  0.00    -0.206 F 
ATOM     76  C   UNL A   1      44.254  23.279  35.644  1.00  0.00     0.022 A 
BRANCH  73  77
ATOM     77  S   UNL A   1      47.007  23.408  35.502  1.00  0.00     0.124 S 
ATOM     78  O   UNL A   1      47.092  23.251  36.953  1.00  0.00    -0.237 OA
ATOM     79  O   UNL A   1      46.920  22.164  34.743  1.00  0.00    -0.237 OA
ATOM     80  O   UNL A   1      47.877  24.435  34.941  1.00  0.00    -0.744 OA
ENDBRANCH  73  77
ENDBRANCH  56  70
BRANCH  57  81
ATOM     81  C   UNL A   1      42.399  34.401  29.561  1.00  0.00     0.023 A 
ATOM     82  C   UNL A   1      43.450  35.312  29.350  1.00  0.00     0.031 A 
ATOM     83  C   UNL A   1      41.112  34.760  29.129  1.00  0.00     0.131 A 
ATOM     84  C   UNL A   1      43.182  36.562  28.777  1.00  0.00     0.055 A 
ATOM     85  C   UNL A   1      40.861  35.982  28.501  1.00  0.00     0.041 A 
ATOM     86  F   UNL A   1      40.078  33.928  29.321  1.00  0.00    -0.206 F 
ATOM     87  C   UNL A   1      41.898  36.897  28.335  1.00  0.00     0.022 A 
BRANCH  84  88
ATOM     88  S   UNL A   1      44.472  37.833  28.678  1.00  0.00     0.124 S 
ATOM     89  O   UNL A   1      44.331  38.310  27.306  1.00  0.00    -0.237 OA
ATOM     90  O   UNL A   1      44.047  38.767  29.719  1.00  0.00    -0.237 OA
ATOM     91  O   UNL A   1      45.701  37.101  28.965  1.00  0.00    -0.744 OA
ENDBRANCH  84  88
ENDBRANCH  57  81
BRANCH  69  92
ATOM     92  C   UNL A   1      41.248  32.340  36.193  1.00  0.00     0.023 A 
ATOM     93  C   UNL A   1      39.925  32.063  36.585  1.00  0.00     0.031 A 
ATOM     94  C   UNL A   1      41.939  33.370  36.852  1.00  0.00     0.131 A 
ATOM     95  C   UNL A   1      39.317  32.841  37.577  1.00  0.00     0.055 A 
ATOM     96  C   UNL A   1      41.344  34.113  37.871  1.00  0.00     0.041 A 
ATOM     97  F   UNL A   1      43.200  33.677  36.503  1.00  0.00    -0.206 F 
ATOM     98  C   UNL A   1      40.022  33.860  38.227  1.00  0.00     0.022 A 
BRANCH  95  99
ATOM     99  S   UNL A   1      37.568  32.612  38.005  1.00  0.00     0.124 S 
ATOM    100  O   UNL A   1      36.896  33.346  36.935  1.00  0.00    -0.237 OA
ATOM    101  O   UNL A   1      37.429  31.160  37.949  1.00  0.00    -0.237 OA
ATOM    102  O   UNL A   1      37.450  33.207  39.333  1.00  0.00    -0.744 OA
ENDBRANCH  95  99
ENDBRANCH  69  92
ENDBRANCH  43  44
ENDBRANCH  35  38
ENDBRANCH  33  34
ENDBRANCH  32  33
ENDBRANCH   1  32
TORSDOF 18
ENDMDL
MODEL 3
REMARK VINA RESULT:      -9.8      1.708      2.029
REMARK SMILES COc1ccc(Cl)c2c1N[C@@H](c1ccc(C(=O)NCCCCCCNC(=O)c3ccc(-c4c5nc(c(-c6cc(S(=O)(=O)[O-])ccc6F)c6ccc([nH]6)c(-c6cc(S(=O)(=O)[O-])ccc6F)c6nc(c(-c7cc(S(=O)(=O)[O-])ccc7F)c7ccc4[nH]7)C=C6)C=C5)cc3)cc1)[C@@H]1CC=C[C@H]21
REMARK SMILES IDX 22 1 21 2 20 3 19 4 18 5 16 6 17 7 15 9 12 10 13 11 92 12
REMARK SMILES IDX 14 13 91 14 11 15 3 16 4 17 9 18 5 19 8 20 10 21 6 22 97 23
REMARK SMILES IDX 7 25 93 26 96 27 94 28 95 29 2 30 1 31 23 32 24 33 25 34
REMARK SMILES IDX 26 35 27 37 28 38 29 39 90 40 30 41 89 42 31 43 32 44 33 45
REMARK SMILES IDX 83 46 34 47 88 48 82 49 84 50 35 51 87 52 81 53 80 54 36 56
REMARK SMILES IDX 68 57 48 58 67 59 49 60 52 61 66 62 85 63 50 64 51 65 65 67
REMARK SMILES IDX 86 68 53 69 37 70 38 71 46 72 39 73 45 74 47 75 44 76 40 77
REMARK SMILES IDX 41 78 42 79 43 80 69 81 70 82 78 83 71 84 77 85 79 86 76 87
REMARK SMILES IDX 72 88 73 89 74 90 75 91 54 92 55 93 63 94 56 95 62 96 64 97
REMARK SMILES IDX 61 98 57 99 58 100 59 101 60 102
REMARK H PARENT 18 8 10 24 25 36 84 55 52 66
REMARK Flexibility Score: inf
ROOT
ATOM      1  C   UNL A   1      42.867  22.485  26.525  1.00  0.00     0.002 C 
ENDROOT
BRANCH   1   2
ATOM      2  C   UNL A   1      43.721  22.257  25.272  1.00  0.00     0.002 C 
BRANCH   2   3
ATOM      3  C   UNL A   1      44.209  23.540  24.586  1.00  0.00     0.021 C 
BRANCH   3   4
ATOM      4  C   UNL A   1      44.672  24.613  25.573  1.00  0.00     0.116 C 
BRANCH   4   5
ATOM      5  N   UNL A   1      46.030  24.333  25.997  1.00  0.00    -0.352 N 
ATOM      6  C   UNL A   1      46.621  24.318  27.233  1.00  0.00     0.251 C 
ATOM      7  O   UNL A   1      47.828  24.078  27.285  1.00  0.00    -0.269 OA
ATOM      8  H   UNL A   1      46.642  24.113  25.258  1.00  0.00     0.163 HD
BRANCH   6   9
ATOM      9  C   UNL A   1      45.865  24.504  28.502  1.00  0.00     0.039 A 
ATOM     10  C   UNL A   1      44.638  24.961  31.020  1.00  0.00    -0.025 A 
ATOM     11  C   UNL A   1      45.662  25.799  30.555  1.00  0.00     0.006 A 
ATOM     12  C   UNL A   1      44.206  23.924  30.178  1.00  0.00     0.006 A 
ATOM     13  C   UNL A   1      46.251  25.585  29.306  1.00  0.00     0.014 A 
ATOM     14  C   UNL A   1      44.806  23.704  28.931  1.00  0.00     0.014 A 
BRANCH  10  15
ATOM     15  C   UNL A   1      43.973  25.151  32.381  1.00  0.00     0.114 C 
ATOM     16  C   UNL A   1      42.370  28.200  33.798  1.00  0.00     0.142 A 
ATOM     17  C   UNL A   1      41.856  28.694  34.995  1.00  0.00     0.050 A 
ATOM     18  C   UNL A   1      43.092  26.991  33.757  1.00  0.00     0.083 A 
ATOM     19  C   UNL A   1      42.029  27.965  36.167  1.00  0.00     0.025 A 
ATOM     20  C   UNL A   1      43.268  26.249  34.940  1.00  0.00     0.005 A 
ATOM     21  N   UNL A   1      43.647  26.554  32.565  1.00  0.00    -0.375 N 
ATOM     22  C   UNL A   1      42.730  26.755  36.143  1.00  0.00     0.047 A 
ATOM     23  C   UNL A   1      44.086  24.977  34.909  1.00  0.00     0.051 C 
ATOM     24  H   UNL A   1      43.822  27.197  31.840  1.00  0.00     0.161 HD
ATOM     25  Cl  UNL A   1      42.939  25.948  37.659  1.00  0.00    -0.084 Cl
ATOM     26  C   UNL A   1      44.833  24.684  33.578  1.00  0.00     0.031 C 
ATOM     27  C   UNL A   1      43.294  23.705  35.086  1.00  0.00    -0.023 C 
ATOM     28  C   UNL A   1      45.036  23.157  33.629  1.00  0.00     0.034 C 
ATOM     29  C   UNL A   1      43.832  22.698  34.387  1.00  0.00    -0.030 C 
BRANCH  16  30
ATOM     30  O   UNL A   1      42.199  28.986  32.683  1.00  0.00    -0.495 OA
ATOM     31  C   UNL A   1      40.927  29.641  32.685  1.00  0.00     0.278 C 
ENDBRANCH  16  30
ENDBRANCH  10  15
ENDBRANCH   6   9
ENDBRANCH   4   5
ENDBRANCH   3   4
ENDBRANCH   2   3
ENDBRANCH   1   2
BRANCH   1  32
ATOM     32  C   UNL A   1      42.184  21.227  27.069  1.00  0.00     0.021 C 
BRANCH  32  33
ATOM     33  C   UNL A   1      40.845  21.501  27.746  1.00  0.00     0.116 C 
BRANCH  33  34
ATOM     34  N   UNL A   1      39.774  21.580  26.764  1.00  0.00    -0.352 N 
ATOM     35  C   UNL A   1      38.996  22.665  26.443  1.00  0.00     0.251 C 
ATOM     36  H   UNL A   1      39.582  20.751  26.268  1.00  0.00     0.163 HD
ATOM     37  O   UNL A   1      37.958  22.529  25.814  1.00  0.00    -0.269 OA
BRANCH  35  38
ATOM     38  C   UNL A   1      39.448  24.004  26.869  1.00  0.00     0.039 A 
ATOM     39  C   UNL A   1      40.035  24.860  25.936  1.00  0.00     0.014 A 
ATOM     40  C   UNL A   1      39.278  24.400  28.199  1.00  0.00     0.014 A 
ATOM     41  C   UNL A   1      40.427  26.139  26.335  1.00  0.00     0.010 A 
ATOM     42  C   UNL A   1      39.619  25.692  28.581  1.00  0.00     0.010 A 
ATOM     43  C   UNL A   1      40.212  26.563  27.657  1.00  0.00    -0.014 A 
BRANCH  43  44
ATOM     44  C   UNL A   1      40.652  27.902  28.111  1.00  0.00     0.031 A 
ATOM     45  C   UNL A   1      42.114  28.243  28.096  1.00  0.00     0.074 A 
ATOM     46  C   UNL A   1      39.749  28.780  28.585  1.00  0.00     0.049 A 
ATOM     47  N   UNL A   1      42.706  29.339  28.487  1.00  0.00    -0.248 NA
ATOM     48  C   UNL A   1      43.033  27.207  27.596  1.00  0.00     0.031 C 
ATOM     49  C   UNL A   1      38.310  28.535  28.686  1.00  0.00     0.029 A 
ATOM     50  N   UNL A   1      39.910  30.048  29.086  1.00  0.00    -0.354 N 
ATOM     51  C   UNL A   1      44.063  29.128  28.281  1.00  0.00     0.074 A 
ATOM     52  C   UNL A   1      44.213  27.778  27.787  1.00  0.00     0.031 C 
ATOM     53  C   UNL A   1      37.718  29.620  29.209  1.00  0.00     0.029 A 
ATOM     54  C   UNL A   1      38.736  30.627  29.506  1.00  0.00     0.049 A 
ATOM     55  H   UNL A   1      40.782  30.500  29.138  1.00  0.00     0.167 HD
ATOM     56  C   UNL A   1      45.086  29.994  28.458  1.00  0.00     0.034 A 
ATOM     57  C   UNL A   1      38.507  31.831  30.071  1.00  0.00     0.034 A 
ATOM     58  C   UNL A   1      44.919  31.341  28.933  1.00  0.00     0.049 A 
ATOM     59  C   UNL A   1      39.661  32.780  30.264  1.00  0.00     0.074 A 
ATOM     60  C   UNL A   1      45.888  32.314  29.094  1.00  0.00     0.029 A 
ATOM     61  N   UNL A   1      43.712  31.905  29.320  1.00  0.00    -0.354 N 
ATOM     62  N   UNL A   1      40.929  32.600  29.975  1.00  0.00    -0.248 NA
ATOM     63  C   UNL A   1      39.362  34.097  30.843  1.00  0.00     0.031 C 
ATOM     64  C   UNL A   1      45.277  33.451  29.625  1.00  0.00     0.029 A 
ATOM     65  C   UNL A   1      43.916  33.208  29.741  1.00  0.00     0.049 A 
ATOM     66  H   UNL A   1      42.842  31.447  29.299  1.00  0.00     0.167 HD
ATOM     67  C   UNL A   1      41.572  33.787  30.312  1.00  0.00     0.074 A 
ATOM     68  C   UNL A   1      40.552  34.685  30.813  1.00  0.00     0.031 C 
ATOM     69  C   UNL A   1      42.888  34.102  30.216  1.00  0.00     0.034 A 
BRANCH  56  70
ATOM     70  C   UNL A   1      46.477  29.539  28.111  1.00  0.00     0.023 A 
ATOM     71  C   UNL A   1      47.327  29.039  29.112  1.00  0.00     0.031 A 
ATOM     72  C   UNL A   1      46.997  29.715  26.816  1.00  0.00     0.131 A 
ATOM     73  C   UNL A   1      48.665  28.761  28.809  1.00  0.00     0.055 A 
ATOM     74  C   UNL A   1      48.321  29.401  26.511  1.00  0.00     0.041 A 
ATOM     75  F   UNL A   1      46.220  30.186  25.827  1.00  0.00    -0.206 F 
ATOM     76  C   UNL A   1      49.164  28.932  27.514  1.00  0.00     0.022 A 
BRANCH  73  77
ATOM     77  S   UNL A   1      49.816  28.203  30.093  1.00  0.00     0.124 S 
ATOM     78  O   UNL A   1      49.043  27.156  30.759  1.00  0.00    -0.237 OA
ATOM     79  O   UNL A   1      50.949  27.733  29.301  1.00  0.00    -0.237 OA
ATOM     80  O   UNL A   1      50.054  29.398  30.894  1.00  0.00    -0.744 OA
ENDBRANCH  73  77
ENDBRANCH  56  70
BRANCH  57  81
ATOM     81  C   UNL A   1      37.109  32.208  30.424  1.00  0.00     0.023 A 
ATOM     82  C   UNL A   1      36.227  32.707  29.449  1.00  0.00     0.031 A 
ATOM     83  C   UNL A   1      36.674  32.174  31.759  1.00  0.00     0.131 A 
ATOM     84  C   UNL A   1      34.976  33.209  29.834  1.00  0.00     0.055 A 
ATOM     85  C   UNL A   1      35.402  32.617  32.129  1.00  0.00     0.041 A 
ATOM     86  F   UNL A   1      37.486  31.718  32.724  1.00  0.00    -0.206 F 
ATOM     87  C   UNL A   1      34.551  33.151  31.165  1.00  0.00     0.022 A 
BRANCH  84  88
ATOM     88  S   UNL A   1      33.902  34.044  28.635  1.00  0.00     0.124 S 
ATOM     89  O   UNL A   1      33.503  32.945  27.761  1.00  0.00    -0.237 OA
ATOM     90  O   UNL A   1      32.852  34.577  29.501  1.00  0.00    -0.237 OA
ATOM     91  O   UNL A   1      34.774  35.045  28.028  1.00  0.00    -0.744 OA
ENDBRANCH  84  88
ENDBRANCH  57  81
BRANCH  69  92
ATOM     92  C   UNL A   1      43.340  35.475  30.643  1.00  0.00     0.023 A 
ATOM     93  C   UNL A   1      43.398  35.798  32.012  1.00  0.00     0.031 A 
ATOM     94  C   UNL A   1      43.535  36.502  29.705  1.00  0.00     0.131 A 
ATOM     95  C   UNL A   1      43.598  37.127  32.405  1.00  0.00     0.055 A 
ATOM     96  C   UNL A   1      43.778  37.817  30.103  1.00  0.00     0.041 A 
ATOM     97  F   UNL A   1      43.477  36.243  28.389  1.00  0.00    -0.206 F 
ATOM     98  C   UNL A   1      43.795  38.137  31.458  1.00  0.00     0.022 A 
BRANCH  95  99
ATOM     99  S   UNL A   1      43.530  37.605  34.155  1.00  0.00     0.124 S 
ATOM    100  O   UNL A   1      42.941  36.418  34.770  1.00  0.00    -0.237 OA
ATOM    101  O   UNL A   1      44.938  37.834  34.462  1.00  0.00    -0.237 OA
ATOM    102  O   UNL A   1      42.681  38.792  34.162  1.00  0.00    -0.744 OA
ENDBRANCH  95  99
ENDBRANCH  69  92
ENDBRANCH  43  44
ENDBRANCH  35  38
ENDBRANCH  33  34
ENDBRANCH  32  33
ENDBRANCH   1  32
TORSDOF 18
ENDMDL
