MODEL 1
REMARK VINA RESULT:     -11.9      0.000      0.000
REMARK SMILES O=C(NCCCCCCNC(=O)C1(C/C=C/c2ccccc2)CCCCC1)c1ccc(-c2c3nc(c(-c4cc(S(=O)(=O)[O-])ccc4F)c4ccc([nH]4)c(-c4cc(S(=O)(=O)[O-])ccc4F)c4nc(c(-c5cc(S(=O)(=O)[O-])ccc5F)c5ccc2[nH]5)C=C4)C=C3)cc1
REMARK SMILES IDX 6 1 5 2 4 3 3 4 1 5 2 6 28 8 29 9 90 10 30 11 89 12 31 13
REMARK SMILES IDX 32 14 33 15 83 16 34 17 88 18 82 19 84 20 35 21 87 22 81 23
REMARK SMILES IDX 80 24 36 26 68 27 48 28 67 29 49 30 52 31 66 32 85 33 50 34
REMARK SMILES IDX 51 35 65 37 86 38 53 39 37 40 38 41 46 42 39 43 45 44 47 45
REMARK SMILES IDX 44 46 40 47 41 48 42 49 43 50 69 51 70 52 78 53 71 54 77 55
REMARK SMILES IDX 79 56 76 57 72 58 73 59 74 60 75 61 54 62 55 63 63 64 56 65
REMARK SMILES IDX 62 66 64 67 61 68 57 69 58 70 59 71 60 72 7 73 8 74 9 75
REMARK SMILES IDX 10 76 11 77 12 79 13 80 23 81 27 82 24 83 26 84 25 85 14 86
REMARK SMILES IDX 15 87 16 88 17 89 18 90 22 91 19 92 21 93 20 94
REMARK H PARENT 3 7 84 25 52 36 10 78
REMARK Flexibility Score: inf
ROOT
ATOM      1  C   UNL A   1      31.706  28.696  23.453  1.00  0.00     0.002 C 
ENDROOT
BRANCH   1   2
ATOM      2  C   UNL A   1      33.140  28.945  23.921  1.00  0.00     0.021 C 
BRANCH   2   3
ATOM      3  C   UNL A   1      33.288  29.124  25.427  1.00  0.00     0.116 C 
BRANCH   3   4
ATOM      4  N   UNL A   1      32.774  30.408  25.878  1.00  0.00    -0.352 N 
ATOM      5  O   UNL A   1      32.579  32.168  27.278  1.00  0.00    -0.269 OA
ATOM      6  C   UNL A   1      33.234  31.208  26.899  1.00  0.00     0.251 C 
ATOM      7  H   UNL A   1      31.993  30.751  25.387  1.00  0.00     0.163 HD
BRANCH   6   8
ATOM      8  C   UNL A   1      34.526  30.879  27.545  1.00  0.00     0.039 A 
ATOM      9  C   UNL A   1      34.781  29.581  27.991  1.00  0.00     0.014 A 
ATOM     10  C   UNL A   1      35.483  31.883  27.715  1.00  0.00     0.014 A 
ATOM     11  C   UNL A   1      35.927  29.319  28.731  1.00  0.00     0.010 A 
ATOM     12  C   UNL A   1      36.677  31.595  28.384  1.00  0.00     0.010 A 
ATOM     13  C   UNL A   1      36.895  30.318  28.926  1.00  0.00    -0.014 A 
BRANCH  13  14
ATOM     14  C   UNL A   1      38.144  29.980  29.658  1.00  0.00     0.031 A 
ATOM     15  C   UNL A   1      38.389  30.482  31.054  1.00  0.00     0.074 A 
ATOM     16  C   UNL A   1      39.043  29.172  29.060  1.00  0.00     0.049 A 
ATOM     17  N   UNL A   1      39.402  30.247  31.849  1.00  0.00    -0.248 NA
ATOM     18  C   UNL A   1      37.370  31.372  31.629  1.00  0.00     0.031 C 
ATOM     19  C   UNL A   1      38.912  28.632  27.703  1.00  0.00     0.029 A 
ATOM     20  N   UNL A   1      40.222  28.644  29.513  1.00  0.00    -0.354 N 
ATOM     21  C   UNL A   1      39.157  30.976  33.009  1.00  0.00     0.074 A 
ATOM     22  C   UNL A   1      37.913  31.686  32.796  1.00  0.00     0.031 C 
ATOM     23  C   UNL A   1      39.935  27.801  27.460  1.00  0.00     0.029 A 
ATOM     24  C   UNL A   1      40.831  27.803  28.611  1.00  0.00     0.049 A 
ATOM     25  H   UNL A   1      40.598  28.845  30.401  1.00  0.00     0.167 HD
ATOM     26  C   UNL A   1      39.899  31.039  34.145  1.00  0.00     0.034 A 
ATOM     27  C   UNL A   1      41.986  27.118  28.692  1.00  0.00     0.034 A 
ATOM     28  C   UNL A   1      41.135  30.314  34.339  1.00  0.00     0.049 A 
ATOM     29  C   UNL A   1      42.803  27.228  29.950  1.00  0.00     0.074 A 
ATOM     30  C   UNL A   1      41.944  30.273  35.461  1.00  0.00     0.029 A 
ATOM     31  N   UNL A   1      41.749  29.513  33.382  1.00  0.00    -0.354 N 
ATOM     32  N   UNL A   1      42.544  27.903  31.046  1.00  0.00    -0.248 NA
ATOM     33  C   UNL A   1      44.066  26.482  29.980  1.00  0.00     0.031 C 
ATOM     34  C   UNL A   1      43.076  29.505  35.161  1.00  0.00     0.029 A 
ATOM     35  C   UNL A   1      42.940  29.002  33.877  1.00  0.00     0.049 A 
ATOM     36  H   UNL A   1      41.390  29.334  32.483  1.00  0.00     0.167 HD
ATOM     37  C   UNL A   1      43.607  27.645  31.906  1.00  0.00     0.074 A 
ATOM     38  C   UNL A   1      44.494  26.736  31.207  1.00  0.00     0.031 C 
ATOM     39  C   UNL A   1      43.826  28.114  33.161  1.00  0.00     0.034 A 
BRANCH  26  40
ATOM     40  C   UNL A   1      39.417  31.961  35.241  1.00  0.00     0.023 A 
ATOM     41  C   UNL A   1      39.843  33.298  35.333  1.00  0.00     0.031 A 
ATOM     42  C   UNL A   1      38.536  31.484  36.231  1.00  0.00     0.131 A 
ATOM     43  C   UNL A   1      39.452  34.086  36.428  1.00  0.00     0.055 A 
ATOM     44  C   UNL A   1      38.087  32.298  37.273  1.00  0.00     0.041 A 
ATOM     45  F   UNL A   1      38.108  30.212  36.209  1.00  0.00    -0.206 F 
ATOM     46  C   UNL A   1      38.557  33.602  37.386  1.00  0.00     0.022 A 
BRANCH  43  47
ATOM     47  S   UNL A   1      40.247  35.700  36.662  1.00  0.00     0.124 S 
ATOM     48  O   UNL A   1      39.905  36.002  38.049  1.00  0.00    -0.237 OA
ATOM     49  O   UNL A   1      41.651  35.400  36.403  1.00  0.00    -0.237 OA
ATOM     50  O   UNL A   1      39.596  36.551  35.668  1.00  0.00    -0.744 OA
ENDBRANCH  43  47
ENDBRANCH  26  40
BRANCH  27  51
ATOM     51  C   UNL A   1      42.446  26.283  27.546  1.00  0.00     0.023 A 
ATOM     52  C   UNL A   1      42.095  24.928  27.454  1.00  0.00     0.031 A 
ATOM     53  C   UNL A   1      43.261  26.826  26.537  1.00  0.00     0.131 A 
ATOM     54  C   UNL A   1      42.588  24.151  26.395  1.00  0.00     0.055 A 
ATOM     55  C   UNL A   1      43.705  26.063  25.458  1.00  0.00     0.041 A 
ATOM     56  F   UNL A   1      43.620  28.119  26.577  1.00  0.00    -0.206 F 
ATOM     57  C   UNL A   1      43.378  24.713  25.388  1.00  0.00     0.022 A 
BRANCH  54  58
ATOM     58  S   UNL A   1      42.238  22.371  26.388  1.00  0.00     0.124 S 
ATOM     59  O   UNL A   1      43.101  21.903  25.311  1.00  0.00    -0.237 OA
ATOM     60  O   UNL A   1      42.628  21.981  27.739  1.00  0.00    -0.237 OA
ATOM     61  O   UNL A   1      40.804  22.308  26.113  1.00  0.00    -0.744 OA
ENDBRANCH  54  58
ENDBRANCH  27  51
BRANCH  39  62
ATOM     62  C   UNL A   1      45.066  27.611  33.861  1.00  0.00     0.023 A 
ATOM     63  C   UNL A   1      45.061  26.421  34.610  1.00  0.00     0.031 A 
ATOM     64  C   UNL A   1      46.256  28.358  33.814  1.00  0.00     0.131 A 
ATOM     65  C   UNL A   1      46.201  26.047  35.335  1.00  0.00     0.055 A 
ATOM     66  C   UNL A   1      47.408  27.948  34.488  1.00  0.00     0.041 A 
ATOM     67  F   UNL A   1      46.317  29.505  33.118  1.00  0.00    -0.206 F 
ATOM     68  C   UNL A   1      47.380  26.795  35.267  1.00  0.00     0.022 A 
BRANCH  65  69
ATOM     69  S   UNL A   1      46.091  24.628  36.460  1.00  0.00     0.124 S 
ATOM     70  O   UNL A   1      45.192  23.734  35.735  1.00  0.00    -0.237 OA
ATOM     71  O   UNL A   1      47.482  24.195  36.555  1.00  0.00    -0.237 OA
ATOM     72  O   UNL A   1      45.537  25.203  37.685  1.00  0.00    -0.744 OA
ENDBRANCH  65  69
ENDBRANCH  39  62
ENDBRANCH  13  14
ENDBRANCH   6   8
ENDBRANCH   3   4
ENDBRANCH   2   3
ENDBRANCH   1   2
BRANCH   1  73
ATOM     73  C   UNL A   1      30.918  27.687  24.295  1.00  0.00     0.002 C 
BRANCH  73  74
ATOM     74  C   UNL A   1      29.955  26.791  23.503  1.00  0.00     0.021 C 
BRANCH  74  75
ATOM     75  C   UNL A   1      30.466  25.360  23.305  1.00  0.00     0.116 C 
BRANCH  75  76
ATOM     76  N   UNL A   1      31.495  25.348  22.283  1.00  0.00    -0.356 N 
ATOM     77  C   UNL A   1      32.837  25.133  22.350  1.00  0.00     0.226 C 
ATOM     78  H   UNL A   1      31.162  25.526  21.373  1.00  0.00     0.163 HD
ATOM     79  O   UNL A   1      33.486  25.635  21.426  1.00  0.00    -0.274 OA
BRANCH  77  80
ATOM     80  C   UNL A   1      33.504  24.306  23.483  1.00  0.00     0.053 C 
ATOM     81  C   UNL A   1      34.737  23.531  22.940  1.00  0.00     0.017 C 
ATOM     82  C   UNL A   1      33.901  25.254  24.647  1.00  0.00     0.017 C 
ATOM     83  C   UNL A   1      35.633  22.932  24.027  1.00  0.00     0.001 C 
ATOM     84  C   UNL A   1      34.763  24.585  25.713  1.00  0.00     0.001 C 
ATOM     85  C   UNL A   1      36.003  23.951  25.097  1.00  0.00     0.000 C 
BRANCH  80  86
ATOM     86  C   UNL A   1      32.478  23.218  23.979  1.00  0.00     0.044 C 
BRANCH  86  87
ATOM     87  C   UNL A   1      32.759  21.791  23.579  1.00  0.00    -0.025 C 
ATOM     88  C   UNL A   1      32.839  20.785  24.466  1.00  0.00     0.004 C 
BRANCH  88  89
ATOM     89  C   UNL A   1      33.208  19.418  24.098  1.00  0.00    -0.026 A 
ATOM     90  C   UNL A   1      34.353  18.835  24.649  1.00  0.00     0.008 A 
ATOM     91  C   UNL A   1      32.473  18.709  23.139  1.00  0.00     0.008 A 
ATOM     92  C   UNL A   1      34.742  17.549  24.266  1.00  0.00     0.001 A 
ATOM     93  C   UNL A   1      32.864  17.426  22.754  1.00  0.00     0.001 A 
ATOM     94  C   UNL A   1      33.998  16.845  23.320  1.00  0.00     0.000 A 
ENDBRANCH  88  89
ENDBRANCH  86  87
ENDBRANCH  80  86
ENDBRANCH  77  80
ENDBRANCH  75  76
ENDBRANCH  74  75
ENDBRANCH  73  74
ENDBRANCH   1  73
TORSDOF 19
ENDMDL
MODEL 2
REMARK VINA RESULT:     -11.9      1.688      2.070
REMARK SMILES O=C(NCCCCCCNC(=O)C1(C/C=C/c2ccccc2)CCCCC1)c1ccc(-c2c3nc(c(-c4cc(S(=O)(=O)[O-])ccc4F)c4ccc([nH]4)c(-c4cc(S(=O)(=O)[O-])ccc4F)c4nc(c(-c5cc(S(=O)(=O)[O-])ccc5F)c5ccc2[nH]5)C=C4)C=C3)cc1
REMARK SMILES IDX 6 1 5 2 4 3 3 4 1 5 2 6 28 8 29 9 90 10 30 11 89 12 31 13
REMARK SMILES IDX 32 14 33 15 83 16 34 17 88 18 82 19 84 20 35 21 87 22 81 23
REMARK SMILES IDX 80 24 36 26 68 27 48 28 67 29 49 30 52 31 66 32 85 33 50 34
REMARK SMILES IDX 51 35 65 37 86 38 53 39 37 40 38 41 46 42 39 43 45 44 47 45
REMARK SMILES IDX 44 46 40 47 41 48 42 49 43 50 69 51 70 52 78 53 71 54 77 55
REMARK SMILES IDX 79 56 76 57 72 58 73 59 74 60 75 61 54 62 55 63 63 64 56 65
REMARK SMILES IDX 62 66 64 67 61 68 57 69 58 70 59 71 60 72 7 73 8 74 9 75
REMARK SMILES IDX 10 76 11 77 12 79 13 80 23 81 27 82 24 83 26 84 25 85 14 86
REMARK SMILES IDX 15 87 16 88 17 89 18 90 22 91 19 92 21 93 20 94
REMARK H PARENT 3 7 84 25 52 36 10 78
REMARK Flexibility Score: inf
ROOT
ATOM      1  C   UNL A   1      31.402  29.001  23.689  1.00  0.00     0.002 C 
ENDROOT
BRANCH   1   2
ATOM      2  C   UNL A   1      32.898  28.841  23.959  1.00  0.00     0.021 C 
BRANCH   2   3
ATOM      3  C   UNL A   1      33.315  29.145  25.392  1.00  0.00     0.116 C 
BRANCH   3   4
ATOM      4  N   UNL A   1      32.774  30.411  25.862  1.00  0.00    -0.352 N 
ATOM      5  O   UNL A   1      32.533  32.140  27.293  1.00  0.00    -0.269 OA
ATOM      6  C   UNL A   1      33.209  31.199  26.904  1.00  0.00     0.251 C 
ATOM      7  H   UNL A   1      31.993  30.751  25.369  1.00  0.00     0.163 HD
BRANCH   6   8
ATOM      8  C   UNL A   1      34.498  30.879  27.558  1.00  0.00     0.039 A 
ATOM      9  C   UNL A   1      34.755  29.585  28.015  1.00  0.00     0.014 A 
ATOM     10  C   UNL A   1      35.451  31.887  27.727  1.00  0.00     0.014 A 
ATOM     11  C   UNL A   1      35.898  29.333  28.763  1.00  0.00     0.010 A 
ATOM     12  C   UNL A   1      36.642  31.608  28.404  1.00  0.00     0.010 A 
ATOM     13  C   UNL A   1      36.862  30.336  28.956  1.00  0.00    -0.014 A 
BRANCH  13  14
ATOM     14  C   UNL A   1      38.108  30.008  29.697  1.00  0.00     0.031 A 
ATOM     15  C   UNL A   1      38.335  30.502  31.099  1.00  0.00     0.074 A 
ATOM     16  C   UNL A   1      39.022  29.215  29.101  1.00  0.00     0.049 A 
ATOM     17  N   UNL A   1      39.343  30.274  31.901  1.00  0.00    -0.248 NA
ATOM     18  C   UNL A   1      37.301  31.377  31.670  1.00  0.00     0.031 C 
ATOM     19  C   UNL A   1      38.909  28.682  27.740  1.00  0.00     0.029 A 
ATOM     20  N   UNL A   1      40.203  28.696  29.561  1.00  0.00    -0.354 N 
ATOM     21  C   UNL A   1      39.080  30.992  33.063  1.00  0.00     0.074 A 
ATOM     22  C   UNL A   1      37.829  31.690  32.844  1.00  0.00     0.031 C 
ATOM     23  C   UNL A   1      39.944  27.865  27.501  1.00  0.00     0.029 A 
ATOM     24  C   UNL A   1      40.829  27.869  28.659  1.00  0.00     0.049 A 
ATOM     25  H   UNL A   1      40.569  28.897  30.454  1.00  0.00     0.167 HD
ATOM     26  C   UNL A   1      39.811  31.056  34.206  1.00  0.00     0.034 A 
ATOM     27  C   UNL A   1      41.992  27.197  28.747  1.00  0.00     0.034 A 
ATOM     28  C   UNL A   1      41.053  30.345  34.406  1.00  0.00     0.049 A 
ATOM     29  C   UNL A   1      42.796  27.308  30.012  1.00  0.00     0.074 A 
ATOM     30  C   UNL A   1      41.853  30.305  35.536  1.00  0.00     0.029 A 
ATOM     31  N   UNL A   1      41.685  29.557  33.450  1.00  0.00    -0.354 N 
ATOM     32  N   UNL A   1      42.520  27.972  31.110  1.00  0.00    -0.248 NA
ATOM     33  C   UNL A   1      44.067  26.577  30.049  1.00  0.00     0.031 C 
ATOM     34  C   UNL A   1      42.997  29.552  35.241  1.00  0.00     0.029 A 
ATOM     35  C   UNL A   1      42.878  29.057  33.952  1.00  0.00     0.049 A 
ATOM     36  H   UNL A   1      41.336  29.380  32.547  1.00  0.00     0.167 HD
ATOM     37  C   UNL A   1      43.578  27.721  31.978  1.00  0.00     0.074 A 
ATOM     38  C   UNL A   1      44.481  26.827  31.281  1.00  0.00     0.031 C 
ATOM     39  C   UNL A   1      43.781  28.184  33.238  1.00  0.00     0.034 A 
BRANCH  26  40
ATOM     40  C   UNL A   1      39.308  31.965  35.304  1.00  0.00     0.023 A 
ATOM     41  C   UNL A   1      39.781  33.280  35.460  1.00  0.00     0.031 A 
ATOM     42  C   UNL A   1      38.358  31.497  36.232  1.00  0.00     0.131 A 
ATOM     43  C   UNL A   1      39.364  34.051  36.557  1.00  0.00     0.055 A 
ATOM     44  C   UNL A   1      37.887  32.298  37.274  1.00  0.00     0.041 A 
ATOM     45  F   UNL A   1      37.882  30.244  36.148  1.00  0.00    -0.206 F 
ATOM     46  C   UNL A   1      38.402  33.577  37.452  1.00  0.00     0.022 A 
BRANCH  43  47
ATOM     47  S   UNL A   1      40.210  35.624  36.883  1.00  0.00     0.124 S 
ATOM     48  O   UNL A   1      41.611  35.248  36.711  1.00  0.00    -0.237 OA
ATOM     49  O   UNL A   1      39.654  36.499  35.857  1.00  0.00    -0.237 OA
ATOM     50  O   UNL A   1      39.823  35.944  38.255  1.00  0.00    -0.744 OA
ENDBRANCH  43  47
ENDBRANCH  26  40
BRANCH  27  51
ATOM     51  C   UNL A   1      42.472  26.375  27.599  1.00  0.00     0.023 A 
ATOM     52  C   UNL A   1      42.094  25.031  27.466  1.00  0.00     0.031 A 
ATOM     53  C   UNL A   1      43.332  26.920  26.630  1.00  0.00     0.131 A 
ATOM     54  C   UNL A   1      42.605  24.265  26.408  1.00  0.00     0.055 A 
ATOM     55  C   UNL A   1      43.796  26.169  25.550  1.00  0.00     0.041 A 
ATOM     56  F   UNL A   1      43.720  28.203  26.709  1.00  0.00    -0.206 F 
ATOM     57  C   UNL A   1      43.441  24.829  25.440  1.00  0.00     0.022 A 
BRANCH  54  58
ATOM     58  S   UNL A   1      42.215  22.494  26.351  1.00  0.00     0.124 S 
ATOM     59  O   UNL A   1      40.776  22.499  26.586  1.00  0.00    -0.237 OA
ATOM     60  O   UNL A   1      42.645  22.133  25.005  1.00  0.00    -0.237 OA
ATOM     61  O   UNL A   1      43.023  21.934  27.433  1.00  0.00    -0.744 OA
ENDBRANCH  54  58
ENDBRANCH  27  51
BRANCH  39  62
ATOM     62  C   UNL A   1      45.020  27.691  33.946  1.00  0.00     0.023 A 
ATOM     63  C   UNL A   1      46.251  28.362  33.836  1.00  0.00     0.031 A 
ATOM     64  C   UNL A   1      44.977  26.507  34.703  1.00  0.00     0.131 A 
ATOM     65  C   UNL A   1      47.401  27.810  34.417  1.00  0.00     0.055 A 
ATOM     66  C   UNL A   1      46.113  25.995  35.332  1.00  0.00     0.041 A 
ATOM     67  F   UNL A   1      43.830  25.822  34.838  1.00  0.00    -0.206 F 
ATOM     68  C   UNL A   1      47.338  26.639  35.177  1.00  0.00     0.022 A 
BRANCH  65  69
ATOM     69  S   UNL A   1      49.006  28.583  34.074  1.00  0.00     0.124 S 
ATOM     70  O   UNL A   1      48.718  29.363  32.874  1.00  0.00    -0.237 OA
ATOM     71  O   UNL A   1      49.249  29.352  35.291  1.00  0.00    -0.237 OA
ATOM     72  O   UNL A   1      49.900  27.444  33.872  1.00  0.00    -0.744 OA
ENDBRANCH  65  69
ENDBRANCH  39  62
ENDBRANCH  13  14
ENDBRANCH   6   8
ENDBRANCH   3   4
ENDBRANCH   2   3
ENDBRANCH   1   2
BRANCH   1  73
ATOM     73  C   UNL A   1      30.610  27.689  23.640  1.00  0.00     0.002 C 
BRANCH  73  74
ATOM     74  C   UNL A   1      30.295  27.069  25.008  1.00  0.00     0.021 C 
BRANCH  74  75
ATOM     75  C   UNL A   1      29.631  25.691  24.923  1.00  0.00     0.116 C 
BRANCH  75  76
ATOM     76  N   UNL A   1      29.870  24.960  26.154  1.00  0.00    -0.356 N 
ATOM     77  C   UNL A   1      30.828  24.060  26.502  1.00  0.00     0.226 C 
ATOM     78  H   UNL A   1      29.219  25.151  26.868  1.00  0.00     0.163 HD
ATOM     79  O   UNL A   1      30.505  23.289  27.412  1.00  0.00    -0.274 OA
BRANCH  77  80
ATOM     80  C   UNL A   1      32.227  24.013  25.828  1.00  0.00     0.053 C 
ATOM     81  C   UNL A   1      32.090  23.747  24.303  1.00  0.00     0.017 C 
ATOM     82  C   UNL A   1      32.975  25.346  26.103  1.00  0.00     0.017 C 
ATOM     83  C   UNL A   1      33.375  23.981  23.505  1.00  0.00     0.001 C 
ATOM     84  C   UNL A   1      34.265  25.499  25.304  1.00  0.00     0.001 C 
ATOM     85  C   UNL A   1      34.008  25.332  23.812  1.00  0.00     0.000 C 
BRANCH  80  86
ATOM     86  C   UNL A   1      33.029  22.794  26.422  1.00  0.00     0.044 C 
BRANCH  86  87
ATOM     87  C   UNL A   1      32.849  21.465  25.730  1.00  0.00    -0.025 C 
ATOM     88  C   UNL A   1      33.881  20.702  25.335  1.00  0.00     0.004 C 
BRANCH  88  89
ATOM     89  C   UNL A   1      33.717  19.461  24.577  1.00  0.00    -0.026 A 
ATOM     90  C   UNL A   1      34.703  18.471  24.642  1.00  0.00     0.008 A 
ATOM     91  C   UNL A   1      32.621  19.280  23.723  1.00  0.00     0.008 A 
ATOM     92  C   UNL A   1      34.581  17.305  23.884  1.00  0.00     0.001 A 
ATOM     93  C   UNL A   1      32.502  18.116  22.963  1.00  0.00     0.001 A 
ATOM     94  C   UNL A   1      33.480  17.127  23.046  1.00  0.00     0.000 A 
ENDBRANCH  88  89
ENDBRANCH  86  87
ENDBRANCH  80  86
ENDBRANCH  77  80
ENDBRANCH  75  76
ENDBRANCH  74  75
ENDBRANCH  73  74
ENDBRANCH   1  73
TORSDOF 19
ENDMDL
MODEL 3
REMARK VINA RESULT:     -11.9      2.802      8.726
REMARK SMILES O=C(NCCCCCCNC(=O)C1(C/C=C/c2ccccc2)CCCCC1)c1ccc(-c2c3nc(c(-c4cc(S(=O)(=O)[O-])ccc4F)c4ccc([nH]4)c(-c4cc(S(=O)(=O)[O-])ccc4F)c4nc(c(-c5cc(S(=O)(=O)[O-])ccc5F)c5ccc2[nH]5)C=C4)C=C3)cc1
REMARK SMILES IDX 6 1 5 2 4 3 3 4 1 5 2 6 28 8 29 9 90 10 30 11 89 12 31 13
REMARK SMILES IDX 32 14 33 15 83 16 34 17 88 18 82 19 84 20 35 21 87 22 81 23
REMARK SMILES IDX 80 24 36 26 68 27 48 28 67 29 49 30 52 31 66 32 85 33 50 34
REMARK SMILES IDX 51 35 65 37 86 38 53 39 37 40 38 41 46 42 39 43 45 44 47 45
REMARK SMILES IDX 44 46 40 47 41 48 42 49 43 50 69 51 70 52 78 53 71 54 77 55
REMARK SMILES IDX 79 56 76 57 72 58 73 59 74 60 75 61 54 62 55 63 63 64 56 65
REMARK SMILES IDX 62 66 64 67 61 68 57 69 58 70 59 71 60 72 7 73 8 74 9 75
REMARK SMILES IDX 10 76 11 77 12 79 13 80 23 81 27 82 24 83 26 84 25 85 14 86
REMARK SMILES IDX 15 87 16 88 17 89 18 90 22 91 19 92 21 93 20 94
REMARK H PARENT 3 7 84 25 52 36 10 78
REMARK Flexibility Score: inf
ROOT
ATOM      1  C   UNL A   1      31.741  30.276  26.607  1.00  0.00     0.002 C 
ENDROOT
BRANCH   1   2
ATOM      2  C   UNL A   1      31.612  31.791  26.761  1.00  0.00     0.021 C 
BRANCH   2   3
ATOM      3  C   UNL A   1      32.901  32.494  27.166  1.00  0.00     0.116 C 
BRANCH   3   4
ATOM      4  N   UNL A   1      32.671  33.875  27.561  1.00  0.00    -0.352 N 
ATOM      5  O   UNL A   1      32.774  35.669  28.928  1.00  0.00    -0.269 OA
ATOM      6  C   UNL A   1      33.212  34.570  28.619  1.00  0.00     0.251 C 
ATOM      7  H   UNL A   1      32.046  34.382  26.994  1.00  0.00     0.163 HD
BRANCH   6   8
ATOM      8  C   UNL A   1      34.321  33.960  29.389  1.00  0.00     0.039 A 
ATOM      9  C   UNL A   1      35.647  34.270  29.081  1.00  0.00     0.014 A 
ATOM     10  C   UNL A   1      34.028  33.061  30.417  1.00  0.00     0.014 A 
ATOM     11  C   UNL A   1      36.678  33.577  29.702  1.00  0.00     0.010 A 
ATOM     12  C   UNL A   1      35.071  32.430  31.103  1.00  0.00     0.010 A 
ATOM     13  C   UNL A   1      36.405  32.659  30.730  1.00  0.00    -0.014 A 
BRANCH  13  14
ATOM     14  C   UNL A   1      37.538  31.994  31.424  1.00  0.00     0.031 A 
ATOM     15  C   UNL A   1      38.337  30.911  30.751  1.00  0.00     0.074 A 
ATOM     16  C   UNL A   1      37.869  32.410  32.663  1.00  0.00     0.049 A 
ATOM     17  N   UNL A   1      39.380  30.258  31.196  1.00  0.00    -0.248 NA
ATOM     18  C   UNL A   1      37.901  30.501  29.409  1.00  0.00     0.031 C 
ATOM     19  C   UNL A   1      37.159  33.449  33.415  1.00  0.00     0.029 A 
ATOM     20  N   UNL A   1      38.891  32.041  33.496  1.00  0.00    -0.354 N 
ATOM     21  C   UNL A   1      39.715  29.344  30.202  1.00  0.00     0.074 A 
ATOM     22  C   UNL A   1      38.739  29.508  29.144  1.00  0.00     0.031 C 
ATOM     23  C   UNL A   1      37.803  33.675  34.568  1.00  0.00     0.029 A 
ATOM     24  C   UNL A   1      38.927  32.753  34.672  1.00  0.00     0.049 A 
ATOM     25  H   UNL A   1      39.539  31.332  33.274  1.00  0.00     0.167 HD
ATOM     26  C   UNL A   1      40.743  28.458  30.175  1.00  0.00     0.034 A 
ATOM     27  C   UNL A   1      39.764  32.667  35.723  1.00  0.00     0.034 A 
ATOM     28  C   UNL A   1      41.710  28.316  31.239  1.00  0.00     0.049 A 
ATOM     29  C   UNL A   1      40.876  31.657  35.679  1.00  0.00     0.074 A 
ATOM     30  C   UNL A   1      42.813  27.481  31.298  1.00  0.00     0.029 A 
ATOM     31  N   UNL A   1      41.685  29.018  32.440  1.00  0.00    -0.354 N 
ATOM     32  N   UNL A   1      41.192  30.817  34.720  1.00  0.00    -0.248 NA
ATOM     33  C   UNL A   1      41.746  31.586  36.859  1.00  0.00     0.031 C 
ATOM     34  C   UNL A   1      43.412  27.628  32.556  1.00  0.00     0.029 A 
ATOM     35  C   UNL A   1      42.731  28.611  33.256  1.00  0.00     0.049 A 
ATOM     36  H   UNL A   1      41.021  29.705  32.676  1.00  0.00     0.167 HD
ATOM     37  C   UNL A   1      42.313  30.130  35.176  1.00  0.00     0.074 A 
ATOM     38  C   UNL A   1      42.627  30.672  36.484  1.00  0.00     0.031 C 
ATOM     39  C   UNL A   1      43.020  29.144  34.567  1.00  0.00     0.034 A 
BRANCH  26  40
ATOM     40  C   UNL A   1      40.840  27.540  28.977  1.00  0.00     0.023 A 
ATOM     41  C   UNL A   1      41.796  27.733  27.964  1.00  0.00     0.031 A 
ATOM     42  C   UNL A   1      39.938  26.469  28.832  1.00  0.00     0.131 A 
ATOM     43  C   UNL A   1      41.780  26.920  26.819  1.00  0.00     0.055 A 
ATOM     44  C   UNL A   1      39.980  25.614  27.729  1.00  0.00     0.041 A 
ATOM     45  F   UNL A   1      38.991  26.244  29.755  1.00  0.00    -0.206 F 
ATOM     46  C   UNL A   1      40.894  25.846  26.706  1.00  0.00     0.022 A 
BRANCH  43  47
ATOM     47  S   UNL A   1      42.834  27.380  25.415  1.00  0.00     0.124 S 
ATOM     48  O   UNL A   1      42.860  26.139  24.645  1.00  0.00    -0.237 OA
ATOM     49  O   UNL A   1      42.096  28.487  24.816  1.00  0.00    -0.237 OA
ATOM     50  O   UNL A   1      44.103  27.741  26.043  1.00  0.00    -0.744 OA
ENDBRANCH  43  47
ENDBRANCH  26  40
BRANCH  27  51
ATOM     51  C   UNL A   1      39.571  33.550  36.908  1.00  0.00     0.023 A 
ATOM     52  C   UNL A   1      39.097  33.033  38.123  1.00  0.00     0.031 A 
ATOM     53  C   UNL A   1      39.838  34.928  36.835  1.00  0.00     0.131 A 
ATOM     54  C   UNL A   1      38.870  33.895  39.207  1.00  0.00     0.055 A 
ATOM     55  C   UNL A   1      39.662  35.773  37.931  1.00  0.00     0.041 A 
ATOM     56  F   UNL A   1      40.298  35.471  35.696  1.00  0.00    -0.206 F 
ATOM     57  C   UNL A   1      39.164  35.259  39.124  1.00  0.00     0.022 A 
BRANCH  54  58
ATOM     58  S   UNL A   1      38.118  33.217  40.711  1.00  0.00     0.124 S 
ATOM     59  O   UNL A   1      38.759  34.015  41.750  1.00  0.00    -0.237 OA
ATOM     60  O   UNL A   1      36.700  33.479  40.485  1.00  0.00    -0.237 OA
ATOM     61  O   UNL A   1      38.502  31.807  40.679  1.00  0.00    -0.744 OA
ENDBRANCH  54  58
ENDBRANCH  27  51
BRANCH  39  62
ATOM     62  C   UNL A   1      44.226  28.622  35.310  1.00  0.00     0.023 A 
ATOM     63  C   UNL A   1      44.123  27.578  36.246  1.00  0.00     0.031 A 
ATOM     64  C   UNL A   1      45.488  29.210  35.110  1.00  0.00     0.131 A 
ATOM     65  C   UNL A   1      45.246  27.199  36.995  1.00  0.00     0.055 A 
ATOM     66  C   UNL A   1      46.616  28.785  35.814  1.00  0.00     0.041 A 
ATOM     67  F   UNL A   1      45.643  30.214  34.232  1.00  0.00    -0.206 F 
ATOM     68  C   UNL A   1      46.495  27.785  36.774  1.00  0.00     0.022 A 
BRANCH  65  69
ATOM     69  S   UNL A   1      45.031  26.004  38.343  1.00  0.00     0.124 S 
ATOM     70  O   UNL A   1      44.102  25.044  37.753  1.00  0.00    -0.237 OA
ATOM     71  O   UNL A   1      46.393  25.524  38.557  1.00  0.00    -0.237 OA
ATOM     72  O   UNL A   1      44.480  26.809  39.431  1.00  0.00    -0.744 OA
ENDBRANCH  65  69
ENDBRANCH  39  62
ENDBRANCH  13  14
ENDBRANCH   6   8
ENDBRANCH   3   4
ENDBRANCH   2   3
ENDBRANCH   1   2
BRANCH   1  73
ATOM     73  C   UNL A   1      32.869  29.815  25.677  1.00  0.00     0.002 C 
BRANCH  73  74
ATOM     74  C   UNL A   1      33.961  28.970  26.349  1.00  0.00     0.021 C 
BRANCH  74  75
ATOM     75  C   UNL A   1      34.023  27.526  25.843  1.00  0.00     0.116 C 
BRANCH  75  76
ATOM     76  N   UNL A   1      33.004  26.734  26.505  1.00  0.00    -0.356 N 
ATOM     77  C   UNL A   1      32.027  25.923  26.017  1.00  0.00     0.226 C 
ATOM     78  H   UNL A   1      33.024  26.792  27.488  1.00  0.00     0.163 HD
ATOM     79  O   UNL A   1      31.060  25.769  26.771  1.00  0.00    -0.274 OA
BRANCH  77  80
ATOM     80  C   UNL A   1      32.121  25.226  24.631  1.00  0.00     0.053 C 
ATOM     81  C   UNL A   1      33.523  24.583  24.438  1.00  0.00     0.017 C 
ATOM     82  C   UNL A   1      30.994  24.166  24.511  1.00  0.00     0.017 C 
ATOM     83  C   UNL A   1      33.619  23.625  23.249  1.00  0.00     0.001 C 
ATOM     84  C   UNL A   1      31.128  23.268  23.285  1.00  0.00     0.001 C 
ATOM     85  C   UNL A   1      32.494  22.597  23.244  1.00  0.00     0.000 C 
BRANCH  80  86
ATOM     86  C   UNL A   1      31.976  26.321  23.509  1.00  0.00     0.044 C 
BRANCH  86  87
ATOM     87  C   UNL A   1      30.794  27.254  23.622  1.00  0.00    -0.025 C 
ATOM     88  C   UNL A   1      30.703  28.405  22.937  1.00  0.00     0.004 C 
BRANCH  88  89
ATOM     89  C   UNL A   1      29.609  29.360  23.115  1.00  0.00    -0.026 A 
ATOM     90  C   UNL A   1      29.880  30.646  23.593  1.00  0.00     0.008 A 
ATOM     91  C   UNL A   1      28.280  28.980  22.888  1.00  0.00     0.008 A 
ATOM     92  C   UNL A   1      28.838  31.549  23.815  1.00  0.00     0.001 A 
ATOM     93  C   UNL A   1      27.239  29.882  23.114  1.00  0.00     0.001 A 
ATOM     94  C   UNL A   1      27.518  31.167  23.574  1.00  0.00     0.000 A 
ENDBRANCH  88  89
ENDBRANCH  86  87
ENDBRANCH  80  86
ENDBRANCH  77  80
ENDBRANCH  75  76
ENDBRANCH  74  75
ENDBRANCH  73  74
ENDBRANCH   1  73
TORSDOF 19
ENDMDL
