MODEL 1
REMARK VINA RESULT:     -11.3      0.000      0.000
REMARK SMILES O=C(COc1ccc(Br)cc1)NC(=S)Nc1ccc(Cl)cc1C(=O)NCCCCCCNC(=O)c1ccc(-c2c3nc(c(-c4cc(S(=O)(=O)[O-])ccc4F)c4ccc([nH]4)c(-c4cc(S(=O)(=O)[O-])ccc4F)c4nc(c(-c5cc(S(=O)(=O)[O-])ccc5F)c5ccc2[nH]5)C=C4)C=C3)cc1
REMARK SMILES IDX 27 1 26 2 25 3 23 4 24 5 22 7 16 8 17 9 18 10 21 11 19 12
REMARK SMILES IDX 20 13 15 14 13 16 14 17 12 18 1 19 2 20 3 22 4 23 5 24 6 25
REMARK SMILES IDX 11 26 7 27 10 28 8 29 9 30 28 31 29 32 30 33 31 34 32 35
REMARK SMILES IDX 33 36 34 38 35 39 36 40 97 41 37 42 96 43 38 44 39 45 40 46
REMARK SMILES IDX 90 47 41 48 95 49 89 50 91 51 42 52 94 53 88 54 87 55 43 57
REMARK SMILES IDX 75 58 55 59 74 60 56 61 59 62 73 63 92 64 57 65 58 66 72 68
REMARK SMILES IDX 93 69 60 70 44 71 45 72 53 73 46 74 52 75 54 76 51 77 47 78
REMARK SMILES IDX 48 79 49 80 50 81 76 82 77 83 85 84 78 85 84 86 86 87 83 88
REMARK SMILES IDX 79 89 80 90 81 91 82 92 61 93 62 94 70 95 63 96 69 97 71 98
REMARK SMILES IDX 68 99 64 100 65 101 66 102 67 103
REMARK H PARENT 25 6 15 15 12 21 32 37 91 56 59 67
REMARK Flexibility Score: inf
ROOT
ATOM      1  C   UNL A   1      34.387  25.568  24.728  1.00  0.00     0.021 C 
ENDROOT
BRANCH   1   2
ATOM      2  C   UNL A   1      34.162  24.315  23.890  1.00  0.00     0.116 C 
BRANCH   2   3
ATOM      3  N   UNL A   1      33.846  24.532  22.502  1.00  0.00    -0.352 N 
ATOM      4  C   UNL A   1      32.790  25.169  21.893  1.00  0.00     0.253 C 
ATOM      5  O   UNL A   1      32.836  25.207  20.658  1.00  0.00    -0.269 OA
ATOM      6  H   UNL A   1      34.505  24.157  21.875  1.00  0.00     0.163 HD
BRANCH   4   7
ATOM      7  C   UNL A   1      31.586  25.779  22.555  1.00  0.00     0.064 A 
ATOM      8  C   UNL A   1      30.601  25.192  23.377  1.00  0.00     0.053 A 
ATOM      9  C   UNL A   1      29.605  25.991  23.985  1.00  0.00     0.028 A 
ATOM     10  C   UNL A   1      29.498  27.346  23.699  1.00  0.00     0.023 A 
ATOM     11  C   UNL A   1      31.440  27.158  22.273  1.00  0.00     0.036 A 
ATOM     12  C   UNL A   1      30.397  27.917  22.813  1.00  0.00     0.041 A 
ATOM     13  Cl  UNL A   1      30.215  29.571  22.372  1.00  0.00    -0.084 Cl
BRANCH   8  14
ATOM     14  N   UNL A   1      30.500  23.818  23.625  1.00  0.00    -0.332 N 
ATOM     15  H   UNL A   1      30.150  23.266  22.889  1.00  0.00     0.169 HD
BRANCH  14  16
ATOM     16  C   UNL A   1      30.832  23.159  24.772  1.00  0.00     0.177 C 
ATOM     17  S   UNL A   1      30.559  23.906  26.242  1.00  0.00    -0.040 S 
BRANCH  16  18
ATOM     18  N   UNL A   1      31.485  21.943  24.785  1.00  0.00    -0.300 N 
ATOM     19  O   UNL A   1      32.540  21.593  22.719  1.00  0.00    -0.271 OA
ATOM     20  C   UNL A   1      32.234  21.217  23.846  1.00  0.00     0.264 C 
ATOM     21  H   UNL A   1      31.408  21.480  25.651  1.00  0.00     0.172 HD
BRANCH  20  22
ATOM     22  C   UNL A   1      32.784  19.885  24.367  1.00  0.00     0.329 C 
BRANCH  22  23
ATOM     23  O   UNL A   1      33.335  19.952  25.684  1.00  0.00    -0.484 OA
BRANCH  23  24
ATOM     24  C   UNL A   1      34.391  20.825  25.760  1.00  0.00     0.120 A 
ATOM     25  C   UNL A   1      34.387  21.843  26.716  1.00  0.00     0.047 A 
ATOM     26  C   UNL A   1      35.502  20.638  24.941  1.00  0.00     0.047 A 
ATOM     27  C   UNL A   1      35.458  22.732  26.800  1.00  0.00     0.019 A 
ATOM     28  C   UNL A   1      36.593  21.509  25.046  1.00  0.00     0.019 A 
ATOM     29  C   UNL A   1      36.560  22.559  25.965  1.00  0.00     0.018 A 
ATOM     30  Br  UNL A   1      38.025  23.746  26.100  1.00  0.00    -0.051 Br
ENDBRANCH  23  24
ENDBRANCH  22  23
ENDBRANCH  20  22
ENDBRANCH  16  18
ENDBRANCH  14  16
ENDBRANCH   8  14
ENDBRANCH   4   7
ENDBRANCH   2   3
ENDBRANCH   1   2
BRANCH   1  31
ATOM     31  C   UNL A   1      33.474  25.783  25.939  1.00  0.00     0.002 C 
BRANCH  31  32
ATOM     32  C   UNL A   1      32.664  27.081  26.004  1.00  0.00     0.002 C 
BRANCH  32  33
ATOM     33  C   UNL A   1      33.190  28.199  26.906  1.00  0.00     0.021 C 
BRANCH  33  34
ATOM     34  C   UNL A   1      34.050  29.269  26.241  1.00  0.00     0.116 C 
BRANCH  34  35
ATOM     35  N   UNL A   1      33.785  30.604  26.743  1.00  0.00    -0.352 N 
ATOM     36  C   UNL A   1      34.444  31.328  27.707  1.00  0.00     0.251 C 
ATOM     37  H   UNL A   1      33.017  31.061  26.330  1.00  0.00     0.163 HD
ATOM     38  O   UNL A   1      33.962  32.396  28.089  1.00  0.00    -0.269 OA
BRANCH  36  39
ATOM     39  C   UNL A   1      35.701  30.826  28.309  1.00  0.00     0.039 A 
ATOM     40  C   UNL A   1      35.625  29.827  29.285  1.00  0.00     0.014 A 
ATOM     41  C   UNL A   1      36.947  31.342  27.940  1.00  0.00     0.014 A 
ATOM     42  C   UNL A   1      36.797  29.303  29.840  1.00  0.00     0.010 A 
ATOM     43  C   UNL A   1      38.116  30.768  28.442  1.00  0.00     0.010 A 
ATOM     44  C   UNL A   1      38.056  29.741  29.397  1.00  0.00    -0.014 A 
BRANCH  44  45
ATOM     45  C   UNL A   1      39.310  29.131  29.919  1.00  0.00     0.031 A 
ATOM     46  C   UNL A   1      40.001  29.720  31.119  1.00  0.00     0.074 A 
ATOM     47  C   UNL A   1      39.853  28.076  29.281  1.00  0.00     0.049 A 
ATOM     48  N   UNL A   1      41.131  29.370  31.680  1.00  0.00    -0.248 NA
ATOM     49  C   UNL A   1      39.347  30.872  31.757  1.00  0.00     0.031 C 
ATOM     50  C   UNL A   1      39.295  27.433  28.089  1.00  0.00     0.029 A 
ATOM     51  N   UNL A   1      40.996  27.358  29.537  1.00  0.00    -0.354 N 
ATOM     52  C   UNL A   1      41.327  30.260  32.731  1.00  0.00     0.074 A 
ATOM     53  C   UNL A   1      40.229  31.205  32.687  1.00  0.00     0.031 C 
ATOM     54  C   UNL A   1      40.080  26.402  27.736  1.00  0.00     0.029 A 
ATOM     55  C   UNL A   1      41.226  26.341  28.639  1.00  0.00     0.049 A 
ATOM     56  H   UNL A   1      41.595  27.553  30.293  1.00  0.00     0.167 HD
ATOM     57  C   UNL A   1      42.316  30.275  33.659  1.00  0.00     0.034 A 
ATOM     58  C   UNL A   1      42.248  25.468  28.540  1.00  0.00     0.034 A 
ATOM     59  C   UNL A   1      43.403  29.324  33.690  1.00  0.00     0.049 A 
ATOM     60  C   UNL A   1      43.362  25.534  29.556  1.00  0.00     0.074 A 
ATOM     61  C   UNL A   1      44.431  29.220  34.611  1.00  0.00     0.029 A 
ATOM     62  N   UNL A   1      43.610  28.318  32.754  1.00  0.00    -0.354 N 
ATOM     63  N   UNL A   1      43.508  26.355  30.571  1.00  0.00    -0.248 NA
ATOM     64  C   UNL A   1      44.443  24.550  29.418  1.00  0.00     0.031 C 
ATOM     65  C   UNL A   1      45.300  28.210  34.189  1.00  0.00     0.029 A 
ATOM     66  C   UNL A   1      44.769  27.617  33.055  1.00  0.00     0.049 A 
ATOM     67  H   UNL A   1      43.021  28.130  31.989  1.00  0.00     0.167 HD
ATOM     68  C   UNL A   1      44.681  25.960  31.211  1.00  0.00     0.074 A 
ATOM     69  C   UNL A   1      45.191  24.822  30.476  1.00  0.00     0.031 C 
ATOM     70  C   UNL A   1      45.278  26.489  32.310  1.00  0.00     0.034 A 
BRANCH  57  71
ATOM     71  C   UNL A   1      42.284  31.374  34.697  1.00  0.00     0.023 A 
ATOM     72  C   UNL A   1      41.299  31.415  35.700  1.00  0.00     0.031 A 
ATOM     73  C   UNL A   1      43.239  32.406  34.674  1.00  0.00     0.131 A 
ATOM     74  C   UNL A   1      41.245  32.501  36.587  1.00  0.00     0.055 A 
ATOM     75  C   UNL A   1      43.232  33.439  35.614  1.00  0.00     0.041 A 
ATOM     76  F   UNL A   1      44.191  32.437  33.729  1.00  0.00    -0.206 F 
ATOM     77  C   UNL A   1      42.222  33.499  36.569  1.00  0.00     0.022 A 
BRANCH  74  78
ATOM     78  S   UNL A   1      39.793  32.669  37.662  1.00  0.00     0.124 S 
ATOM     79  O   UNL A   1      39.281  33.977  37.261  1.00  0.00    -0.237 OA
ATOM     80  O   UNL A   1      38.983  31.520  37.279  1.00  0.00    -0.237 OA
ATOM     81  O   UNL A   1      40.358  32.616  39.010  1.00  0.00    -0.744 OA
ENDBRANCH  74  78
ENDBRANCH  57  71
BRANCH  58  82
ATOM     82  C   UNL A   1      42.285  24.465  27.435  1.00  0.00     0.023 A 
ATOM     83  C   UNL A   1      41.634  23.227  27.558  1.00  0.00     0.031 A 
ATOM     84  C   UNL A   1      43.013  24.710  26.258  1.00  0.00     0.131 A 
ATOM     85  C   UNL A   1      41.767  22.262  26.547  1.00  0.00     0.055 A 
ATOM     86  C   UNL A   1      43.092  23.772  25.228  1.00  0.00     0.041 A 
ATOM     87  F   UNL A   1      43.656  25.877  26.087  1.00  0.00    -0.206 F 
ATOM     88  C   UNL A   1      42.478  22.532  25.376  1.00  0.00     0.022 A 
BRANCH  85  89
ATOM     89  S   UNL A   1      41.079  20.607  26.831  1.00  0.00     0.124 S 
ATOM     90  O   UNL A   1      42.167  19.752  26.373  1.00  0.00    -0.237 OA
ATOM     91  O   UNL A   1      40.834  20.623  28.269  1.00  0.00    -0.237 OA
ATOM     92  O   UNL A   1      39.879  20.593  25.996  1.00  0.00    -0.744 OA
ENDBRANCH  85  89
ENDBRANCH  58  82
BRANCH  70  93
ATOM     93  C   UNL A   1      46.528  25.805  32.812  1.00  0.00     0.023 A 
ATOM     94  C   UNL A   1      47.782  26.014  32.214  1.00  0.00     0.031 A 
ATOM     95  C   UNL A   1      46.457  24.918  33.902  1.00  0.00     0.131 A 
ATOM     96  C   UNL A   1      48.903  25.302  32.670  1.00  0.00     0.055 A 
ATOM     97  C   UNL A   1      47.587  24.265  34.396  1.00  0.00     0.041 A 
ATOM     98  F   UNL A   1      45.285  24.674  34.510  1.00  0.00    -0.206 F 
ATOM     99  C   UNL A   1      48.818  24.444  33.770  1.00  0.00     0.022 A 
BRANCH  96 100
ATOM    100  S   UNL A   1      50.456  25.435  31.743  1.00  0.00     0.124 S 
ATOM    101  O   UNL A   1      50.857  24.037  31.620  1.00  0.00    -0.237 OA
ATOM    102  O   UNL A   1      50.029  26.086  30.508  1.00  0.00    -0.237 OA
ATOM    103  O   UNL A   1      51.306  26.249  32.610  1.00  0.00    -0.744 OA
ENDBRANCH  96 100
ENDBRANCH  70  93
ENDBRANCH  44  45
ENDBRANCH  36  39
ENDBRANCH  34  35
ENDBRANCH  33  34
ENDBRANCH  32  33
ENDBRANCH  31  32
ENDBRANCH   1  31
TORSDOF 22
ENDMDL
MODEL 2
REMARK VINA RESULT:     -11.2      2.314      7.781
REMARK SMILES O=C(COc1ccc(Br)cc1)NC(=S)Nc1ccc(Cl)cc1C(=O)NCCCCCCNC(=O)c1ccc(-c2c3nc(c(-c4cc(S(=O)(=O)[O-])ccc4F)c4ccc([nH]4)c(-c4cc(S(=O)(=O)[O-])ccc4F)c4nc(c(-c5cc(S(=O)(=O)[O-])ccc5F)c5ccc2[nH]5)C=C4)C=C3)cc1
REMARK SMILES IDX 27 1 26 2 25 3 23 4 24 5 22 7 16 8 17 9 18 10 21 11 19 12
REMARK SMILES IDX 20 13 15 14 13 16 14 17 12 18 1 19 2 20 3 22 4 23 5 24 6 25
REMARK SMILES IDX 11 26 7 27 10 28 8 29 9 30 28 31 29 32 30 33 31 34 32 35
REMARK SMILES IDX 33 36 34 38 35 39 36 40 97 41 37 42 96 43 38 44 39 45 40 46
REMARK SMILES IDX 90 47 41 48 95 49 89 50 91 51 42 52 94 53 88 54 87 55 43 57
REMARK SMILES IDX 75 58 55 59 74 60 56 61 59 62 73 63 92 64 57 65 58 66 72 68
REMARK SMILES IDX 93 69 60 70 44 71 45 72 53 73 46 74 52 75 54 76 51 77 47 78
REMARK SMILES IDX 48 79 49 80 50 81 76 82 77 83 85 84 78 85 84 86 86 87 83 88
REMARK SMILES IDX 79 89 80 90 81 91 82 92 61 93 62 94 70 95 63 96 69 97 71 98
REMARK SMILES IDX 68 99 64 100 65 101 66 102 67 103
REMARK H PARENT 25 6 15 15 12 21 32 37 91 56 59 67
REMARK Flexibility Score: inf
ROOT
ATOM      1  C   UNL A   1      33.984  26.707  25.031  1.00  0.00     0.021 C 
ENDROOT
BRANCH   1   2
ATOM      2  C   UNL A   1      34.094  25.279  24.509  1.00  0.00     0.116 C 
BRANCH   2   3
ATOM      3  N   UNL A   1      33.879  25.104  23.097  1.00  0.00    -0.352 N 
ATOM      4  C   UNL A   1      32.812  25.417  22.288  1.00  0.00     0.253 C 
ATOM      5  O   UNL A   1      32.964  25.159  21.087  1.00  0.00    -0.269 OA
ATOM      6  H   UNL A   1      34.634  24.685  22.622  1.00  0.00     0.163 HD
BRANCH   4   7
ATOM      7  C   UNL A   1      31.488  25.993  22.704  1.00  0.00     0.064 A 
ATOM      8  C   UNL A   1      30.405  25.394  23.383  1.00  0.00     0.053 A 
ATOM      9  C   UNL A   1      29.286  26.166  23.770  1.00  0.00     0.028 A 
ATOM     10  C   UNL A   1      29.168  27.499  23.394  1.00  0.00     0.023 A 
ATOM     11  C   UNL A   1      31.329  27.347  22.323  1.00  0.00     0.036 A 
ATOM     12  C   UNL A   1      30.177  28.073  22.639  1.00  0.00     0.041 A 
ATOM     13  Cl  UNL A   1      29.997  29.692  22.080  1.00  0.00    -0.084 Cl
BRANCH   8  14
ATOM     14  N   UNL A   1      30.326  24.031  23.688  1.00  0.00    -0.332 N 
ATOM     15  H   UNL A   1      29.825  23.469  23.054  1.00  0.00     0.169 HD
BRANCH  14  16
ATOM     16  C   UNL A   1      30.864  23.393  24.767  1.00  0.00     0.177 C 
ATOM     17  S   UNL A   1      30.714  24.093  26.278  1.00  0.00    -0.040 S 
BRANCH  16  18
ATOM     18  N   UNL A   1      31.625  22.245  24.667  1.00  0.00    -0.300 N 
ATOM     19  O   UNL A   1      32.630  22.149  22.549  1.00  0.00    -0.271 OA
ATOM     20  C   UNL A   1      32.402  21.664  23.652  1.00  0.00     0.264 C 
ATOM     21  H   UNL A   1      31.622  21.714  25.497  1.00  0.00     0.172 HD
BRANCH  20  22
ATOM     22  C   UNL A   1      33.089  20.354  24.053  1.00  0.00     0.329 C 
BRANCH  22  23
ATOM     23  O   UNL A   1      33.548  20.322  25.406  1.00  0.00    -0.484 OA
BRANCH  23  24
ATOM     24  C   UNL A   1      34.597  21.180  25.618  1.00  0.00     0.120 A 
ATOM     25  C   UNL A   1      35.719  21.128  24.789  1.00  0.00     0.047 A 
ATOM     26  C   UNL A   1      34.501  22.158  26.605  1.00  0.00     0.047 A 
ATOM     27  C   UNL A   1      36.788  21.998  24.998  1.00  0.00     0.019 A 
ATOM     28  C   UNL A   1      35.559  23.055  26.795  1.00  0.00     0.019 A 
ATOM     29  C   UNL A   1      36.702  22.962  26.000  1.00  0.00     0.018 A 
ATOM     30  Br  UNL A   1      38.138  24.162  26.264  1.00  0.00    -0.051 Br
ENDBRANCH  23  24
ENDBRANCH  22  23
ENDBRANCH  20  22
ENDBRANCH  16  18
ENDBRANCH  14  16
ENDBRANCH   8  14
ENDBRANCH   4   7
ENDBRANCH   2   3
ENDBRANCH   1   2
BRANCH   1  31
ATOM     31  C   UNL A   1      33.165  26.934  26.305  1.00  0.00     0.002 C 
BRANCH  31  32
ATOM     32  C   UNL A   1      31.769  27.548  26.160  1.00  0.00     0.002 C 
BRANCH  32  33
ATOM     33  C   UNL A   1      31.600  29.019  26.545  1.00  0.00     0.021 C 
BRANCH  33  34
ATOM     34  C   UNL A   1      32.513  30.020  25.845  1.00  0.00     0.116 C 
BRANCH  34  35
ATOM     35  N   UNL A   1      32.254  31.394  26.235  1.00  0.00    -0.352 N 
ATOM     36  C   UNL A   1      32.921  32.195  27.130  1.00  0.00     0.251 C 
ATOM     37  H   UNL A   1      31.484  31.817  25.790  1.00  0.00     0.163 HD
ATOM     38  O   UNL A   1      32.444  33.292  27.424  1.00  0.00    -0.269 OA
BRANCH  36  39
ATOM     39  C   UNL A   1      34.182  31.743  27.763  1.00  0.00     0.039 A 
ATOM     40  C   UNL A   1      35.221  32.664  27.921  1.00  0.00     0.014 A 
ATOM     41  C   UNL A   1      34.358  30.421  28.183  1.00  0.00     0.014 A 
ATOM     42  C   UNL A   1      36.407  32.278  28.555  1.00  0.00     0.010 A 
ATOM     43  C   UNL A   1      35.512  30.057  28.878  1.00  0.00     0.010 A 
ATOM     44  C   UNL A   1      36.550  30.982  29.074  1.00  0.00    -0.014 A 
BRANCH  44  45
ATOM     45  C   UNL A   1      37.773  30.584  29.825  1.00  0.00     0.031 A 
ATOM     46  C   UNL A   1      38.743  29.597  29.233  1.00  0.00     0.074 A 
ATOM     47  C   UNL A   1      37.984  31.076  31.062  1.00  0.00     0.049 A 
ATOM     48  N   UNL A   1      39.825  29.082  29.759  1.00  0.00    -0.248 NA
ATOM     49  C   UNL A   1      38.440  29.105  27.881  1.00  0.00     0.031 C 
ATOM     50  C   UNL A   1      37.103  32.017  31.757  1.00  0.00     0.029 A 
ATOM     51  N   UNL A   1      39.000  30.853  31.959  1.00  0.00    -0.354 N 
ATOM     52  C   UNL A   1      40.330  28.202  28.807  1.00  0.00     0.074 A 
ATOM     53  C   UNL A   1      39.397  28.208  27.699  1.00  0.00     0.031 C 
ATOM     54  C   UNL A   1      37.629  32.310  32.957  1.00  0.00     0.029 A 
ATOM     55  C   UNL A   1      38.856  31.541  33.143  1.00  0.00     0.049 A 
ATOM     56  H   UNL A   1      39.761  30.257  31.773  1.00  0.00     0.167 HD
ATOM     57  C   UNL A   1      41.474  27.475  28.843  1.00  0.00     0.034 A 
ATOM     58  C   UNL A   1      39.613  31.540  34.259  1.00  0.00     0.034 A 
ATOM     59  C   UNL A   1      42.396  27.482  29.956  1.00  0.00     0.049 A 
ATOM     60  C   UNL A   1      40.856  30.687  34.294  1.00  0.00     0.074 A 
ATOM     61  C   UNL A   1      43.605  26.820  30.077  1.00  0.00     0.029 A 
ATOM     62  N   UNL A   1      42.207  28.178  31.144  1.00  0.00    -0.354 N 
ATOM     63  N   UNL A   1      41.342  29.894  33.367  1.00  0.00    -0.248 NA
ATOM     64  C   UNL A   1      41.658  30.736  35.524  1.00  0.00     0.031 C 
ATOM     65  C   UNL A   1      44.105  27.048  31.363  1.00  0.00     0.029 A 
ATOM     66  C   UNL A   1      43.257  27.928  32.015  1.00  0.00     0.049 A 
ATOM     67  H   UNL A   1      41.440  28.763  31.339  1.00  0.00     0.167 HD
ATOM     68  C   UNL A   1      42.526  29.378  33.891  1.00  0.00     0.074 A 
ATOM     69  C   UNL A   1      42.685  29.961  35.207  1.00  0.00     0.031 C 
ATOM     70  C   UNL A   1      43.403  28.505  33.332  1.00  0.00     0.034 A 
BRANCH  57  71
ATOM     71  C   UNL A   1      41.776  26.587  27.658  1.00  0.00     0.023 A 
ATOM     72  C   UNL A   1      41.594  25.193  27.712  1.00  0.00     0.031 A 
ATOM     73  C   UNL A   1      42.271  27.136  26.461  1.00  0.00     0.131 A 
ATOM     74  C   UNL A   1      41.974  24.392  26.625  1.00  0.00     0.055 A 
ATOM     75  C   UNL A   1      42.564  26.342  25.351  1.00  0.00     0.041 A 
ATOM     76  F   UNL A   1      42.487  28.456  26.352  1.00  0.00    -0.206 F 
ATOM     77  C   UNL A   1      42.432  24.960  25.434  1.00  0.00     0.022 A 
BRANCH  74  78
ATOM     78  S   UNL A   1      42.007  22.592  26.846  1.00  0.00     0.124 S 
ATOM     79  O   UNL A   1      42.243  22.132  25.479  1.00  0.00    -0.237 OA
ATOM     80  O   UNL A   1      43.110  22.409  27.782  1.00  0.00    -0.237 OA
ATOM     81  O   UNL A   1      40.679  22.288  27.376  1.00  0.00    -0.744 OA
ENDBRANCH  74  78
ENDBRANCH  57  71
BRANCH  58  82
ATOM     82  C   UNL A   1      39.218  32.359  35.443  1.00  0.00     0.023 A 
ATOM     83  C   UNL A   1      39.647  33.688  35.581  1.00  0.00     0.031 A 
ATOM     84  C   UNL A   1      38.444  31.806  36.479  1.00  0.00     0.131 A 
ATOM     85  C   UNL A   1      39.345  34.403  36.751  1.00  0.00     0.055 A 
ATOM     86  C   UNL A   1      38.094  32.542  37.613  1.00  0.00     0.041 A 
ATOM     87  F   UNL A   1      38.008  30.539  36.400  1.00  0.00    -0.206 F 
ATOM     88  C   UNL A   1      38.559  33.845  37.760  1.00  0.00     0.022 A 
BRANCH  85  89
ATOM     89  S   UNL A   1      40.083  36.045  36.979  1.00  0.00     0.124 S 
ATOM     90  O   UNL A   1      39.376  36.526  38.160  1.00  0.00    -0.237 OA
ATOM     91  O   UNL A   1      41.493  35.721  37.161  1.00  0.00    -0.237 OA
ATOM     92  O   UNL A   1      39.760  36.737  35.732  1.00  0.00    -0.744 OA
ENDBRANCH  85  89
ENDBRANCH  58  82
BRANCH  70  93
ATOM     93  C   UNL A   1      44.642  28.169  34.128  1.00  0.00     0.023 A 
ATOM     94  C   UNL A   1      44.688  27.072  35.005  1.00  0.00     0.031 A 
ATOM     95  C   UNL A   1      45.794  28.970  34.013  1.00  0.00     0.131 A 
ATOM     96  C   UNL A   1      45.838  26.840  35.777  1.00  0.00     0.055 A 
ATOM     97  C   UNL A   1      46.958  28.694  34.731  1.00  0.00     0.041 A 
ATOM     98  F   UNL A   1      45.807  30.034  33.194  1.00  0.00    -0.206 F 
ATOM     99  C   UNL A   1      46.980  27.632  35.631  1.00  0.00     0.022 A 
BRANCH  96 100
ATOM    100  S   UNL A   1      45.787  25.549  37.049  1.00  0.00     0.124 S 
ATOM    101  O   UNL A   1      46.637  24.515  36.467  1.00  0.00    -0.237 OA
ATOM    102  O   UNL A   1      46.331  26.238  38.216  1.00  0.00    -0.237 OA
ATOM    103  O   UNL A   1      44.369  25.209  37.138  1.00  0.00    -0.744 OA
ENDBRANCH  96 100
ENDBRANCH  70  93
ENDBRANCH  44  45
ENDBRANCH  36  39
ENDBRANCH  34  35
ENDBRANCH  33  34
ENDBRANCH  32  33
ENDBRANCH  31  32
ENDBRANCH   1  31
TORSDOF 22
ENDMDL
MODEL 3
REMARK VINA RESULT:     -11.1      1.748      2.041
REMARK SMILES O=C(COc1ccc(Br)cc1)NC(=S)Nc1ccc(Cl)cc1C(=O)NCCCCCCNC(=O)c1ccc(-c2c3nc(c(-c4cc(S(=O)(=O)[O-])ccc4F)c4ccc([nH]4)c(-c4cc(S(=O)(=O)[O-])ccc4F)c4nc(c(-c5cc(S(=O)(=O)[O-])ccc5F)c5ccc2[nH]5)C=C4)C=C3)cc1
REMARK SMILES IDX 27 1 26 2 25 3 23 4 24 5 22 7 16 8 17 9 18 10 21 11 19 12
REMARK SMILES IDX 20 13 15 14 13 16 14 17 12 18 1 19 2 20 3 22 4 23 5 24 6 25
REMARK SMILES IDX 11 26 7 27 10 28 8 29 9 30 28 31 29 32 30 33 31 34 32 35
REMARK SMILES IDX 33 36 34 38 35 39 36 40 97 41 37 42 96 43 38 44 39 45 40 46
REMARK SMILES IDX 90 47 41 48 95 49 89 50 91 51 42 52 94 53 88 54 87 55 43 57
REMARK SMILES IDX 75 58 55 59 74 60 56 61 59 62 73 63 92 64 57 65 58 66 72 68
REMARK SMILES IDX 93 69 60 70 44 71 45 72 53 73 46 74 52 75 54 76 51 77 47 78
REMARK SMILES IDX 48 79 49 80 50 81 76 82 77 83 85 84 78 85 84 86 86 87 83 88
REMARK SMILES IDX 79 89 80 90 81 91 82 92 61 93 62 94 70 95 63 96 69 97 71 98
REMARK SMILES IDX 68 99 64 100 65 101 66 102 67 103
REMARK H PARENT 25 6 15 15 12 21 32 37 91 56 59 67
REMARK Flexibility Score: inf
ROOT
ATOM      1  C   UNL A   1      34.486  25.429  24.661  1.00  0.00     0.021 C 
ENDROOT
BRANCH   1   2
ATOM      2  C   UNL A   1      34.166  24.225  23.781  1.00  0.00     0.116 C 
BRANCH   2   3
ATOM      3  N   UNL A   1      33.870  24.512  22.402  1.00  0.00    -0.352 N 
ATOM      4  C   UNL A   1      32.831  25.192  21.811  1.00  0.00     0.253 C 
ATOM      5  O   UNL A   1      32.893  25.287  20.579  1.00  0.00    -0.269 OA
ATOM      6  H   UNL A   1      34.532  24.157  21.765  1.00  0.00     0.163 HD
BRANCH   4   7
ATOM      7  C   UNL A   1      31.628  25.788  22.486  1.00  0.00     0.064 A 
ATOM      8  C   UNL A   1      30.651  25.185  23.306  1.00  0.00     0.053 A 
ATOM      9  C   UNL A   1      29.653  25.972  23.929  1.00  0.00     0.028 A 
ATOM     10  C   UNL A   1      29.537  27.330  23.659  1.00  0.00     0.023 A 
ATOM     11  C   UNL A   1      31.472  27.169  22.220  1.00  0.00     0.036 A 
ATOM     12  C   UNL A   1      30.428  27.915  22.775  1.00  0.00     0.041 A 
ATOM     13  Cl  UNL A   1      30.234  29.573  22.354  1.00  0.00    -0.084 Cl
BRANCH   8  14
ATOM     14  N   UNL A   1      30.559  23.809  23.539  1.00  0.00    -0.332 N 
ATOM     15  H   UNL A   1      30.176  23.267  22.812  1.00  0.00     0.169 HD
BRANCH  14  16
ATOM     16  C   UNL A   1      30.940  23.132  24.661  1.00  0.00     0.177 C 
ATOM     17  S   UNL A   1      30.613  23.801  26.158  1.00  0.00    -0.040 S 
BRANCH  16  18
ATOM     18  N   UNL A   1      31.682  21.969  24.629  1.00  0.00    -0.300 N 
ATOM     19  O   UNL A   1      31.979  21.285  22.405  1.00  0.00    -0.271 OA
ATOM     20  C   UNL A   1      32.128  21.113  23.610  1.00  0.00     0.264 C 
ATOM     21  H   UNL A   1      31.962  21.673  25.526  1.00  0.00     0.172 HD
BRANCH  20  22
ATOM     22  C   UNL A   1      32.964  19.926  24.100  1.00  0.00     0.329 C 
BRANCH  22  23
ATOM     23  O   UNL A   1      33.388  20.029  25.461  1.00  0.00    -0.484 OA
BRANCH  23  24
ATOM     24  C   UNL A   1      34.437  20.899  25.612  1.00  0.00     0.120 A 
ATOM     25  C   UNL A   1      34.440  21.812  26.668  1.00  0.00     0.047 A 
ATOM     26  C   UNL A   1      35.538  20.809  24.763  1.00  0.00     0.047 A 
ATOM     27  C   UNL A   1      35.504  22.699  26.829  1.00  0.00     0.019 A 
ATOM     28  C   UNL A   1      36.623  21.675  24.943  1.00  0.00     0.019 A 
ATOM     29  C   UNL A   1      36.595  22.624  25.966  1.00  0.00     0.018 A 
ATOM     30  Br  UNL A   1      38.052  23.805  26.202  1.00  0.00    -0.051 Br
ENDBRANCH  23  24
ENDBRANCH  22  23
ENDBRANCH  20  22
ENDBRANCH  16  18
ENDBRANCH  14  16
ENDBRANCH   8  14
ENDBRANCH   4   7
ENDBRANCH   2   3
ENDBRANCH   1   2
BRANCH   1  31
ATOM     31  C   UNL A   1      33.585  25.678  25.874  1.00  0.00     0.002 C 
BRANCH  31  32
ATOM     32  C   UNL A   1      32.743  26.958  25.890  1.00  0.00     0.002 C 
BRANCH  32  33
ATOM     33  C   UNL A   1      33.187  28.085  26.824  1.00  0.00     0.021 C 
BRANCH  33  34
ATOM     34  C   UNL A   1      34.088  29.158  26.222  1.00  0.00     0.116 C 
BRANCH  34  35
ATOM     35  N   UNL A   1      33.811  30.487  26.735  1.00  0.00    -0.352 N 
ATOM     36  C   UNL A   1      34.464  31.210  27.702  1.00  0.00     0.251 C 
ATOM     37  H   UNL A   1      33.037  30.939  26.326  1.00  0.00     0.163 HD
ATOM     38  O   UNL A   1      33.972  32.270  28.094  1.00  0.00    -0.269 OA
BRANCH  36  39
ATOM     39  C   UNL A   1      35.728  30.718  28.298  1.00  0.00     0.039 A 
ATOM     40  C   UNL A   1      35.660  29.800  29.351  1.00  0.00     0.014 A 
ATOM     41  C   UNL A   1      36.973  31.164  27.846  1.00  0.00     0.014 A 
ATOM     42  C   UNL A   1      36.837  29.283  29.904  1.00  0.00     0.010 A 
ATOM     43  C   UNL A   1      38.144  30.595  28.351  1.00  0.00     0.010 A 
ATOM     44  C   UNL A   1      38.090  29.647  29.384  1.00  0.00    -0.014 A 
BRANCH  44  45
ATOM     45  C   UNL A   1      39.344  29.040  29.908  1.00  0.00     0.031 A 
ATOM     46  C   UNL A   1      40.024  29.623  31.118  1.00  0.00     0.074 A 
ATOM     47  C   UNL A   1      39.898  27.994  29.264  1.00  0.00     0.049 A 
ATOM     48  N   UNL A   1      41.153  29.275  31.682  1.00  0.00    -0.248 NA
ATOM     49  C   UNL A   1      39.359  30.765  31.762  1.00  0.00     0.031 C 
ATOM     50  C   UNL A   1      39.352  27.358  28.063  1.00  0.00     0.029 A 
ATOM     51  N   UNL A   1      41.044  27.281  29.521  1.00  0.00    -0.354 N 
ATOM     52  C   UNL A   1      41.337  30.156  32.743  1.00  0.00     0.074 A 
ATOM     53  C   UNL A   1      40.234  31.094  32.701  1.00  0.00     0.031 C 
ATOM     54  C   UNL A   1      40.145  26.336  27.705  1.00  0.00     0.029 A 
ATOM     55  C   UNL A   1      41.286  26.273  28.615  1.00  0.00     0.049 A 
ATOM     56  H   UNL A   1      41.638  27.473  30.282  1.00  0.00     0.167 HD
ATOM     57  C   UNL A   1      42.321  30.169  33.677  1.00  0.00     0.034 A 
ATOM     58  C   UNL A   1      42.314  25.408  28.514  1.00  0.00     0.034 A 
ATOM     59  C   UNL A   1      43.413  29.225  33.706  1.00  0.00     0.049 A 
ATOM     60  C   UNL A   1      43.421  25.471  29.537  1.00  0.00     0.074 A 
ATOM     61  C   UNL A   1      44.436  29.119  34.632  1.00  0.00     0.029 A 
ATOM     62  N   UNL A   1      43.633  28.229  32.762  1.00  0.00    -0.354 N 
ATOM     63  N   UNL A   1      43.557  26.284  30.560  1.00  0.00    -0.248 NA
ATOM     64  C   UNL A   1      44.510  24.495  29.397  1.00  0.00     0.031 C 
ATOM     65  C   UNL A   1      45.315  28.118  34.207  1.00  0.00     0.029 A 
ATOM     66  C   UNL A   1      44.794  27.532  33.064  1.00  0.00     0.049 A 
ATOM     67  H   UNL A   1      43.049  28.044  31.992  1.00  0.00     0.167 HD
ATOM     68  C   UNL A   1      44.728  25.891  31.205  1.00  0.00     0.074 A 
ATOM     69  C   UNL A   1      45.250  24.763  30.463  1.00  0.00     0.031 C 
ATOM     70  C   UNL A   1      45.315  26.414  32.312  1.00  0.00     0.034 A 
BRANCH  57  71
ATOM     71  C   UNL A   1      42.275  31.258  34.724  1.00  0.00     0.023 A 
ATOM     72  C   UNL A   1      42.930  32.489  34.540  1.00  0.00     0.031 A 
ATOM     73  C   UNL A   1      41.584  31.059  35.933  1.00  0.00     0.131 A 
ATOM     74  C   UNL A   1      42.945  33.439  35.574  1.00  0.00     0.055 A 
ATOM     75  C   UNL A   1      41.529  32.042  36.922  1.00  0.00     0.041 A 
ATOM     76  F   UNL A   1      40.957  29.898  36.179  1.00  0.00    -0.206 F 
ATOM     77  C   UNL A   1      42.226  33.235  36.753  1.00  0.00     0.022 A 
BRANCH  74  78
ATOM     78  S   UNL A   1      44.045  34.873  35.415  1.00  0.00     0.124 S 
ATOM     79  O   UNL A   1      44.980  34.649  36.514  1.00  0.00    -0.237 OA
ATOM     80  O   UNL A   1      44.585  34.709  34.071  1.00  0.00    -0.237 OA
ATOM     81  O   UNL A   1      43.147  36.013  35.594  1.00  0.00    -0.744 OA
ENDBRANCH  74  78
ENDBRANCH  57  71
BRANCH  58  82
ATOM     82  C   UNL A   1      42.364  24.415  27.401  1.00  0.00     0.023 A 
ATOM     83  C   UNL A   1      41.692  23.186  27.495  1.00  0.00     0.031 A 
ATOM     84  C   UNL A   1      43.126  24.661  26.245  1.00  0.00     0.131 A 
ATOM     85  C   UNL A   1      41.836  22.229  26.478  1.00  0.00     0.055 A 
ATOM     86  C   UNL A   1      43.216  23.731  25.208  1.00  0.00     0.041 A 
ATOM     87  F   UNL A   1      43.790  25.819  26.102  1.00  0.00    -0.206 F 
ATOM     88  C   UNL A   1      42.580  22.499  25.328  1.00  0.00     0.022 A 
BRANCH  85  89
ATOM     89  S   UNL A   1      41.116  20.582  26.728  1.00  0.00     0.124 S 
ATOM     90  O   UNL A   1      39.889  20.675  25.946  1.00  0.00    -0.237 OA
ATOM     91  O   UNL A   1      42.157  19.712  26.191  1.00  0.00    -0.237 OA
ATOM     92  O   UNL A   1      40.931  20.509  28.176  1.00  0.00    -0.744 OA
ENDBRANCH  85  89
ENDBRANCH  58  82
BRANCH  70  93
ATOM     93  C   UNL A   1      46.566  25.733  32.815  1.00  0.00     0.023 A 
ATOM     94  C   UNL A   1      46.517  24.682  33.747  1.00  0.00     0.031 A 
ATOM     95  C   UNL A   1      47.830  26.153  32.360  1.00  0.00     0.131 A 
ATOM     96  C   UNL A   1      47.709  24.126  34.238  1.00  0.00     0.055 A 
ATOM     97  C   UNL A   1      49.009  25.550  32.800  1.00  0.00     0.041 A 
ATOM     98  F   UNL A   1      47.939  27.155  31.473  1.00  0.00    -0.206 F 
ATOM     99  C   UNL A   1      48.954  24.540  33.756  1.00  0.00     0.022 A 
BRANCH  96 100
ATOM    100  S   UNL A   1      47.616  22.924  35.593  1.00  0.00     0.124 S 
ATOM    101  O   UNL A   1      48.241  21.747  34.997  1.00  0.00    -0.237 OA
ATOM    102  O   UNL A   1      48.377  23.583  36.650  1.00  0.00    -0.237 OA
ATOM    103  O   UNL A   1      46.182  22.802  35.846  1.00  0.00    -0.744 OA
ENDBRANCH  96 100
ENDBRANCH  70  93
ENDBRANCH  44  45
ENDBRANCH  36  39
ENDBRANCH  34  35
ENDBRANCH  33  34
ENDBRANCH  32  33
ENDBRANCH  31  32
ENDBRANCH   1  31
TORSDOF 22
ENDMDL
