MODEL 1
REMARK VINA RESULT:     -10.8      0.000      0.000
REMARK SMILES CN(C(=O)[C@H]1CCCC[C@H]1C(=O)NCCCCCCNC(=O)c1ccc(-c2c3nc(c(-c4cc(S(=O)(=O)[O-])ccc4F)c4ccc([nH]4)c(-c4cc(S(=O)(=O)[O-])ccc4F)c4nc(c(-c5cc(S(=O)(=O)[O-])ccc5F)c5ccc2[nH]5)C=C4)C=C3)cc1)C1CC1
REMARK SMILES IDX 16 1 15 2 14 3 13 4 11 5 12 6 10 8 5 9 6 10 7 11 9 12 8 13
REMARK SMILES IDX 3 14 4 15 2 16 1 17 86 18 87 19 88 20 17 21 18 22 19 23
REMARK SMILES IDX 20 24 21 25 22 27 23 28 24 29 85 30 25 31 84 32 26 33 27 34
REMARK SMILES IDX 28 35 78 36 29 37 83 38 77 39 79 40 30 41 82 42 76 43 75 44
REMARK SMILES IDX 31 46 63 47 43 48 62 49 44 50 47 51 61 52 80 53 45 54 46 55
REMARK SMILES IDX 60 57 81 58 48 59 32 60 33 61 41 62 34 63 40 64 42 65 39 66
REMARK SMILES IDX 35 67 36 68 37 69 38 70 64 71 65 72 73 73 66 74 72 75 74 76
REMARK SMILES IDX 71 77 67 78 68 79 69 80 70 81 49 82 50 83 58 84 51 85 57 86
REMARK SMILES IDX 59 87 56 88 52 89 53 90 54 91 55 92
REMARK H PARENT 13 7 20 26 79 45 47 56
REMARK Flexibility Score: inf
ROOT
ATOM      1  C   UNL A   1      33.113  21.456  25.049  1.00  0.00     0.002 C 
ENDROOT
BRANCH   1   2
ATOM      2  C   UNL A   1      31.671  21.941  25.233  1.00  0.00     0.021 C 
BRANCH   2   3
ATOM      3  C   UNL A   1      31.437  22.878  26.424  1.00  0.00     0.116 C 
BRANCH   3   4
ATOM      4  N   UNL A   1      30.411  23.856  26.139  1.00  0.00    -0.356 N 
ATOM      5  C   UNL A   1      30.408  25.200  26.021  1.00  0.00     0.223 C 
ATOM      6  O   UNL A   1      29.317  25.697  25.707  1.00  0.00    -0.275 OA
ATOM      7  H   UNL A   1      29.522  23.455  26.001  1.00  0.00     0.163 HD
BRANCH   5   8
ATOM      8  C   UNL A   1      31.621  26.131  26.159  1.00  0.00     0.091 C 
ATOM      9  C   UNL A   1      32.704  26.178  25.075  1.00  0.00     0.091 C 
ATOM     10  C   UNL A   1      33.999  26.804  25.623  1.00  0.00     0.014 C 
ATOM     11  C   UNL A   1      33.823  28.104  26.398  1.00  0.00     0.001 C 
ATOM     12  C   UNL A   1      31.328  27.453  26.856  1.00  0.00     0.014 C 
ATOM     13  C   UNL A   1      32.622  28.128  27.352  1.00  0.00     0.001 C 
BRANCH   9  14
ATOM     14  C   UNL A   1      32.445  26.530  23.596  1.00  0.00     0.226 C 
ATOM     15  O   UNL A   1      32.043  25.590  22.889  1.00  0.00    -0.275 OA
BRANCH  14  16
ATOM     16  N   UNL A   1      32.669  27.774  23.017  1.00  0.00    -0.343 N 
ATOM     17  C   UNL A   1      33.899  28.287  22.432  1.00  0.00     0.147 C 
BRANCH  16  18
ATOM     18  C   UNL A   1      31.678  28.827  23.190  1.00  0.00     0.084 C 
ATOM     19  C   UNL A   1      30.485  28.917  22.271  1.00  0.00     0.027 C 
ATOM     20  C   UNL A   1      30.291  28.618  23.725  1.00  0.00     0.027 C 
ENDBRANCH  16  18
ENDBRANCH  14  16
ENDBRANCH   9  14
ENDBRANCH   5   8
ENDBRANCH   3   4
ENDBRANCH   2   3
ENDBRANCH   1   2
BRANCH   1  21
ATOM     21  C   UNL A   1      34.050  22.411  24.296  1.00  0.00     0.002 C 
BRANCH  21  22
ATOM     22  C   UNL A   1      35.541  22.055  24.292  1.00  0.00     0.021 C 
BRANCH  22  23
ATOM     23  C   UNL A   1      36.220  21.985  25.661  1.00  0.00     0.116 C 
BRANCH  23  24
ATOM     24  N   UNL A   1      37.204  20.916  25.718  1.00  0.00    -0.352 N 
ATOM     25  C   UNL A   1      38.570  20.970  25.852  1.00  0.00     0.251 C 
ATOM     26  H   UNL A   1      36.831  20.008  25.649  1.00  0.00     0.163 HD
ATOM     27  O   UNL A   1      39.229  19.959  25.625  1.00  0.00    -0.269 OA
BRANCH  25  28
ATOM     28  C   UNL A   1      39.257  22.222  26.253  1.00  0.00     0.039 A 
ATOM     29  C   UNL A   1      40.322  22.143  27.158  1.00  0.00     0.014 A 
ATOM     30  C   UNL A   1      38.818  23.474  25.812  1.00  0.00     0.014 A 
ATOM     31  C   UNL A   1      40.976  23.306  27.578  1.00  0.00     0.010 A 
ATOM     32  C   UNL A   1      39.504  24.631  26.193  1.00  0.00     0.010 A 
ATOM     33  C   UNL A   1      40.589  24.561  27.080  1.00  0.00    -0.014 A 
BRANCH  33  34
ATOM     34  C   UNL A   1      41.308  25.802  27.482  1.00  0.00     0.031 A 
ATOM     35  C   UNL A   1      40.610  26.860  28.293  1.00  0.00     0.074 A 
ATOM     36  C   UNL A   1      42.576  26.003  27.069  1.00  0.00     0.049 A 
ATOM     37  N   UNL A   1      41.043  28.038  28.669  1.00  0.00    -0.248 NA
ATOM     38  C   UNL A   1      39.235  26.562  28.716  1.00  0.00     0.031 C 
ATOM     39  C   UNL A   1      43.356  25.068  26.256  1.00  0.00     0.029 A 
ATOM     40  N   UNL A   1      43.427  27.064  27.263  1.00  0.00    -0.354 N 
ATOM     41  C   UNL A   1      39.991  28.626  29.365  1.00  0.00     0.074 A 
ATOM     42  C   UNL A   1      38.884  27.693  29.308  1.00  0.00     0.031 C 
ATOM     43  C   UNL A   1      44.571  25.593  26.026  1.00  0.00     0.029 A 
ATOM     44  C   UNL A   1      44.644  26.917  26.637  1.00  0.00     0.049 A 
ATOM     45  H   UNL A   1      43.189  27.854  27.799  1.00  0.00     0.167 HD
ATOM     46  C   UNL A   1      39.957  29.823  30.006  1.00  0.00     0.034 A 
ATOM     47  C   UNL A   1      45.694  27.759  26.547  1.00  0.00     0.034 A 
ATOM     48  C   UNL A   1      41.070  30.741  30.059  1.00  0.00     0.049 A 
ATOM     49  C   UNL A   1      45.625  29.096  27.237  1.00  0.00     0.074 A 
ATOM     50  C   UNL A   1      41.158  31.953  30.725  1.00  0.00     0.029 A 
ATOM     51  N   UNL A   1      42.286  30.559  29.411  1.00  0.00    -0.354 N 
ATOM     52  N   UNL A   1      44.637  29.617  27.930  1.00  0.00    -0.248 NA
ATOM     53  C   UNL A   1      46.813  29.954  27.144  1.00  0.00     0.031 C 
ATOM     54  C   UNL A   1      42.398  32.531  30.426  1.00  0.00     0.029 A 
ATOM     55  C   UNL A   1      43.115  31.649  29.634  1.00  0.00     0.049 A 
ATOM     56  H   UNL A   1      42.524  29.771  28.873  1.00  0.00     0.167 HD
ATOM     57  C   UNL A   1      45.098  30.854  28.374  1.00  0.00     0.074 A 
ATOM     58  C   UNL A   1      46.454  30.993  27.884  1.00  0.00     0.031 C 
ATOM     59  C   UNL A   1      44.459  31.787  29.125  1.00  0.00     0.034 A 
BRANCH  46  60
ATOM     60  C   UNL A   1      38.660  30.213  30.676  1.00  0.00     0.023 A 
ATOM     61  C   UNL A   1      37.639  30.880  29.976  1.00  0.00     0.031 A 
ATOM     62  C   UNL A   1      38.452  29.944  32.040  1.00  0.00     0.131 A 
ATOM     63  C   UNL A   1      36.496  31.327  30.658  1.00  0.00     0.055 A 
ATOM     64  C   UNL A   1      37.276  30.318  32.694  1.00  0.00     0.041 A 
ATOM     65  F   UNL A   1      39.396  29.325  32.767  1.00  0.00    -0.206 F 
ATOM     66  C   UNL A   1      36.297  31.030  32.007  1.00  0.00     0.022 A 
BRANCH  63  67
ATOM     67  S   UNL A   1      35.349  32.431  29.791  1.00  0.00     0.124 S 
ATOM     68  O   UNL A   1      34.873  31.572  28.709  1.00  0.00    -0.237 OA
ATOM     69  O   UNL A   1      34.376  32.753  30.827  1.00  0.00    -0.237 OA
ATOM     70  O   UNL A   1      36.199  33.542  29.365  1.00  0.00    -0.744 OA
ENDBRANCH  63  67
ENDBRANCH  46  60
BRANCH  47  71
ATOM     71  C   UNL A   1      46.893  27.376  25.749  1.00  0.00     0.023 A 
ATOM     72  C   UNL A   1      47.037  27.783  24.413  1.00  0.00     0.031 A 
ATOM     73  C   UNL A   1      47.900  26.568  26.306  1.00  0.00     0.131 A 
ATOM     74  C   UNL A   1      48.142  27.346  23.666  1.00  0.00     0.055 A 
ATOM     75  C   UNL A   1      49.022  26.177  25.573  1.00  0.00     0.041 A 
ATOM     76  F   UNL A   1      47.813  26.158  27.582  1.00  0.00    -0.206 F 
ATOM     77  C   UNL A   1      49.141  26.556  24.240  1.00  0.00     0.022 A 
BRANCH  74  78
ATOM     78  S   UNL A   1      48.221  27.769  21.904  1.00  0.00     0.124 S 
ATOM     79  O   UNL A   1      48.407  26.458  21.292  1.00  0.00    -0.237 OA
ATOM     80  O   UNL A   1      46.926  28.403  21.686  1.00  0.00    -0.237 OA
ATOM     81  O   UNL A   1      49.372  28.666  21.821  1.00  0.00    -0.744 OA
ENDBRANCH  74  78
ENDBRANCH  47  71
BRANCH  59  82
ATOM     82  C   UNL A   1      45.242  33.025  29.490  1.00  0.00     0.023 A 
ATOM     83  C   UNL A   1      45.217  34.179  28.686  1.00  0.00     0.031 A 
ATOM     84  C   UNL A   1      46.031  33.045  30.653  1.00  0.00     0.131 A 
ATOM     85  C   UNL A   1      46.007  35.287  29.031  1.00  0.00     0.055 A 
ATOM     86  C   UNL A   1      46.772  34.169  31.019  1.00  0.00     0.041 A 
ATOM     87  F   UNL A   1      46.094  31.969  31.455  1.00  0.00    -0.206 F 
ATOM     88  C   UNL A   1      46.772  35.295  30.200  1.00  0.00     0.022 A 
BRANCH  85  89
ATOM     89  S   UNL A   1      46.085  36.693  27.887  1.00  0.00     0.124 S 
ATOM     90  O   UNL A   1      47.356  36.461  27.207  1.00  0.00    -0.237 OA
ATOM     91  O   UNL A   1      44.886  36.506  27.079  1.00  0.00    -0.237 OA
ATOM     92  O   UNL A   1      46.059  37.857  28.771  1.00  0.00    -0.744 OA
ENDBRANCH  85  89
ENDBRANCH  59  82
ENDBRANCH  33  34
ENDBRANCH  25  28
ENDBRANCH  23  24
ENDBRANCH  22  23
ENDBRANCH  21  22
ENDBRANCH   1  21
TORSDOF 19
ENDMDL
MODEL 2
REMARK VINA RESULT:     -10.8      4.931      7.807
REMARK SMILES CN(C(=O)[C@H]1CCCC[C@H]1C(=O)NCCCCCCNC(=O)c1ccc(-c2c3nc(c(-c4cc(S(=O)(=O)[O-])ccc4F)c4ccc([nH]4)c(-c4cc(S(=O)(=O)[O-])ccc4F)c4nc(c(-c5cc(S(=O)(=O)[O-])ccc5F)c5ccc2[nH]5)C=C4)C=C3)cc1)C1CC1
REMARK SMILES IDX 16 1 15 2 14 3 13 4 11 5 12 6 10 8 5 9 6 10 7 11 9 12 8 13
REMARK SMILES IDX 3 14 4 15 2 16 1 17 86 18 87 19 88 20 17 21 18 22 19 23
REMARK SMILES IDX 20 24 21 25 22 27 23 28 24 29 85 30 25 31 84 32 26 33 27 34
REMARK SMILES IDX 28 35 78 36 29 37 83 38 77 39 79 40 30 41 82 42 76 43 75 44
REMARK SMILES IDX 31 46 63 47 43 48 62 49 44 50 47 51 61 52 80 53 45 54 46 55
REMARK SMILES IDX 60 57 81 58 48 59 32 60 33 61 41 62 34 63 40 64 42 65 39 66
REMARK SMILES IDX 35 67 36 68 37 69 38 70 64 71 65 72 73 73 66 74 72 75 74 76
REMARK SMILES IDX 71 77 67 78 68 79 69 80 70 81 49 82 50 83 58 84 51 85 57 86
REMARK SMILES IDX 59 87 56 88 52 89 53 90 54 91 55 92
REMARK H PARENT 13 7 20 26 79 45 47 56
REMARK Flexibility Score: inf
ROOT
ATOM      1  C   UNL A   1      30.721  27.461  24.405  1.00  0.00     0.002 C 
ENDROOT
BRANCH   1   2
ATOM      2  C   UNL A   1      31.252  27.042  23.029  1.00  0.00     0.021 C 
BRANCH   2   3
ATOM      3  C   UNL A   1      32.701  26.542  23.006  1.00  0.00     0.116 C 
BRANCH   3   4
ATOM      4  N   UNL A   1      32.828  25.306  22.266  1.00  0.00    -0.356 N 
ATOM      5  C   UNL A   1      33.622  24.223  22.386  1.00  0.00     0.223 C 
ATOM      6  O   UNL A   1      33.394  23.312  21.577  1.00  0.00    -0.275 OA
ATOM      7  H   UNL A   1      32.198  25.241  21.512  1.00  0.00     0.163 HD
BRANCH   5   8
ATOM      8  C   UNL A   1      34.697  23.993  23.457  1.00  0.00     0.091 C 
ATOM      9  C   UNL A   1      34.381  24.190  24.945  1.00  0.00     0.091 C 
ATOM     10  C   UNL A   1      35.675  24.355  25.762  1.00  0.00     0.014 C 
ATOM     11  C   UNL A   1      36.766  23.330  25.478  1.00  0.00     0.001 C 
ATOM     12  C   UNL A   1      35.685  22.879  23.136  1.00  0.00     0.014 C 
ATOM     13  C   UNL A   1      36.959  22.989  23.995  1.00  0.00     0.001 C 
BRANCH   9  14
ATOM     14  C   UNL A   1      33.278  23.431  25.711  1.00  0.00     0.226 C 
ATOM     15  O   UNL A   1      33.431  23.371  26.943  1.00  0.00    -0.275 OA
BRANCH  14  16
ATOM     16  N   UNL A   1      32.191  22.792  25.125  1.00  0.00    -0.343 N 
ATOM     17  C   UNL A   1      30.895  23.356  24.776  1.00  0.00     0.147 C 
BRANCH  16  18
ATOM     18  C   UNL A   1      32.184  21.339  25.035  1.00  0.00     0.084 C 
ATOM     19  C   UNL A   1      32.606  20.646  23.764  1.00  0.00     0.027 C 
ATOM     20  C   UNL A   1      33.413  20.476  25.013  1.00  0.00     0.027 C 
ENDBRANCH  16  18
ENDBRANCH  14  16
ENDBRANCH   9  14
ENDBRANCH   5   8
ENDBRANCH   3   4
ENDBRANCH   2   3
ENDBRANCH   1   2
BRANCH   1  21
ATOM     21  C   UNL A   1      31.410  28.673  25.048  1.00  0.00     0.002 C 
BRANCH  21  22
ATOM     22  C   UNL A   1      32.263  28.403  26.292  1.00  0.00     0.021 C 
BRANCH  22  23
ATOM     23  C   UNL A   1      33.658  29.031  26.302  1.00  0.00     0.116 C 
BRANCH  23  24
ATOM     24  N   UNL A   1      33.617  30.424  26.715  1.00  0.00    -0.352 N 
ATOM     25  C   UNL A   1      34.380  31.103  27.633  1.00  0.00     0.251 C 
ATOM     26  H   UNL A   1      32.932  30.967  26.263  1.00  0.00     0.163 HD
ATOM     27  O   UNL A   1      34.011  32.213  28.006  1.00  0.00    -0.269 OA
BRANCH  25  28
ATOM     28  C   UNL A   1      35.626  30.518  28.185  1.00  0.00     0.039 A 
ATOM     29  C   UNL A   1      36.810  30.644  27.448  1.00  0.00     0.014 A 
ATOM     30  C   UNL A   1      35.629  29.783  29.373  1.00  0.00     0.014 A 
ATOM     31  C   UNL A   1      37.999  30.081  27.925  1.00  0.00     0.010 A 
ATOM     32  C   UNL A   1      36.827  29.264  29.875  1.00  0.00     0.010 A 
ATOM     33  C   UNL A   1      38.024  29.406  29.157  1.00  0.00    -0.014 A 
BRANCH  33  34
ATOM     34  C   UNL A   1      39.293  28.845  29.700  1.00  0.00     0.031 A 
ATOM     35  C   UNL A   1      39.994  29.517  30.849  1.00  0.00     0.074 A 
ATOM     36  C   UNL A   1      39.843  27.759  29.122  1.00  0.00     0.049 A 
ATOM     37  N   UNL A   1      41.143  29.225  31.405  1.00  0.00    -0.248 NA
ATOM     38  C   UNL A   1      39.324  30.687  31.433  1.00  0.00     0.031 C 
ATOM     39  C   UNL A   1      39.278  27.030  27.985  1.00  0.00     0.029 A 
ATOM     40  N   UNL A   1      41.008  27.085  29.401  1.00  0.00    -0.354 N 
ATOM     41  C   UNL A   1      41.340  30.179  32.399  1.00  0.00     0.074 A 
ATOM     42  C   UNL A   1      40.215  31.088  32.328  1.00  0.00     0.031 C 
ATOM     43  C   UNL A   1      40.091  26.010  27.668  1.00  0.00     0.029 A 
ATOM     44  C   UNL A   1      41.256  26.035  28.548  1.00  0.00     0.049 A 
ATOM     45  H   UNL A   1      41.608  27.331  30.141  1.00  0.00     0.167 HD
ATOM     46  C   UNL A   1      42.354  30.277  33.297  1.00  0.00     0.034 A 
ATOM     47  C   UNL A   1      42.310  25.197  28.467  1.00  0.00     0.034 A 
ATOM     48  C   UNL A   1      43.467  29.360  33.360  1.00  0.00     0.049 A 
ATOM     49  C   UNL A   1      43.441  25.342  29.453  1.00  0.00     0.074 A 
ATOM     50  C   UNL A   1      44.518  29.338  34.263  1.00  0.00     0.029 A 
ATOM     51  N   UNL A   1      43.686  28.308  32.478  1.00  0.00    -0.354 N 
ATOM     52  N   UNL A   1      43.588  26.224  30.415  1.00  0.00    -0.248 NA
ATOM     53  C   UNL A   1      44.541  24.375  29.348  1.00  0.00     0.031 C 
ATOM     54  C   UNL A   1      45.401  28.319  33.888  1.00  0.00     0.029 A 
ATOM     55  C   UNL A   1      44.868  27.655  32.795  1.00  0.00     0.049 A 
ATOM     56  H   UNL A   1      43.088  28.063  31.736  1.00  0.00     0.167 HD
ATOM     57  C   UNL A   1      44.787  25.899  31.045  1.00  0.00     0.074 A 
ATOM     58  C   UNL A   1      45.313  24.734  30.363  1.00  0.00     0.031 C 
ATOM     59  C   UNL A   1      45.394  26.506  32.097  1.00  0.00     0.034 A 
BRANCH  46  60
ATOM     60  C   UNL A   1      42.312  31.438  34.264  1.00  0.00     0.023 A 
ATOM     61  C   UNL A   1      41.465  31.432  35.386  1.00  0.00     0.031 A 
ATOM     62  C   UNL A   1      43.106  32.577  34.046  1.00  0.00     0.131 A 
ATOM     63  C   UNL A   1      41.370  32.573  36.199  1.00  0.00     0.055 A 
ATOM     64  C   UNL A   1      43.068  33.677  34.907  1.00  0.00     0.041 A 
ATOM     65  F   UNL A   1      43.923  32.650  32.984  1.00  0.00    -0.206 F 
ATOM     66  C   UNL A   1      42.183  33.686  35.981  1.00  0.00     0.022 A 
BRANCH  63  67
ATOM     67  S   UNL A   1      40.060  32.634  37.452  1.00  0.00     0.124 S 
ATOM     68  O   UNL A   1      39.175  31.560  37.006  1.00  0.00    -0.237 OA
ATOM     69  O   UNL A   1      40.793  32.387  38.688  1.00  0.00    -0.237 OA
ATOM     70  O   UNL A   1      39.513  33.982  37.309  1.00  0.00    -0.744 OA
ENDBRANCH  63  67
ENDBRANCH  46  60
BRANCH  47  71
ATOM     71  C   UNL A   1      42.362  24.160  27.398  1.00  0.00     0.023 A 
ATOM     72  C   UNL A   1      41.727  22.918  27.560  1.00  0.00     0.031 A 
ATOM     73  C   UNL A   1      43.079  24.387  26.210  1.00  0.00     0.131 A 
ATOM     74  C   UNL A   1      41.854  21.935  26.566  1.00  0.00     0.055 A 
ATOM     75  C   UNL A   1      43.161  23.423  25.203  1.00  0.00     0.041 A 
ATOM     76  F   UNL A   1      43.698  25.560  26.003  1.00  0.00    -0.206 F 
ATOM     77  C   UNL A   1      42.557  22.183  25.384  1.00  0.00     0.022 A 
BRANCH  74  78
ATOM     78  S   UNL A   1      41.144  20.294  26.871  1.00  0.00     0.124 S 
ATOM     79  O   UNL A   1      40.013  20.284  25.950  1.00  0.00    -0.237 OA
ATOM     80  O   UNL A   1      42.257  19.415  26.531  1.00  0.00    -0.237 OA
ATOM     81  O   UNL A   1      40.795  20.334  28.289  1.00  0.00    -0.744 OA
ENDBRANCH  74  78
ENDBRANCH  47  71
BRANCH  59  82
ATOM     82  C   UNL A   1      46.680  25.892  32.592  1.00  0.00     0.023 A 
ATOM     83  C   UNL A   1      46.690  24.886  33.574  1.00  0.00     0.031 A 
ATOM     84  C   UNL A   1      47.915  26.329  32.080  1.00  0.00     0.131 A 
ATOM     85  C   UNL A   1      47.912  24.385  34.050  1.00  0.00     0.055 A 
ATOM     86  C   UNL A   1      49.125  25.788  32.518  1.00  0.00     0.041 A 
ATOM     87  F   UNL A   1      47.965  27.290  31.143  1.00  0.00    -0.206 F 
ATOM     88  C   UNL A   1      49.129  24.818  33.517  1.00  0.00     0.022 A 
BRANCH  85  89
ATOM     89  S   UNL A   1      47.896  23.213  35.434  1.00  0.00     0.124 S 
ATOM     90  O   UNL A   1      46.632  23.534  36.090  1.00  0.00    -0.237 OA
ATOM     91  O   UNL A   1      47.951  21.923  34.754  1.00  0.00    -0.237 OA
ATOM     92  O   UNL A   1      49.095  23.562  36.194  1.00  0.00    -0.744 OA
ENDBRANCH  85  89
ENDBRANCH  59  82
ENDBRANCH  33  34
ENDBRANCH  25  28
ENDBRANCH  23  24
ENDBRANCH  22  23
ENDBRANCH  21  22
ENDBRANCH   1  21
TORSDOF 19
ENDMDL
MODEL 3
REMARK VINA RESULT:     -10.8      2.726      7.866
REMARK SMILES CN(C(=O)[C@H]1CCCC[C@H]1C(=O)NCCCCCCNC(=O)c1ccc(-c2c3nc(c(-c4cc(S(=O)(=O)[O-])ccc4F)c4ccc([nH]4)c(-c4cc(S(=O)(=O)[O-])ccc4F)c4nc(c(-c5cc(S(=O)(=O)[O-])ccc5F)c5ccc2[nH]5)C=C4)C=C3)cc1)C1CC1
REMARK SMILES IDX 16 1 15 2 14 3 13 4 11 5 12 6 10 8 5 9 6 10 7 11 9 12 8 13
REMARK SMILES IDX 3 14 4 15 2 16 1 17 86 18 87 19 88 20 17 21 18 22 19 23
REMARK SMILES IDX 20 24 21 25 22 27 23 28 24 29 85 30 25 31 84 32 26 33 27 34
REMARK SMILES IDX 28 35 78 36 29 37 83 38 77 39 79 40 30 41 82 42 76 43 75 44
REMARK SMILES IDX 31 46 63 47 43 48 62 49 44 50 47 51 61 52 80 53 45 54 46 55
REMARK SMILES IDX 60 57 81 58 48 59 32 60 33 61 41 62 34 63 40 64 42 65 39 66
REMARK SMILES IDX 35 67 36 68 37 69 38 70 64 71 65 72 73 73 66 74 72 75 74 76
REMARK SMILES IDX 71 77 67 78 68 79 69 80 70 81 49 82 50 83 58 84 51 85 57 86
REMARK SMILES IDX 59 87 56 88 52 89 53 90 54 91 55 92
REMARK H PARENT 13 7 20 26 79 45 47 56
REMARK Flexibility Score: inf
ROOT
ATOM      1  C   UNL A   1      33.891  22.589  24.394  1.00  0.00     0.002 C 
ENDROOT
BRANCH   1   2
ATOM      2  C   UNL A   1      32.374  22.563  24.612  1.00  0.00     0.021 C 
BRANCH   2   3
ATOM      3  C   UNL A   1      31.900  23.012  25.999  1.00  0.00     0.116 C 
BRANCH   3   4
ATOM      4  N   UNL A   1      30.749  23.884  25.913  1.00  0.00    -0.356 N 
ATOM      5  C   UNL A   1      30.573  25.215  26.041  1.00  0.00     0.223 C 
ATOM      6  O   UNL A   1      29.417  25.614  25.838  1.00  0.00    -0.275 OA
ATOM      7  H   UNL A   1      29.913  23.401  25.717  1.00  0.00     0.163 HD
BRANCH   5   8
ATOM      8  C   UNL A   1      31.663  26.256  26.328  1.00  0.00     0.091 C 
ATOM      9  C   UNL A   1      32.919  26.343  25.452  1.00  0.00     0.091 C 
ATOM     10  C   UNL A   1      34.040  27.110  26.177  1.00  0.00     0.014 C 
ATOM     11  C   UNL A   1      33.624  28.428  26.819  1.00  0.00     0.001 C 
ATOM     12  C   UNL A   1      31.146  27.582  26.872  1.00  0.00     0.014 C 
ATOM     13  C   UNL A   1      32.271  28.394  27.541  1.00  0.00     0.001 C 
BRANCH   9  14
ATOM     14  C   UNL A   1      32.906  26.593  23.930  1.00  0.00     0.226 C 
ATOM     15  O   UNL A   1      33.988  26.960  23.442  1.00  0.00    -0.275 OA
BRANCH  14  16
ATOM     16  N   UNL A   1      31.788  26.483  23.110  1.00  0.00    -0.343 N 
ATOM     17  C   UNL A   1      31.314  25.315  22.384  1.00  0.00     0.147 C 
BRANCH  16  18
ATOM     18  C   UNL A   1      31.093  27.693  22.691  1.00  0.00     0.084 C 
ATOM     19  C   UNL A   1      29.817  28.120  23.372  1.00  0.00     0.027 C 
ATOM     20  C   UNL A   1      31.044  28.969  23.480  1.00  0.00     0.027 C 
ENDBRANCH  16  18
ENDBRANCH  14  16
ENDBRANCH   9  14
ENDBRANCH   5   8
ENDBRANCH   3   4
ENDBRANCH   2   3
ENDBRANCH   1   2
BRANCH   1  21
ATOM     21  C   UNL A   1      34.739  22.941  25.624  1.00  0.00     0.002 C 
BRANCH  21  22
ATOM     22  C   UNL A   1      35.831  23.999  25.430  1.00  0.00     0.021 C 
BRANCH  22  23
ATOM     23  C   UNL A   1      37.079  23.548  24.669  1.00  0.00     0.116 C 
BRANCH  23  24
ATOM     24  N   UNL A   1      37.821  22.538  25.406  1.00  0.00    -0.352 N 
ATOM     25  C   UNL A   1      38.914  22.660  26.229  1.00  0.00     0.251 C 
ATOM     26  H   UNL A   1      37.487  21.619  25.296  1.00  0.00     0.163 HD
ATOM     27  O   UNL A   1      39.533  21.649  26.548  1.00  0.00    -0.269 OA
BRANCH  25  28
ATOM     28  C   UNL A   1      39.361  23.985  26.726  1.00  0.00     0.039 A 
ATOM     29  C   UNL A   1      40.077  24.819  25.859  1.00  0.00     0.014 A 
ATOM     30  C   UNL A   1      39.154  24.381  28.050  1.00  0.00     0.014 A 
ATOM     31  C   UNL A   1      40.538  26.064  26.302  1.00  0.00     0.010 A 
ATOM     32  C   UNL A   1      39.570  25.645  28.477  1.00  0.00     0.010 A 
ATOM     33  C   UNL A   1      40.267  26.500  27.609  1.00  0.00    -0.014 A 
BRANCH  33  34
ATOM     34  C   UNL A   1      40.709  27.843  28.079  1.00  0.00     0.031 A 
ATOM     35  C   UNL A   1      42.173  28.196  28.113  1.00  0.00     0.074 A 
ATOM     36  C   UNL A   1      39.796  28.728  28.527  1.00  0.00     0.049 A 
ATOM     37  N   UNL A   1      42.754  29.281  28.562  1.00  0.00    -0.248 NA
ATOM     38  C   UNL A   1      43.104  27.184  27.596  1.00  0.00     0.031 C 
ATOM     39  C   UNL A   1      38.351  28.499  28.571  1.00  0.00     0.029 A 
ATOM     40  N   UNL A   1      39.948  29.992  29.043  1.00  0.00    -0.354 N 
ATOM     41  C   UNL A   1      44.120  29.079  28.390  1.00  0.00     0.074 A 
ATOM     42  C   UNL A   1      44.277  27.746  27.846  1.00  0.00     0.031 C 
ATOM     43  C   UNL A   1      37.749  29.586  29.081  1.00  0.00     0.029 A 
ATOM     44  C   UNL A   1      38.764  30.572  29.438  1.00  0.00     0.049 A 
ATOM     45  H   UNL A   1      40.820  30.440  29.124  1.00  0.00     0.167 HD
ATOM     46  C   UNL A   1      45.145  29.932  28.645  1.00  0.00     0.034 A 
ATOM     47  C   UNL A   1      38.522  31.755  30.039  1.00  0.00     0.034 A 
ATOM     48  C   UNL A   1      44.974  31.262  29.182  1.00  0.00     0.049 A 
ATOM     49  C   UNL A   1      39.677  32.675  30.343  1.00  0.00     0.074 A 
ATOM     50  C   UNL A   1      45.940  32.225  29.427  1.00  0.00     0.029 A 
ATOM     51  N   UNL A   1      43.760  31.814  29.571  1.00  0.00    -0.354 N 
ATOM     52  N   UNL A   1      40.959  32.486  30.132  1.00  0.00    -0.248 NA
ATOM     53  C   UNL A   1      39.351  33.968  30.956  1.00  0.00     0.031 C 
ATOM     54  C   UNL A   1      45.320  33.329  30.023  1.00  0.00     0.029 A 
ATOM     55  C   UNL A   1      43.957  33.089  30.084  1.00  0.00     0.049 A 
ATOM     56  H   UNL A   1      42.888  31.366  29.494  1.00  0.00     0.167 HD
ATOM     57  C   UNL A   1      41.589  33.650  30.565  1.00  0.00     0.074 A 
ATOM     58  C   UNL A   1      40.545  34.538  31.034  1.00  0.00     0.031 C 
ATOM     59  C   UNL A   1      42.911  33.959  30.568  1.00  0.00     0.034 A 
BRANCH  46  60
ATOM     60  C   UNL A   1      46.545  29.435  28.368  1.00  0.00     0.023 A 
ATOM     61  C   UNL A   1      47.291  28.751  29.344  1.00  0.00     0.031 A 
ATOM     62  C   UNL A   1      47.155  29.673  27.124  1.00  0.00     0.131 A 
ATOM     63  C   UNL A   1      48.628  28.403  29.091  1.00  0.00     0.055 A 
ATOM     64  C   UNL A   1      48.458  29.251  26.849  1.00  0.00     0.041 A 
ATOM     65  F   UNL A   1      46.501  30.336  26.157  1.00  0.00    -0.206 F 
ATOM     66  C   UNL A   1      49.208  28.628  27.841  1.00  0.00     0.022 A 
BRANCH  63  67
ATOM     67  S   UNL A   1      49.638  27.792  30.467  1.00  0.00     0.124 S 
ATOM     68  O   UNL A   1      49.041  26.481  30.712  1.00  0.00    -0.237 OA
ATOM     69  O   UNL A   1      50.979  27.787  29.896  1.00  0.00    -0.237 OA
ATOM     70  O   UNL A   1      49.411  28.778  31.523  1.00  0.00    -0.744 OA
ENDBRANCH  63  67
ENDBRANCH  46  60
BRANCH  47  71
ATOM     71  C   UNL A   1      37.131  32.131  30.419  1.00  0.00     0.023 A 
ATOM     72  C   UNL A   1      36.259  32.720  29.490  1.00  0.00     0.031 A 
ATOM     73  C   UNL A   1      36.665  31.934  31.731  1.00  0.00     0.131 A 
ATOM     74  C   UNL A   1      34.979  33.129  29.897  1.00  0.00     0.055 A 
ATOM     75  C   UNL A   1      35.374  32.298  32.118  1.00  0.00     0.041 A 
ATOM     76  F   UNL A   1      37.458  31.368  32.656  1.00  0.00    -0.206 F 
ATOM     77  C   UNL A   1      34.527  32.911  31.201  1.00  0.00     0.022 A 
BRANCH  74  78
ATOM     78  S   UNL A   1      33.933  34.017  28.711  1.00  0.00     0.124 S 
ATOM     79  O   UNL A   1      33.517  32.942  27.818  1.00  0.00    -0.237 OA
ATOM     80  O   UNL A   1      32.897  34.571  29.577  1.00  0.00    -0.237 OA
ATOM     81  O   UNL A   1      34.842  35.000  28.126  1.00  0.00    -0.744 OA
ENDBRANCH  74  78
ENDBRANCH  47  71
BRANCH  59  82
ATOM     82  C   UNL A   1      43.292  35.332  31.064  1.00  0.00     0.023 A 
ATOM     83  C   UNL A   1      43.465  36.415  30.184  1.00  0.00     0.031 A 
ATOM     84  C   UNL A   1      43.496  35.556  32.437  1.00  0.00     0.131 A 
ATOM     85  C   UNL A   1      43.878  37.661  30.682  1.00  0.00     0.055 A 
ATOM     86  C   UNL A   1      43.854  36.811  32.932  1.00  0.00     0.041 A 
ATOM     87  F   UNL A   1      43.349  34.556  33.322  1.00  0.00    -0.206 F 
ATOM     88  C   UNL A   1      44.059  37.869  32.052  1.00  0.00     0.022 A 
BRANCH  85  89
ATOM     89  S   UNL A   1      44.256  38.990  29.506  1.00  0.00     0.124 S 
ATOM     90  O   UNL A   1      45.648  39.290  29.823  1.00  0.00    -0.237 OA
ATOM     91  O   UNL A   1      44.020  38.345  28.219  1.00  0.00    -0.237 OA
ATOM     92  O   UNL A   1      43.300  40.039  29.855  1.00  0.00    -0.744 OA
ENDBRANCH  85  89
ENDBRANCH  59  82
ENDBRANCH  33  34
ENDBRANCH  25  28
ENDBRANCH  23  24
ENDBRANCH  22  23
ENDBRANCH  21  22
ENDBRANCH   1  21
TORSDOF 19
ENDMDL
