MODEL 1
REMARK VINA RESULT:     -11.7      0.000      0.000
REMARK SMILES O=C(NCCCCCCNC(=O)c1ccc(-c2c3nc(c(-c4cc(S(=O)(=O)[O-])ccc4F)c4ccc([nH]4)c(-c4cc(S(=O)(=O)[O-])ccc4F)c4nc(c(-c5cc(S(=O)(=O)[O-])ccc5F)c5ccc2[nH]5)C=C4)C=C3)cc1)C1=Cc2cc(Cl)cc(Cl)c2O[C@@H]1C(F)(F)F
REMARK SMILES IDX 7 1 6 2 5 3 4 4 3 5 1 6 2 7 76 9 77 10 87 11 78 12 86 13
REMARK SMILES IDX 79 14 85 15 80 16 83 17 81 18 82 19 84 20 88 21 89 22 90 23
REMARK SMILES IDX 91 24 8 25 9 26 10 27 11 28 12 30 13 31 14 32 75 33 15 34
REMARK SMILES IDX 74 35 16 36 17 37 18 38 68 39 19 40 73 41 67 42 69 43 20 44
REMARK SMILES IDX 72 45 66 46 65 47 21 49 53 50 33 51 52 52 34 53 37 54 51 55
REMARK SMILES IDX 70 56 35 57 36 58 50 60 71 61 38 62 22 63 23 64 31 65 24 66
REMARK SMILES IDX 30 67 32 68 29 69 25 70 26 71 27 72 28 73 54 74 55 75 63 76
REMARK SMILES IDX 56 77 62 78 64 79 61 80 57 81 58 82 59 83 60 84 39 85 40 86
REMARK SMILES IDX 48 87 41 88 47 89 49 90 46 91 42 92 43 93 44 94 45 95
REMARK H PARENT 3 8 10 29 69 48 37 59
REMARK Flexibility Score: inf
ROOT
ATOM      1  C   UNL A   1      31.862  27.642  23.620  1.00  0.00     0.002 C 
ENDROOT
BRANCH   1   2
ATOM      2  C   UNL A   1      30.661  27.568  24.572  1.00  0.00     0.002 C 
BRANCH   2   3
ATOM      3  C   UNL A   1      30.802  26.654  25.791  1.00  0.00     0.021 C 
BRANCH   3   4
ATOM      4  C   UNL A   1      30.297  25.221  25.611  1.00  0.00     0.116 C 
BRANCH   4   5
ATOM      5  N   UNL A   1      30.776  24.275  26.619  1.00  0.00    -0.352 N 
ATOM      6  O   UNL A   1      32.265  22.937  27.673  1.00  0.00    -0.270 OA
ATOM      7  C   UNL A   1      31.915  23.497  26.641  1.00  0.00     0.251 C 
ATOM      8  H   UNL A   1      30.192  24.178  27.407  1.00  0.00     0.163 HD
BRANCH   7   9
ATOM      9  C   UNL A   1      32.790  23.496  25.440  1.00  0.00     0.067 C 
ATOM     10  C   UNL A   1      33.799  24.358  25.250  1.00  0.00     0.025 C 
ATOM     11  C   UNL A   1      32.743  22.266  24.590  1.00  0.00     0.314 C 
ATOM     12  C   UNL A   1      35.099  23.667  25.158  1.00  0.00     0.020 A 
ATOM     13  O   UNL A   1      33.999  21.552  24.614  1.00  0.00    -0.474 OA
ATOM     14  C   UNL A   1      36.254  24.310  25.637  1.00  0.00     0.032 A 
ATOM     15  C   UNL A   1      35.130  22.275  24.923  1.00  0.00     0.146 A 
ATOM     16  C   UNL A   1      37.407  23.566  25.898  1.00  0.00     0.043 A 
ATOM     17  C   UNL A   1      36.308  21.554  25.159  1.00  0.00     0.085 A 
ATOM     18  Cl  UNL A   1      38.761  24.330  26.639  1.00  0.00    -0.084 Cl
ATOM     19  C   UNL A   1      37.442  22.194  25.659  1.00  0.00     0.045 A 
ATOM     20  Cl  UNL A   1      36.351  19.838  24.967  1.00  0.00    -0.080 Cl
BRANCH  11  21
ATOM     21  C   UNL A   1      32.334  22.621  23.143  1.00  0.00     0.429 C 
ATOM     22  F   UNL A   1      33.420  22.828  22.361  1.00  0.00    -0.167 F 
ATOM     23  F   UNL A   1      31.619  21.628  22.558  1.00  0.00    -0.167 F 
ATOM     24  F   UNL A   1      31.576  23.743  23.076  1.00  0.00    -0.167 F 
ENDBRANCH  11  21
ENDBRANCH   7   9
ENDBRANCH   4   5
ENDBRANCH   3   4
ENDBRANCH   2   3
ENDBRANCH   1   2
BRANCH   1  25
ATOM     25  C   UNL A   1      32.728  28.905  23.681  1.00  0.00     0.021 C 
BRANCH  25  26
ATOM     26  C   UNL A   1      33.325  29.260  25.042  1.00  0.00     0.116 C 
BRANCH  26  27
ATOM     27  N   UNL A   1      32.706  30.427  25.642  1.00  0.00    -0.352 N 
ATOM     28  C   UNL A   1      33.033  31.125  26.780  1.00  0.00     0.251 C 
ATOM     29  H   UNL A   1      31.924  30.775  25.156  1.00  0.00     0.163 HD
ATOM     30  O   UNL A   1      32.275  32.004  27.174  1.00  0.00    -0.269 OA
BRANCH  28  31
ATOM     31  C   UNL A   1      34.270  30.818  27.542  1.00  0.00     0.039 A 
ATOM     32  C   UNL A   1      35.232  31.825  27.679  1.00  0.00     0.014 A 
ATOM     33  C   UNL A   1      34.521  29.548  28.069  1.00  0.00     0.014 A 
ATOM     34  C   UNL A   1      36.417  31.576  28.378  1.00  0.00     0.010 A 
ATOM     35  C   UNL A   1      35.680  29.315  28.813  1.00  0.00     0.010 A 
ATOM     36  C   UNL A   1      36.643  30.325  28.971  1.00  0.00    -0.014 A 
BRANCH  36  37
ATOM     37  C   UNL A   1      37.885  30.058  29.746  1.00  0.00     0.031 A 
ATOM     38  C   UNL A   1      38.954  29.160  29.183  1.00  0.00     0.074 A 
ATOM     39  C   UNL A   1      38.031  30.587  30.977  1.00  0.00     0.049 A 
ATOM     40  N   UNL A   1      40.078  28.767  29.727  1.00  0.00    -0.248 NA
ATOM     41  C   UNL A   1      38.715  28.616  27.839  1.00  0.00     0.031 C 
ATOM     42  C   UNL A   1      37.057  31.454  31.643  1.00  0.00     0.029 A 
ATOM     43  N   UNL A   1      39.049  30.470  31.891  1.00  0.00    -0.354 N 
ATOM     44  C   UNL A   1      40.672  27.915  28.801  1.00  0.00     0.074 A 
ATOM     45  C   UNL A   1      39.757  27.814  27.683  1.00  0.00     0.031 C 
ATOM     46  C   UNL A   1      37.534  31.807  32.847  1.00  0.00     0.029 A 
ATOM     47  C   UNL A   1      38.826  31.160  33.060  1.00  0.00     0.049 A 
ATOM     48  H   UNL A   1      39.862  29.942  31.725  1.00  0.00     0.167 HD
ATOM     49  C   UNL A   1      41.875  27.290  28.870  1.00  0.00     0.034 A 
ATOM     50  C   UNL A   1      39.570  31.254  34.180  1.00  0.00     0.034 A 
ATOM     51  C   UNL A   1      42.783  27.412  29.985  1.00  0.00     0.049 A 
ATOM     52  C   UNL A   1      40.887  30.523  34.247  1.00  0.00     0.074 A 
ATOM     53  C   UNL A   1      44.054  26.881  30.126  1.00  0.00     0.029 A 
ATOM     54  N   UNL A   1      42.515  28.105  31.160  1.00  0.00    -0.354 N 
ATOM     55  N   UNL A   1      41.459  29.766  33.339  1.00  0.00    -0.248 NA
ATOM     56  C   UNL A   1      41.662  30.670  35.485  1.00  0.00     0.031 C 
ATOM     57  C   UNL A   1      44.524  27.191  31.407  1.00  0.00     0.029 A 
ATOM     58  C   UNL A   1      43.579  27.981  32.042  1.00  0.00     0.049 A 
ATOM     59  H   UNL A   1      41.690  28.610  31.340  1.00  0.00     0.167 HD
ATOM     60  C   UNL A   1      42.677  29.373  33.889  1.00  0.00     0.074 A 
ATOM     61  C   UNL A   1      42.759  29.985  35.198  1.00  0.00     0.031 C 
ATOM     62  C   UNL A   1      43.645  28.584  33.353  1.00  0.00     0.034 A 
BRANCH  49  63
ATOM     63  C   UNL A   1      42.257  26.386  27.720  1.00  0.00     0.023 A 
ATOM     64  C   UNL A   1      42.004  25.003  27.746  1.00  0.00     0.031 A 
ATOM     65  C   UNL A   1      42.910  26.913  26.590  1.00  0.00     0.131 A 
ATOM     66  C   UNL A   1      42.471  24.185  26.705  1.00  0.00     0.055 A 
ATOM     67  C   UNL A   1      43.298  26.105  25.520  1.00  0.00     0.041 A 
ATOM     68  F   UNL A   1      43.196  28.222  26.514  1.00  0.00    -0.206 F 
ATOM     69  C   UNL A   1      43.095  24.730  25.581  1.00  0.00     0.022 A 
BRANCH  66  70
ATOM     70  S   UNL A   1      42.385  22.385  26.915  1.00  0.00     0.124 S 
ATOM     71  O   UNL A   1      43.572  21.946  26.185  1.00  0.00    -0.237 OA
ATOM     72  O   UNL A   1      42.431  22.234  28.362  1.00  0.00    -0.237 OA
ATOM     73  O   UNL A   1      41.112  22.028  26.288  1.00  0.00    -0.744 OA
ENDBRANCH  66  70
ENDBRANCH  49  63
BRANCH  50  74
ATOM     74  C   UNL A   1      39.093  32.063  35.336  1.00  0.00     0.023 A 
ATOM     75  C   UNL A   1      38.474  31.450  36.437  1.00  0.00     0.031 A 
ATOM     76  C   UNL A   1      39.214  33.464  35.342  1.00  0.00     0.131 A 
ATOM     77  C   UNL A   1      37.959  32.238  37.479  1.00  0.00     0.055 A 
ATOM     78  C   UNL A   1      38.745  34.239  36.404  1.00  0.00     0.041 A 
ATOM     79  F   UNL A   1      39.804  34.098  34.316  1.00  0.00    -0.206 F 
ATOM     80  C   UNL A   1      38.103  33.627  37.476  1.00  0.00     0.022 A 
BRANCH  77  81
ATOM     81  S   UNL A   1      37.033  31.422  38.807  1.00  0.00     0.124 S 
ATOM     82  O   UNL A   1      36.896  30.067  38.285  1.00  0.00    -0.237 OA
ATOM     83  O   UNL A   1      37.930  31.584  39.946  1.00  0.00    -0.237 OA
ATOM     84  O   UNL A   1      35.793  32.193  38.878  1.00  0.00    -0.744 OA
ENDBRANCH  77  81
ENDBRANCH  50  74
BRANCH  62  85
ATOM     85  C   UNL A   1      44.893  28.380  34.176  1.00  0.00     0.023 A 
ATOM     86  C   UNL A   1      45.033  27.293  35.056  1.00  0.00     0.031 A 
ATOM     87  C   UNL A   1      45.953  29.301  34.089  1.00  0.00     0.131 A 
ATOM     88  C   UNL A   1      46.181  27.184  35.855  1.00  0.00     0.055 A 
ATOM     89  C   UNL A   1      47.117  29.155  34.843  1.00  0.00     0.041 A 
ATOM     90  F   UNL A   1      45.872  30.360  33.266  1.00  0.00    -0.206 F 
ATOM     91  C   UNL A   1      47.231  28.099  35.742  1.00  0.00     0.022 A 
BRANCH  88  92
ATOM     92  S   UNL A   1      46.249  25.877  37.112  1.00  0.00     0.124 S 
ATOM     93  O   UNL A   1      46.066  26.633  38.346  1.00  0.00    -0.237 OA
ATOM     94  O   UNL A   1      45.139  25.012  36.724  1.00  0.00    -0.237 OA
ATOM     95  O   UNL A   1      47.577  25.296  36.932  1.00  0.00    -0.744 OA
ENDBRANCH  88  92
ENDBRANCH  62  85
ENDBRANCH  36  37
ENDBRANCH  28  31
ENDBRANCH  26  27
ENDBRANCH  25  26
ENDBRANCH   1  25
TORSDOF 17
ENDMDL
MODEL 2
REMARK VINA RESULT:     -11.5      2.615      7.812
REMARK SMILES O=C(NCCCCCCNC(=O)c1ccc(-c2c3nc(c(-c4cc(S(=O)(=O)[O-])ccc4F)c4ccc([nH]4)c(-c4cc(S(=O)(=O)[O-])ccc4F)c4nc(c(-c5cc(S(=O)(=O)[O-])ccc5F)c5ccc2[nH]5)C=C4)C=C3)cc1)C1=Cc2cc(Cl)cc(Cl)c2O[C@@H]1C(F)(F)F
REMARK SMILES IDX 7 1 6 2 5 3 4 4 3 5 1 6 2 7 76 9 77 10 87 11 78 12 86 13
REMARK SMILES IDX 79 14 85 15 80 16 83 17 81 18 82 19 84 20 88 21 89 22 90 23
REMARK SMILES IDX 91 24 8 25 9 26 10 27 11 28 12 30 13 31 14 32 75 33 15 34
REMARK SMILES IDX 74 35 16 36 17 37 18 38 68 39 19 40 73 41 67 42 69 43 20 44
REMARK SMILES IDX 72 45 66 46 65 47 21 49 53 50 33 51 52 52 34 53 37 54 51 55
REMARK SMILES IDX 70 56 35 57 36 58 50 60 71 61 38 62 22 63 23 64 31 65 24 66
REMARK SMILES IDX 30 67 32 68 29 69 25 70 26 71 27 72 28 73 54 74 55 75 63 76
REMARK SMILES IDX 56 77 62 78 64 79 61 80 57 81 58 82 59 83 60 84 39 85 40 86
REMARK SMILES IDX 48 87 41 88 47 89 49 90 46 91 42 92 43 93 44 94 45 95
REMARK H PARENT 3 8 10 29 69 48 37 59
REMARK Flexibility Score: inf
ROOT
ATOM      1  C   UNL A   1      33.293  28.127  24.987  1.00  0.00     0.002 C 
ENDROOT
BRANCH   1   2
ATOM      2  C   UNL A   1      31.883  27.584  24.726  1.00  0.00     0.002 C 
BRANCH   2   3
ATOM      3  C   UNL A   1      31.077  27.141  25.950  1.00  0.00     0.021 C 
BRANCH   3   4
ATOM      4  C   UNL A   1      30.347  25.802  25.817  1.00  0.00     0.116 C 
BRANCH   4   5
ATOM      5  N   UNL A   1      30.742  24.793  26.800  1.00  0.00    -0.352 N 
ATOM      6  O   UNL A   1      32.078  23.245  27.767  1.00  0.00    -0.270 OA
ATOM      7  C   UNL A   1      31.751  23.853  26.756  1.00  0.00     0.251 C 
ATOM      8  H   UNL A   1      30.203  24.784  27.624  1.00  0.00     0.163 HD
BRANCH   7   9
ATOM      9  C   UNL A   1      32.537  23.723  25.502  1.00  0.00     0.067 C 
ATOM     10  C   UNL A   1      33.699  24.354  25.279  1.00  0.00     0.025 C 
ATOM     11  C   UNL A   1      32.173  22.577  24.610  1.00  0.00     0.314 C 
ATOM     12  C   UNL A   1      34.808  23.402  25.078  1.00  0.00     0.020 A 
ATOM     13  O   UNL A   1      33.241  21.607  24.526  1.00  0.00    -0.474 OA
ATOM     14  C   UNL A   1      36.100  23.753  25.504  1.00  0.00     0.032 A 
ATOM     15  C   UNL A   1      34.519  22.051  24.789  1.00  0.00     0.146 A 
ATOM     16  C   UNL A   1      37.074  22.764  25.663  1.00  0.00     0.043 A 
ATOM     17  C   UNL A   1      35.521  21.080  24.920  1.00  0.00     0.085 A 
ATOM     18  Cl  UNL A   1      38.602  23.177  26.342  1.00  0.00    -0.084 Cl
ATOM     19  C   UNL A   1      36.793  21.431  25.370  1.00  0.00     0.045 A 
ATOM     20  Cl  UNL A   1      35.175  19.408  24.662  1.00  0.00    -0.080 Cl
BRANCH  11  21
ATOM     21  C   UNL A   1      31.774  23.086  23.207  1.00  0.00     0.429 C 
ATOM     22  F   UNL A   1      32.661  22.683  22.266  1.00  0.00    -0.167 F 
ATOM     23  F   UNL A   1      30.562  22.616  22.822  1.00  0.00    -0.167 F 
ATOM     24  F   UNL A   1      31.711  24.438  23.142  1.00  0.00    -0.167 F 
ENDBRANCH  11  21
ENDBRANCH   7   9
ENDBRANCH   4   5
ENDBRANCH   3   4
ENDBRANCH   2   3
ENDBRANCH   1   2
BRANCH   1  25
ATOM     25  C   UNL A   1      33.920  27.825  26.353  1.00  0.00     0.021 C 
BRANCH  25  26
ATOM     26  C   UNL A   1      33.292  28.519  27.562  1.00  0.00     0.116 C 
BRANCH  26  27
ATOM     27  N   UNL A   1      33.351  29.967  27.474  1.00  0.00    -0.352 N 
ATOM     28  C   UNL A   1      34.347  30.843  27.832  1.00  0.00     0.251 C 
ATOM     29  H   UNL A   1      32.545  30.390  27.097  1.00  0.00     0.163 HD
ATOM     30  O   UNL A   1      34.118  32.047  27.798  1.00  0.00    -0.269 OA
BRANCH  28  31
ATOM     31  C   UNL A   1      35.677  30.356  28.277  1.00  0.00     0.039 A 
ATOM     32  C   UNL A   1      35.778  29.766  29.543  1.00  0.00     0.014 A 
ATOM     33  C   UNL A   1      36.827  30.523  27.501  1.00  0.00     0.014 A 
ATOM     34  C   UNL A   1      37.013  29.304  30.007  1.00  0.00     0.010 A 
ATOM     35  C   UNL A   1      38.051  30.014  27.943  1.00  0.00     0.010 A 
ATOM     36  C   UNL A   1      38.158  29.404  29.203  1.00  0.00    -0.014 A 
BRANCH  36  37
ATOM     37  C   UNL A   1      39.472  28.886  29.672  1.00  0.00     0.031 A 
ATOM     38  C   UNL A   1      40.213  29.585  30.780  1.00  0.00     0.074 A 
ATOM     39  C   UNL A   1      40.019  27.812  29.071  1.00  0.00     0.049 A 
ATOM     40  N   UNL A   1      41.388  29.318  31.290  1.00  0.00    -0.248 NA
ATOM     41  C   UNL A   1      39.551  30.754  31.378  1.00  0.00     0.031 C 
ATOM     42  C   UNL A   1      39.412  27.060  27.970  1.00  0.00     0.029 A 
ATOM     43  N   UNL A   1      41.212  27.168  29.291  1.00  0.00    -0.354 N 
ATOM     44  C   UNL A   1      41.617  30.293  32.255  1.00  0.00     0.074 A 
ATOM     45  C   UNL A   1      40.477  31.185  32.221  1.00  0.00     0.031 C 
ATOM     46  C   UNL A   1      40.225  26.047  27.629  1.00  0.00     0.029 A 
ATOM     47  C   UNL A   1      41.429  26.100  28.453  1.00  0.00     0.049 A 
ATOM     48  H   UNL A   1      41.852  27.446  29.985  1.00  0.00     0.167 HD
ATOM     49  C   UNL A   1      42.672  30.424  33.100  1.00  0.00     0.034 A 
ATOM     50  C   UNL A   1      42.481  25.263  28.350  1.00  0.00     0.034 A 
ATOM     51  C   UNL A   1      43.795  29.517  33.131  1.00  0.00     0.049 A 
ATOM     52  C   UNL A   1      43.656  25.447  29.278  1.00  0.00     0.074 A 
ATOM     53  C   UNL A   1      44.879  29.515  33.993  1.00  0.00     0.029 A 
ATOM     54  N   UNL A   1      43.988  28.457  32.253  1.00  0.00    -0.354 N 
ATOM     55  N   UNL A   1      43.831  26.343  30.222  1.00  0.00    -0.248 NA
ATOM     56  C   UNL A   1      44.769  24.501  29.131  1.00  0.00     0.031 C 
ATOM     57  C   UNL A   1      45.758  28.502  33.594  1.00  0.00     0.029 A 
ATOM     58  C   UNL A   1      45.191  27.821  32.530  1.00  0.00     0.049 A 
ATOM     59  H   UNL A   1      43.364  28.195  31.539  1.00  0.00     0.167 HD
ATOM     60  C   UNL A   1      45.062  26.045  30.801  1.00  0.00     0.074 A 
ATOM     61  C   UNL A   1      45.577  24.883  30.108  1.00  0.00     0.031 C 
ATOM     62  C   UNL A   1      45.703  26.671  31.822  1.00  0.00     0.034 A 
BRANCH  49  63
ATOM     63  C   UNL A   1      42.673  31.613  34.032  1.00  0.00     0.023 A 
ATOM     64  C   UNL A   1      42.192  31.524  35.351  1.00  0.00     0.031 A 
ATOM     65  C   UNL A   1      43.137  32.864  33.586  1.00  0.00     0.131 A 
ATOM     66  C   UNL A   1      42.112  32.677  36.147  1.00  0.00     0.055 A 
ATOM     67  C   UNL A   1      43.131  33.990  34.412  1.00  0.00     0.041 A 
ATOM     68  F   UNL A   1      43.591  33.018  32.332  1.00  0.00    -0.206 F 
ATOM     69  C   UNL A   1      42.600  33.905  35.696  1.00  0.00     0.022 A 
BRANCH  66  70
ATOM     70  S   UNL A   1      41.220  32.578  37.724  1.00  0.00     0.124 S 
ATOM     71  O   UNL A   1      42.034  31.617  38.465  1.00  0.00    -0.237 OA
ATOM     72  O   UNL A   1      41.263  33.954  38.198  1.00  0.00    -0.237 OA
ATOM     73  O   UNL A   1      39.895  32.090  37.337  1.00  0.00    -0.744 OA
ENDBRANCH  66  70
ENDBRANCH  49  63
BRANCH  50  74
ATOM     74  C   UNL A   1      42.484  24.176  27.332  1.00  0.00     0.023 A 
ATOM     75  C   UNL A   1      41.852  22.949  27.587  1.00  0.00     0.031 A 
ATOM     76  C   UNL A   1      43.152  24.333  26.105  1.00  0.00     0.131 A 
ATOM     77  C   UNL A   1      41.936  21.910  26.646  1.00  0.00     0.055 A 
ATOM     78  C   UNL A   1      43.192  23.313  25.152  1.00  0.00     0.041 A 
ATOM     79  F   UNL A   1      43.769  25.489  25.810  1.00  0.00    -0.206 F 
ATOM     80  C   UNL A   1      42.591  22.088  25.425  1.00  0.00     0.022 A 
BRANCH  77  81
ATOM     81  S   UNL A   1      41.237  20.293  27.077  1.00  0.00     0.124 S 
ATOM     82  O   UNL A   1      40.787  20.518  28.445  1.00  0.00    -0.237 OA
ATOM     83  O   UNL A   1      40.190  20.138  26.073  1.00  0.00    -0.237 OA
ATOM     84  O   UNL A   1      42.374  19.384  26.934  1.00  0.00    -0.744 OA
ENDBRANCH  77  81
ENDBRANCH  50  74
BRANCH  62  85
ATOM     85  C   UNL A   1      47.014  26.076  32.272  1.00  0.00     0.023 A 
ATOM     86  C   UNL A   1      48.228  26.379  31.629  1.00  0.00     0.031 A 
ATOM     87  C   UNL A   1      47.046  25.177  33.354  1.00  0.00     0.131 A 
ATOM     88  C   UNL A   1      49.411  25.745  32.035  1.00  0.00     0.055 A 
ATOM     89  C   UNL A   1      48.236  24.595  33.791  1.00  0.00     0.041 A 
ATOM     90  F   UNL A   1      45.917  24.850  34.004  1.00  0.00    -0.206 F 
ATOM     91  C   UNL A   1      49.426  24.868  33.123  1.00  0.00     0.022 A 
BRANCH  88  92
ATOM     92  S   UNL A   1      50.922  26.014  31.067  1.00  0.00     0.124 S 
ATOM     93  O   UNL A   1      50.885  27.455  30.841  1.00  0.00    -0.237 OA
ATOM     94  O   UNL A   1      51.962  25.538  31.973  1.00  0.00    -0.237 OA
ATOM     95  O   UNL A   1      50.717  25.194  29.875  1.00  0.00    -0.744 OA
ENDBRANCH  88  92
ENDBRANCH  62  85
ENDBRANCH  36  37
ENDBRANCH  28  31
ENDBRANCH  26  27
ENDBRANCH  25  26
ENDBRANCH   1  25
TORSDOF 17
ENDMDL
MODEL 3
REMARK VINA RESULT:     -11.5      2.667      3.817
REMARK SMILES O=C(NCCCCCCNC(=O)c1ccc(-c2c3nc(c(-c4cc(S(=O)(=O)[O-])ccc4F)c4ccc([nH]4)c(-c4cc(S(=O)(=O)[O-])ccc4F)c4nc(c(-c5cc(S(=O)(=O)[O-])ccc5F)c5ccc2[nH]5)C=C4)C=C3)cc1)C1=Cc2cc(Cl)cc(Cl)c2O[C@@H]1C(F)(F)F
REMARK SMILES IDX 7 1 6 2 5 3 4 4 3 5 1 6 2 7 76 9 77 10 87 11 78 12 86 13
REMARK SMILES IDX 79 14 85 15 80 16 83 17 81 18 82 19 84 20 88 21 89 22 90 23
REMARK SMILES IDX 91 24 8 25 9 26 10 27 11 28 12 30 13 31 14 32 75 33 15 34
REMARK SMILES IDX 74 35 16 36 17 37 18 38 68 39 19 40 73 41 67 42 69 43 20 44
REMARK SMILES IDX 72 45 66 46 65 47 21 49 53 50 33 51 52 52 34 53 37 54 51 55
REMARK SMILES IDX 70 56 35 57 36 58 50 60 71 61 38 62 22 63 23 64 31 65 24 66
REMARK SMILES IDX 30 67 32 68 29 69 25 70 26 71 27 72 28 73 54 74 55 75 63 76
REMARK SMILES IDX 56 77 62 78 64 79 61 80 57 81 58 82 59 83 60 84 39 85 40 86
REMARK SMILES IDX 48 87 41 88 47 89 49 90 46 91 42 92 43 93 44 94 45 95
REMARK H PARENT 3 8 10 29 69 48 37 59
REMARK Flexibility Score: inf
ROOT
ATOM      1  C   UNL A   1      31.702  30.316  26.139  1.00  0.00     0.002 C 
ENDROOT
BRANCH   1   2
ATOM      2  C   UNL A   1      31.856  29.176  27.155  1.00  0.00     0.002 C 
BRANCH   2   3
ATOM      3  C   UNL A   1      32.214  27.798  26.595  1.00  0.00     0.021 C 
BRANCH   3   4
ATOM      4  C   UNL A   1      31.052  26.812  26.458  1.00  0.00     0.116 C 
BRANCH   4   5
ATOM      5  N   UNL A   1      31.384  25.428  26.801  1.00  0.00    -0.352 N 
ATOM      6  O   UNL A   1      32.249  23.361  26.493  1.00  0.00    -0.270 OA
ATOM      7  C   UNL A   1      31.797  24.386  25.998  1.00  0.00     0.251 C 
ATOM      8  H   UNL A   1      31.298  25.207  27.757  1.00  0.00     0.163 HD
BRANCH   7   9
ATOM      9  C   UNL A   1      31.840  24.604  24.529  1.00  0.00     0.067 C 
ATOM     10  C   UNL A   1      30.784  24.992  23.800  1.00  0.00     0.025 C 
ATOM     11  C   UNL A   1      33.201  24.724  23.919  1.00  0.00     0.314 C 
ATOM     12  C   UNL A   1      31.016  26.297  23.151  1.00  0.00     0.020 A 
ATOM     13  O   UNL A   1      33.437  26.049  23.394  1.00  0.00    -0.474 OA
ATOM     14  C   UNL A   1      29.931  27.168  22.953  1.00  0.00     0.032 A 
ATOM     15  C   UNL A   1      32.332  26.799  23.054  1.00  0.00     0.146 A 
ATOM     16  C   UNL A   1      30.163  28.520  22.688  1.00  0.00     0.043 A 
ATOM     17  C   UNL A   1      32.542  28.151  22.751  1.00  0.00     0.085 A 
ATOM     18  Cl  UNL A   1      28.832  29.611  22.611  1.00  0.00    -0.084 Cl
ATOM     19  C   UNL A   1      31.461  29.015  22.582  1.00  0.00     0.045 A 
ATOM     20  Cl  UNL A   1      34.137  28.814  22.714  1.00  0.00    -0.080 Cl
BRANCH  11  21
ATOM     21  C   UNL A   1      33.403  23.651  22.825  1.00  0.00     0.429 C 
ATOM     22  F   UNL A   1      33.004  24.103  21.612  1.00  0.00    -0.167 F 
ATOM     23  F   UNL A   1      34.704  23.293  22.697  1.00  0.00    -0.167 F 
ATOM     24  F   UNL A   1      32.706  22.515  23.075  1.00  0.00    -0.167 F 
ENDBRANCH  11  21
ENDBRANCH   7   9
ENDBRANCH   4   5
ENDBRANCH   3   4
ENDBRANCH   2   3
ENDBRANCH   1   2
BRANCH   1  25
ATOM     25  C   UNL A   1      31.545  31.735  26.696  1.00  0.00     0.021 C 
BRANCH  25  26
ATOM     26  C   UNL A   1      32.834  32.477  27.050  1.00  0.00     0.116 C 
BRANCH  26  27
ATOM     27  N   UNL A   1      32.593  33.811  27.568  1.00  0.00    -0.352 N 
ATOM     28  C   UNL A   1      33.196  34.489  28.600  1.00  0.00     0.251 C 
ATOM     29  H   UNL A   1      31.881  34.310  27.106  1.00  0.00     0.163 HD
ATOM     30  O   UNL A   1      32.727  35.566  28.955  1.00  0.00    -0.269 OA
BRANCH  28  31
ATOM     31  C   UNL A   1      34.381  33.932  29.299  1.00  0.00     0.039 A 
ATOM     32  C   UNL A   1      34.169  33.032  30.350  1.00  0.00     0.014 A 
ATOM     33  C   UNL A   1      35.684  34.325  28.979  1.00  0.00     0.014 A 
ATOM     34  C   UNL A   1      35.257  32.493  31.044  1.00  0.00     0.010 A 
ATOM     35  C   UNL A   1      36.771  33.745  29.636  1.00  0.00     0.010 A 
ATOM     36  C   UNL A   1      36.570  32.827  30.680  1.00  0.00    -0.014 A 
BRANCH  36  37
ATOM     37  C   UNL A   1      37.736  32.234  31.388  1.00  0.00     0.031 A 
ATOM     38  C   UNL A   1      38.521  31.116  30.756  1.00  0.00     0.074 A 
ATOM     39  C   UNL A   1      38.063  32.672  32.620  1.00  0.00     0.049 A 
ATOM     40  N   UNL A   1      39.533  30.437  31.236  1.00  0.00    -0.248 NA
ATOM     41  C   UNL A   1      38.096  30.690  29.415  1.00  0.00     0.031 C 
ATOM     42  C   UNL A   1      37.366  33.733  33.349  1.00  0.00     0.029 A 
ATOM     43  N   UNL A   1      39.056  32.276  33.481  1.00  0.00    -0.354 N 
ATOM     44  C   UNL A   1      39.854  29.493  30.267  1.00  0.00     0.074 A 
ATOM     45  C   UNL A   1      38.896  29.658  29.193  1.00  0.00     0.031 C 
ATOM     46  C   UNL A   1      37.968  33.919  34.535  1.00  0.00     0.029 A 
ATOM     47  C   UNL A   1      39.063  32.963  34.672  1.00  0.00     0.049 A 
ATOM     48  H   UNL A   1      39.703  31.567  33.265  1.00  0.00     0.167 HD
ATOM     49  C   UNL A   1      40.863  28.585  30.265  1.00  0.00     0.034 A 
ATOM     50  C   UNL A   1      39.854  32.834  35.756  1.00  0.00     0.034 A 
ATOM     51  C   UNL A   1      41.820  28.442  31.337  1.00  0.00     0.049 A 
ATOM     52  C   UNL A   1      40.947  31.795  35.744  1.00  0.00     0.074 A 
ATOM     53  C   UNL A   1      42.921  27.606  31.405  1.00  0.00     0.029 A 
ATOM     54  N   UNL A   1      41.783  29.144  32.536  1.00  0.00    -0.354 N 
ATOM     55  N   UNL A   1      41.272  30.947  34.796  1.00  0.00    -0.248 NA
ATOM     56  C   UNL A   1      41.786  31.706  36.947  1.00  0.00     0.031 C 
ATOM     57  C   UNL A   1      43.508  27.750  32.668  1.00  0.00     0.029 A 
ATOM     58  C   UNL A   1      42.819  28.731  33.363  1.00  0.00     0.049 A 
ATOM     59  H   UNL A   1      41.120  29.833  32.766  1.00  0.00     0.167 HD
ATOM     60  C   UNL A   1      42.374  30.246  35.277  1.00  0.00     0.074 A 
ATOM     61  C   UNL A   1      42.663  30.778  36.593  1.00  0.00     0.031 C 
ATOM     62  C   UNL A   1      43.089  29.257  34.681  1.00  0.00     0.034 A 
BRANCH  49  63
ATOM     63  C   UNL A   1      40.957  27.651  29.080  1.00  0.00     0.023 A 
ATOM     64  C   UNL A   1      41.922  27.823  28.073  1.00  0.00     0.031 A 
ATOM     65  C   UNL A   1      40.046  26.587  28.942  1.00  0.00     0.131 A 
ATOM     66  C   UNL A   1      41.905  26.998  26.937  1.00  0.00     0.055 A 
ATOM     67  C   UNL A   1      40.087  25.719  27.849  1.00  0.00     0.041 A 
ATOM     68  F   UNL A   1      39.089  26.382  29.861  1.00  0.00    -0.206 F 
ATOM     69  C   UNL A   1      41.010  25.932  26.830  1.00  0.00     0.022 A 
BRANCH  66  70
ATOM     70  S   UNL A   1      42.970  27.435  25.535  1.00  0.00     0.124 S 
ATOM     71  O   UNL A   1      44.115  28.041  26.211  1.00  0.00    -0.237 OA
ATOM     72  O   UNL A   1      43.208  26.145  24.905  1.00  0.00    -0.237 OA
ATOM     73  O   UNL A   1      42.151  28.369  24.761  1.00  0.00    -0.744 OA
ENDBRANCH  66  70
ENDBRANCH  49  63
BRANCH  50  74
ATOM     74  C   UNL A   1      39.645  33.700  36.950  1.00  0.00     0.023 A 
ATOM     75  C   UNL A   1      38.985  33.210  38.088  1.00  0.00     0.031 A 
ATOM     76  C   UNL A   1      40.067  35.041  36.957  1.00  0.00     0.131 A 
ATOM     77  C   UNL A   1      38.728  34.067  39.170  1.00  0.00     0.055 A 
ATOM     78  C   UNL A   1      39.851  35.876  38.055  1.00  0.00     0.041 A 
ATOM     79  F   UNL A   1      40.707  35.557  35.895  1.00  0.00    -0.206 F 
ATOM     80  C   UNL A   1      39.167  35.393  39.167  1.00  0.00     0.022 A 
BRANCH  77  81
ATOM     81  S   UNL A   1      37.741  33.439  40.556  1.00  0.00     0.124 S 
ATOM     82  O   UNL A   1      38.692  32.559  41.224  1.00  0.00    -0.237 OA
ATOM     83  O   UNL A   1      37.396  34.668  41.264  1.00  0.00    -0.237 OA
ATOM     84  O   UNL A   1      36.622  32.767  39.898  1.00  0.00    -0.744 OA
ENDBRANCH  77  81
ENDBRANCH  50  74
BRANCH  62  85
ATOM     85  C   UNL A   1      44.280  28.723  35.437  1.00  0.00     0.023 A 
ATOM     86  C   UNL A   1      44.155  27.700  36.394  1.00  0.00     0.031 A 
ATOM     87  C   UNL A   1      45.560  29.260  35.208  1.00  0.00     0.131 A 
ATOM     88  C   UNL A   1      45.277  27.285  37.126  1.00  0.00     0.055 A 
ATOM     89  C   UNL A   1      46.683  28.802  35.897  1.00  0.00     0.041 A 
ATOM     90  F   UNL A   1      45.739  30.240  34.307  1.00  0.00    -0.206 F 
ATOM     91  C   UNL A   1      46.544  27.818  36.872  1.00  0.00     0.022 A 
BRANCH  88  92
ATOM     92  S   UNL A   1      45.047  26.100  38.480  1.00  0.00     0.124 S 
ATOM     93  O   UNL A   1      46.410  25.631  38.707  1.00  0.00    -0.237 OA
ATOM     94  O   UNL A   1      44.477  26.935  39.532  1.00  0.00    -0.237 OA
ATOM     95  O   UNL A   1      44.136  25.107  37.916  1.00  0.00    -0.744 OA
ENDBRANCH  88  92
ENDBRANCH  62  85
ENDBRANCH  36  37
ENDBRANCH  28  31
ENDBRANCH  26  27
ENDBRANCH  25  26
ENDBRANCH   1  25
TORSDOF 17
ENDMDL
