MODEL 1
REMARK VINA RESULT:     -10.4      0.000      0.000
REMARK SMILES CCN(CC(=O)NC)C(=O)c1ccncc1/C=C/C(=O)NCCCCCCNC(=O)c1ccc(-c2c3nc(c(-c4cc(S(=O)(=O)[O-])ccc4F)c4ccc([nH]4)c(-c4cc(S(=O)(=O)[O-])ccc4F)c4nc(c(-c5cc(S(=O)(=O)[O-])ccc5F)c5ccc2[nH]5)C=C4)C=C3)cc1
REMARK SMILES IDX 23 1 22 2 21 3 19 4 20 5 18 7 17 8 16 9 11 10 12 11 13 12
REMARK SMILES IDX 15 13 14 14 9 15 10 16 3 17 2 18 1 19 4 20 5 21 6 22 7 23
REMARK SMILES IDX 8 24 24 26 25 27 26 28 27 29 28 30 29 31 30 33 31 34 32 35
REMARK SMILES IDX 93 36 33 37 92 38 34 39 35 40 36 41 86 42 37 43 91 44 85 45
REMARK SMILES IDX 87 46 38 47 90 48 84 49 83 50 39 52 71 53 51 54 70 55 52 56
REMARK SMILES IDX 55 57 69 58 88 59 53 60 54 61 68 63 89 64 56 65 40 66 41 67
REMARK SMILES IDX 49 68 42 69 48 70 50 71 47 72 43 73 44 74 45 75 46 76 72 77
REMARK SMILES IDX 73 78 81 79 74 80 80 81 82 82 79 83 75 84 76 85 77 86 78 87
REMARK SMILES IDX 57 88 58 89 66 90 59 91 65 92 67 93 64 94 60 95 61 96 62 97
REMARK SMILES IDX 63 98
REMARK H PARENT 21 6 7 25 28 32 87 51 55 62
REMARK Flexibility Score: inf
ROOT
ATOM      1  C   UNL A   1      34.574  21.804  27.076  1.00  0.00     0.021 C 
ENDROOT
BRANCH   1   2
ATOM      2  C   UNL A   1      33.049  21.733  27.093  1.00  0.00     0.116 C 
BRANCH   2   3
ATOM      3  N   UNL A   1      32.596  20.704  26.176  1.00  0.00    -0.353 N 
ATOM      4  C   UNL A   1      32.393  20.744  24.836  1.00  0.00     0.244 C 
ATOM      5  O   UNL A   1      32.037  19.728  24.242  1.00  0.00    -0.270 OA
ATOM      6  H   UNL A   1      32.405  19.834  26.595  1.00  0.00     0.163 HD
BRANCH   4   7
ATOM      7  C   UNL A   1      32.705  21.961  24.054  1.00  0.00     0.072 C 
ATOM      8  C   UNL A   1      32.037  23.127  24.080  1.00  0.00     0.016 C 
BRANCH   8   9
ATOM      9  C   UNL A   1      32.472  24.267  23.254  1.00  0.00     0.006 A 
ATOM     10  C   UNL A   1      32.582  25.586  23.722  1.00  0.00     0.050 A 
ATOM     11  C   UNL A   1      33.139  26.574  22.905  1.00  0.00     0.034 A 
ATOM     12  C   UNL A   1      33.461  26.246  21.602  1.00  0.00     0.112 A 
ATOM     13  C   UNL A   1      32.822  24.060  21.918  1.00  0.00     0.119 A 
ATOM     14  N   UNL A   1      33.301  25.014  21.085  1.00  0.00    -0.264 NA
BRANCH  10  15
ATOM     15  C   UNL A   1      32.224  25.956  25.113  1.00  0.00     0.255 C 
ATOM     16  O   UNL A   1      32.890  25.454  26.015  1.00  0.00    -0.269 OA
BRANCH  15  17
ATOM     17  N   UNL A   1      31.152  26.830  25.348  1.00  0.00    -0.330 N 
BRANCH  17  18
ATOM     18  C   UNL A   1      29.815  26.414  24.914  1.00  0.00     0.117 C 
ATOM     19  C   UNL A   1      29.363  27.100  23.638  1.00  0.00     0.027 C 
ENDBRANCH  17  18
BRANCH  17  20
ATOM     20  C   UNL A   1      31.294  28.197  25.875  1.00  0.00     0.219 C 
BRANCH  20  21
ATOM     21  C   UNL A   1      31.813  28.360  27.317  1.00  0.00     0.239 C 
ATOM     22  O   UNL A   1      31.186  27.866  28.261  1.00  0.00    -0.273 OA
ATOM     23  N   UNL A   1      33.008  28.941  27.607  1.00  0.00    -0.358 N 
ATOM     24  C   UNL A   1      34.034  29.433  26.722  1.00  0.00     0.142 C 
ATOM     25  H   UNL A   1      33.202  29.042  28.567  1.00  0.00     0.163 HD
ENDBRANCH  20  21
ENDBRANCH  17  20
ENDBRANCH  15  17
ENDBRANCH  10  15
ENDBRANCH   8   9
ENDBRANCH   4   7
ENDBRANCH   2   3
ENDBRANCH   1   2
BRANCH   1  26
ATOM     26  C   UNL A   1      35.132  23.154  26.616  1.00  0.00     0.002 C 
BRANCH  26  27
ATOM     27  C   UNL A   1      35.730  23.160  25.203  1.00  0.00     0.002 C 
BRANCH  27  28
ATOM     28  C   UNL A   1      36.211  21.802  24.679  1.00  0.00     0.021 C 
BRANCH  28  29
ATOM     29  C   UNL A   1      37.720  21.685  24.483  1.00  0.00     0.116 C 
BRANCH  29  30
ATOM     30  N   UNL A   1      38.302  20.695  25.372  1.00  0.00    -0.352 N 
ATOM     31  C   UNL A   1      39.358  20.807  26.242  1.00  0.00     0.251 C 
ATOM     32  H   UNL A   1      37.873  19.809  25.349  1.00  0.00     0.163 HD
ATOM     33  O   UNL A   1      39.850  19.791  26.722  1.00  0.00    -0.269 OA
BRANCH  31  34
ATOM     34  C   UNL A   1      39.906  22.137  26.594  1.00  0.00     0.039 A 
ATOM     35  C   UNL A   1      39.305  23.276  26.052  1.00  0.00     0.014 A 
ATOM     36  C   UNL A   1      41.039  22.265  27.403  1.00  0.00     0.014 A 
ATOM     37  C   UNL A   1      39.817  24.543  26.348  1.00  0.00     0.010 A 
ATOM     38  C   UNL A   1      41.508  23.531  27.751  1.00  0.00     0.010 A 
ATOM     39  C   UNL A   1      40.912  24.683  27.216  1.00  0.00    -0.014 A 
BRANCH  39  40
ATOM     40  C   UNL A   1      41.467  26.024  27.542  1.00  0.00     0.031 A 
ATOM     41  C   UNL A   1      42.840  26.406  27.057  1.00  0.00     0.074 A 
ATOM     42  C   UNL A   1      40.756  26.878  28.304  1.00  0.00     0.049 A 
ATOM     43  N   UNL A   1      43.531  27.492  27.293  1.00  0.00    -0.248 NA
ATOM     44  C   UNL A   1      43.540  25.421  26.218  1.00  0.00     0.031 C 
ATOM     45  C   UNL A   1      39.424  26.612  28.854  1.00  0.00     0.029 A 
ATOM     46  N   UNL A   1      41.052  28.141  28.753  1.00  0.00    -0.354 N 
ATOM     47  C   UNL A   1      44.749  27.319  26.641  1.00  0.00     0.074 A 
ATOM     48  C   UNL A   1      44.723  25.994  26.057  1.00  0.00     0.031 C 
ATOM     49  C   UNL A   1      39.010  27.687  29.542  1.00  0.00     0.029 A 
ATOM     50  C   UNL A   1      40.059  28.702  29.523  1.00  0.00     0.049 A 
ATOM     51  H   UNL A   1      41.895  28.603  28.542  1.00  0.00     0.167 HD
ATOM     52  C   UNL A   1      45.780  28.192  26.520  1.00  0.00     0.034 A 
ATOM     53  C   UNL A   1      40.005  29.895  30.149  1.00  0.00     0.034 A 
ATOM     54  C   UNL A   1      45.783  29.515  27.094  1.00  0.00     0.049 A 
ATOM     55  C   UNL A   1      41.174  30.840  30.016  1.00  0.00     0.074 A 
ATOM     56  C   UNL A   1      46.761  30.492  27.008  1.00  0.00     0.029 A 
ATOM     57  N   UNL A   1      44.756  30.052  27.861  1.00  0.00    -0.354 N 
ATOM     58  N   UNL A   1      42.306  30.670  29.373  1.00  0.00    -0.248 NA
ATOM     59  C   UNL A   1      41.050  32.144  30.680  1.00  0.00     0.031 C 
ATOM     60  C   UNL A   1      46.353  31.591  27.772  1.00  0.00     0.029 A 
ATOM     61  C   UNL A   1      45.086  31.334  28.271  1.00  0.00     0.049 A 
ATOM     62  H   UNL A   1      43.915  29.588  28.081  1.00  0.00     0.167 HD
ATOM     63  C   UNL A   1      43.009  31.863  29.522  1.00  0.00     0.074 A 
ATOM     64  C   UNL A   1      42.169  32.744  30.305  1.00  0.00     0.031 C 
ATOM     65  C   UNL A   1      44.236  32.202  29.051  1.00  0.00     0.034 A 
BRANCH  52  66
ATOM     66  C   UNL A   1      46.996  27.728  25.752  1.00  0.00     0.023 A 
ATOM     67  C   UNL A   1      47.178  28.046  24.394  1.00  0.00     0.031 A 
ATOM     68  C   UNL A   1      47.977  26.938  26.378  1.00  0.00     0.131 A 
ATOM     69  C   UNL A   1      48.269  27.516  23.690  1.00  0.00     0.055 A 
ATOM     70  C   UNL A   1      49.106  26.484  25.691  1.00  0.00     0.041 A 
ATOM     71  F   UNL A   1      47.850  26.583  27.666  1.00  0.00    -0.206 F 
ATOM     72  C   UNL A   1      49.249  26.760  24.335  1.00  0.00     0.022 A 
BRANCH  69  73
ATOM     73  S   UNL A   1      48.311  27.711  21.887  1.00  0.00     0.124 S 
ATOM     74  O   UNL A   1      49.430  28.636  21.719  1.00  0.00    -0.237 OA
ATOM     75  O   UNL A   1      48.535  26.346  21.426  1.00  0.00    -0.237 OA
ATOM     76  O   UNL A   1      46.998  28.270  21.572  1.00  0.00    -0.744 OA
ENDBRANCH  69  73
ENDBRANCH  52  66
BRANCH  53  77
ATOM     77  C   UNL A   1      38.812  30.275  30.960  1.00  0.00     0.023 A 
ATOM     78  C   UNL A   1      37.732  30.959  30.378  1.00  0.00     0.031 A 
ATOM     79  C   UNL A   1      38.760  30.015  32.341  1.00  0.00     0.131 A 
ATOM     80  C   UNL A   1      36.675  31.411  31.182  1.00  0.00     0.055 A 
ATOM     81  C   UNL A   1      37.676  30.414  33.126  1.00  0.00     0.041 A 
ATOM     82  F   UNL A   1      39.763  29.361  32.948  1.00  0.00    -0.206 F 
ATOM     83  C   UNL A   1      36.633  31.132  32.549  1.00  0.00     0.022 A 
BRANCH  80  84
ATOM     84  S   UNL A   1      35.405  32.466  30.430  1.00  0.00     0.124 S 
ATOM     85  O   UNL A   1      35.103  31.737  29.204  1.00  0.00    -0.237 OA
ATOM     86  O   UNL A   1      34.365  32.462  31.453  1.00  0.00    -0.237 OA
ATOM     87  O   UNL A   1      36.091  33.743  30.246  1.00  0.00    -0.744 OA
ENDBRANCH  80  84
ENDBRANCH  53  77
BRANCH  65  88
ATOM     88  C   UNL A   1      44.710  33.610  29.322  1.00  0.00     0.023 A 
ATOM     89  C   UNL A   1      45.461  33.935  30.464  1.00  0.00     0.031 A 
ATOM     90  C   UNL A   1      44.383  34.646  28.428  1.00  0.00     0.131 A 
ATOM     91  C   UNL A   1      45.808  35.271  30.715  1.00  0.00     0.055 A 
ATOM     92  C   UNL A   1      44.786  35.963  28.650  1.00  0.00     0.041 A 
ATOM     93  F   UNL A   1      43.666  34.393  27.321  1.00  0.00    -0.206 F 
ATOM     94  C   UNL A   1      45.489  36.285  29.807  1.00  0.00     0.022 A 
BRANCH  91  95
ATOM     95  S   UNL A   1      46.598  35.682  32.295  1.00  0.00     0.124 S 
ATOM     96  O   UNL A   1      47.563  36.701  31.897  1.00  0.00    -0.237 OA
ATOM     97  O   UNL A   1      45.472  36.149  33.095  1.00  0.00    -0.237 OA
ATOM     98  O   UNL A   1      47.181  34.412  32.728  1.00  0.00    -0.744 OA
ENDBRANCH  91  95
ENDBRANCH  65  88
ENDBRANCH  39  40
ENDBRANCH  31  34
ENDBRANCH  29  30
ENDBRANCH  28  29
ENDBRANCH  27  28
ENDBRANCH  26  27
ENDBRANCH   1  26
TORSDOF 22
ENDMDL
MODEL 2
REMARK VINA RESULT:     -10.4      2.968      3.890
REMARK SMILES CCN(CC(=O)NC)C(=O)c1ccncc1/C=C/C(=O)NCCCCCCNC(=O)c1ccc(-c2c3nc(c(-c4cc(S(=O)(=O)[O-])ccc4F)c4ccc([nH]4)c(-c4cc(S(=O)(=O)[O-])ccc4F)c4nc(c(-c5cc(S(=O)(=O)[O-])ccc5F)c5ccc2[nH]5)C=C4)C=C3)cc1
REMARK SMILES IDX 23 1 22 2 21 3 19 4 20 5 18 7 17 8 16 9 11 10 12 11 13 12
REMARK SMILES IDX 15 13 14 14 9 15 10 16 3 17 2 18 1 19 4 20 5 21 6 22 7 23
REMARK SMILES IDX 8 24 24 26 25 27 26 28 27 29 28 30 29 31 30 33 31 34 32 35
REMARK SMILES IDX 93 36 33 37 92 38 34 39 35 40 36 41 86 42 37 43 91 44 85 45
REMARK SMILES IDX 87 46 38 47 90 48 84 49 83 50 39 52 71 53 51 54 70 55 52 56
REMARK SMILES IDX 55 57 69 58 88 59 53 60 54 61 68 63 89 64 56 65 40 66 41 67
REMARK SMILES IDX 49 68 42 69 48 70 50 71 47 72 43 73 44 74 45 75 46 76 72 77
REMARK SMILES IDX 73 78 81 79 74 80 80 81 82 82 79 83 75 84 76 85 77 86 78 87
REMARK SMILES IDX 57 88 58 89 66 90 59 91 65 92 67 93 64 94 60 95 61 96 62 97
REMARK SMILES IDX 63 98
REMARK H PARENT 21 6 7 25 28 32 87 51 55 62
REMARK Flexibility Score: inf
ROOT
ATOM      1  C   UNL A   1      33.727  23.308  23.770  1.00  0.00     0.021 C 
ENDROOT
BRANCH   1   2
ATOM      2  C   UNL A   1      32.501  23.581  22.902  1.00  0.00     0.116 C 
BRANCH   2   3
ATOM      3  N   UNL A   1      32.921  24.005  21.580  1.00  0.00    -0.353 N 
ATOM      4  C   UNL A   1      32.588  25.105  20.860  1.00  0.00     0.244 C 
ATOM      5  O   UNL A   1      33.099  25.291  19.758  1.00  0.00    -0.270 OA
ATOM      6  H   UNL A   1      33.551  23.396  21.133  1.00  0.00     0.163 HD
BRANCH   4   7
ATOM      7  C   UNL A   1      31.706  26.149  21.427  1.00  0.00     0.072 C 
ATOM      8  C   UNL A   1      32.083  27.206  22.167  1.00  0.00     0.016 C 
BRANCH   8   9
ATOM      9  C   UNL A   1      31.092  28.181  22.654  1.00  0.00     0.006 A 
ATOM     10  C   UNL A   1      31.248  28.955  23.816  1.00  0.00     0.050 A 
ATOM     11  C   UNL A   1      30.319  29.954  24.121  1.00  0.00     0.034 A 
ATOM     12  C   UNL A   1      29.198  30.076  23.323  1.00  0.00     0.112 A 
ATOM     13  C   UNL A   1      29.914  28.389  21.934  1.00  0.00     0.119 A 
ATOM     14  N   UNL A   1      28.966  29.305  22.245  1.00  0.00    -0.264 NA
BRANCH  10  15
ATOM     15  C   UNL A   1      32.438  28.822  24.690  1.00  0.00     0.255 C 
ATOM     16  O   UNL A   1      33.525  29.131  24.207  1.00  0.00    -0.269 OA
BRANCH  15  17
ATOM     17  N   UNL A   1      32.292  28.344  26.000  1.00  0.00    -0.330 N 
BRANCH  17  18
ATOM     18  C   UNL A   1      32.099  26.904  26.192  1.00  0.00     0.117 C 
ATOM     19  C   UNL A   1      33.373  26.102  25.996  1.00  0.00     0.027 C 
ENDBRANCH  17  18
BRANCH  17  20
ATOM     20  C   UNL A   1      32.177  29.203  27.191  1.00  0.00     0.219 C 
BRANCH  20  21
ATOM     21  C   UNL A   1      32.707  30.647  27.088  1.00  0.00     0.239 C 
ATOM     22  O   UNL A   1      31.919  31.599  27.098  1.00  0.00    -0.273 OA
ATOM     23  N   UNL A   1      34.034  30.944  27.094  1.00  0.00    -0.358 N 
ATOM     24  C   UNL A   1      35.174  30.077  27.263  1.00  0.00     0.142 C 
ATOM     25  H   UNL A   1      34.250  31.896  26.962  1.00  0.00     0.163 HD
ENDBRANCH  20  21
ENDBRANCH  17  20
ENDBRANCH  15  17
ENDBRANCH  10  15
ENDBRANCH   8   9
ENDBRANCH   4   7
ENDBRANCH   2   3
ENDBRANCH   1   2
BRANCH   1  26
ATOM     26  C   UNL A   1      33.748  21.913  24.401  1.00  0.00     0.002 C 
BRANCH  26  27
ATOM     27  C   UNL A   1      34.845  21.693  25.451  1.00  0.00     0.002 C 
BRANCH  27  28
ATOM     28  C   UNL A   1      35.257  22.935  26.250  1.00  0.00     0.021 C 
BRANCH  28  29
ATOM     29  C   UNL A   1      36.618  23.517  25.878  1.00  0.00     0.116 C 
BRANCH  29  30
ATOM     30  N   UNL A   1      37.693  22.576  26.136  1.00  0.00    -0.352 N 
ATOM     31  C   UNL A   1      38.995  22.806  26.507  1.00  0.00     0.251 C 
ATOM     32  H   UNL A   1      37.452  21.627  26.031  1.00  0.00     0.163 HD
ATOM     33  O   UNL A   1      39.810  21.892  26.436  1.00  0.00    -0.269 OA
BRANCH  31  34
ATOM     34  C   UNL A   1      39.417  24.145  26.979  1.00  0.00     0.039 A 
ATOM     35  C   UNL A   1      40.004  25.025  26.066  1.00  0.00     0.014 A 
ATOM     36  C   UNL A   1      39.293  24.514  28.321  1.00  0.00     0.014 A 
ATOM     37  C   UNL A   1      40.434  26.286  26.491  1.00  0.00     0.010 A 
ATOM     38  C   UNL A   1      39.661  25.795  28.730  1.00  0.00     0.010 A 
ATOM     39  C   UNL A   1      40.249  26.690  27.823  1.00  0.00    -0.014 A 
BRANCH  39  40
ATOM     40  C   UNL A   1      40.700  28.028  28.289  1.00  0.00     0.031 A 
ATOM     41  C   UNL A   1      42.168  28.361  28.308  1.00  0.00     0.074 A 
ATOM     42  C   UNL A   1      39.796  28.925  28.732  1.00  0.00     0.049 A 
ATOM     43  N   UNL A   1      42.768  29.439  28.745  1.00  0.00    -0.248 NA
ATOM     44  C   UNL A   1      43.084  27.332  27.793  1.00  0.00     0.031 C 
ATOM     45  C   UNL A   1      38.348  28.709  28.785  1.00  0.00     0.029 A 
ATOM     46  N   UNL A   1      39.959  30.196  29.224  1.00  0.00    -0.354 N 
ATOM     47  C   UNL A   1      44.131  29.215  28.566  1.00  0.00     0.074 A 
ATOM     48  C   UNL A   1      44.267  27.872  28.043  1.00  0.00     0.031 C 
ATOM     49  C   UNL A   1      37.756  29.817  29.257  1.00  0.00     0.029 A 
ATOM     50  C   UNL A   1      38.779  30.806  29.582  1.00  0.00     0.049 A 
ATOM     51  H   UNL A   1      40.837  30.630  29.312  1.00  0.00     0.167 HD
ATOM     52  C   UNL A   1      45.169  30.059  28.793  1.00  0.00     0.034 A 
ATOM     53  C   UNL A   1      38.549  32.021  30.120  1.00  0.00     0.034 A 
ATOM     54  C   UNL A   1      45.016  31.401  29.299  1.00  0.00     0.049 A 
ATOM     55  C   UNL A   1      39.723  32.934  30.383  1.00  0.00     0.074 A 
ATOM     56  C   UNL A   1      45.994  32.351  29.538  1.00  0.00     0.029 A 
ATOM     57  N   UNL A   1      43.803  31.988  29.642  1.00  0.00    -0.354 N 
ATOM     58  N   UNL A   1      41.002  32.716  30.183  1.00  0.00    -0.248 NA
ATOM     59  C   UNL A   1      39.418  34.263  30.929  1.00  0.00     0.031 C 
ATOM     60  C   UNL A   1      45.382  33.486  30.082  1.00  0.00     0.029 A 
ATOM     61  C   UNL A   1      44.013  33.276  30.111  1.00  0.00     0.049 A 
ATOM     62  H   UNL A   1      42.924  31.552  29.565  1.00  0.00     0.167 HD
ATOM     63  C   UNL A   1      41.648  33.897  30.539  1.00  0.00     0.074 A 
ATOM     64  C   UNL A   1      40.617  34.824  30.955  1.00  0.00     0.031 C 
ATOM     65  C   UNL A   1      42.973  34.190  30.521  1.00  0.00     0.034 A 
BRANCH  52  66
ATOM     66  C   UNL A   1      46.560  29.540  28.513  1.00  0.00     0.023 A 
ATOM     67  C   UNL A   1      47.299  28.848  29.489  1.00  0.00     0.031 A 
ATOM     68  C   UNL A   1      47.166  29.757  27.263  1.00  0.00     0.131 A 
ATOM     69  C   UNL A   1      48.623  28.467  29.226  1.00  0.00     0.055 A 
ATOM     70  C   UNL A   1      48.455  29.299  26.979  1.00  0.00     0.041 A 
ATOM     71  F   UNL A   1      46.519  30.430  26.297  1.00  0.00    -0.206 F 
ATOM     72  C   UNL A   1      49.197  28.663  27.969  1.00  0.00     0.022 A 
BRANCH  69  73
ATOM     73  S   UNL A   1      49.631  27.839  30.598  1.00  0.00     0.124 S 
ATOM     74  O   UNL A   1      50.574  28.939  30.794  1.00  0.00    -0.237 OA
ATOM     75  O   UNL A   1      48.643  27.647  31.654  1.00  0.00    -0.237 OA
ATOM     76  O   UNL A   1      50.217  26.614  30.059  1.00  0.00    -0.744 OA
ENDBRANCH  69  73
ENDBRANCH  52  66
BRANCH  53  77
ATOM     77  C   UNL A   1      37.162  32.457  30.451  1.00  0.00     0.023 A 
ATOM     78  C   UNL A   1      36.344  33.059  29.481  1.00  0.00     0.031 A 
ATOM     79  C   UNL A   1      36.654  32.334  31.756  1.00  0.00     0.131 A 
ATOM     80  C   UNL A   1      35.088  33.568  29.843  1.00  0.00     0.055 A 
ATOM     81  C   UNL A   1      35.378  32.789  32.097  1.00  0.00     0.041 A 
ATOM     82  F   UNL A   1      37.392  31.763  32.722  1.00  0.00    -0.206 F 
ATOM     83  C   UNL A   1      34.594  33.426  31.140  1.00  0.00     0.022 A 
BRANCH  80  84
ATOM     84  S   UNL A   1      34.152  34.519  28.613  1.00  0.00     0.124 S 
ATOM     85  O   UNL A   1      34.379  33.740  27.401  1.00  0.00    -0.237 OA
ATOM     86  O   UNL A   1      32.801  34.475  29.162  1.00  0.00    -0.237 OA
ATOM     87  O   UNL A   1      34.792  35.832  28.641  1.00  0.00    -0.744 OA
ENDBRANCH  80  84
ENDBRANCH  53  77
BRANCH  65  88
ATOM     88  C   UNL A   1      43.369  35.596  30.906  1.00  0.00     0.023 A 
ATOM     89  C   UNL A   1      43.510  35.987  32.247  1.00  0.00     0.031 A 
ATOM     90  C   UNL A   1      43.589  36.562  29.907  1.00  0.00     0.131 A 
ATOM     91  C   UNL A   1      43.800  37.324  32.558  1.00  0.00     0.055 A 
ATOM     92  C   UNL A   1      43.939  37.876  30.221  1.00  0.00     0.041 A 
ATOM     93  F   UNL A   1      43.467  36.244  28.609  1.00  0.00    -0.206 F 
ATOM     94  C   UNL A   1      44.031  38.268  31.553  1.00  0.00     0.022 A 
BRANCH  91  95
ATOM     95  S   UNL A   1      43.772  37.838  34.298  1.00  0.00     0.124 S 
ATOM     96  O   UNL A   1      45.068  37.364  34.774  1.00  0.00    -0.237 OA
ATOM     97  O   UNL A   1      43.622  39.285  34.194  1.00  0.00    -0.237 OA
ATOM     98  O   UNL A   1      42.615  37.133  34.846  1.00  0.00    -0.744 OA
ENDBRANCH  91  95
ENDBRANCH  65  88
ENDBRANCH  39  40
ENDBRANCH  31  34
ENDBRANCH  29  30
ENDBRANCH  28  29
ENDBRANCH  27  28
ENDBRANCH  26  27
ENDBRANCH   1  26
TORSDOF 22
ENDMDL
MODEL 3
REMARK VINA RESULT:     -10.3      2.899      4.036
REMARK SMILES CCN(CC(=O)NC)C(=O)c1ccncc1/C=C/C(=O)NCCCCCCNC(=O)c1ccc(-c2c3nc(c(-c4cc(S(=O)(=O)[O-])ccc4F)c4ccc([nH]4)c(-c4cc(S(=O)(=O)[O-])ccc4F)c4nc(c(-c5cc(S(=O)(=O)[O-])ccc5F)c5ccc2[nH]5)C=C4)C=C3)cc1
REMARK SMILES IDX 23 1 22 2 21 3 19 4 20 5 18 7 17 8 16 9 11 10 12 11 13 12
REMARK SMILES IDX 15 13 14 14 9 15 10 16 3 17 2 18 1 19 4 20 5 21 6 22 7 23
REMARK SMILES IDX 8 24 24 26 25 27 26 28 27 29 28 30 29 31 30 33 31 34 32 35
REMARK SMILES IDX 93 36 33 37 92 38 34 39 35 40 36 41 86 42 37 43 91 44 85 45
REMARK SMILES IDX 87 46 38 47 90 48 84 49 83 50 39 52 71 53 51 54 70 55 52 56
REMARK SMILES IDX 55 57 69 58 88 59 53 60 54 61 68 63 89 64 56 65 40 66 41 67
REMARK SMILES IDX 49 68 42 69 48 70 50 71 47 72 43 73 44 74 45 75 46 76 72 77
REMARK SMILES IDX 73 78 81 79 74 80 80 81 82 82 79 83 75 84 76 85 77 86 78 87
REMARK SMILES IDX 57 88 58 89 66 90 59 91 65 92 67 93 64 94 60 95 61 96 62 97
REMARK SMILES IDX 63 98
REMARK H PARENT 21 6 7 25 28 32 87 51 55 62
REMARK Flexibility Score: inf
ROOT
ATOM      1  C   UNL A   1      34.163  23.004  23.094  1.00  0.00     0.021 C 
ENDROOT
BRANCH   1   2
ATOM      2  C   UNL A   1      32.844  22.943  22.327  1.00  0.00     0.116 C 
BRANCH   2   3
ATOM      3  N   UNL A   1      32.931  23.763  21.135  1.00  0.00    -0.353 N 
ATOM      4  C   UNL A   1      32.809  25.104  20.976  1.00  0.00     0.244 C 
ATOM      5  O   UNL A   1      32.959  25.604  19.863  1.00  0.00    -0.270 OA
ATOM      6  H   UNL A   1      33.109  23.266  20.305  1.00  0.00     0.163 HD
BRANCH   4   7
ATOM      7  C   UNL A   1      32.611  25.995  22.141  1.00  0.00     0.072 C 
ATOM      8  C   UNL A   1      33.567  26.489  22.947  1.00  0.00     0.016 C 
BRANCH   8   9
ATOM      9  C   UNL A   1      33.224  27.383  24.067  1.00  0.00     0.006 A 
ATOM     10  C   UNL A   1      32.922  26.943  25.366  1.00  0.00     0.050 A 
ATOM     11  C   UNL A   1      32.748  27.871  26.397  1.00  0.00     0.034 A 
ATOM     12  C   UNL A   1      32.763  29.216  26.080  1.00  0.00     0.112 A 
ATOM     13  C   UNL A   1      33.202  28.765  23.869  1.00  0.00     0.119 A 
ATOM     14  N   UNL A   1      32.971  29.684  24.836  1.00  0.00    -0.264 NA
BRANCH  10  15
ATOM     15  C   UNL A   1      32.886  25.502  25.716  1.00  0.00     0.255 C 
ATOM     16  O   UNL A   1      33.954  24.970  26.008  1.00  0.00    -0.269 OA
BRANCH  15  17
ATOM     17  N   UNL A   1      31.667  24.808  25.686  1.00  0.00    -0.330 N 
BRANCH  17  18
ATOM     18  C   UNL A   1      30.676  25.197  24.679  1.00  0.00     0.117 C 
ATOM     19  C   UNL A   1      29.506  25.970  25.261  1.00  0.00     0.027 C 
ENDBRANCH  17  18
BRANCH  17  20
ATOM     20  C   UNL A   1      31.255  23.807  26.684  1.00  0.00     0.219 C 
BRANCH  20  21
ATOM     21  C   UNL A   1      31.641  22.337  26.428  1.00  0.00     0.239 C 
ATOM     22  O   UNL A   1      31.120  21.712  25.499  1.00  0.00    -0.273 OA
ATOM     23  N   UNL A   1      32.627  21.705  27.121  1.00  0.00    -0.358 N 
ATOM     24  C   UNL A   1      33.531  22.221  28.118  1.00  0.00     0.142 C 
ATOM     25  H   UNL A   1      32.740  20.750  26.910  1.00  0.00     0.163 HD
ENDBRANCH  20  21
ENDBRANCH  17  20
ENDBRANCH  15  17
ENDBRANCH  10  15
ENDBRANCH   8   9
ENDBRANCH   4   7
ENDBRANCH   2   3
ENDBRANCH   1   2
BRANCH   1  26
ATOM     26  C   UNL A   1      34.493  21.728  23.873  1.00  0.00     0.002 C 
BRANCH  26  27
ATOM     27  C   UNL A   1      35.496  21.910  25.020  1.00  0.00     0.002 C 
BRANCH  27  28
ATOM     28  C   UNL A   1      36.954  22.127  24.599  1.00  0.00     0.021 C 
BRANCH  28  29
ATOM     29  C   UNL A   1      37.859  22.702  25.686  1.00  0.00     0.116 C 
BRANCH  29  30
ATOM     30  N   UNL A   1      39.018  21.859  25.921  1.00  0.00    -0.352 N 
ATOM     31  C   UNL A   1      40.294  22.201  26.293  1.00  0.00     0.251 C 
ATOM     32  H   UNL A   1      38.865  20.894  25.796  1.00  0.00     0.163 HD
ATOM     33  O   UNL A   1      41.190  21.369  26.201  1.00  0.00    -0.269 OA
BRANCH  31  34
ATOM     34  C   UNL A   1      40.592  23.562  26.793  1.00  0.00     0.039 A 
ATOM     35  C   UNL A   1      40.418  24.649  25.931  1.00  0.00     0.014 A 
ATOM     36  C   UNL A   1      41.097  23.769  28.080  1.00  0.00     0.014 A 
ATOM     37  C   UNL A   1      40.715  25.942  26.370  1.00  0.00     0.010 A 
ATOM     38  C   UNL A   1      41.330  25.066  28.539  1.00  0.00     0.010 A 
ATOM     39  C   UNL A   1      41.156  26.165  27.684  1.00  0.00    -0.014 A 
BRANCH  39  40
ATOM     40  C   UNL A   1      41.475  27.535  28.165  1.00  0.00     0.031 A 
ATOM     41  C   UNL A   1      42.905  28.004  28.202  1.00  0.00     0.074 A 
ATOM     42  C   UNL A   1      40.487  28.339  28.606  1.00  0.00     0.049 A 
ATOM     43  N   UNL A   1      43.398  29.130  28.653  1.00  0.00    -0.248 NA
ATOM     44  C   UNL A   1      43.918  27.070  27.688  1.00  0.00     0.031 C 
ATOM     45  C   UNL A   1      39.065  27.988  28.643  1.00  0.00     0.029 A 
ATOM     46  N   UNL A   1      40.526  29.615  29.111  1.00  0.00    -0.354 N 
ATOM     47  C   UNL A   1      44.777  29.036  28.486  1.00  0.00     0.074 A 
ATOM     48  C   UNL A   1      45.043  27.716  27.954  1.00  0.00     0.031 C 
ATOM     49  C   UNL A   1      38.367  29.031  29.119  1.00  0.00     0.029 A 
ATOM     50  C   UNL A   1      39.290  30.109  29.462  1.00  0.00     0.049 A 
ATOM     51  H   UNL A   1      41.358  30.129  29.211  1.00  0.00     0.167 HD
ATOM     52  C   UNL A   1      45.728  29.972  28.730  1.00  0.00     0.034 A 
ATOM     53  C   UNL A   1      38.942  31.293  30.007  1.00  0.00     0.034 A 
ATOM     54  C   UNL A   1      45.445  31.289  29.245  1.00  0.00     0.049 A 
ATOM     55  C   UNL A   1      40.022  32.309  30.288  1.00  0.00     0.074 A 
ATOM     56  C   UNL A   1      46.328  32.324  29.501  1.00  0.00     0.029 A 
ATOM     57  N   UNL A   1      44.180  31.756  29.582  1.00  0.00    -0.354 N 
ATOM     58  N   UNL A   1      41.318  32.213  30.100  1.00  0.00    -0.248 NA
ATOM     59  C   UNL A   1      39.590  33.599  30.842  1.00  0.00     0.031 C 
ATOM     60  C   UNL A   1      45.607  33.392  30.048  1.00  0.00     0.029 A 
ATOM     61  C   UNL A   1      44.264  33.054  30.062  1.00  0.00     0.049 A 
ATOM     62  H   UNL A   1      43.346  31.240  29.492  1.00  0.00     0.167 HD
ATOM     63  C   UNL A   1      41.847  33.446  30.472  1.00  0.00     0.074 A 
ATOM     64  C   UNL A   1      40.730  34.269  30.884  1.00  0.00     0.031 C 
ATOM     65  C   UNL A   1      43.139  33.863  30.469  1.00  0.00     0.034 A 
BRANCH  52  66
ATOM     66  C   UNL A   1      47.165  29.588  28.460  1.00  0.00     0.023 A 
ATOM     67  C   UNL A   1      47.975  29.014  29.457  1.00  0.00     0.031 A 
ATOM     68  C   UNL A   1      47.741  29.817  27.198  1.00  0.00     0.131 A 
ATOM     69  C   UNL A   1      49.330  28.761  29.199  1.00  0.00     0.055 A 
ATOM     70  C   UNL A   1      49.069  29.484  26.923  1.00  0.00     0.041 A 
ATOM     71  F   UNL A   1      47.025  30.382  26.213  1.00  0.00    -0.206 F 
ATOM     72  C   UNL A   1      49.877  28.966  27.930  1.00  0.00     0.022 A 
BRANCH  69  73
ATOM     73  S   UNL A   1      50.402  28.294  30.586  1.00  0.00     0.124 S 
ATOM     74  O   UNL A   1      49.807  27.026  31.002  1.00  0.00    -0.237 OA
ATOM     75  O   UNL A   1      51.715  28.209  29.957  1.00  0.00    -0.237 OA
ATOM     76  O   UNL A   1      50.233  29.394  31.534  1.00  0.00    -0.744 OA
ENDBRANCH  69  73
ENDBRANCH  52  66
BRANCH  53  77
ATOM     77  C   UNL A   1      37.517  31.593  30.327  1.00  0.00     0.023 A 
ATOM     78  C   UNL A   1      36.634  32.043  29.332  1.00  0.00     0.031 A 
ATOM     79  C   UNL A   1      37.032  31.494  31.643  1.00  0.00     0.131 A 
ATOM     80  C   UNL A   1      35.331  32.433  29.678  1.00  0.00     0.055 A 
ATOM     81  C   UNL A   1      35.716  31.827  31.971  1.00  0.00     0.041 A 
ATOM     82  F   UNL A   1      37.833  31.066  32.632  1.00  0.00    -0.206 F 
ATOM     83  C   UNL A   1      34.862  32.316  30.988  1.00  0.00     0.022 A 
BRANCH  80  84
ATOM     84  S   UNL A   1      34.290  33.201  28.405  1.00  0.00     0.124 S 
ATOM     85  O   UNL A   1      35.277  33.930  27.617  1.00  0.00    -0.237 OA
ATOM     86  O   UNL A   1      33.690  32.035  27.764  1.00  0.00    -0.237 OA
ATOM     87  O   UNL A   1      33.368  34.031  29.176  1.00  0.00    -0.744 OA
ENDBRANCH  80  84
ENDBRANCH  53  77
BRANCH  65  88
ATOM     88  C   UNL A   1      43.398  35.296  30.869  1.00  0.00     0.023 A 
ATOM     89  C   UNL A   1      43.460  36.332  29.922  1.00  0.00     0.031 A 
ATOM     90  C   UNL A   1      43.605  35.622  32.222  1.00  0.00     0.131 A 
ATOM     91  C   UNL A   1      43.785  37.634  30.332  1.00  0.00     0.055 A 
ATOM     92  C   UNL A   1      43.865  36.930  32.631  1.00  0.00     0.041 A 
ATOM     93  F   UNL A   1      43.559  34.671  33.169  1.00  0.00    -0.206 F 
ATOM     94  C   UNL A   1      43.972  37.943  31.682  1.00  0.00     0.022 A 
BRANCH  91  95
ATOM     95  S   UNL A   1      44.058  38.902  29.064  1.00  0.00     0.124 S 
ATOM     96  O   UNL A   1      44.733  39.950  29.823  1.00  0.00    -0.237 OA
ATOM     97  O   UNL A   1      44.878  38.196  28.087  1.00  0.00    -0.237 OA
ATOM     98  O   UNL A   1      42.707  39.235  28.615  1.00  0.00    -0.744 OA
ENDBRANCH  91  95
ENDBRANCH  65  88
ENDBRANCH  39  40
ENDBRANCH  31  34
ENDBRANCH  29  30
ENDBRANCH  28  29
ENDBRANCH  27  28
ENDBRANCH  26  27
ENDBRANCH   1  26
TORSDOF 22
ENDMDL
