MODEL 1
REMARK VINA RESULT:     -12.1      0.000      0.000
REMARK SMILES Cn1cc(C[C@@H](NC(=O)OCC2c3ccccc3-c3ccccc32)C(=O)NCCCCCCNC(=O)c2ccc(-c3c4nc(c(-c5cc(S(=O)(=O)[O-])ccc5F)c5ccc([nH]5)c(-c5cc(S(=O)(=O)[O-])ccc5F)c5nc(c(-c6cc(S(=O)(=O)[O-])ccc6F)c6ccc3[nH]6)C=C5)C=C4)cc2)c2ccccc21
REMARK SMILES IDX 30 1 29 2 28 3 27 4 25 5 26 6 6 8 5 9 4 10 1 11 2 12 3 13
REMARK SMILES IDX 105 14 100 15 104 16 101 17 103 18 102 19 7 20 8 21 9 23
REMARK SMILES IDX 10 24 11 25 12 26 13 27 24 28 14 29 18 30 19 31 23 32 15 33
REMARK SMILES IDX 17 34 20 35 22 36 16 37 21 38 31 39 32 40 33 41 34 42 35 43
REMARK SMILES IDX 36 45 37 46 38 47 99 48 39 49 98 50 40 51 41 52 42 53 92 54
REMARK SMILES IDX 43 55 97 56 91 57 93 58 44 59 96 60 90 61 89 62 45 64 77 65
REMARK SMILES IDX 57 66 76 67 58 68 61 69 75 70 94 71 59 72 60 73 74 75 95 76
REMARK SMILES IDX 62 77 46 78 47 79 55 80 48 81 54 82 56 83 53 84 49 85 50 86
REMARK SMILES IDX 51 87 52 88 78 89 79 90 87 91 80 92 86 93 88 94 85 95 81 96
REMARK SMILES IDX 82 97 83 98 84 99 63 100 64 101 72 102 65 103 71 104 73 105
REMARK SMILES IDX 70 106 66 107 67 108 68 109 69 110
REMARK H PARENT 27 7 7 22 34 44 93 63 61 74
REMARK Flexibility Score: inf
ROOT
ATOM      1  C   UNL A   1      39.191  23.340  27.347  1.00  0.00     0.002 C 
ENDROOT
BRANCH   1   2
ATOM      2  C   UNL A   1      38.481  24.258  26.344  1.00  0.00     0.021 C 
BRANCH   2   3
ATOM      3  C   UNL A   1      37.118  23.738  25.908  1.00  0.00     0.116 C 
BRANCH   3   4
ATOM      4  N   UNL A   1      37.123  23.321  24.516  1.00  0.00    -0.354 N 
ATOM      5  C   UNL A   1      36.150  23.419  23.560  1.00  0.00     0.243 C 
ATOM      6  O   UNL A   1      36.425  23.019  22.424  1.00  0.00    -0.273 OA
ATOM      7  H   UNL A   1      37.960  22.902  24.213  1.00  0.00     0.163 HD
BRANCH   5   8
ATOM      8  C   UNL A   1      34.723  23.896  23.908  1.00  0.00     0.179 C 
BRANCH   8   9
ATOM      9  C   UNL A   1      34.808  25.073  24.915  1.00  0.00     0.073 C 
BRANCH   9  10
ATOM     10  C   UNL A   1      33.578  25.929  25.061  1.00  0.00    -0.020 A 
ATOM     11  C   UNL A   1      30.011  26.531  24.799  1.00  0.00     0.149 C 
ATOM     12  N   UNL A   1      31.444  26.587  24.978  1.00  0.00    -0.350 N 
ATOM     13  C   UNL A   1      32.326  25.629  24.554  1.00  0.00     0.090 A 
ATOM     14  C   UNL A   1      32.106  27.571  25.679  1.00  0.00     0.048 A 
ATOM     15  C   UNL A   1      33.429  27.140  25.823  1.00  0.00     0.003 A 
ATOM     16  C   UNL A   1      31.645  28.777  26.232  1.00  0.00     0.027 A 
ATOM     17  C   UNL A   1      34.292  27.915  26.627  1.00  0.00     0.010 A 
ATOM     18  C   UNL A   1      32.547  29.560  26.956  1.00  0.00     0.002 A 
ATOM     19  C   UNL A   1      33.852  29.130  27.162  1.00  0.00     0.001 A 
ENDBRANCH   9  10
ENDBRANCH   8   9
BRANCH   8  20
ATOM     20  N   UNL A   1      33.801  24.136  22.795  1.00  0.00    -0.309 N 
ATOM     21  C   UNL A   1      33.329  23.295  21.843  1.00  0.00     0.407 C 
ATOM     22  H   UNL A   1      33.470  25.061  22.726  1.00  0.00     0.167 HD
ATOM     23  O   UNL A   1      33.199  23.682  20.685  1.00  0.00    -0.225 OA
BRANCH  21  24
ATOM     24  O   UNL A   1      32.973  22.067  22.293  1.00  0.00    -0.449 OA
BRANCH  24  25
ATOM     25  C   UNL A   1      31.733  22.018  23.038  1.00  0.00     0.248 C 
BRANCH  25  26
ATOM     26  C   UNL A   1      31.761  21.029  24.223  1.00  0.00     0.088 C 
ATOM     27  C   UNL A   1      32.594  19.783  23.935  1.00  0.00    -0.029 A 
ATOM     28  C   UNL A   1      32.443  21.567  25.474  1.00  0.00    -0.029 A 
ATOM     29  C   UNL A   1      32.356  18.788  22.997  1.00  0.00     0.005 A 
ATOM     30  C   UNL A   1      33.674  19.700  24.838  1.00  0.00    -0.014 A 
ATOM     31  C   UNL A   1      33.608  20.821  25.752  1.00  0.00    -0.014 A 
ATOM     32  C   UNL A   1      32.079  22.651  26.259  1.00  0.00     0.005 A 
ATOM     33  C   UNL A   1      33.229  17.699  22.961  1.00  0.00     0.000 A 
ATOM     34  C   UNL A   1      34.545  18.625  24.793  1.00  0.00     0.009 A 
ATOM     35  C   UNL A   1      34.463  21.210  26.769  1.00  0.00     0.009 A 
ATOM     36  C   UNL A   1      32.947  23.051  27.274  1.00  0.00     0.000 A 
ATOM     37  C   UNL A   1      34.316  17.620  23.847  1.00  0.00     0.001 A 
ATOM     38  C   UNL A   1      34.135  22.345  27.519  1.00  0.00     0.001 A 
ENDBRANCH  25  26
ENDBRANCH  24  25
ENDBRANCH  21  24
ENDBRANCH   8  20
ENDBRANCH   5   8
ENDBRANCH   3   4
ENDBRANCH   2   3
ENDBRANCH   1   2
BRANCH   1  39
ATOM     39  C   UNL A   1      40.447  22.637  26.813  1.00  0.00     0.002 C 
BRANCH  39  40
ATOM     40  C   UNL A   1      40.252  21.183  26.374  1.00  0.00     0.021 C 
BRANCH  40  41
ATOM     41  C   UNL A   1      41.179  20.173  27.046  1.00  0.00     0.116 C 
BRANCH  41  42
ATOM     42  N   UNL A   1      42.077  19.530  26.101  1.00  0.00    -0.352 N 
ATOM     43  C   UNL A   1      43.135  20.064  25.407  1.00  0.00     0.251 C 
ATOM     44  H   UNL A   1      41.901  18.575  25.933  1.00  0.00     0.163 HD
ATOM     45  O   UNL A   1      43.690  19.407  24.533  1.00  0.00    -0.269 OA
BRANCH  43  46
ATOM     46  C   UNL A   1      43.573  21.444  25.702  1.00  0.00     0.039 A 
ATOM     47  C   UNL A   1      43.438  22.421  24.711  1.00  0.00     0.014 A 
ATOM     48  C   UNL A   1      44.092  21.775  26.957  1.00  0.00     0.014 A 
ATOM     49  C   UNL A   1      43.747  23.750  25.006  1.00  0.00     0.010 A 
ATOM     50  C   UNL A   1      44.353  23.108  27.264  1.00  0.00     0.010 A 
ATOM     51  C   UNL A   1      44.166  24.108  26.297  1.00  0.00    -0.014 A 
BRANCH  51  52
ATOM     52  C   UNL A   1      44.372  25.530  26.673  1.00  0.00     0.031 A 
ATOM     53  C   UNL A   1      45.748  26.131  26.634  1.00  0.00     0.074 A 
ATOM     54  C   UNL A   1      43.328  26.246  27.132  1.00  0.00     0.049 A 
ATOM     55  N   UNL A   1      46.144  27.313  27.029  1.00  0.00    -0.248 NA
ATOM     56  C   UNL A   1      46.821  25.278  26.105  1.00  0.00     0.031 C 
ATOM     57  C   UNL A   1      41.953  25.754  27.249  1.00  0.00     0.029 A 
ATOM     58  N   UNL A   1      43.261  27.531  27.608  1.00  0.00    -0.354 N 
ATOM     59  C   UNL A   1      47.516  27.347  26.806  1.00  0.00     0.074 A 
ATOM     60  C   UNL A   1      47.886  26.047  26.285  1.00  0.00     0.031 C 
ATOM     61  C   UNL A   1      41.180  26.726  27.759  1.00  0.00     0.029 A 
ATOM     62  C   UNL A   1      42.008  27.892  28.045  1.00  0.00     0.049 A 
ATOM     63  H   UNL A   1      44.037  28.137  27.633  1.00  0.00     0.167 HD
ATOM     64  C   UNL A   1      48.380  28.373  27.005  1.00  0.00     0.034 A 
ATOM     65  C   UNL A   1      41.581  29.026  28.635  1.00  0.00     0.034 A 
ATOM     66  C   UNL A   1      47.991  29.663  27.518  1.00  0.00     0.049 A 
ATOM     67  C   UNL A   1      42.567  30.134  28.884  1.00  0.00     0.074 A 
ATOM     68  C   UNL A   1      48.767  30.798  27.681  1.00  0.00     0.029 A 
ATOM     69  N   UNL A   1      46.717  29.990  27.967  1.00  0.00    -0.354 N 
ATOM     70  N   UNL A   1      43.852  30.171  28.617  1.00  0.00    -0.248 NA
ATOM     71  C   UNL A   1      42.045  31.355  29.514  1.00  0.00     0.031 C 
ATOM     72  C   UNL A   1      47.981  31.787  28.285  1.00  0.00     0.029 A 
ATOM     73  C   UNL A   1      46.697  31.292  28.444  1.00  0.00     0.049 A 
ATOM     74  H   UNL A   1      45.942  29.384  27.949  1.00  0.00     0.167 HD
ATOM     75  C   UNL A   1      44.289  31.423  29.036  1.00  0.00     0.074 A 
ATOM     76  C   UNL A   1      43.128  32.118  29.555  1.00  0.00     0.031 C 
ATOM     77  C   UNL A   1      45.537  31.955  28.990  1.00  0.00     0.034 A 
BRANCH  64  78
ATOM     78  C   UNL A   1      49.834  28.123  26.689  1.00  0.00     0.023 A 
ATOM     79  C   UNL A   1      50.340  28.265  25.386  1.00  0.00     0.031 A 
ATOM     80  C   UNL A   1      50.720  27.712  27.700  1.00  0.00     0.131 A 
ATOM     81  C   UNL A   1      51.675  27.930  25.113  1.00  0.00     0.055 A 
ATOM     82  C   UNL A   1      52.066  27.449  27.436  1.00  0.00     0.041 A 
ATOM     83  F   UNL A   1      50.289  27.542  28.960  1.00  0.00    -0.206 F 
ATOM     84  C   UNL A   1      52.547  27.544  26.133  1.00  0.00     0.022 A 
BRANCH  81  85
ATOM     85  S   UNL A   1      52.220  27.879  23.384  1.00  0.00     0.124 S 
ATOM     86  O   UNL A   1      53.148  29.005  23.334  1.00  0.00    -0.237 OA
ATOM     87  O   UNL A   1      52.818  26.552  23.281  1.00  0.00    -0.237 OA
ATOM     88  O   UNL A   1      50.983  28.066  22.629  1.00  0.00    -0.744 OA
ENDBRANCH  81  85
ENDBRANCH  64  78
BRANCH  65  89
ATOM     89  C   UNL A   1      40.161  29.160  29.064  1.00  0.00     0.023 A 
ATOM     90  C   UNL A   1      39.803  29.052  30.417  1.00  0.00     0.031 A 
ATOM     91  C   UNL A   1      39.139  29.365  28.121  1.00  0.00     0.131 A 
ATOM     92  C   UNL A   1      38.450  29.115  30.786  1.00  0.00     0.055 A 
ATOM     93  C   UNL A   1      37.800  29.470  28.499  1.00  0.00     0.041 A 
ATOM     94  F   UNL A   1      39.433  29.482  26.816  1.00  0.00    -0.206 F 
ATOM     95  C   UNL A   1      37.448  29.334  29.838  1.00  0.00     0.022 A 
BRANCH  92  96
ATOM     96  S   UNL A   1      38.013  28.844  32.525  1.00  0.00     0.124 S 
ATOM     97  O   UNL A   1      36.636  29.325  32.566  1.00  0.00    -0.237 OA
ATOM     98  O   UNL A   1      38.193  27.401  32.659  1.00  0.00    -0.237 OA
ATOM     99  O   UNL A   1      38.982  29.660  33.251  1.00  0.00    -0.744 OA
ENDBRANCH  92  96
ENDBRANCH  65  89
BRANCH  77 100
ATOM    100  C   UNL A   1      45.691  33.362  29.505  1.00  0.00     0.023 A 
ATOM    101  C   UNL A   1      45.571  34.471  28.650  1.00  0.00     0.031 A 
ATOM    102  C   UNL A   1      45.981  33.594  30.860  1.00  0.00     0.131 A 
ATOM    103  C   UNL A   1      45.788  35.764  29.151  1.00  0.00     0.055 A 
ATOM    104  C   UNL A   1      46.147  34.886  31.363  1.00  0.00     0.041 A 
ATOM    105  F   UNL A   1      46.109  32.569  31.717  1.00  0.00    -0.206 F 
ATOM    106  C   UNL A   1      46.061  35.978  30.505  1.00  0.00     0.022 A 
BRANCH 103 107
ATOM    107  S   UNL A   1      45.778  37.161  27.994  1.00  0.00     0.124 S 
ATOM    108  O   UNL A   1      47.105  37.066  27.393  1.00  0.00    -0.237 OA
ATOM    109  O   UNL A   1      44.657  36.834  27.118  1.00  0.00    -0.237 OA
ATOM    110  O   UNL A   1      45.570  38.321  28.858  1.00  0.00    -0.744 OA
ENDBRANCH 103 107
ENDBRANCH  77 100
ENDBRANCH  51  52
ENDBRANCH  43  46
ENDBRANCH  41  42
ENDBRANCH  40  41
ENDBRANCH  39  40
ENDBRANCH   1  39
TORSDOF 22
ENDMDL
MODEL 2
REMARK VINA RESULT:     -11.5      1.598      7.170
REMARK SMILES Cn1cc(C[C@@H](NC(=O)OCC2c3ccccc3-c3ccccc32)C(=O)NCCCCCCNC(=O)c2ccc(-c3c4nc(c(-c5cc(S(=O)(=O)[O-])ccc5F)c5ccc([nH]5)c(-c5cc(S(=O)(=O)[O-])ccc5F)c5nc(c(-c6cc(S(=O)(=O)[O-])ccc6F)c6ccc3[nH]6)C=C5)C=C4)cc2)c2ccccc21
REMARK SMILES IDX 30 1 29 2 28 3 27 4 25 5 26 6 6 8 5 9 4 10 1 11 2 12 3 13
REMARK SMILES IDX 105 14 100 15 104 16 101 17 103 18 102 19 7 20 8 21 9 23
REMARK SMILES IDX 10 24 11 25 12 26 13 27 24 28 14 29 18 30 19 31 23 32 15 33
REMARK SMILES IDX 17 34 20 35 22 36 16 37 21 38 31 39 32 40 33 41 34 42 35 43
REMARK SMILES IDX 36 45 37 46 38 47 99 48 39 49 98 50 40 51 41 52 42 53 92 54
REMARK SMILES IDX 43 55 97 56 91 57 93 58 44 59 96 60 90 61 89 62 45 64 77 65
REMARK SMILES IDX 57 66 76 67 58 68 61 69 75 70 94 71 59 72 60 73 74 75 95 76
REMARK SMILES IDX 62 77 46 78 47 79 55 80 48 81 54 82 56 83 53 84 49 85 50 86
REMARK SMILES IDX 51 87 52 88 78 89 79 90 87 91 80 92 86 93 88 94 85 95 81 96
REMARK SMILES IDX 82 97 83 98 84 99 63 100 64 101 72 102 65 103 71 104 73 105
REMARK SMILES IDX 70 106 66 107 67 108 68 109 69 110
REMARK H PARENT 27 7 7 22 34 44 93 63 61 74
REMARK Flexibility Score: inf
ROOT
ATOM      1  C   UNL A   1      37.671  23.798  26.017  1.00  0.00     0.002 C 
ENDROOT
BRANCH   1   2
ATOM      2  C   UNL A   1      36.878  23.126  24.889  1.00  0.00     0.021 C 
BRANCH   2   3
ATOM      3  C   UNL A   1      35.390  23.449  24.919  1.00  0.00     0.116 C 
BRANCH   3   4
ATOM      4  N   UNL A   1      35.151  24.881  24.866  1.00  0.00    -0.354 N 
ATOM      5  C   UNL A   1      33.989  25.577  24.676  1.00  0.00     0.243 C 
ATOM      6  O   UNL A   1      34.050  26.811  24.714  1.00  0.00    -0.273 OA
ATOM      7  H   UNL A   1      35.952  25.440  24.986  1.00  0.00     0.163 HD
BRANCH   5   8
ATOM      8  C   UNL A   1      32.671  24.861  24.307  1.00  0.00     0.179 C 
BRANCH   8   9
ATOM      9  C   UNL A   1      31.484  25.594  24.983  1.00  0.00     0.073 C 
BRANCH   9  10
ATOM     10  C   UNL A   1      31.265  27.032  24.591  1.00  0.00    -0.020 A 
ATOM     11  C   UNL A   1      29.963  29.626  22.418  1.00  0.00     0.149 C 
ATOM     12  N   UNL A   1      30.614  28.826  23.431  1.00  0.00    -0.350 N 
ATOM     13  C   UNL A   1      30.771  27.467  23.375  1.00  0.00     0.090 A 
ATOM     14  C   UNL A   1      31.086  29.314  24.629  1.00  0.00     0.048 A 
ATOM     15  C   UNL A   1      31.417  28.204  25.412  1.00  0.00     0.003 A 
ATOM     16  C   UNL A   1      31.207  30.631  25.103  1.00  0.00     0.027 A 
ATOM     17  C   UNL A   1      31.804  28.432  26.750  1.00  0.00     0.010 A 
ATOM     18  C   UNL A   1      31.669  30.823  26.407  1.00  0.00     0.002 A 
ATOM     19  C   UNL A   1      31.953  29.738  27.226  1.00  0.00     0.001 A 
ENDBRANCH   9  10
ENDBRANCH   8   9
BRANCH   8  20
ATOM     20  N   UNL A   1      32.446  24.548  22.893  1.00  0.00    -0.309 N 
ATOM     21  C   UNL A   1      33.004  23.603  22.098  1.00  0.00     0.407 C 
ATOM     22  H   UNL A   1      31.780  25.120  22.446  1.00  0.00     0.167 HD
ATOM     23  O   UNL A   1      33.289  23.865  20.932  1.00  0.00    -0.225 OA
BRANCH  21  24
ATOM     24  O   UNL A   1      33.147  22.385  22.676  1.00  0.00    -0.449 OA
BRANCH  24  25
ATOM     25  C   UNL A   1      32.051  21.465  22.456  1.00  0.00     0.248 C 
BRANCH  25  26
ATOM     26  C   UNL A   1      31.826  20.479  23.622  1.00  0.00     0.088 C 
ATOM     27  C   UNL A   1      32.705  19.236  23.524  1.00  0.00    -0.029 A 
ATOM     28  C   UNL A   1      32.222  21.022  24.989  1.00  0.00    -0.029 A 
ATOM     29  C   UNL A   1      32.677  18.238  22.560  1.00  0.00     0.005 A 
ATOM     30  C   UNL A   1      33.567  19.159  24.637  1.00  0.00    -0.014 A 
ATOM     31  C   UNL A   1      33.303  20.282  25.513  1.00  0.00    -0.014 A 
ATOM     32  C   UNL A   1      31.696  22.107  25.674  1.00  0.00     0.005 A 
ATOM     33  C   UNL A   1      33.541  17.152  22.715  1.00  0.00     0.000 A 
ATOM     34  C   UNL A   1      34.430  18.086  24.784  1.00  0.00     0.009 A 
ATOM     35  C   UNL A   1      33.919  20.676  26.688  1.00  0.00     0.009 A 
ATOM     36  C   UNL A   1      32.324  22.512  26.851  1.00  0.00     0.000 A 
ATOM     37  C   UNL A   1      34.412  17.078  23.814  1.00  0.00     0.001 A 
ATOM     38  C   UNL A   1      33.434  21.811  27.347  1.00  0.00     0.001 A 
ENDBRANCH  25  26
ENDBRANCH  24  25
ENDBRANCH  21  24
ENDBRANCH   8  20
ENDBRANCH   5   8
ENDBRANCH   3   4
ENDBRANCH   2   3
ENDBRANCH   1   2
BRANCH   1  39
ATOM     39  C   UNL A   1      39.059  23.200  26.285  1.00  0.00     0.002 C 
BRANCH  39  40
ATOM     40  C   UNL A   1      39.294  21.797  25.717  1.00  0.00     0.021 C 
BRANCH  40  41
ATOM     41  C   UNL A   1      39.609  20.722  26.753  1.00  0.00     0.116 C 
BRANCH  41  42
ATOM     42  N   UNL A   1      40.577  19.751  26.270  1.00  0.00    -0.352 N 
ATOM     43  C   UNL A   1      41.911  19.920  25.992  1.00  0.00     0.251 C 
ATOM     44  H   UNL A   1      40.225  18.844  26.119  1.00  0.00     0.163 HD
ATOM     45  O   UNL A   1      42.542  19.022  25.444  1.00  0.00    -0.269 OA
BRANCH  43  46
ATOM     46  C   UNL A   1      42.566  21.201  26.328  1.00  0.00     0.039 A 
ATOM     47  C   UNL A   1      42.782  22.135  25.310  1.00  0.00     0.014 A 
ATOM     48  C   UNL A   1      42.942  21.487  27.644  1.00  0.00     0.014 A 
ATOM     49  C   UNL A   1      43.302  23.392  25.627  1.00  0.00     0.010 A 
ATOM     50  C   UNL A   1      43.414  22.757  27.965  1.00  0.00     0.010 A 
ATOM     51  C   UNL A   1      43.581  23.725  26.963  1.00  0.00    -0.014 A 
BRANCH  51  52
ATOM     52  C   UNL A   1      44.007  25.096  27.340  1.00  0.00     0.031 A 
ATOM     53  C   UNL A   1      43.007  26.079  27.877  1.00  0.00     0.074 A 
ATOM     54  C   UNL A   1      45.280  25.475  27.112  1.00  0.00     0.049 A 
ATOM     55  N   UNL A   1      43.162  27.347  28.156  1.00  0.00    -0.248 NA
ATOM     56  C   UNL A   1      41.647  25.570  28.107  1.00  0.00     0.031 C 
ATOM     57  C   UNL A   1      46.330  24.617  26.558  1.00  0.00     0.029 A 
ATOM     58  N   UNL A   1      45.903  26.684  27.294  1.00  0.00    -0.354 N 
ATOM     59  C   UNL A   1      41.918  27.796  28.585  1.00  0.00     0.074 A 
ATOM     60  C   UNL A   1      41.011  26.670  28.484  1.00  0.00     0.031 C 
ATOM     61  C   UNL A   1      47.465  25.325  26.450  1.00  0.00     0.029 A 
ATOM     62  C   UNL A   1      47.215  26.695  26.884  1.00  0.00     0.049 A 
ATOM     63  H   UNL A   1      45.452  27.469  27.682  1.00  0.00     0.167 HD
ATOM     64  C   UNL A   1      41.571  29.027  29.035  1.00  0.00     0.034 A 
ATOM     65  C   UNL A   1      48.109  27.702  26.837  1.00  0.00     0.034 A 
ATOM     66  C   UNL A   1      42.491  30.134  29.135  1.00  0.00     0.049 A 
ATOM     67  C   UNL A   1      47.689  29.071  27.302  1.00  0.00     0.074 A 
ATOM     68  C   UNL A   1      42.268  31.398  29.652  1.00  0.00     0.029 A 
ATOM     69  N   UNL A   1      43.809  30.115  28.695  1.00  0.00    -0.354 N 
ATOM     70  N   UNL A   1      46.522  29.466  27.757  1.00  0.00    -0.248 NA
ATOM     71  C   UNL A   1      48.707  30.129  27.248  1.00  0.00     0.031 C 
ATOM     72  C   UNL A   1      43.428  32.161  29.469  1.00  0.00     0.029 A 
ATOM     73  C   UNL A   1      44.397  31.356  28.892  1.00  0.00     0.049 A 
ATOM     74  H   UNL A   1      44.260  29.334  28.301  1.00  0.00     0.167 HD
ATOM     75  C   UNL A   1      46.671  30.817  28.054  1.00  0.00     0.074 A 
ATOM     76  C   UNL A   1      48.043  31.163  27.745  1.00  0.00     0.031 C 
ATOM     77  C   UNL A   1      45.757  31.692  28.545  1.00  0.00     0.034 A 
BRANCH  64  78
ATOM     78  C   UNL A   1      40.130  29.241  29.424  1.00  0.00     0.023 A 
ATOM     79  C   UNL A   1      39.744  29.391  30.767  1.00  0.00     0.031 A 
ATOM     80  C   UNL A   1      39.125  29.268  28.442  1.00  0.00     0.131 A 
ATOM     81  C   UNL A   1      38.384  29.491  31.097  1.00  0.00     0.055 A 
ATOM     82  C   UNL A   1      37.779  29.440  28.770  1.00  0.00     0.041 A 
ATOM     83  F   UNL A   1      39.433  29.111  27.144  1.00  0.00    -0.206 F 
ATOM     84  C   UNL A   1      37.400  29.538  30.106  1.00  0.00     0.022 A 
BRANCH  81  85
ATOM     85  S   UNL A   1      37.910  29.426  32.846  1.00  0.00     0.124 S 
ATOM     86  O   UNL A   1      37.443  28.049  32.975  1.00  0.00    -0.237 OA
ATOM     87  O   UNL A   1      39.163  29.741  33.524  1.00  0.00    -0.237 OA
ATOM     88  O   UNL A   1      36.867  30.444  32.957  1.00  0.00    -0.744 OA
ENDBRANCH  81  85
ENDBRANCH  64  78
BRANCH  65  89
ATOM     89  C   UNL A   1      49.477  27.468  26.301  1.00  0.00     0.023 A 
ATOM     90  C   UNL A   1      50.582  27.365  27.161  1.00  0.00     0.031 A 
ATOM     91  C   UNL A   1      49.704  27.376  24.916  1.00  0.00     0.131 A 
ATOM     92  C   UNL A   1      51.870  27.210  26.625  1.00  0.00     0.055 A 
ATOM     93  C   UNL A   1      50.982  27.181  24.391  1.00  0.00     0.041 A 
ATOM     94  F   UNL A   1      48.678  27.462  24.054  1.00  0.00    -0.206 F 
ATOM     95  C   UNL A   1      52.076  27.108  25.247  1.00  0.00     0.022 A 
BRANCH  92  96
ATOM     96  S   UNL A   1      53.286  27.210  27.758  1.00  0.00     0.124 S 
ATOM     97  O   UNL A   1      52.838  26.287  28.796  1.00  0.00    -0.237 OA
ATOM     98  O   UNL A   1      54.362  26.732  26.895  1.00  0.00    -0.237 OA
ATOM     99  O   UNL A   1      53.393  28.608  28.170  1.00  0.00    -0.744 OA
ENDBRANCH  92  96
ENDBRANCH  65  89
BRANCH  77 100
ATOM    100  C   UNL A   1      46.232  33.101  28.786  1.00  0.00     0.023 A 
ATOM    101  C   UNL A   1      46.276  34.046  27.746  1.00  0.00     0.031 A 
ATOM    102  C   UNL A   1      46.665  33.496  30.063  1.00  0.00     0.131 A 
ATOM    103  C   UNL A   1      46.789  35.329  27.992  1.00  0.00     0.055 A 
ATOM    104  C   UNL A   1      47.127  34.788  30.313  1.00  0.00     0.041 A 
ATOM    105  F   UNL A   1      46.645  32.629  31.088  1.00  0.00    -0.206 F 
ATOM    106  C   UNL A   1      47.201  35.709  29.271  1.00  0.00     0.022 A 
BRANCH 103 107
ATOM    107  S   UNL A   1      46.976  36.474  26.598  1.00  0.00     0.124 S 
ATOM    108  O   UNL A   1      46.069  37.556  26.971  1.00  0.00    -0.237 OA
ATOM    109  O   UNL A   1      48.400  36.792  26.642  1.00  0.00    -0.237 OA
ATOM    110  O   UNL A   1      46.554  35.682  25.444  1.00  0.00    -0.744 OA
ENDBRANCH 103 107
ENDBRANCH  77 100
ENDBRANCH  51  52
ENDBRANCH  43  46
ENDBRANCH  41  42
ENDBRANCH  40  41
ENDBRANCH  39  40
ENDBRANCH   1  39
TORSDOF 22
ENDMDL
MODEL 3
REMARK VINA RESULT:     -11.5      6.246      9.368
REMARK SMILES Cn1cc(C[C@@H](NC(=O)OCC2c3ccccc3-c3ccccc32)C(=O)NCCCCCCNC(=O)c2ccc(-c3c4nc(c(-c5cc(S(=O)(=O)[O-])ccc5F)c5ccc([nH]5)c(-c5cc(S(=O)(=O)[O-])ccc5F)c5nc(c(-c6cc(S(=O)(=O)[O-])ccc6F)c6ccc3[nH]6)C=C5)C=C4)cc2)c2ccccc21
REMARK SMILES IDX 30 1 29 2 28 3 27 4 25 5 26 6 6 8 5 9 4 10 1 11 2 12 3 13
REMARK SMILES IDX 105 14 100 15 104 16 101 17 103 18 102 19 7 20 8 21 9 23
REMARK SMILES IDX 10 24 11 25 12 26 13 27 24 28 14 29 18 30 19 31 23 32 15 33
REMARK SMILES IDX 17 34 20 35 22 36 16 37 21 38 31 39 32 40 33 41 34 42 35 43
REMARK SMILES IDX 36 45 37 46 38 47 99 48 39 49 98 50 40 51 41 52 42 53 92 54
REMARK SMILES IDX 43 55 97 56 91 57 93 58 44 59 96 60 90 61 89 62 45 64 77 65
REMARK SMILES IDX 57 66 76 67 58 68 61 69 75 70 94 71 59 72 60 73 74 75 95 76
REMARK SMILES IDX 62 77 46 78 47 79 55 80 48 81 54 82 56 83 53 84 49 85 50 86
REMARK SMILES IDX 51 87 52 88 78 89 79 90 87 91 80 92 86 93 88 94 85 95 81 96
REMARK SMILES IDX 82 97 83 98 84 99 63 100 64 101 72 102 65 103 71 104 73 105
REMARK SMILES IDX 70 106 66 107 67 108 68 109 69 110
REMARK H PARENT 27 7 7 22 34 44 93 63 61 74
REMARK Flexibility Score: inf
ROOT
ATOM      1  C   UNL A   1      44.249  24.040  31.279  1.00  0.00     0.002 C 
ENDROOT
BRANCH   1   2
ATOM      2  C   UNL A   1      43.932  23.106  30.105  1.00  0.00     0.021 C 
BRANCH   2   3
ATOM      3  C   UNL A   1      44.587  23.533  28.798  1.00  0.00     0.116 C 
BRANCH   3   4
ATOM      4  N   UNL A   1      44.390  22.545  27.752  1.00  0.00    -0.354 N 
ATOM      5  C   UNL A   1      44.655  22.610  26.411  1.00  0.00     0.243 C 
ATOM      6  O   UNL A   1      44.430  21.601  25.735  1.00  0.00    -0.273 OA
ATOM      7  H   UNL A   1      44.005  21.691  28.055  1.00  0.00     0.163 HD
BRANCH   5   8
ATOM      8  C   UNL A   1      45.103  23.928  25.742  1.00  0.00     0.179 C 
BRANCH   8   9
ATOM      9  C   UNL A   1      46.419  23.682  24.959  1.00  0.00     0.073 C 
BRANCH   9  10
ATOM     10  C   UNL A   1      47.498  24.724  25.106  1.00  0.00    -0.020 A 
ATOM     11  C   UNL A   1      49.511  27.484  23.890  1.00  0.00     0.149 C 
ATOM     12  N   UNL A   1      48.895  26.396  24.617  1.00  0.00    -0.350 N 
ATOM     13  C   UNL A   1      48.016  25.495  24.081  1.00  0.00     0.090 A 
ATOM     14  C   UNL A   1      49.044  26.175  25.968  1.00  0.00     0.048 A 
ATOM     15  C   UNL A   1      48.114  25.192  26.319  1.00  0.00     0.003 A 
ATOM     16  C   UNL A   1      49.885  26.786  26.914  1.00  0.00     0.027 A 
ATOM     17  C   UNL A   1      47.971  24.877  27.688  1.00  0.00     0.010 A 
ATOM     18  C   UNL A   1      49.772  26.393  28.250  1.00  0.00     0.002 A 
ATOM     19  C   UNL A   1      48.819  25.459  28.635  1.00  0.00     0.001 A 
ENDBRANCH   9  10
ENDBRANCH   8   9
BRANCH   8  20
ATOM     20  N   UNL A   1      44.096  24.678  24.986  1.00  0.00    -0.309 N 
ATOM     21  C   UNL A   1      43.537  25.890  25.222  1.00  0.00     0.407 C 
ATOM     22  H   UNL A   1      43.772  24.227  24.173  1.00  0.00     0.167 HD
ATOM     23  O   UNL A   1      42.341  26.071  25.007  1.00  0.00    -0.225 OA
BRANCH  21  24
ATOM     24  O   UNL A   1      44.404  26.846  25.636  1.00  0.00    -0.449 OA
BRANCH  24  25
ATOM     25  C   UNL A   1      45.035  26.596  26.914  1.00  0.00     0.248 C 
BRANCH  25  26
ATOM     26  C   UNL A   1      44.838  27.736  27.936  1.00  0.00     0.088 C 
ATOM     27  C   UNL A   1      45.088  29.117  27.338  1.00  0.00    -0.029 A 
ATOM     28  C   UNL A   1      43.410  27.882  28.447  1.00  0.00    -0.029 A 
ATOM     29  C   UNL A   1      46.278  29.641  26.852  1.00  0.00     0.005 A 
ATOM     30  C   UNL A   1      43.913  29.895  27.400  1.00  0.00    -0.014 A 
ATOM     31  C   UNL A   1      42.870  29.119  28.037  1.00  0.00    -0.014 A 
ATOM     32  C   UNL A   1      42.653  26.970  29.168  1.00  0.00     0.005 A 
ATOM     33  C   UNL A   1      46.280  30.966  26.410  1.00  0.00     0.000 A 
ATOM     34  C   UNL A   1      43.914  31.205  26.951  1.00  0.00     0.009 A 
ATOM     35  C   UNL A   1      41.539  29.416  28.275  1.00  0.00     0.009 A 
ATOM     36  C   UNL A   1      41.309  27.264  29.396  1.00  0.00     0.000 A 
ATOM     37  C   UNL A   1      45.109  31.740  26.455  1.00  0.00     0.001 A 
ATOM     38  C   UNL A   1      40.753  28.470  28.942  1.00  0.00     0.001 A 
ENDBRANCH  25  26
ENDBRANCH  24  25
ENDBRANCH  21  24
ENDBRANCH   8  20
ENDBRANCH   5   8
ENDBRANCH   3   4
ENDBRANCH   2   3
ENDBRANCH   1   2
BRANCH   1  39
ATOM     39  C   UNL A   1      43.902  23.484  32.667  1.00  0.00     0.002 C 
BRANCH  39  40
ATOM     40  C   UNL A   1      45.049  22.783  33.402  1.00  0.00     0.021 C 
BRANCH  40  41
ATOM     41  C   UNL A   1      45.721  23.610  34.494  1.00  0.00     0.116 C 
BRANCH  41  42
ATOM     42  N   UNL A   1      47.159  23.713  34.308  1.00  0.00    -0.352 N 
ATOM     43  C   UNL A   1      47.877  24.639  33.592  1.00  0.00     0.251 C 
ATOM     44  H   UNL A   1      47.694  23.019  34.757  1.00  0.00     0.163 HD
ATOM     45  O   UNL A   1      49.081  24.482  33.419  1.00  0.00    -0.269 OA
BRANCH  43  46
ATOM     46  C   UNL A   1      47.181  25.805  33.009  1.00  0.00     0.039 A 
ATOM     47  C   UNL A   1      46.863  26.884  33.839  1.00  0.00     0.014 A 
ATOM     48  C   UNL A   1      46.868  25.841  31.647  1.00  0.00     0.014 A 
ATOM     49  C   UNL A   1      46.303  28.037  33.285  1.00  0.00     0.010 A 
ATOM     50  C   UNL A   1      46.354  27.009  31.090  1.00  0.00     0.010 A 
ATOM     51  C   UNL A   1      46.084  28.122  31.900  1.00  0.00    -0.014 A 
BRANCH  51  52
ATOM     52  C   UNL A   1      45.615  29.383  31.272  1.00  0.00     0.031 A 
ATOM     53  C   UNL A   1      46.585  30.280  30.559  1.00  0.00     0.074 A 
ATOM     54  C   UNL A   1      44.329  29.754  31.426  1.00  0.00     0.049 A 
ATOM     55  N   UNL A   1      46.390  31.467  30.047  1.00  0.00    -0.248 NA
ATOM     56  C   UNL A   1      47.962  29.783  30.428  1.00  0.00     0.031 C 
ATOM     57  C   UNL A   1      43.305  28.981  32.132  1.00  0.00     0.029 A 
ATOM     58  N   UNL A   1      43.667  30.886  31.020  1.00  0.00    -0.354 N 
ATOM     59  C   UNL A   1      47.620  31.868  29.540  1.00  0.00     0.074 A 
ATOM     60  C   UNL A   1      48.564  30.814  29.850  1.00  0.00     0.031 C 
ATOM     61  C   UNL A   1      42.146  29.658  32.106  1.00  0.00     0.029 A 
ATOM     62  C   UNL A   1      42.353  30.930  31.422  1.00  0.00     0.049 A 
ATOM     63  H   UNL A   1      44.094  31.599  30.491  1.00  0.00     0.167 HD
ATOM     64  C   UNL A   1      47.929  33.004  28.866  1.00  0.00     0.034 A 
ATOM     65  C   UNL A   1      41.426  31.897  31.278  1.00  0.00     0.034 A 
ATOM     66  C   UNL A   1      46.973  34.041  28.560  1.00  0.00     0.049 A 
ATOM     67  C   UNL A   1      41.803  33.167  30.564  1.00  0.00     0.074 A 
ATOM     68  C   UNL A   1      47.157  35.192  27.814  1.00  0.00     0.029 A 
ATOM     69  N   UNL A   1      45.654  34.061  28.997  1.00  0.00    -0.354 N 
ATOM     70  N   UNL A   1      42.958  33.509  30.043  1.00  0.00    -0.248 NA
ATOM     71  C   UNL A   1      40.750  34.182  30.419  1.00  0.00     0.031 C 
ATOM     72  C   UNL A   1      45.971  35.937  27.852  1.00  0.00     0.029 A 
ATOM     73  C   UNL A   1      45.027  35.222  28.571  1.00  0.00     0.049 A 
ATOM     74  H   UNL A   1      45.227  33.354  29.531  1.00  0.00     0.167 HD
ATOM     75  C   UNL A   1      42.767  34.774  29.496  1.00  0.00     0.074 A 
ATOM     76  C   UNL A   1      41.382  35.126  29.736  1.00  0.00     0.031 C 
ATOM     77  C   UNL A   1      43.654  35.572  28.849  1.00  0.00     0.034 A 
BRANCH  64  78
ATOM     78  C   UNL A   1      49.364  33.190  28.443  1.00  0.00     0.023 A 
ATOM     79  C   UNL A   1      49.844  32.681  27.224  1.00  0.00     0.031 A 
ATOM     80  C   UNL A   1      50.272  33.861  29.281  1.00  0.00     0.131 A 
ATOM     81  C   UNL A   1      51.207  32.788  26.909  1.00  0.00     0.055 A 
ATOM     82  C   UNL A   1      51.613  34.028  28.930  1.00  0.00     0.041 A 
ATOM     83  F   UNL A   1      49.873  34.351  30.466  1.00  0.00    -0.206 F 
ATOM     84  C   UNL A   1      52.091  33.477  27.744  1.00  0.00     0.022 A 
BRANCH  81  85
ATOM     85  S   UNL A   1      51.834  31.901  25.458  1.00  0.00     0.124 S 
ATOM     86  O   UNL A   1      51.379  32.758  24.367  1.00  0.00    -0.237 OA
ATOM     87  O   UNL A   1      53.273  31.882  25.697  1.00  0.00    -0.237 OA
ATOM     88  O   UNL A   1      51.172  30.600  25.538  1.00  0.00    -0.744 OA
ENDBRANCH  81  85
ENDBRANCH  64  78
BRANCH  65  89
ATOM     89  C   UNL A   1      40.063  31.722  31.850  1.00  0.00     0.023 A 
ATOM     90  C   UNL A   1      39.833  31.872  33.227  1.00  0.00     0.031 A 
ATOM     91  C   UNL A   1      38.977  31.369  31.031  1.00  0.00     0.131 A 
ATOM     92  C   UNL A   1      38.552  31.636  33.748  1.00  0.00     0.055 A 
ATOM     93  C   UNL A   1      37.696  31.176  31.549  1.00  0.00     0.041 A 
ATOM     94  F   UNL A   1      39.146  31.221  29.707  1.00  0.00    -0.206 F 
ATOM     95  C   UNL A   1      37.480  31.299  32.918  1.00  0.00     0.022 A 
BRANCH  92  96
ATOM     96  S   UNL A   1      38.320  31.714  35.546  1.00  0.00     0.124 S 
ATOM     97  O   UNL A   1      38.255  30.300  35.900  1.00  0.00    -0.237 OA
ATOM     98  O   UNL A   1      39.519  32.429  35.974  1.00  0.00    -0.237 OA
ATOM     99  O   UNL A   1      37.069  32.453  35.696  1.00  0.00    -0.744 OA
ENDBRANCH  92  96
ENDBRANCH  65  89
BRANCH  77 100
ATOM    100  C   UNL A   1      43.134  36.893  28.348  1.00  0.00     0.023 A 
ATOM    101  C   UNL A   1      43.218  38.057  29.131  1.00  0.00     0.031 A 
ATOM    102  C   UNL A   1      42.529  36.984  27.083  1.00  0.00     0.131 A 
ATOM    103  C   UNL A   1      42.662  39.256  28.660  1.00  0.00     0.055 A 
ATOM    104  C   UNL A   1      42.021  38.190  26.599  1.00  0.00     0.041 A 
ATOM    105  F   UNL A   1      42.421  35.900  26.298  1.00  0.00    -0.206 F 
ATOM    106  C   UNL A   1      42.077  39.332  27.393  1.00  0.00     0.022 A 
BRANCH 103 107
ATOM    107  S   UNL A   1      42.650  40.702  29.755  1.00  0.00     0.124 S 
ATOM    108  O   UNL A   1      43.112  40.130  31.017  1.00  0.00    -0.237 OA
ATOM    109  O   UNL A   1      43.579  41.608  29.088  1.00  0.00    -0.237 OA
ATOM    110  O   UNL A   1      41.253  41.130  29.743  1.00  0.00    -0.744 OA
ENDBRANCH 103 107
ENDBRANCH  77 100
ENDBRANCH  51  52
ENDBRANCH  43  46
ENDBRANCH  41  42
ENDBRANCH  40  41
ENDBRANCH  39  40
ENDBRANCH   1  39
TORSDOF 22
ENDMDL
