MODEL 1
REMARK VINA RESULT:     -10.9      0.000      0.000
REMARK SMILES C[C@@H](C(=O)NCCCCCCNC(=O)c1ccc(-c2c3nc(c(-c4cc(S(=O)(=O)[O-])ccc4F)c4ccc([nH]4)c(-c4cc(S(=O)(=O)[O-])ccc4F)c4nc(c(-c5cc(S(=O)(=O)[O-])ccc5F)c5ccc2[nH]5)C=C4)C=C3)cc1)c1cccc(C(=O)c2ccccc2)c1
REMARK SMILES IDX 8 1 7 2 6 3 5 4 3 5 4 6 2 8 1 9 78 10 79 11 91 12 80 13
REMARK SMILES IDX 82 14 81 15 83 16 84 17 85 18 86 19 90 20 87 21 89 22 88 23
REMARK SMILES IDX 9 24 10 25 11 26 12 27 13 28 14 30 15 31 16 32 77 33 17 34
REMARK SMILES IDX 76 35 18 36 19 37 20 38 70 39 21 40 75 41 69 42 71 43 22 44
REMARK SMILES IDX 74 45 68 46 67 47 23 49 55 50 35 51 54 52 36 53 39 54 53 55
REMARK SMILES IDX 72 56 37 57 38 58 52 60 73 61 40 62 24 63 25 64 33 65 26 66
REMARK SMILES IDX 32 67 34 68 31 69 27 70 28 71 29 72 30 73 56 74 57 75 65 76
REMARK SMILES IDX 58 77 64 78 66 79 63 80 59 81 60 82 61 83 62 84 41 85 42 86
REMARK SMILES IDX 50 87 43 88 49 89 51 90 48 91 44 92 45 93 46 94 47 95
REMARK H PARENT 5 7 12 29 71 48 39 59
REMARK Flexibility Score: inf
ROOT
ATOM      1  C   UNL A   1      33.828  32.547  28.415  1.00  0.00     0.002 C 
ENDROOT
BRANCH   1   2
ATOM      2  C   UNL A   1      34.755  31.363  28.735  1.00  0.00     0.021 C 
BRANCH   2   3
ATOM      3  C   UNL A   1      34.996  30.420  27.549  1.00  0.00     0.116 C 
BRANCH   3   4
ATOM      4  N   UNL A   1      34.071  29.306  27.622  1.00  0.00    -0.356 N 
ATOM      5  C   UNL A   1      32.814  29.232  27.098  1.00  0.00     0.227 C 
ATOM      6  O   UNL A   1      31.996  28.552  27.721  1.00  0.00    -0.274 OA
ATOM      7  H   UNL A   1      34.388  28.509  28.106  1.00  0.00     0.163 HD
BRANCH   5   8
ATOM      8  C   UNL A   1      32.495  29.967  25.776  1.00  0.00     0.105 C 
ATOM      9  C   UNL A   1      31.443  31.045  26.078  1.00  0.00     0.023 C 
BRANCH   8  10
ATOM     10  C   UNL A   1      32.034  29.042  24.634  1.00  0.00    -0.035 A 
ATOM     11  C   UNL A   1      30.729  29.115  24.122  1.00  0.00     0.004 A 
ATOM     12  C   UNL A   1      32.895  28.086  24.067  1.00  0.00     0.016 A 
ATOM     13  C   UNL A   1      30.265  28.187  23.187  1.00  0.00     0.001 A 
ATOM     14  C   UNL A   1      32.422  27.098  23.194  1.00  0.00     0.023 A 
ATOM     15  C   UNL A   1      31.099  27.160  22.749  1.00  0.00     0.012 A 
BRANCH  14  16
ATOM     16  C   UNL A   1      33.287  25.977  22.723  1.00  0.00     0.193 C 
ATOM     17  O   UNL A   1      33.898  26.078  21.661  1.00  0.00    -0.289 OA
BRANCH  16  18
ATOM     18  C   UNL A   1      33.460  24.738  23.521  1.00  0.00     0.022 A 
ATOM     19  C   UNL A   1      33.098  24.772  24.871  1.00  0.00     0.012 A 
ATOM     20  C   UNL A   1      33.963  23.559  22.960  1.00  0.00     0.012 A 
ATOM     21  C   UNL A   1      33.185  23.612  25.644  1.00  0.00     0.001 A 
ATOM     22  C   UNL A   1      34.041  22.400  23.736  1.00  0.00     0.001 A 
ATOM     23  C   UNL A   1      33.646  22.426  25.073  1.00  0.00     0.000 A 
ENDBRANCH  16  18
ENDBRANCH  14  16
ENDBRANCH   8  10
ENDBRANCH   5   8
ENDBRANCH   3   4
ENDBRANCH   2   3
ENDBRANCH   1   2
BRANCH   1  24
ATOM     24  C   UNL A   1      34.268  33.884  29.016  1.00  0.00     0.002 C 
BRANCH  24  25
ATOM     25  C   UNL A   1      33.235  35.004  28.891  1.00  0.00     0.021 C 
BRANCH  25  26
ATOM     26  C   UNL A   1      33.550  36.239  29.726  1.00  0.00     0.116 C 
BRANCH  26  27
ATOM     27  N   UNL A   1      32.552  36.460  30.760  1.00  0.00    -0.352 N 
ATOM     28  C   UNL A   1      32.482  35.908  32.015  1.00  0.00     0.251 C 
ATOM     29  H   UNL A   1      31.831  37.089  30.529  1.00  0.00     0.163 HD
ATOM     30  O   UNL A   1      31.455  36.018  32.679  1.00  0.00    -0.269 OA
BRANCH  28  31
ATOM     31  C   UNL A   1      33.645  35.163  32.543  1.00  0.00     0.039 A 
ATOM     32  C   UNL A   1      33.463  33.862  33.021  1.00  0.00     0.014 A 
ATOM     33  C   UNL A   1      34.915  35.745  32.549  1.00  0.00     0.014 A 
ATOM     34  C   UNL A   1      34.568  33.127  33.453  1.00  0.00     0.010 A 
ATOM     35  C   UNL A   1      36.022  34.983  32.903  1.00  0.00     0.010 A 
ATOM     36  C   UNL A   1      35.862  33.669  33.368  1.00  0.00    -0.014 A 
BRANCH  36  37
ATOM     37  C   UNL A   1      37.058  32.894  33.788  1.00  0.00     0.031 A 
ATOM     38  C   UNL A   1      37.810  33.298  35.028  1.00  0.00     0.074 A 
ATOM     39  C   UNL A   1      37.507  31.880  33.024  1.00  0.00     0.049 A 
ATOM     40  N   UNL A   1      38.934  32.831  35.506  1.00  0.00    -0.248 NA
ATOM     41  C   UNL A   1      37.236  34.402  35.811  1.00  0.00     0.031 C 
ATOM     42  C   UNL A   1      36.880  31.412  31.786  1.00  0.00     0.029 A 
ATOM     43  N   UNL A   1      38.601  31.063  33.169  1.00  0.00    -0.354 N 
ATOM     44  C   UNL A   1      39.210  33.593  36.637  1.00  0.00     0.074 A 
ATOM     45  C   UNL A   1      38.171  34.596  36.728  1.00  0.00     0.031 C 
ATOM     46  C   UNL A   1      37.587  30.380  31.298  1.00  0.00     0.029 A 
ATOM     47  C   UNL A   1      38.746  30.145  32.154  1.00  0.00     0.049 A 
ATOM     48  H   UNL A   1      39.225  31.129  33.928  1.00  0.00     0.167 HD
ATOM     49  C   UNL A   1      40.221  33.452  37.530  1.00  0.00     0.034 A 
ATOM     50  C   UNL A   1      39.710  29.231  31.929  1.00  0.00     0.034 A 
ATOM     51  C   UNL A   1      41.242  32.439  37.425  1.00  0.00     0.049 A 
ATOM     52  C   UNL A   1      40.849  29.118  32.911  1.00  0.00     0.074 A 
ATOM     53  C   UNL A   1      42.285  32.174  38.296  1.00  0.00     0.029 A 
ATOM     54  N   UNL A   1      41.358  31.528  36.382  1.00  0.00    -0.354 N 
ATOM     55  N   UNL A   1      41.076  29.819  33.999  1.00  0.00    -0.248 NA
ATOM     56  C   UNL A   1      41.856  28.083  32.643  1.00  0.00     0.031 C 
ATOM     57  C   UNL A   1      43.073  31.161  37.740  1.00  0.00     0.029 A 
ATOM     58  C   UNL A   1      42.474  30.726  36.569  1.00  0.00     0.049 A 
ATOM     59  H   UNL A   1      40.737  31.462  35.620  1.00  0.00     0.167 HD
ATOM     60  C   UNL A   1      42.232  29.283  34.562  1.00  0.00     0.074 A 
ATOM     61  C   UNL A   1      42.648  28.197  33.699  1.00  0.00     0.031 C 
ATOM     62  C   UNL A   1      42.884  29.650  35.696  1.00  0.00     0.034 A 
BRANCH  49  63
ATOM     63  C   UNL A   1      40.282  34.441  38.671  1.00  0.00     0.023 A 
ATOM     64  C   UNL A   1      39.663  34.184  39.908  1.00  0.00     0.031 A 
ATOM     65  C   UNL A   1      40.930  35.679  38.510  1.00  0.00     0.131 A 
ATOM     66  C   UNL A   1      39.623  35.181  40.894  1.00  0.00     0.055 A 
ATOM     67  C   UNL A   1      40.970  36.630  39.531  1.00  0.00     0.041 A 
ATOM     68  F   UNL A   1      41.520  35.996  37.346  1.00  0.00    -0.206 F 
ATOM     69  C   UNL A   1      40.297  36.392  40.726  1.00  0.00     0.022 A 
BRANCH  66  70
ATOM     70  S   UNL A   1      38.532  34.939  42.324  1.00  0.00     0.124 S 
ATOM     71  O   UNL A   1      38.857  36.105  43.142  1.00  0.00    -0.237 OA
ATOM     72  O   UNL A   1      37.209  34.936  41.713  1.00  0.00    -0.237 OA
ATOM     73  O   UNL A   1      38.970  33.659  42.876  1.00  0.00    -0.744 OA
ENDBRANCH  66  70
ENDBRANCH  49  63
BRANCH  50  74
ATOM     74  C   UNL A   1      39.654  28.361  30.719  1.00  0.00     0.023 A 
ATOM     75  C   UNL A   1      40.305  28.728  29.530  1.00  0.00     0.031 A 
ATOM     76  C   UNL A   1      38.921  27.160  30.724  1.00  0.00     0.131 A 
ATOM     77  C   UNL A   1      40.175  27.927  28.385  1.00  0.00     0.055 A 
ATOM     78  C   UNL A   1      38.842  26.339  29.598  1.00  0.00     0.041 A 
ATOM     79  F   UNL A   1      38.282  26.759  31.835  1.00  0.00    -0.206 F 
ATOM     80  C   UNL A   1      39.461  26.727  28.415  1.00  0.00     0.022 A 
BRANCH  77  81
ATOM     81  S   UNL A   1      40.887  28.520  26.825  1.00  0.00     0.124 S 
ATOM     82  O   UNL A   1      39.811  29.356  26.308  1.00  0.00    -0.237 OA
ATOM     83  O   UNL A   1      42.082  29.220  27.285  1.00  0.00    -0.237 OA
ATOM     84  O   UNL A   1      41.138  27.289  26.078  1.00  0.00    -0.744 OA
ENDBRANCH  77  81
ENDBRANCH  50  74
BRANCH  62  85
ATOM     85  C   UNL A   1      44.087  28.829  36.098  1.00  0.00     0.023 A 
ATOM     86  C   UNL A   1      43.995  27.772  37.018  1.00  0.00     0.031 A 
ATOM     87  C   UNL A   1      45.348  29.116  35.545  1.00  0.00     0.131 A 
ATOM     88  C   UNL A   1      45.152  27.073  37.396  1.00  0.00     0.055 A 
ATOM     89  C   UNL A   1      46.483  28.375  35.874  1.00  0.00     0.041 A 
ATOM     90  F   UNL A   1      45.497  30.119  34.664  1.00  0.00    -0.206 F 
ATOM     91  C   UNL A   1      46.392  27.354  36.815  1.00  0.00     0.022 A 
BRANCH  88  92
ATOM     92  S   UNL A   1      45.036  25.851  38.732  1.00  0.00     0.124 S 
ATOM     93  O   UNL A   1      46.413  25.794  39.211  1.00  0.00    -0.237 OA
ATOM     94  O   UNL A   1      44.072  26.468  39.638  1.00  0.00    -0.237 OA
ATOM     95  O   UNL A   1      44.564  24.645  38.054  1.00  0.00    -0.744 OA
ENDBRANCH  88  92
ENDBRANCH  62  85
ENDBRANCH  36  37
ENDBRANCH  28  31
ENDBRANCH  26  27
ENDBRANCH  25  26
ENDBRANCH  24  25
ENDBRANCH   1  24
TORSDOF 19
ENDMDL
MODEL 2
REMARK VINA RESULT:     -10.7      4.481      9.840
REMARK SMILES C[C@@H](C(=O)NCCCCCCNC(=O)c1ccc(-c2c3nc(c(-c4cc(S(=O)(=O)[O-])ccc4F)c4ccc([nH]4)c(-c4cc(S(=O)(=O)[O-])ccc4F)c4nc(c(-c5cc(S(=O)(=O)[O-])ccc5F)c5ccc2[nH]5)C=C4)C=C3)cc1)c1cccc(C(=O)c2ccccc2)c1
REMARK SMILES IDX 8 1 7 2 6 3 5 4 3 5 4 6 2 8 1 9 78 10 79 11 91 12 80 13
REMARK SMILES IDX 82 14 81 15 83 16 84 17 85 18 86 19 90 20 87 21 89 22 88 23
REMARK SMILES IDX 9 24 10 25 11 26 12 27 13 28 14 30 15 31 16 32 77 33 17 34
REMARK SMILES IDX 76 35 18 36 19 37 20 38 70 39 21 40 75 41 69 42 71 43 22 44
REMARK SMILES IDX 74 45 68 46 67 47 23 49 55 50 35 51 54 52 36 53 39 54 53 55
REMARK SMILES IDX 72 56 37 57 38 58 52 60 73 61 40 62 24 63 25 64 33 65 26 66
REMARK SMILES IDX 32 67 34 68 31 69 27 70 28 71 29 72 30 73 56 74 57 75 65 76
REMARK SMILES IDX 58 77 64 78 66 79 63 80 59 81 60 82 61 83 62 84 41 85 42 86
REMARK SMILES IDX 50 87 43 88 49 89 51 90 48 91 44 92 45 93 46 94 47 95
REMARK H PARENT 5 7 12 29 71 48 39 59
REMARK Flexibility Score: inf
ROOT
ATOM      1  C   UNL A   1      37.115  33.428  31.630  1.00  0.00     0.002 C 
ENDROOT
BRANCH   1   2
ATOM      2  C   UNL A   1      38.276  34.370  31.988  1.00  0.00     0.021 C 
BRANCH   2   3
ATOM      3  C   UNL A   1      38.669  34.342  33.471  1.00  0.00     0.116 C 
BRANCH   3   4
ATOM      4  N   UNL A   1      37.481  34.483  34.289  1.00  0.00    -0.356 N 
ATOM      5  C   UNL A   1      37.078  33.681  35.317  1.00  0.00     0.227 C 
ATOM      6  O   UNL A   1      35.861  33.560  35.477  1.00  0.00    -0.274 OA
ATOM      7  H   UNL A   1      36.896  35.246  34.078  1.00  0.00     0.163 HD
BRANCH   5   8
ATOM      8  C   UNL A   1      38.137  33.003  36.215  1.00  0.00     0.105 C 
ATOM      9  C   UNL A   1      38.052  31.487  35.980  1.00  0.00     0.023 C 
BRANCH   8  10
ATOM     10  C   UNL A   1      38.010  33.344  37.710  1.00  0.00    -0.035 A 
ATOM     11  C   UNL A   1      38.830  34.315  38.307  1.00  0.00     0.004 A 
ATOM     12  C   UNL A   1      37.078  32.692  38.538  1.00  0.00     0.016 A 
ATOM     13  C   UNL A   1      38.814  34.526  39.688  1.00  0.00     0.001 A 
ATOM     14  C   UNL A   1      37.110  32.831  39.932  1.00  0.00     0.023 A 
ATOM     15  C   UNL A   1      37.981  33.763  40.503  1.00  0.00     0.012 A 
BRANCH  14  16
ATOM     16  C   UNL A   1      36.241  32.015  40.829  1.00  0.00     0.193 C 
ATOM     17  O   UNL A   1      35.034  31.935  40.609  1.00  0.00    -0.289 OA
BRANCH  16  18
ATOM     18  C   UNL A   1      36.799  31.260  41.978  1.00  0.00     0.022 A 
ATOM     19  C   UNL A   1      36.178  31.405  43.222  1.00  0.00     0.012 A 
ATOM     20  C   UNL A   1      37.908  30.418  41.843  1.00  0.00     0.012 A 
ATOM     21  C   UNL A   1      36.630  30.665  44.316  1.00  0.00     0.001 A 
ATOM     22  C   UNL A   1      38.353  29.674  42.940  1.00  0.00     0.001 A 
ATOM     23  C   UNL A   1      37.711  29.794  44.171  1.00  0.00     0.000 A 
ENDBRANCH  16  18
ENDBRANCH  14  16
ENDBRANCH   8  10
ENDBRANCH   5   8
ENDBRANCH   3   4
ENDBRANCH   2   3
ENDBRANCH   1   2
BRANCH   1  24
ATOM     24  C   UNL A   1      35.778  34.129  31.381  1.00  0.00     0.002 C 
BRANCH  24  25
ATOM     25  C   UNL A   1      34.789  33.323  30.538  1.00  0.00     0.021 C 
BRANCH  25  26
ATOM     26  C   UNL A   1      35.013  33.438  29.035  1.00  0.00     0.116 C 
BRANCH  26  27
ATOM     27  N   UNL A   1      34.149  32.535  28.290  1.00  0.00    -0.352 N 
ATOM     28  C   UNL A   1      34.427  31.274  27.824  1.00  0.00     0.251 C 
ATOM     29  H   UNL A   1      33.246  32.873  28.094  1.00  0.00     0.163 HD
ATOM     30  O   UNL A   1      33.674  30.737  27.016  1.00  0.00    -0.269 OA
BRANCH  28  31
ATOM     31  C   UNL A   1      35.650  30.584  28.288  1.00  0.00     0.039 A 
ATOM     32  C   UNL A   1      36.837  30.741  27.568  1.00  0.00     0.014 A 
ATOM     33  C   UNL A   1      35.624  29.798  29.444  1.00  0.00     0.014 A 
ATOM     34  C   UNL A   1      38.012  30.153  28.041  1.00  0.00     0.010 A 
ATOM     35  C   UNL A   1      36.809  29.283  29.955  1.00  0.00     0.010 A 
ATOM     36  C   UNL A   1      38.015  29.445  29.255  1.00  0.00    -0.014 A 
BRANCH  36  37
ATOM     37  C   UNL A   1      39.259  28.840  29.799  1.00  0.00     0.031 A 
ATOM     38  C   UNL A   1      39.915  29.448  31.009  1.00  0.00     0.074 A 
ATOM     39  C   UNL A   1      39.831  27.795  29.170  1.00  0.00     0.049 A 
ATOM     40  N   UNL A   1      41.056  29.146  31.574  1.00  0.00    -0.248 NA
ATOM     41  C   UNL A   1      39.209  30.570  31.643  1.00  0.00     0.031 C 
ATOM     42  C   UNL A   1      39.304  27.137  27.973  1.00  0.00     0.029 A 
ATOM     43  N   UNL A   1      40.989  27.109  29.443  1.00  0.00    -0.354 N 
ATOM     44  C   UNL A   1      41.211  30.050  32.621  1.00  0.00     0.074 A 
ATOM     45  C   UNL A   1      40.081  30.953  32.562  1.00  0.00     0.031 C 
ATOM     46  C   UNL A   1      40.124  26.130  27.628  1.00  0.00     0.029 A 
ATOM     47  C   UNL A   1      41.261  26.104  28.544  1.00  0.00     0.049 A 
ATOM     48  H   UNL A   1      41.570  27.317  30.209  1.00  0.00     0.167 HD
ATOM     49  C   UNL A   1      42.191  30.105  33.556  1.00  0.00     0.034 A 
ATOM     50  C   UNL A   1      42.314  25.267  28.455  1.00  0.00     0.034 A 
ATOM     51  C   UNL A   1      43.304  29.190  33.601  1.00  0.00     0.049 A 
ATOM     52  C   UNL A   1      43.415  25.372  29.481  1.00  0.00     0.074 A 
ATOM     53  C   UNL A   1      44.329  29.123  34.530  1.00  0.00     0.029 A 
ATOM     54  N   UNL A   1      43.548  28.186  32.671  1.00  0.00    -0.354 N 
ATOM     55  N   UNL A   1      43.529  26.207  30.489  1.00  0.00    -0.248 NA
ATOM     56  C   UNL A   1      44.523  24.415  29.365  1.00  0.00     0.031 C 
ATOM     57  C   UNL A   1      45.230  28.137  34.118  1.00  0.00     0.029 A 
ATOM     58  C   UNL A   1      44.724  27.520  32.985  1.00  0.00     0.049 A 
ATOM     59  H   UNL A   1      42.970  27.977  31.902  1.00  0.00     0.167 HD
ATOM     60  C   UNL A   1      44.704  25.850  31.147  1.00  0.00     0.074 A 
ATOM     61  C   UNL A   1      45.254  24.720  30.426  1.00  0.00     0.031 C 
ATOM     62  C   UNL A   1      45.269  26.399  32.253  1.00  0.00     0.034 A 
BRANCH  49  63
ATOM     63  C   UNL A   1      42.111  31.215  34.579  1.00  0.00     0.023 A 
ATOM     64  C   UNL A   1      42.500  32.533  34.275  1.00  0.00     0.031 A 
ATOM     65  C   UNL A   1      41.681  30.948  35.891  1.00  0.00     0.131 A 
ATOM     66  C   UNL A   1      42.541  33.504  35.286  1.00  0.00     0.055 A 
ATOM     67  C   UNL A   1      41.632  31.943  36.869  1.00  0.00     0.041 A 
ATOM     68  F   UNL A   1      41.318  29.707  36.252  1.00  0.00    -0.206 F 
ATOM     69  C   UNL A   1      42.082  33.227  36.575  1.00  0.00     0.022 A 
BRANCH  66  70
ATOM     70  S   UNL A   1      43.366  35.082  34.935  1.00  0.00     0.124 S 
ATOM     71  O   UNL A   1      42.239  36.012  34.952  1.00  0.00    -0.237 OA
ATOM     72  O   UNL A   1      44.308  35.198  36.041  1.00  0.00    -0.237 OA
ATOM     73  O   UNL A   1      43.967  34.869  33.620  1.00  0.00    -0.744 OA
ENDBRANCH  66  70
ENDBRANCH  49  63
BRANCH  50  74
ATOM     74  C   UNL A   1      42.391  24.268  27.351  1.00  0.00     0.023 A 
ATOM     75  C   UNL A   1      41.683  23.058  27.416  1.00  0.00     0.031 A 
ATOM     76  C   UNL A   1      43.202  24.495  26.223  1.00  0.00     0.131 A 
ATOM     77  C   UNL A   1      41.831  22.103  26.398  1.00  0.00     0.055 A 
ATOM     78  C   UNL A   1      43.302  23.566  25.187  1.00  0.00     0.041 A 
ATOM     79  F   UNL A   1      43.899  25.637  26.107  1.00  0.00    -0.206 F 
ATOM     80  C   UNL A   1      42.623  22.355  25.277  1.00  0.00     0.022 A 
BRANCH  77  81
ATOM     81  S   UNL A   1      41.035  20.485  26.602  1.00  0.00     0.124 S 
ATOM     82  O   UNL A   1      41.998  19.599  25.961  1.00  0.00    -0.237 OA
ATOM     83  O   UNL A   1      40.930  20.380  28.053  1.00  0.00    -0.237 OA
ATOM     84  O   UNL A   1      39.764  20.642  25.897  1.00  0.00    -0.744 OA
ENDBRANCH  77  81
ENDBRANCH  50  74
BRANCH  62  85
ATOM     85  C   UNL A   1      46.524  25.747  32.785  1.00  0.00     0.023 A 
ATOM     86  C   UNL A   1      47.798  26.061  32.285  1.00  0.00     0.031 A 
ATOM     87  C   UNL A   1      46.435  24.794  33.816  1.00  0.00     0.131 A 
ATOM     88  C   UNL A   1      48.927  25.390  32.779  1.00  0.00     0.055 A 
ATOM     89  C   UNL A   1      47.567  24.179  34.350  1.00  0.00     0.041 A 
ATOM     90  F   UNL A   1      45.242  24.451  34.330  1.00  0.00    -0.206 F 
ATOM     91  C   UNL A   1      48.823  24.466  33.822  1.00  0.00     0.022 A 
BRANCH  88  92
ATOM     92  S   UNL A   1      50.530  25.669  31.975  1.00  0.00     0.124 S 
ATOM     93  O   UNL A   1      51.460  25.120  32.957  1.00  0.00    -0.237 OA
ATOM     94  O   UNL A   1      50.393  24.913  30.735  1.00  0.00    -0.237 OA
ATOM     95  O   UNL A   1      50.584  27.121  31.813  1.00  0.00    -0.744 OA
ENDBRANCH  88  92
ENDBRANCH  62  85
ENDBRANCH  36  37
ENDBRANCH  28  31
ENDBRANCH  26  27
ENDBRANCH  25  26
ENDBRANCH  24  25
ENDBRANCH   1  24
TORSDOF 19
ENDMDL
MODEL 3
REMARK VINA RESULT:     -10.6      6.745     11.475
REMARK SMILES C[C@@H](C(=O)NCCCCCCNC(=O)c1ccc(-c2c3nc(c(-c4cc(S(=O)(=O)[O-])ccc4F)c4ccc([nH]4)c(-c4cc(S(=O)(=O)[O-])ccc4F)c4nc(c(-c5cc(S(=O)(=O)[O-])ccc5F)c5ccc2[nH]5)C=C4)C=C3)cc1)c1cccc(C(=O)c2ccccc2)c1
REMARK SMILES IDX 8 1 7 2 6 3 5 4 3 5 4 6 2 8 1 9 78 10 79 11 91 12 80 13
REMARK SMILES IDX 82 14 81 15 83 16 84 17 85 18 86 19 90 20 87 21 89 22 88 23
REMARK SMILES IDX 9 24 10 25 11 26 12 27 13 28 14 30 15 31 16 32 77 33 17 34
REMARK SMILES IDX 76 35 18 36 19 37 20 38 70 39 21 40 75 41 69 42 71 43 22 44
REMARK SMILES IDX 74 45 68 46 67 47 23 49 55 50 35 51 54 52 36 53 39 54 53 55
REMARK SMILES IDX 72 56 37 57 38 58 52 60 73 61 40 62 24 63 25 64 33 65 26 66
REMARK SMILES IDX 32 67 34 68 31 69 27 70 28 71 29 72 30 73 56 74 57 75 65 76
REMARK SMILES IDX 58 77 64 78 66 79 63 80 59 81 60 82 61 83 62 84 41 85 42 86
REMARK SMILES IDX 50 87 43 88 49 89 51 90 48 91 44 92 45 93 46 94 47 95
REMARK H PARENT 5 7 12 29 71 48 39 59
REMARK Flexibility Score: inf
ROOT
ATOM      1  C   UNL A   1      37.947  23.126  25.489  1.00  0.00     0.002 C 
ENDROOT
BRANCH   1   2
ATOM      2  C   UNL A   1      36.700  23.706  26.175  1.00  0.00     0.021 C 
BRANCH   2   3
ATOM      3  C   UNL A   1      35.380  23.334  25.488  1.00  0.00     0.116 C 
BRANCH   3   4
ATOM      4  N   UNL A   1      35.535  22.071  24.793  1.00  0.00    -0.356 N 
ATOM      5  C   UNL A   1      34.928  20.883  25.081  1.00  0.00     0.227 C 
ATOM      6  O   UNL A   1      35.573  19.861  24.837  1.00  0.00    -0.274 OA
ATOM      7  H   UNL A   1      36.149  22.070  24.024  1.00  0.00     0.163 HD
BRANCH   5   8
ATOM      8  C   UNL A   1      33.495  20.880  25.659  1.00  0.00     0.105 C 
ATOM      9  C   UNL A   1      33.001  19.425  25.687  1.00  0.00     0.023 C 
BRANCH   8  10
ATOM     10  C   UNL A   1      32.507  21.790  24.907  1.00  0.00    -0.035 A 
ATOM     11  C   UNL A   1      32.306  21.657  23.523  1.00  0.00     0.004 A 
ATOM     12  C   UNL A   1      31.775  22.791  25.569  1.00  0.00     0.016 A 
ATOM     13  C   UNL A   1      31.520  22.569  22.815  1.00  0.00     0.001 A 
ATOM     14  C   UNL A   1      31.053  23.762  24.863  1.00  0.00     0.023 A 
ATOM     15  C   UNL A   1      30.922  23.639  23.478  1.00  0.00     0.012 A 
BRANCH  14  16
ATOM     16  C   UNL A   1      30.417  24.927  25.545  1.00  0.00     0.193 C 
ATOM     17  O   UNL A   1      29.997  24.812  26.695  1.00  0.00    -0.289 OA
BRANCH  16  18
ATOM     18  C   UNL A   1      30.299  26.249  24.882  1.00  0.00     0.022 A 
ATOM     19  C   UNL A   1      31.248  27.227  25.195  1.00  0.00     0.012 A 
ATOM     20  C   UNL A   1      29.283  26.529  23.963  1.00  0.00     0.012 A 
ATOM     21  C   UNL A   1      31.214  28.464  24.547  1.00  0.00     0.001 A 
ATOM     22  C   UNL A   1      29.256  27.766  23.312  1.00  0.00     0.001 A 
ATOM     23  C   UNL A   1      30.224  28.727  23.600  1.00  0.00     0.000 A 
ENDBRANCH  16  18
ENDBRANCH  14  16
ENDBRANCH   8  10
ENDBRANCH   5   8
ENDBRANCH   3   4
ENDBRANCH   2   3
ENDBRANCH   1   2
BRANCH   1  24
ATOM     24  C   UNL A   1      39.178  23.012  26.391  1.00  0.00     0.002 C 
BRANCH  24  25
ATOM     25  C   UNL A   1      39.515  21.585  26.824  1.00  0.00     0.021 C 
BRANCH  25  26
ATOM     26  C   UNL A   1      39.420  20.555  25.705  1.00  0.00     0.116 C 
BRANCH  26  27
ATOM     27  N   UNL A   1      40.345  19.451  25.908  1.00  0.00    -0.352 N 
ATOM     28  C   UNL A   1      41.702  19.497  26.111  1.00  0.00     0.251 C 
ATOM     29  H   UNL A   1      39.945  18.552  25.897  1.00  0.00     0.163 HD
ATOM     30  O   UNL A   1      42.370  18.469  26.033  1.00  0.00    -0.269 OA
BRANCH  28  31
ATOM     31  C   UNL A   1      42.347  20.795  26.400  1.00  0.00     0.039 A 
ATOM     32  C   UNL A   1      42.679  21.644  25.341  1.00  0.00     0.014 A 
ATOM     33  C   UNL A   1      42.605  21.179  27.719  1.00  0.00     0.014 A 
ATOM     34  C   UNL A   1      43.221  22.903  25.611  1.00  0.00     0.010 A 
ATOM     35  C   UNL A   1      43.068  22.461  27.988  1.00  0.00     0.010 A 
ATOM     36  C   UNL A   1      43.391  23.335  26.937  1.00  0.00    -0.014 A 
BRANCH  36  37
ATOM     37  C   UNL A   1      43.931  24.682  27.252  1.00  0.00     0.031 A 
ATOM     38  C   UNL A   1      43.009  25.752  27.771  1.00  0.00     0.074 A 
ATOM     39  C   UNL A   1      45.226  24.964  27.009  1.00  0.00     0.049 A 
ATOM     40  N   UNL A   1      43.251  27.017  28.002  1.00  0.00    -0.248 NA
ATOM     41  C   UNL A   1      41.618  25.350  28.028  1.00  0.00     0.031 C 
ATOM     42  C   UNL A   1      46.212  24.018  26.481  1.00  0.00     0.029 A 
ATOM     43  N   UNL A   1      45.935  26.129  27.164  1.00  0.00    -0.354 N 
ATOM     44  C   UNL A   1      42.041  27.565  28.416  1.00  0.00     0.074 A 
ATOM     45  C   UNL A   1      41.055  26.509  28.334  1.00  0.00     0.031 C 
ATOM     46  C   UNL A   1      47.400  24.635  26.377  1.00  0.00     0.029 A 
ATOM     47  C   UNL A   1      47.252  26.031  26.776  1.00  0.00     0.049 A 
ATOM     48  H   UNL A   1      45.539  26.958  27.516  1.00  0.00     0.167 HD
ATOM     49  C   UNL A   1      41.783  28.825  28.848  1.00  0.00     0.034 A 
ATOM     50  C   UNL A   1      48.225  26.963  26.731  1.00  0.00     0.034 A 
ATOM     51  C   UNL A   1      42.782  29.861  28.929  1.00  0.00     0.049 A 
ATOM     52  C   UNL A   1      47.907  28.369  27.176  1.00  0.00     0.074 A 
ATOM     53  C   UNL A   1      42.644  31.157  29.395  1.00  0.00     0.029 A 
ATOM     54  N   UNL A   1      44.105  29.725  28.525  1.00  0.00    -0.354 N 
ATOM     55  N   UNL A   1      46.768  28.864  27.603  1.00  0.00    -0.248 NA
ATOM     56  C   UNL A   1      49.009  29.339  27.144  1.00  0.00     0.031 C 
ATOM     57  C   UNL A   1      43.857  31.825  29.199  1.00  0.00     0.029 A 
ATOM     58  C   UNL A   1      44.783  30.923  28.698  1.00  0.00     0.049 A 
ATOM     59  H   UNL A   1      44.505  28.898  28.168  1.00  0.00     0.167 HD
ATOM     60  C   UNL A   1      47.027  30.194  27.924  1.00  0.00     0.074 A 
ATOM     61  C   UNL A   1      48.432  30.418  27.650  1.00  0.00     0.031 C 
ATOM     62  C   UNL A   1      46.183  31.139  28.412  1.00  0.00     0.034 A 
BRANCH  49  63
ATOM     63  C   UNL A   1      40.356  29.149  29.228  1.00  0.00     0.023 A 
ATOM     64  C   UNL A   1      39.927  29.141  30.568  1.00  0.00     0.031 A 
ATOM     65  C   UNL A   1      39.398  29.426  28.237  1.00  0.00     0.131 A 
ATOM     66  C   UNL A   1      38.568  29.312  30.871  1.00  0.00     0.055 A 
ATOM     67  C   UNL A   1      38.064  29.692  28.553  1.00  0.00     0.041 A 
ATOM     68  F   UNL A   1      39.738  29.426  26.938  1.00  0.00    -0.206 F 
ATOM     69  C   UNL A   1      37.637  29.616  29.876  1.00  0.00     0.022 A 
BRANCH  66  70
ATOM     70  S   UNL A   1      38.009  28.957  32.560  1.00  0.00     0.124 S 
ATOM     71  O   UNL A   1      38.961  29.733  33.353  1.00  0.00    -0.237 OA
ATOM     72  O   UNL A   1      36.637  29.449  32.548  1.00  0.00    -0.237 OA
ATOM     73  O   UNL A   1      38.154  27.507  32.671  1.00  0.00    -0.744 OA
ENDBRANCH  66  70
ENDBRANCH  49  63
BRANCH  50  74
ATOM     74  C   UNL A   1      49.585  26.607  26.235  1.00  0.00     0.023 A 
ATOM     75  C   UNL A   1      50.042  27.054  24.984  1.00  0.00     0.031 A 
ATOM     76  C   UNL A   1      50.441  25.785  26.992  1.00  0.00     0.131 A 
ATOM     77  C   UNL A   1      51.297  26.645  24.509  1.00  0.00     0.055 A 
ATOM     78  C   UNL A   1      51.711  25.427  26.538  1.00  0.00     0.041 A 
ATOM     79  F   UNL A   1      50.057  25.332  28.196  1.00  0.00    -0.206 F 
ATOM     80  C   UNL A   1      52.141  25.846  25.284  1.00  0.00     0.022 A 
BRANCH  77  81
ATOM     81  S   UNL A   1      51.779  27.102  22.821  1.00  0.00     0.124 S 
ATOM     82  O   UNL A   1      50.519  26.956  22.103  1.00  0.00    -0.237 OA
ATOM     83  O   UNL A   1      52.260  28.468  23.004  1.00  0.00    -0.237 OA
ATOM     84  O   UNL A   1      52.809  26.121  22.485  1.00  0.00    -0.744 OA
ENDBRANCH  77  81
ENDBRANCH  50  74
BRANCH  62  85
ATOM     85  C   UNL A   1      46.773  32.492  28.735  1.00  0.00     0.023 A 
ATOM     86  C   UNL A   1      46.783  33.543  27.803  1.00  0.00     0.031 A 
ATOM     87  C   UNL A   1      47.332  32.729  30.004  1.00  0.00     0.131 A 
ATOM     88  C   UNL A   1      47.388  34.765  28.136  1.00  0.00     0.055 A 
ATOM     89  C   UNL A   1      47.872  33.967  30.352  1.00  0.00     0.041 A 
ATOM     90  F   UNL A   1      47.355  31.759  30.934  1.00  0.00    -0.206 F 
ATOM     91  C   UNL A   1      47.914  34.991  29.411  1.00  0.00     0.022 A 
BRANCH  88  92
ATOM     92  S   UNL A   1      47.565  36.031  26.847  1.00  0.00     0.124 S 
ATOM     93  O   UNL A   1      46.732  37.110  27.367  1.00  0.00    -0.237 OA
ATOM     94  O   UNL A   1      49.003  36.279  26.850  1.00  0.00    -0.237 OA
ATOM     95  O   UNL A   1      47.052  35.373  25.648  1.00  0.00    -0.744 OA
ENDBRANCH  88  92
ENDBRANCH  62  85
ENDBRANCH  36  37
ENDBRANCH  28  31
ENDBRANCH  26  27
ENDBRANCH  25  26
ENDBRANCH  24  25
ENDBRANCH   1  24
TORSDOF 19
ENDMDL
