MODEL 1
REMARK VINA RESULT:     -10.9      0.000      0.000
REMARK SMILES O=C(NCCCCCCNC(=O)c1ccc(-n2cc(CSc3nc4ccccc4c(=O)n3-c3ccc(Cl)cc3)nn2)cc1)c1ccc(-c2c3nc(c(-c4cc(S(=O)(=O)[O-])ccc4F)c4ccc([nH]4)c(-c4cc(S(=O)(=O)[O-])ccc4F)c4nc(c(-c5cc(S(=O)(=O)[O-])ccc5F)c5ccc2[nH]5)C=C4)C=C3)cc1
REMARK SMILES IDX 7 1 6 2 5 3 4 4 3 5 1 6 2 7 44 9 45 10 106 11 46 12 105 13
REMARK SMILES IDX 47 14 48 15 49 16 99 17 50 18 104 19 98 20 100 21 51 22
REMARK SMILES IDX 103 23 97 24 96 25 52 27 84 28 64 29 83 30 65 31 68 32 82 33
REMARK SMILES IDX 101 34 66 35 67 36 81 38 102 39 69 40 53 41 54 42 62 43
REMARK SMILES IDX 55 44 61 45 63 46 60 47 56 48 57 49 58 50 59 51 85 52 86 53
REMARK SMILES IDX 94 54 87 55 93 56 95 57 92 58 88 59 89 60 90 61 91 62 70 63
REMARK SMILES IDX 71 64 79 65 72 66 78 67 80 68 77 69 73 70 74 71 75 72 76 73
REMARK SMILES IDX 8 74 9 75 10 76 11 77 12 79 13 80 14 81 43 82 15 83 42 84
REMARK SMILES IDX 16 85 17 86 18 87 41 88 19 89 40 90 20 91 21 92 22 93 23 94
REMARK SMILES IDX 32 95 24 96 30 97 25 98 29 99 31 100 26 101 28 102 27 103
REMARK SMILES IDX 33 104 34 105 39 106 35 107 38 108 36 109 37 110
REMARK H PARENT 3 8 100 26 68 37 10 78
REMARK Flexibility Score: inf
ROOT
ATOM      1  C   UNL A   1      34.100  28.270  24.503  1.00  0.00     0.002 C 
ENDROOT
BRANCH   1   2
ATOM      2  C   UNL A   1      33.302  28.931  25.634  1.00  0.00     0.002 C 
BRANCH   2   3
ATOM      3  C   UNL A   1      33.897  28.809  27.043  1.00  0.00     0.021 C 
BRANCH   3   4
ATOM      4  C   UNL A   1      34.928  29.874  27.407  1.00  0.00     0.116 C 
BRANCH   4   5
ATOM      5  N   UNL A   1      34.397  31.021  28.111  1.00  0.00    -0.352 N 
ATOM      6  O   UNL A   1      34.191  32.944  29.173  1.00  0.00    -0.269 OA
ATOM      7  C   UNL A   1      34.944  32.011  28.880  1.00  0.00     0.251 C 
ATOM      8  H   UNL A   1      33.421  31.108  28.014  1.00  0.00     0.163 HD
BRANCH   7   9
ATOM      9  C   UNL A   1      36.323  31.997  29.441  1.00  0.00     0.039 A 
ATOM     10  C   UNL A   1      37.387  32.804  29.032  1.00  0.00     0.014 A 
ATOM     11  C   UNL A   1      36.546  31.068  30.475  1.00  0.00     0.014 A 
ATOM     12  C   UNL A   1      38.658  32.624  29.584  1.00  0.00     0.010 A 
ATOM     13  C   UNL A   1      37.809  30.888  31.029  1.00  0.00     0.010 A 
ATOM     14  C   UNL A   1      38.877  31.648  30.564  1.00  0.00    -0.014 A 
BRANCH  14  15
ATOM     15  C   UNL A   1      40.161  31.628  31.273  1.00  0.00     0.031 A 
ATOM     16  C   UNL A   1      40.261  32.695  32.311  1.00  0.00     0.074 A 
ATOM     17  C   UNL A   1      41.099  30.662  31.164  1.00  0.00     0.049 A 
ATOM     18  N   UNL A   1      41.053  33.716  32.326  1.00  0.00    -0.248 NA
ATOM     19  C   UNL A   1      39.236  32.728  33.370  1.00  0.00     0.031 C 
ATOM     20  C   UNL A   1      41.015  29.426  30.387  1.00  0.00     0.029 A 
ATOM     21  N   UNL A   1      42.302  30.529  31.806  1.00  0.00    -0.354 N 
ATOM     22  C   UNL A   1      40.805  34.368  33.532  1.00  0.00     0.074 A 
ATOM     23  C   UNL A   1      39.550  33.858  34.004  1.00  0.00     0.031 C 
ATOM     24  C   UNL A   1      42.001  28.581  30.772  1.00  0.00     0.029 A 
ATOM     25  C   UNL A   1      42.860  29.248  31.738  1.00  0.00     0.049 A 
ATOM     26  H   UNL A   1      42.739  31.275  32.277  1.00  0.00     0.167 HD
ATOM     27  C   UNL A   1      41.791  35.060  34.169  1.00  0.00     0.034 A 
ATOM     28  C   UNL A   1      43.916  28.751  32.450  1.00  0.00     0.034 A 
ATOM     29  C   UNL A   1      42.865  35.387  33.255  1.00  0.00     0.049 A 
ATOM     30  C   UNL A   1      44.705  29.914  32.923  1.00  0.00     0.074 A 
ATOM     31  C   UNL A   1      42.938  36.054  32.046  1.00  0.00     0.029 A 
ATOM     32  N   UNL A   1      44.042  34.678  33.349  1.00  0.00    -0.354 N 
ATOM     33  N   UNL A   1      45.357  30.707  32.120  1.00  0.00    -0.248 NA
ATOM     34  C   UNL A   1      44.370  30.481  34.220  1.00  0.00     0.031 C 
ATOM     35  C   UNL A   1      43.876  35.309  31.273  1.00  0.00     0.029 A 
ATOM     36  C   UNL A   1      44.394  34.295  32.080  1.00  0.00     0.049 A 
ATOM     37  H   UNL A   1      44.539  34.482  34.176  1.00  0.00     0.167 HD
ATOM     38  C   UNL A   1      45.114  31.981  32.609  1.00  0.00     0.074 A 
ATOM     39  C   UNL A   1      44.578  31.774  33.954  1.00  0.00     0.031 C 
ATOM     40  C   UNL A   1      45.097  33.065  31.777  1.00  0.00     0.034 A 
BRANCH  27  41
ATOM     41  C   UNL A   1      41.991  35.063  35.676  1.00  0.00     0.023 A 
ATOM     42  C   UNL A   1      42.494  33.879  36.250  1.00  0.00     0.031 A 
ATOM     43  C   UNL A   1      41.435  35.990  36.590  1.00  0.00     0.131 A 
ATOM     44  C   UNL A   1      42.290  33.589  37.610  1.00  0.00     0.055 A 
ATOM     45  C   UNL A   1      41.301  35.726  37.956  1.00  0.00     0.041 A 
ATOM     46  F   UNL A   1      40.914  37.163  36.217  1.00  0.00    -0.206 F 
ATOM     47  C   UNL A   1      41.689  34.503  38.468  1.00  0.00     0.022 A 
BRANCH  44  48
ATOM     48  S   UNL A   1      42.634  31.905  38.179  1.00  0.00     0.124 S 
ATOM     49  O   UNL A   1      41.928  31.116  37.175  1.00  0.00    -0.237 OA
ATOM     50  O   UNL A   1      44.091  31.864  38.125  1.00  0.00    -0.237 OA
ATOM     51  O   UNL A   1      42.058  31.878  39.521  1.00  0.00    -0.744 OA
ENDBRANCH  44  48
ENDBRANCH  27  41
BRANCH  28  52
ATOM     52  C   UNL A   1      44.105  27.371  33.004  1.00  0.00     0.023 A 
ATOM     53  C   UNL A   1      43.324  26.829  34.058  1.00  0.00     0.031 A 
ATOM     54  C   UNL A   1      44.919  26.455  32.300  1.00  0.00     0.131 A 
ATOM     55  C   UNL A   1      43.384  25.441  34.359  1.00  0.00     0.055 A 
ATOM     56  C   UNL A   1      44.970  25.091  32.600  1.00  0.00     0.041 A 
ATOM     57  F   UNL A   1      45.629  26.839  31.229  1.00  0.00    -0.206 F 
ATOM     58  C   UNL A   1      44.195  24.576  33.624  1.00  0.00     0.022 A 
BRANCH  55  59
ATOM     59  S   UNL A   1      42.335  24.703  35.665  1.00  0.00     0.124 S 
ATOM     60  O   UNL A   1      41.145  25.544  35.623  1.00  0.00    -0.237 OA
ATOM     61  O   UNL A   1      42.178  23.327  35.208  1.00  0.00    -0.237 OA
ATOM     62  O   UNL A   1      43.144  24.852  36.877  1.00  0.00    -0.744 OA
ENDBRANCH  55  59
ENDBRANCH  28  52
BRANCH  40  63
ATOM     63  C   UNL A   1      45.674  32.924  30.382  1.00  0.00     0.023 A 
ATOM     64  C   UNL A   1      44.954  32.519  29.234  1.00  0.00     0.031 A 
ATOM     65  C   UNL A   1      47.008  33.330  30.204  1.00  0.00     0.131 A 
ATOM     66  C   UNL A   1      45.584  32.521  27.973  1.00  0.00     0.055 A 
ATOM     67  C   UNL A   1      47.620  33.352  28.954  1.00  0.00     0.041 A 
ATOM     68  F   UNL A   1      47.739  33.749  31.252  1.00  0.00    -0.206 F 
ATOM     69  C   UNL A   1      46.912  32.940  27.832  1.00  0.00     0.022 A 
BRANCH  66  70
ATOM     70  S   UNL A   1      44.698  31.957  26.483  1.00  0.00     0.124 S 
ATOM     71  O   UNL A   1      45.767  31.506  25.598  1.00  0.00    -0.237 OA
ATOM     72  O   UNL A   1      43.823  30.913  27.012  1.00  0.00    -0.237 OA
ATOM     73  O   UNL A   1      43.998  33.160  26.028  1.00  0.00    -0.744 OA
ENDBRANCH  66  70
ENDBRANCH  40  63
ENDBRANCH  14  15
ENDBRANCH   7   9
ENDBRANCH   4   5
ENDBRANCH   3   4
ENDBRANCH   2   3
ENDBRANCH   1   2
BRANCH   1  74
ATOM     74  C   UNL A   1      33.444  28.299  23.120  1.00  0.00     0.021 C 
BRANCH  74  75
ATOM     75  C   UNL A   1      33.523  26.989  22.339  1.00  0.00     0.116 C 
BRANCH  75  76
ATOM     76  N   UNL A   1      32.405  26.105  22.629  1.00  0.00    -0.352 N 
ATOM     77  C   UNL A   1      32.406  24.864  23.216  1.00  0.00     0.251 C 
ATOM     78  H   UNL A   1      31.519  26.445  22.366  1.00  0.00     0.163 HD
ATOM     79  O   UNL A   1      31.387  24.184  23.260  1.00  0.00    -0.269 OA
BRANCH  77  80
ATOM     80  C   UNL A   1      33.665  24.322  23.767  1.00  0.00     0.039 A 
ATOM     81  C   UNL A   1      34.389  23.403  23.000  1.00  0.00     0.016 A 
ATOM     82  C   UNL A   1      34.122  24.715  25.029  1.00  0.00     0.016 A 
ATOM     83  C   UNL A   1      35.625  22.937  23.451  1.00  0.00     0.029 A 
ATOM     84  C   UNL A   1      35.338  24.224  25.499  1.00  0.00     0.029 A 
ATOM     85  C   UNL A   1      36.091  23.342  24.703  1.00  0.00     0.066 A 
BRANCH  85  86
ATOM     86  N   UNL A   1      37.282  22.784  25.211  1.00  0.00    -0.220 N 
ATOM     87  C   UNL A   1      38.112  23.370  26.124  1.00  0.00     0.141 A 
ATOM     88  N   UNL A   1      37.757  21.559  24.894  1.00  0.00    -0.062 NA
ATOM     89  C   UNL A   1      39.112  22.463  26.368  1.00  0.00     0.093 A 
ATOM     90  N   UNL A   1      38.906  21.382  25.547  1.00  0.00    -0.134 NA
BRANCH  89  91
ATOM     91  C   UNL A   1      40.361  22.648  27.140  1.00  0.00     0.138 C 
BRANCH  91  92
ATOM     92  S   UNL A   1      41.752  23.627  26.563  1.00  0.00    -0.081 SA
BRANCH  92  93
ATOM     93  C   UNL A   1      41.529  25.343  26.779  1.00  0.00     0.176 A 
ATOM     94  N   UNL A   1      40.405  25.608  27.383  1.00  0.00    -0.223 NA
ATOM     95  N   UNL A   1      42.406  26.350  26.402  1.00  0.00    -0.255 N 
ATOM     96  C   UNL A   1      40.011  26.942  27.519  1.00  0.00     0.079 A 
ATOM     97  C   UNL A   1      41.771  27.526  25.958  1.00  0.00     0.266 A 
ATOM     98  C   UNL A   1      38.986  27.306  28.393  1.00  0.00     0.029 A 
ATOM     99  C   UNL A   1      40.547  27.907  26.684  1.00  0.00     0.066 A 
ATOM    100  O   UNL A   1      42.127  28.232  25.027  1.00  0.00    -0.268 OA
ATOM    101  C   UNL A   1      38.459  28.602  28.360  1.00  0.00     0.002 A 
ATOM    102  C   UNL A   1      39.994  29.188  26.594  1.00  0.00     0.016 A 
ATOM    103  C   UNL A   1      38.932  29.529  27.430  1.00  0.00     0.001 A 
BRANCH  95 104
ATOM    104  C   UNL A   1      43.857  26.294  26.347  1.00  0.00     0.051 A 
ATOM    105  C   UNL A   1      44.501  25.695  25.243  1.00  0.00     0.028 A 
ATOM    106  C   UNL A   1      44.710  26.788  27.342  1.00  0.00     0.028 A 
ATOM    107  C   UNL A   1      45.858  25.353  25.262  1.00  0.00     0.022 A 
ATOM    108  C   UNL A   1      46.057  26.392  27.408  1.00  0.00     0.022 A 
ATOM    109  C   UNL A   1      46.612  25.633  26.388  1.00  0.00     0.041 A 
ATOM    110  Cl  UNL A   1      48.204  25.015  26.536  1.00  0.00    -0.084 Cl
ENDBRANCH  95 104
ENDBRANCH  92  93
ENDBRANCH  91  92
ENDBRANCH  89  91
ENDBRANCH  85  86
ENDBRANCH  77  80
ENDBRANCH  75  76
ENDBRANCH  74  75
ENDBRANCH   1  74
TORSDOF 21
ENDMDL
MODEL 2
REMARK VINA RESULT:     -10.8      3.055      4.248
REMARK SMILES O=C(NCCCCCCNC(=O)c1ccc(-n2cc(CSc3nc4ccccc4c(=O)n3-c3ccc(Cl)cc3)nn2)cc1)c1ccc(-c2c3nc(c(-c4cc(S(=O)(=O)[O-])ccc4F)c4ccc([nH]4)c(-c4cc(S(=O)(=O)[O-])ccc4F)c4nc(c(-c5cc(S(=O)(=O)[O-])ccc5F)c5ccc2[nH]5)C=C4)C=C3)cc1
REMARK SMILES IDX 7 1 6 2 5 3 4 4 3 5 1 6 2 7 44 9 45 10 106 11 46 12 105 13
REMARK SMILES IDX 47 14 48 15 49 16 99 17 50 18 104 19 98 20 100 21 51 22
REMARK SMILES IDX 103 23 97 24 96 25 52 27 84 28 64 29 83 30 65 31 68 32 82 33
REMARK SMILES IDX 101 34 66 35 67 36 81 38 102 39 69 40 53 41 54 42 62 43
REMARK SMILES IDX 55 44 61 45 63 46 60 47 56 48 57 49 58 50 59 51 85 52 86 53
REMARK SMILES IDX 94 54 87 55 93 56 95 57 92 58 88 59 89 60 90 61 91 62 70 63
REMARK SMILES IDX 71 64 79 65 72 66 78 67 80 68 77 69 73 70 74 71 75 72 76 73
REMARK SMILES IDX 8 74 9 75 10 76 11 77 12 79 13 80 14 81 43 82 15 83 42 84
REMARK SMILES IDX 16 85 17 86 18 87 41 88 19 89 40 90 20 91 21 92 22 93 23 94
REMARK SMILES IDX 32 95 24 96 30 97 25 98 29 99 31 100 26 101 28 102 27 103
REMARK SMILES IDX 33 104 34 105 39 106 35 107 38 108 36 109 37 110
REMARK H PARENT 3 8 100 26 68 37 10 78
REMARK Flexibility Score: inf
ROOT
ATOM      1  C   UNL A   1      32.958  26.730  25.126  1.00  0.00     0.002 C 
ENDROOT
BRANCH   1   2
ATOM      2  C   UNL A   1      33.671  28.062  25.391  1.00  0.00     0.002 C 
BRANCH   2   3
ATOM      3  C   UNL A   1      33.685  28.544  26.848  1.00  0.00     0.021 C 
BRANCH   3   4
ATOM      4  C   UNL A   1      34.934  29.316  27.265  1.00  0.00     0.116 C 
BRANCH   4   5
ATOM      5  N   UNL A   1      34.784  30.755  27.277  1.00  0.00    -0.352 N 
ATOM      6  O   UNL A   1      35.125  32.917  27.562  1.00  0.00    -0.269 OA
ATOM      7  C   UNL A   1      35.398  31.777  27.948  1.00  0.00     0.251 C 
ATOM      8  H   UNL A   1      34.082  31.070  26.663  1.00  0.00     0.163 HD
BRANCH   7   9
ATOM      9  C   UNL A   1      36.283  31.613  29.135  1.00  0.00     0.039 A 
ATOM     10  C   UNL A   1      36.041  30.788  30.235  1.00  0.00     0.014 A 
ATOM     11  C   UNL A   1      37.463  32.381  29.119  1.00  0.00     0.014 A 
ATOM     12  C   UNL A   1      36.915  30.798  31.325  1.00  0.00     0.010 A 
ATOM     13  C   UNL A   1      38.337  32.392  30.202  1.00  0.00     0.010 A 
ATOM     14  C   UNL A   1      38.049  31.620  31.322  1.00  0.00    -0.014 A 
BRANCH  14  15
ATOM     15  C   UNL A   1      39.053  31.450  32.378  1.00  0.00     0.031 A 
ATOM     16  C   UNL A   1      38.788  32.310  33.567  1.00  0.00     0.074 A 
ATOM     17  C   UNL A   1      40.016  30.502  32.395  1.00  0.00     0.049 A 
ATOM     18  N   UNL A   1      39.497  33.297  34.006  1.00  0.00    -0.248 NA
ATOM     19  C   UNL A   1      37.488  32.170  34.247  1.00  0.00     0.031 C 
ATOM     20  C   UNL A   1      40.222  29.427  31.424  1.00  0.00     0.029 A 
ATOM     21  N   UNL A   1      40.968  30.234  33.343  1.00  0.00    -0.354 N 
ATOM     22  C   UNL A   1      38.867  33.726  35.173  1.00  0.00     0.074 A 
ATOM     23  C   UNL A   1      37.547  33.161  35.136  1.00  0.00     0.031 C 
ATOM     24  C   UNL A   1      41.074  28.509  31.939  1.00  0.00     0.029 A 
ATOM     25  C   UNL A   1      41.569  28.976  33.226  1.00  0.00     0.049 A 
ATOM     26  H   UNL A   1      41.210  30.875  34.050  1.00  0.00     0.167 HD
ATOM     27  C   UNL A   1      39.581  34.273  36.195  1.00  0.00     0.034 A 
ATOM     28  C   UNL A   1      42.374  28.340  34.129  1.00  0.00     0.034 A 
ATOM     29  C   UNL A   1      40.870  34.741  35.729  1.00  0.00     0.049 A 
ATOM     30  C   UNL A   1      42.934  29.384  35.020  1.00  0.00     0.074 A 
ATOM     31  C   UNL A   1      41.285  35.613  34.740  1.00  0.00     0.029 A 
ATOM     32  N   UNL A   1      41.988  34.005  36.055  1.00  0.00    -0.354 N 
ATOM     33  N   UNL A   1      43.770  30.297  34.612  1.00  0.00    -0.248 NA
ATOM     34  C   UNL A   1      42.195  29.714  36.229  1.00  0.00     0.031 C 
ATOM     35  C   UNL A   1      42.443  35.002  34.175  1.00  0.00     0.029 A 
ATOM     36  C   UNL A   1      42.728  33.851  34.911  1.00  0.00     0.049 A 
ATOM     37  H   UNL A   1      42.215  33.655  36.948  1.00  0.00     0.167 HD
ATOM     38  C   UNL A   1      43.339  31.466  35.218  1.00  0.00     0.074 A 
ATOM     39  C   UNL A   1      42.425  31.030  36.273  1.00  0.00     0.031 C 
ATOM     40  C   UNL A   1      43.537  32.682  34.628  1.00  0.00     0.034 A 
BRANCH  27  41
ATOM     41  C   UNL A   1      39.309  34.002  37.666  1.00  0.00     0.023 A 
ATOM     42  C   UNL A   1      38.673  32.784  37.976  1.00  0.00     0.031 A 
ATOM     43  C   UNL A   1      39.328  34.958  38.708  1.00  0.00     0.131 A 
ATOM     44  C   UNL A   1      37.967  32.621  39.180  1.00  0.00     0.055 A 
ATOM     45  C   UNL A   1      38.685  34.762  39.934  1.00  0.00     0.041 A 
ATOM     46  F   UNL A   1      39.890  36.165  38.585  1.00  0.00    -0.206 F 
ATOM     47  C   UNL A   1      37.962  33.607  40.161  1.00  0.00     0.022 A 
BRANCH  44  48
ATOM     48  S   UNL A   1      36.880  31.182  39.339  1.00  0.00     0.124 S 
ATOM     49  O   UNL A   1      37.379  30.586  40.574  1.00  0.00    -0.237 OA
ATOM     50  O   UNL A   1      35.564  31.808  39.411  1.00  0.00    -0.237 OA
ATOM     51  O   UNL A   1      37.145  30.422  38.121  1.00  0.00    -0.744 OA
ENDBRANCH  44  48
ENDBRANCH  27  41
BRANCH  28  52
ATOM     52  C   UNL A   1      42.437  26.879  34.461  1.00  0.00     0.023 A 
ATOM     53  C   UNL A   1      43.354  25.973  33.868  1.00  0.00     0.031 A 
ATOM     54  C   UNL A   1      41.737  26.402  35.593  1.00  0.00     0.131 A 
ATOM     55  C   UNL A   1      43.531  24.670  34.408  1.00  0.00     0.055 A 
ATOM     56  C   UNL A   1      41.919  25.121  36.119  1.00  0.00     0.041 A 
ATOM     57  F   UNL A   1      40.913  27.202  36.287  1.00  0.00    -0.206 F 
ATOM     58  C   UNL A   1      42.823  24.252  35.536  1.00  0.00     0.022 A 
BRANCH  55  59
ATOM     59  S   UNL A   1      44.757  23.507  33.707  1.00  0.00     0.124 S 
ATOM     60  O   UNL A   1      44.408  23.499  32.291  1.00  0.00    -0.237 OA
ATOM     61  O   UNL A   1      46.027  24.131  34.061  1.00  0.00    -0.237 OA
ATOM     62  O   UNL A   1      44.481  22.252  34.410  1.00  0.00    -0.744 OA
ENDBRANCH  55  59
ENDBRANCH  28  52
BRANCH  40  63
ATOM     63  C   UNL A   1      44.518  32.784  33.477  1.00  0.00     0.023 A 
ATOM     64  C   UNL A   1      45.918  32.941  33.604  1.00  0.00     0.031 A 
ATOM     65  C   UNL A   1      43.998  32.605  32.183  1.00  0.00     0.131 A 
ATOM     66  C   UNL A   1      46.735  32.927  32.455  1.00  0.00     0.055 A 
ATOM     67  C   UNL A   1      44.810  32.570  31.052  1.00  0.00     0.041 A 
ATOM     68  F   UNL A   1      42.679  32.428  31.996  1.00  0.00    -0.206 F 
ATOM     69  C   UNL A   1      46.183  32.738  31.183  1.00  0.00     0.022 A 
BRANCH  66  70
ATOM     70  S   UNL A   1      48.536  33.177  32.582  1.00  0.00     0.124 S 
ATOM     71  O   UNL A   1      48.676  34.111  33.692  1.00  0.00    -0.237 OA
ATOM     72  O   UNL A   1      49.026  31.821  32.819  1.00  0.00    -0.237 OA
ATOM     73  O   UNL A   1      48.895  33.728  31.273  1.00  0.00    -0.744 OA
ENDBRANCH  66  70
ENDBRANCH  40  63
ENDBRANCH  14  15
ENDBRANCH   7   9
ENDBRANCH   4   5
ENDBRANCH   3   4
ENDBRANCH   2   3
ENDBRANCH   1   2
BRANCH   1  74
ATOM     74  C   UNL A   1      31.431  26.795  25.054  1.00  0.00     0.021 C 
BRANCH  74  75
ATOM     75  C   UNL A   1      30.749  25.501  24.613  1.00  0.00     0.116 C 
BRANCH  75  76
ATOM     76  N   UNL A   1      30.105  24.811  25.720  1.00  0.00    -0.352 N 
ATOM     77  C   UNL A   1      30.558  23.754  26.469  1.00  0.00     0.251 C 
ATOM     78  H   UNL A   1      29.215  25.152  25.969  1.00  0.00     0.163 HD
ATOM     79  O   UNL A   1      29.828  23.194  27.280  1.00  0.00    -0.269 OA
BRANCH  77  80
ATOM     80  C   UNL A   1      31.934  23.256  26.266  1.00  0.00     0.039 A 
ATOM     81  C   UNL A   1      32.145  22.244  25.325  1.00  0.00     0.016 A 
ATOM     82  C   UNL A   1      33.002  23.782  27.000  1.00  0.00     0.016 A 
ATOM     83  C   UNL A   1      33.442  21.811  25.044  1.00  0.00     0.029 A 
ATOM     84  C   UNL A   1      34.294  23.328  26.749  1.00  0.00     0.029 A 
ATOM     85  C   UNL A   1      34.511  22.347  25.764  1.00  0.00     0.066 A 
BRANCH  85  86
ATOM     86  N   UNL A   1      35.807  21.829  25.565  1.00  0.00    -0.220 N 
ATOM     87  C   UNL A   1      36.960  22.340  26.092  1.00  0.00     0.141 A 
ATOM     88  N   UNL A   1      36.094  20.720  24.849  1.00  0.00    -0.062 NA
ATOM     89  C   UNL A   1      37.968  21.503  25.685  1.00  0.00     0.093 A 
ATOM     90  N   UNL A   1      37.417  20.550  24.866  1.00  0.00    -0.134 NA
BRANCH  89  91
ATOM     91  C   UNL A   1      39.431  21.681  25.827  1.00  0.00     0.138 C 
BRANCH  91  92
ATOM     92  S   UNL A   1      40.192  22.712  27.085  1.00  0.00    -0.081 SA
BRANCH  92  93
ATOM     93  C   UNL A   1      41.702  23.423  26.578  1.00  0.00     0.176 A 
ATOM     94  N   UNL A   1      42.312  22.678  25.700  1.00  0.00    -0.223 NA
ATOM     95  N   UNL A   1      42.233  24.635  26.997  1.00  0.00    -0.255 N 
ATOM     96  C   UNL A   1      43.596  23.039  25.286  1.00  0.00     0.079 A 
ATOM     97  C   UNL A   1      43.637  24.637  27.108  1.00  0.00     0.266 A 
ATOM     98  C   UNL A   1      44.179  22.463  24.156  1.00  0.00     0.029 A 
ATOM     99  C   UNL A   1      44.363  23.881  26.073  1.00  0.00     0.066 A 
ATOM    100  O   UNL A   1      44.291  25.180  27.984  1.00  0.00    -0.268 OA
ATOM    101  C   UNL A   1      45.535  22.670  23.879  1.00  0.00     0.002 A 
ATOM    102  C   UNL A   1      45.733  24.050  25.847  1.00  0.00     0.016 A 
ATOM    103  C   UNL A   1      46.322  23.427  24.749  1.00  0.00     0.001 A 
BRANCH  95 104
ATOM    104  C   UNL A   1      41.514  25.834  27.392  1.00  0.00     0.051 A 
ATOM    105  C   UNL A   1      40.739  25.838  28.572  1.00  0.00     0.028 A 
ATOM    106  C   UNL A   1      41.509  27.032  26.666  1.00  0.00     0.028 A 
ATOM    107  C   UNL A   1      39.808  26.845  28.852  1.00  0.00     0.022 A 
ATOM    108  C   UNL A   1      40.531  28.016  26.895  1.00  0.00     0.022 A 
ATOM    109  C   UNL A   1      39.651  27.892  27.961  1.00  0.00     0.041 A 
ATOM    110  Cl  UNL A   1      38.360  29.003  28.153  1.00  0.00    -0.084 Cl
ENDBRANCH  95 104
ENDBRANCH  92  93
ENDBRANCH  91  92
ENDBRANCH  89  91
ENDBRANCH  85  86
ENDBRANCH  77  80
ENDBRANCH  75  76
ENDBRANCH  74  75
ENDBRANCH   1  74
TORSDOF 21
ENDMDL
MODEL 3
REMARK VINA RESULT:     -10.5      4.267     10.363
REMARK SMILES O=C(NCCCCCCNC(=O)c1ccc(-n2cc(CSc3nc4ccccc4c(=O)n3-c3ccc(Cl)cc3)nn2)cc1)c1ccc(-c2c3nc(c(-c4cc(S(=O)(=O)[O-])ccc4F)c4ccc([nH]4)c(-c4cc(S(=O)(=O)[O-])ccc4F)c4nc(c(-c5cc(S(=O)(=O)[O-])ccc5F)c5ccc2[nH]5)C=C4)C=C3)cc1
REMARK SMILES IDX 7 1 6 2 5 3 4 4 3 5 1 6 2 7 44 9 45 10 106 11 46 12 105 13
REMARK SMILES IDX 47 14 48 15 49 16 99 17 50 18 104 19 98 20 100 21 51 22
REMARK SMILES IDX 103 23 97 24 96 25 52 27 84 28 64 29 83 30 65 31 68 32 82 33
REMARK SMILES IDX 101 34 66 35 67 36 81 38 102 39 69 40 53 41 54 42 62 43
REMARK SMILES IDX 55 44 61 45 63 46 60 47 56 48 57 49 58 50 59 51 85 52 86 53
REMARK SMILES IDX 94 54 87 55 93 56 95 57 92 58 88 59 89 60 90 61 91 62 70 63
REMARK SMILES IDX 71 64 79 65 72 66 78 67 80 68 77 69 73 70 74 71 75 72 76 73
REMARK SMILES IDX 8 74 9 75 10 76 11 77 12 79 13 80 14 81 43 82 15 83 42 84
REMARK SMILES IDX 16 85 17 86 18 87 41 88 19 89 40 90 20 91 21 92 22 93 23 94
REMARK SMILES IDX 32 95 24 96 30 97 25 98 29 99 31 100 26 101 28 102 27 103
REMARK SMILES IDX 33 104 34 105 39 106 35 107 38 108 36 109 37 110
REMARK H PARENT 3 8 100 26 68 37 10 78
REMARK Flexibility Score: inf
ROOT
ATOM      1  C   UNL A   1      44.085  20.687  25.464  1.00  0.00     0.002 C 
ENDROOT
BRANCH   1   2
ATOM      2  C   UNL A   1      43.703  19.202  25.454  1.00  0.00     0.002 C 
BRANCH   2   3
ATOM      3  C   UNL A   1      42.479  18.812  26.293  1.00  0.00     0.021 C 
BRANCH   3   4
ATOM      4  C   UNL A   1      41.802  19.965  27.030  1.00  0.00     0.116 C 
BRANCH   4   5
ATOM      5  N   UNL A   1      40.507  20.345  26.507  1.00  0.00    -0.352 N 
ATOM      6  O   UNL A   1      38.804  21.491  25.697  1.00  0.00    -0.269 OA
ATOM      7  C   UNL A   1      39.842  21.531  26.365  1.00  0.00     0.251 C 
ATOM      8  H   UNL A   1      39.988  19.575  26.179  1.00  0.00     0.163 HD
BRANCH   7   9
ATOM      9  C   UNL A   1      40.229  22.814  27.014  1.00  0.00     0.039 A 
ATOM     10  C   UNL A   1      41.423  23.066  27.692  1.00  0.00     0.014 A 
ATOM     11  C   UNL A   1      39.278  23.849  26.924  1.00  0.00     0.014 A 
ATOM     12  C   UNL A   1      41.621  24.292  28.334  1.00  0.00     0.010 A 
ATOM     13  C   UNL A   1      39.472  25.071  27.559  1.00  0.00     0.010 A 
ATOM     14  C   UNL A   1      40.635  25.286  28.292  1.00  0.00    -0.014 A 
BRANCH  14  15
ATOM     15  C   UNL A   1      40.957  26.628  28.788  1.00  0.00     0.031 A 
ATOM     16  C   UNL A   1      42.129  27.232  28.092  1.00  0.00     0.074 A 
ATOM     17  C   UNL A   1      40.197  27.349  29.642  1.00  0.00     0.049 A 
ATOM     18  N   UNL A   1      43.286  27.521  28.590  1.00  0.00    -0.248 NA
ATOM     19  C   UNL A   1      42.069  27.368  26.625  1.00  0.00     0.031 C 
ATOM     20  C   UNL A   1      38.891  26.985  30.192  1.00  0.00     0.029 A 
ATOM     21  N   UNL A   1      40.385  28.614  30.131  1.00  0.00    -0.354 N 
ATOM     22  C   UNL A   1      44.004  28.122  27.558  1.00  0.00     0.074 A 
ATOM     23  C   UNL A   1      43.302  27.793  26.349  1.00  0.00     0.031 C 
ATOM     24  C   UNL A   1      38.314  28.077  30.746  1.00  0.00     0.029 A 
ATOM     25  C   UNL A   1      39.246  29.194  30.699  1.00  0.00     0.049 A 
ATOM     26  H   UNL A   1      41.252  29.079  30.086  1.00  0.00     0.167 HD
ATOM     27  C   UNL A   1      44.948  29.068  27.819  1.00  0.00     0.034 A 
ATOM     28  C   UNL A   1      39.057  30.499  31.061  1.00  0.00     0.034 A 
ATOM     29  C   UNL A   1      45.385  28.993  29.197  1.00  0.00     0.049 A 
ATOM     30  C   UNL A   1      40.402  31.096  31.245  1.00  0.00     0.074 A 
ATOM     31  C   UNL A   1      45.915  27.993  29.993  1.00  0.00     0.029 A 
ATOM     32  N   UNL A   1      44.946  29.959  30.075  1.00  0.00    -0.354 N 
ATOM     33  N   UNL A   1      41.218  30.737  32.196  1.00  0.00    -0.248 NA
ATOM     34  C   UNL A   1      41.028  31.728  30.094  1.00  0.00     0.031 C 
ATOM     35  C   UNL A   1      45.296  28.171  31.265  1.00  0.00     0.029 A 
ATOM     36  C   UNL A   1      44.506  29.320  31.205  1.00  0.00     0.049 A 
ATOM     37  H   UNL A   1      44.949  30.932  29.920  1.00  0.00     0.167 HD
ATOM     38  C   UNL A   1      42.460  30.670  31.587  1.00  0.00     0.074 A 
ATOM     39  C   UNL A   1      42.298  31.380  30.318  1.00  0.00     0.031 C 
ATOM     40  C   UNL A   1      43.419  29.805  32.032  1.00  0.00     0.034 A 
BRANCH  27  41
ATOM     41  C   UNL A   1      45.159  30.316  26.977  1.00  0.00     0.023 A 
ATOM     42  C   UNL A   1      46.485  30.770  26.841  1.00  0.00     0.031 A 
ATOM     43  C   UNL A   1      44.160  31.240  26.589  1.00  0.00     0.131 A 
ATOM     44  C   UNL A   1      46.763  32.107  26.508  1.00  0.00     0.055 A 
ATOM     45  C   UNL A   1      44.446  32.547  26.187  1.00  0.00     0.041 A 
ATOM     46  F   UNL A   1      42.852  30.973  26.652  1.00  0.00    -0.206 F 
ATOM     47  C   UNL A   1      45.751  33.003  26.186  1.00  0.00     0.022 A 
BRANCH  44  48
ATOM     48  S   UNL A   1      48.462  32.698  26.716  1.00  0.00     0.124 S 
ATOM     49  O   UNL A   1      49.219  31.472  26.488  1.00  0.00    -0.237 OA
ATOM     50  O   UNL A   1      48.553  33.715  25.674  1.00  0.00    -0.237 OA
ATOM     51  O   UNL A   1      48.478  33.204  28.085  1.00  0.00    -0.744 OA
ENDBRANCH  44  48
ENDBRANCH  27  41
BRANCH  28  52
ATOM     52  C   UNL A   1      37.814  31.331  30.952  1.00  0.00     0.023 A 
ATOM     53  C   UNL A   1      37.163  31.621  29.725  1.00  0.00     0.031 A 
ATOM     54  C   UNL A   1      37.093  31.644  32.127  1.00  0.00     0.131 A 
ATOM     55  C   UNL A   1      35.862  32.193  29.718  1.00  0.00     0.055 A 
ATOM     56  C   UNL A   1      35.813  32.204  32.111  1.00  0.00     0.041 A 
ATOM     57  F   UNL A   1      37.573  31.330  33.339  1.00  0.00    -0.206 F 
ATOM     58  C   UNL A   1      35.188  32.472  30.907  1.00  0.00     0.022 A 
BRANCH  55  59
ATOM     59  S   UNL A   1      34.970  32.511  28.151  1.00  0.00     0.124 S 
ATOM     60  O   UNL A   1      35.789  33.545  27.529  1.00  0.00    -0.237 OA
ATOM     61  O   UNL A   1      34.976  31.202  27.510  1.00  0.00    -0.237 OA
ATOM     62  O   UNL A   1      33.650  32.965  28.595  1.00  0.00    -0.744 OA
ENDBRANCH  55  59
ENDBRANCH  28  52
BRANCH  40  63
ATOM     63  C   UNL A   1      43.246  29.160  33.393  1.00  0.00     0.023 A 
ATOM     64  C   UNL A   1      43.775  29.654  34.608  1.00  0.00     0.031 A 
ATOM     65  C   UNL A   1      42.404  28.036  33.459  1.00  0.00     0.131 A 
ATOM     66  C   UNL A   1      43.461  29.012  35.824  1.00  0.00     0.055 A 
ATOM     67  C   UNL A   1      42.078  27.418  34.664  1.00  0.00     0.041 A 
ATOM     68  F   UNL A   1      41.851  27.532  32.343  1.00  0.00    -0.206 F 
ATOM     69  C   UNL A   1      42.613  27.900  35.852  1.00  0.00     0.022 A 
BRANCH  66  70
ATOM     70  S   UNL A   1      44.167  29.594  37.400  1.00  0.00     0.124 S 
ATOM     71  O   UNL A   1      44.334  28.370  38.175  1.00  0.00    -0.237 OA
ATOM     72  O   UNL A   1      45.399  30.252  36.970  1.00  0.00    -0.237 OA
ATOM     73  O   UNL A   1      43.144  30.506  37.915  1.00  0.00    -0.744 OA
ENDBRANCH  66  70
ENDBRANCH  40  63
ENDBRANCH  14  15
ENDBRANCH   7   9
ENDBRANCH   4   5
ENDBRANCH   3   4
ENDBRANCH   2   3
ENDBRANCH   1   2
BRANCH   1  74
ATOM     74  C   UNL A   1      45.375  21.048  24.722  1.00  0.00     0.021 C 
BRANCH  74  75
ATOM     75  C   UNL A   1      45.279  22.275  23.819  1.00  0.00     0.116 C 
BRANCH  75  76
ATOM     76  N   UNL A   1      44.046  23.019  24.025  1.00  0.00    -0.352 N 
ATOM     77  C   UNL A   1      43.791  24.062  24.880  1.00  0.00     0.251 C 
ATOM     78  H   UNL A   1      43.284  22.733  23.472  1.00  0.00     0.163 HD
ATOM     79  O   UNL A   1      42.652  24.489  25.036  1.00  0.00    -0.269 OA
BRANCH  77  80
ATOM     80  C   UNL A   1      44.901  24.654  25.655  1.00  0.00     0.039 A 
ATOM     81  C   UNL A   1      45.770  25.540  25.008  1.00  0.00     0.016 A 
ATOM     82  C   UNL A   1      45.082  24.335  27.004  1.00  0.00     0.016 A 
ATOM     83  C   UNL A   1      46.775  26.184  25.729  1.00  0.00     0.029 A 
ATOM     84  C   UNL A   1      46.107  24.949  27.721  1.00  0.00     0.029 A 
ATOM     85  C   UNL A   1      46.947  25.880  27.081  1.00  0.00     0.066 A 
BRANCH  85  86
ATOM     86  N   UNL A   1      48.032  26.441  27.784  1.00  0.00    -0.220 N 
ATOM     87  C   UNL A   1      48.596  25.933  28.920  1.00  0.00     0.141 A 
ATOM     88  N   UNL A   1      48.704  27.553  27.408  1.00  0.00    -0.062 NA
ATOM     89  C   UNL A   1      49.644  26.763  29.229  1.00  0.00     0.093 A 
ATOM     90  N   UNL A   1      49.648  27.790  28.319  1.00  0.00    -0.134 NA
BRANCH  89  91
ATOM     91  C   UNL A   1      50.484  26.777  30.448  1.00  0.00     0.138 C 
BRANCH  91  92
ATOM     92  S   UNL A   1      50.975  25.295  31.337  1.00  0.00    -0.081 SA
BRANCH  92  93
ATOM     93  C   UNL A   1      49.811  24.789  32.534  1.00  0.00     0.176 A 
ATOM     94  N   UNL A   1      48.641  25.321  32.321  1.00  0.00    -0.223 NA
ATOM     95  N   UNL A   1      50.032  23.915  33.590  1.00  0.00    -0.255 N 
ATOM     96  C   UNL A   1      47.628  25.120  33.262  1.00  0.00     0.079 A 
ATOM     97  C   UNL A   1      49.319  24.241  34.760  1.00  0.00     0.266 A 
ATOM     98  C   UNL A   1      46.296  25.409  32.961  1.00  0.00     0.029 A 
ATOM     99  C   UNL A   1      47.954  24.756  34.557  1.00  0.00     0.066 A 
ATOM    100  O   UNL A   1      49.734  24.157  35.905  1.00  0.00    -0.268 OA
ATOM    101  C   UNL A   1      45.329  25.411  33.973  1.00  0.00     0.002 A 
ATOM    102  C   UNL A   1      47.015  24.811  35.592  1.00  0.00     0.016 A 
ATOM    103  C   UNL A   1      45.697  25.156  35.296  1.00  0.00     0.001 A 
BRANCH  95 104
ATOM    104  C   UNL A   1      50.944  22.785  33.637  1.00  0.00     0.051 A 
ATOM    105  C   UNL A   1      50.439  21.467  33.589  1.00  0.00     0.028 A 
ATOM    106  C   UNL A   1      52.336  22.891  33.746  1.00  0.00     0.028 A 
ATOM    107  C   UNL A   1      51.222  20.354  33.918  1.00  0.00     0.022 A 
ATOM    108  C   UNL A   1      53.119  21.794  34.145  1.00  0.00     0.022 A 
ATOM    109  C   UNL A   1      52.546  20.538  34.277  1.00  0.00     0.041 A 
ATOM    110  Cl  UNL A   1      53.456  19.231  34.912  1.00  0.00    -0.084 Cl
ENDBRANCH  95 104
ENDBRANCH  92  93
ENDBRANCH  91  92
ENDBRANCH  89  91
ENDBRANCH  85  86
ENDBRANCH  77  80
ENDBRANCH  75  76
ENDBRANCH  74  75
ENDBRANCH   1  74
TORSDOF 21
ENDMDL
