MODEL 1
REMARK VINA RESULT:     -10.3      0.000      0.000
REMARK SMILES CC[N@@H+](C[C@@H](C)C(=O)NCCCCCCNC(=O)c1ccc(-c2c3nc(c(-c4cc(S(=O)(=O)[O-])ccc4F)c4ccc([nH]4)c(-c4cc(S(=O)(=O)[O-])ccc4F)c4nc(c(-c5cc(S(=O)(=O)[O-])ccc5F)c5ccc2[nH]5)C=C4)C=C3)cc1)[C@@H]1CCC[C@H](S(C)(=O)=O)C1
REMARK SMILES IDX 12 1 11 2 10 3 9 4 7 5 8 6 5 8 6 9 4 10 3 11 2 13 1 14 82 15
REMARK SMILES IDX 83 16 91 17 84 18 86 19 85 20 87 21 88 22 89 23 90 24 13 25
REMARK SMILES IDX 14 26 15 27 16 28 17 29 18 31 19 32 20 33 81 34 21 35 80 36
REMARK SMILES IDX 22 37 23 38 24 39 74 40 25 41 79 42 73 43 75 44 26 45 78 46
REMARK SMILES IDX 72 47 71 48 27 50 59 51 39 52 58 53 40 54 43 55 57 56 76 57
REMARK SMILES IDX 41 58 42 59 56 61 77 62 44 63 28 64 29 65 37 66 30 67 36 68
REMARK SMILES IDX 38 69 35 70 31 71 32 72 33 73 34 74 60 75 61 76 69 77 62 78
REMARK SMILES IDX 68 79 70 80 67 81 63 82 64 83 65 84 66 85 45 86 46 87 54 88
REMARK SMILES IDX 47 89 53 90 55 91 52 92 48 93 49 94 50 95 51 96
REMARK H PARENT 9 7 3 12 16 30 75 49 43 60
REMARK Flexibility Score: inf
ROOT
ATOM      1  C   UNL A   1      32.733  29.979  26.964  1.00  0.00     0.002 C 
ENDROOT
BRANCH   1   2
ATOM      2  C   UNL A   1      32.704  28.450  26.989  1.00  0.00     0.021 C 
BRANCH   2   3
ATOM      3  C   UNL A   1      31.303  27.903  27.228  1.00  0.00     0.116 C 
BRANCH   3   4
ATOM      4  N   UNL A   1      31.231  26.494  26.878  1.00  0.00    -0.356 N 
ATOM      5  C   UNL A   1      30.805  25.889  25.733  1.00  0.00     0.228 C 
ATOM      6  O   UNL A   1      30.834  24.657  25.683  1.00  0.00    -0.275 OA
ATOM      7  H   UNL A   1      31.538  25.877  27.581  1.00  0.00     0.163 HD
BRANCH   5   8
ATOM      8  C   UNL A   1      30.365  26.706  24.518  1.00  0.00     0.130 C 
ATOM      9  C   UNL A   1      28.911  26.332  24.233  1.00  0.00     0.024 C 
BRANCH   8  10
ATOM     10  C   UNL A   1      31.436  26.644  23.393  1.00  0.00     0.275 C 
BRANCH  10  11
ATOM     11  N   UNL A   1      32.805  26.152  23.657  1.00  0.00    -0.332 N 
ATOM     12  H   UNL A   1      32.734  25.825  24.621  1.00  0.00     0.348 HD
BRANCH  11  13
ATOM     13  C   UNL A   1      33.796  27.232  23.658  1.00  0.00     0.259 C 
ATOM     14  C   UNL A   1      33.208  28.612  23.380  1.00  0.00     0.071 C 
ENDBRANCH  11  13
BRANCH  11  15
ATOM     15  C   UNL A   1      33.237  24.825  23.142  1.00  0.00     0.185 C 
ATOM     16  C   UNL A   1      32.073  23.900  22.724  1.00  0.00     0.065 C 
ATOM     17  C   UNL A   1      34.311  24.156  24.028  1.00  0.00     0.084 C 
ATOM     18  C   UNL A   1      32.486  22.457  22.468  1.00  0.00     0.007 C 
ATOM     19  C   UNL A   1      34.562  22.648  23.879  1.00  0.00     0.114 C 
ATOM     20  C   UNL A   1      33.282  21.861  23.617  1.00  0.00     0.020 C 
BRANCH  19  21
ATOM     21  S   UNL A   1      35.371  22.076  25.418  1.00  0.00     0.150 S 
ATOM     22  C   UNL A   1      34.961  23.286  26.651  1.00  0.00     0.158 C 
ATOM     23  O   UNL A   1      34.751  20.826  25.803  1.00  0.00    -0.229 OA
ATOM     24  O   UNL A   1      36.812  22.132  25.222  1.00  0.00    -0.229 OA
ENDBRANCH  19  21
ENDBRANCH  11  15
ENDBRANCH  10  11
ENDBRANCH   8  10
ENDBRANCH   5   8
ENDBRANCH   3   4
ENDBRANCH   2   3
ENDBRANCH   1   2
BRANCH   1  25
ATOM     25  C   UNL A   1      31.449  30.620  26.420  1.00  0.00     0.002 C 
BRANCH  25  26
ATOM     26  C   UNL A   1      31.394  32.145  26.545  1.00  0.00     0.021 C 
BRANCH  26  27
ATOM     27  C   UNL A   1      32.735  32.789  26.875  1.00  0.00     0.116 C 
BRANCH  27  28
ATOM     28  N   UNL A   1      32.560  34.068  27.549  1.00  0.00    -0.352 N 
ATOM     29  C   UNL A   1      33.172  34.536  28.684  1.00  0.00     0.251 C 
ATOM     30  H   UNL A   1      31.913  34.682  27.133  1.00  0.00     0.163 HD
ATOM     31  O   UNL A   1      32.728  35.524  29.261  1.00  0.00    -0.269 OA
BRANCH  29  32
ATOM     32  C   UNL A   1      34.357  33.827  29.204  1.00  0.00     0.039 A 
ATOM     33  C   UNL A   1      35.629  34.332  28.930  1.00  0.00     0.014 A 
ATOM     34  C   UNL A   1      34.203  32.671  29.975  1.00  0.00     0.014 A 
ATOM     35  C   UNL A   1      36.747  33.708  29.484  1.00  0.00     0.010 A 
ATOM     36  C   UNL A   1      35.312  32.098  30.587  1.00  0.00     0.010 A 
ATOM     37  C   UNL A   1      36.595  32.609  30.345  1.00  0.00    -0.014 A 
BRANCH  37  38
ATOM     38  C   UNL A   1      37.766  31.970  30.999  1.00  0.00     0.031 A 
ATOM     39  C   UNL A   1      38.567  30.937  30.255  1.00  0.00     0.074 A 
ATOM     40  C   UNL A   1      38.068  32.278  32.276  1.00  0.00     0.049 A 
ATOM     41  N   UNL A   1      39.560  30.199  30.677  1.00  0.00    -0.248 NA
ATOM     42  C   UNL A   1      38.177  30.680  28.860  1.00  0.00     0.031 C 
ATOM     43  C   UNL A   1      37.347  33.247  33.105  1.00  0.00     0.029 A 
ATOM     44  N   UNL A   1      39.054  31.805  33.105  1.00  0.00    -0.354 N 
ATOM     45  C   UNL A   1      39.911  29.388  29.604  1.00  0.00     0.074 A 
ATOM     46  C   UNL A   1      38.978  29.677  28.536  1.00  0.00     0.031 C 
ATOM     47  C   UNL A   1      37.934  33.317  34.310  1.00  0.00     0.029 A 
ATOM     48  C   UNL A   1      39.032  32.359  34.364  1.00  0.00     0.049 A 
ATOM     49  H   UNL A   1      39.715  31.132  32.824  1.00  0.00     0.167 HD
ATOM     50  C   UNL A   1      40.934  28.503  29.509  1.00  0.00     0.034 A 
ATOM     51  C   UNL A   1      39.798  32.108  35.444  1.00  0.00     0.034 A 
ATOM     52  C   UNL A   1      41.856  28.230  30.584  1.00  0.00     0.049 A 
ATOM     53  C   UNL A   1      40.891  31.073  35.334  1.00  0.00     0.074 A 
ATOM     54  C   UNL A   1      42.947  27.378  30.589  1.00  0.00     0.029 A 
ATOM     55  N   UNL A   1      41.791  28.796  31.852  1.00  0.00    -0.354 N 
ATOM     56  N   UNL A   1      41.234  30.340  34.299  1.00  0.00    -0.248 NA
ATOM     57  C   UNL A   1      41.705  30.836  36.533  1.00  0.00     0.031 C 
ATOM     58  C   UNL A   1      43.493  27.371  31.875  1.00  0.00     0.029 A 
ATOM     59  C   UNL A   1      42.802  28.286  32.653  1.00  0.00     0.049 A 
ATOM     60  H   UNL A   1      41.125  29.461  32.139  1.00  0.00     0.167 HD
ATOM     61  C   UNL A   1      42.330  29.587  34.713  1.00  0.00     0.074 A 
ATOM     62  C   UNL A   1      42.596  29.963  36.085  1.00  0.00     0.031 C 
ATOM     63  C   UNL A   1      43.055  28.671  34.021  1.00  0.00     0.034 A 
BRANCH  50  64
ATOM     64  C   UNL A   1      41.091  27.755  28.207  1.00  0.00     0.023 A 
ATOM     65  C   UNL A   1      40.754  26.394  28.095  1.00  0.00     0.031 A 
ATOM     66  C   UNL A   1      41.597  28.401  27.067  1.00  0.00     0.131 A 
ATOM     67  C   UNL A   1      40.994  25.708  26.895  1.00  0.00     0.055 A 
ATOM     68  C   UNL A   1      41.754  27.734  25.850  1.00  0.00     0.041 A 
ATOM     69  F   UNL A   1      41.959  29.693  27.116  1.00  0.00    -0.206 F 
ATOM     70  C   UNL A   1      41.466  26.375  25.763  1.00  0.00     0.022 A 
BRANCH  67  71
ATOM     71  S   UNL A   1      40.819  23.903  26.881  1.00  0.00     0.124 S 
ATOM     72  O   UNL A   1      41.786  23.520  25.856  1.00  0.00    -0.237 OA
ATOM     73  O   UNL A   1      41.162  23.542  28.252  1.00  0.00    -0.237 OA
ATOM     74  O   UNL A   1      39.418  23.698  26.515  1.00  0.00    -0.744 OA
ENDBRANCH  67  71
ENDBRANCH  50  64
BRANCH  51  75
ATOM     75  C   UNL A   1      39.562  32.828  36.730  1.00  0.00     0.023 A 
ATOM     76  C   UNL A   1      38.636  32.344  37.667  1.00  0.00     0.031 A 
ATOM     77  C   UNL A   1      40.208  34.046  37.014  1.00  0.00     0.131 A 
ATOM     78  C   UNL A   1      38.335  33.101  38.810  1.00  0.00     0.055 A 
ATOM     79  C   UNL A   1      39.954  34.761  38.185  1.00  0.00     0.041 A 
ATOM     80  F   UNL A   1      41.103  34.558  36.154  1.00  0.00    -0.206 F 
ATOM     81  C   UNL A   1      38.999  34.297  39.084  1.00  0.00     0.022 A 
BRANCH  78  82
ATOM     82  S   UNL A   1      36.972  32.555  39.876  1.00  0.00     0.124 S 
ATOM     83  O   UNL A   1      37.367  31.185  40.182  1.00  0.00    -0.237 OA
ATOM     84  O   UNL A   1      37.048  33.508  40.977  1.00  0.00    -0.237 OA
ATOM     85  O   UNL A   1      35.797  32.689  39.016  1.00  0.00    -0.744 OA
ENDBRANCH  78  82
ENDBRANCH  51  75
BRANCH  63  86
ATOM     86  C   UNL A   1      44.244  28.059  34.723  1.00  0.00     0.023 A 
ATOM     87  C   UNL A   1      44.169  26.810  35.364  1.00  0.00     0.031 A 
ATOM     88  C   UNL A   1      45.475  28.741  34.745  1.00  0.00     0.131 A 
ATOM     89  C   UNL A   1      45.287  26.308  36.046  1.00  0.00     0.055 A 
ATOM     90  C   UNL A   1      46.602  28.204  35.368  1.00  0.00     0.041 A 
ATOM     91  F   UNL A   1      45.603  29.939  34.152  1.00  0.00    -0.206 F 
ATOM     92  C   UNL A   1      46.509  26.986  36.034  1.00  0.00     0.022 A 
BRANCH  89  93
ATOM     93  S   UNL A   1      45.101  24.795  37.029  1.00  0.00     0.124 S 
ATOM     94  O   UNL A   1      44.036  24.097  36.314  1.00  0.00    -0.237 OA
ATOM     95  O   UNL A   1      46.428  24.195  36.935  1.00  0.00    -0.237 OA
ATOM     96  O   UNL A   1      44.737  25.289  38.356  1.00  0.00    -0.744 OA
ENDBRANCH  89  93
ENDBRANCH  63  86
ENDBRANCH  37  38
ENDBRANCH  29  32
ENDBRANCH  27  28
ENDBRANCH  26  27
ENDBRANCH  25  26
ENDBRANCH   1  25
TORSDOF 21
ENDMDL
MODEL 2
REMARK VINA RESULT:     -10.1      2.142      8.009
REMARK SMILES CC[N@@H+](C[C@@H](C)C(=O)NCCCCCCNC(=O)c1ccc(-c2c3nc(c(-c4cc(S(=O)(=O)[O-])ccc4F)c4ccc([nH]4)c(-c4cc(S(=O)(=O)[O-])ccc4F)c4nc(c(-c5cc(S(=O)(=O)[O-])ccc5F)c5ccc2[nH]5)C=C4)C=C3)cc1)[C@@H]1CCC[C@H](S(C)(=O)=O)C1
REMARK SMILES IDX 12 1 11 2 10 3 9 4 7 5 8 6 5 8 6 9 4 10 3 11 2 13 1 14 82 15
REMARK SMILES IDX 83 16 91 17 84 18 86 19 85 20 87 21 88 22 89 23 90 24 13 25
REMARK SMILES IDX 14 26 15 27 16 28 17 29 18 31 19 32 20 33 81 34 21 35 80 36
REMARK SMILES IDX 22 37 23 38 24 39 74 40 25 41 79 42 73 43 75 44 26 45 78 46
REMARK SMILES IDX 72 47 71 48 27 50 59 51 39 52 58 53 40 54 43 55 57 56 76 57
REMARK SMILES IDX 41 58 42 59 56 61 77 62 44 63 28 64 29 65 37 66 30 67 36 68
REMARK SMILES IDX 38 69 35 70 31 71 32 72 33 73 34 74 60 75 61 76 69 77 62 78
REMARK SMILES IDX 68 79 70 80 67 81 63 82 64 83 65 84 66 85 45 86 46 87 54 88
REMARK SMILES IDX 47 89 53 90 55 91 52 92 48 93 49 94 50 95 51 96
REMARK H PARENT 9 7 3 12 16 30 75 49 43 60
REMARK Flexibility Score: inf
ROOT
ATOM      1  C   UNL A   1      31.333  29.292  24.504  1.00  0.00     0.002 C 
ENDROOT
BRANCH   1   2
ATOM      2  C   UNL A   1      31.441  28.379  23.282  1.00  0.00     0.021 C 
BRANCH   2   3
ATOM      3  C   UNL A   1      32.750  28.575  22.529  1.00  0.00     0.116 C 
BRANCH   3   4
ATOM      4  N   UNL A   1      33.321  27.296  22.140  1.00  0.00    -0.356 N 
ATOM      5  C   UNL A   1      33.580  26.182  22.883  1.00  0.00     0.228 C 
ATOM      6  O   UNL A   1      34.083  25.210  22.314  1.00  0.00    -0.275 OA
ATOM      7  H   UNL A   1      33.560  27.222  21.188  1.00  0.00     0.163 HD
BRANCH   5   8
ATOM      8  C   UNL A   1      33.200  26.107  24.362  1.00  0.00     0.130 C 
ATOM      9  C   UNL A   1      34.473  26.379  25.163  1.00  0.00     0.024 C 
BRANCH   8  10
ATOM     10  C   UNL A   1      32.337  24.846  24.647  1.00  0.00     0.275 C 
BRANCH  10  11
ATOM     11  N   UNL A   1      32.692  23.525  24.084  1.00  0.00    -0.332 N 
ATOM     12  H   UNL A   1      33.493  23.750  23.494  1.00  0.00     0.348 HD
BRANCH  11  13
ATOM     13  C   UNL A   1      31.654  23.002  23.192  1.00  0.00     0.259 C 
ATOM     14  C   UNL A   1      30.379  23.840  23.167  1.00  0.00     0.071 C 
ENDBRANCH  11  13
BRANCH  11  15
ATOM     15  C   UNL A   1      33.453  22.543  24.900  1.00  0.00     0.185 C 
ATOM     16  C   UNL A   1      34.986  22.652  24.754  1.00  0.00     0.065 C 
ATOM     17  C   UNL A   1      32.892  21.107  24.793  1.00  0.00     0.084 C 
ATOM     18  C   UNL A   1      35.755  21.483  25.356  1.00  0.00     0.007 C 
ATOM     19  C   UNL A   1      33.778  19.930  25.227  1.00  0.00     0.114 C 
ATOM     20  C   UNL A   1      35.247  20.135  24.872  1.00  0.00     0.020 C 
BRANCH  19  21
ATOM     21  S   UNL A   1      33.119  18.426  24.419  1.00  0.00     0.150 S 
ATOM     22  C   UNL A   1      32.256  18.998  22.976  1.00  0.00     0.158 C 
ATOM     23  O   UNL A   1      34.247  17.635  23.973  1.00  0.00    -0.229 OA
ATOM     24  O   UNL A   1      32.130  17.830  25.304  1.00  0.00    -0.229 OA
ENDBRANCH  19  21
ENDBRANCH  11  15
ENDBRANCH  10  11
ENDBRANCH   8  10
ENDBRANCH   5   8
ENDBRANCH   3   4
ENDBRANCH   2   3
ENDBRANCH   1   2
BRANCH   1  25
ATOM     25  C   UNL A   1      31.172  28.542  25.833  1.00  0.00     0.002 C 
BRANCH  25  26
ATOM     26  C   UNL A   1      31.967  29.133  27.000  1.00  0.00     0.021 C 
BRANCH  26  27
ATOM     27  C   UNL A   1      33.251  29.840  26.581  1.00  0.00     0.116 C 
BRANCH  27  28
ATOM     28  N   UNL A   1      33.210  31.258  26.912  1.00  0.00    -0.352 N 
ATOM     29  C   UNL A   1      34.024  31.972  27.753  1.00  0.00     0.251 C 
ATOM     30  H   UNL A   1      32.499  31.776  26.470  1.00  0.00     0.163 HD
ATOM     31  O   UNL A   1      33.699  33.098  28.116  1.00  0.00    -0.269 OA
BRANCH  29  32
ATOM     32  C   UNL A   1      35.282  31.361  28.222  1.00  0.00     0.039 A 
ATOM     33  C   UNL A   1      36.459  32.111  28.189  1.00  0.00     0.014 A 
ATOM     34  C   UNL A   1      35.289  30.050  28.707  1.00  0.00     0.014 A 
ATOM     35  C   UNL A   1      37.635  31.563  28.702  1.00  0.00     0.010 A 
ATOM     36  C   UNL A   1      36.444  29.536  29.287  1.00  0.00     0.010 A 
ATOM     37  C   UNL A   1      37.629  30.286  29.288  1.00  0.00    -0.014 A 
BRANCH  37  38
ATOM     38  C   UNL A   1      38.852  29.710  29.901  1.00  0.00     0.031 A 
ATOM     39  C   UNL A   1      39.336  30.223  31.230  1.00  0.00     0.074 A 
ATOM     40  C   UNL A   1      39.555  28.773  29.235  1.00  0.00     0.049 A 
ATOM     41  N   UNL A   1      40.426  29.921  31.886  1.00  0.00    -0.248 NA
ATOM     42  C   UNL A   1      38.495  31.231  31.893  1.00  0.00     0.031 C 
ATOM     43  C   UNL A   1      39.196  28.218  27.928  1.00  0.00     0.029 A 
ATOM     44  N   UNL A   1      40.721  28.126  29.558  1.00  0.00    -0.354 N 
ATOM     45  C   UNL A   1      40.404  30.703  33.035  1.00  0.00     0.074 A 
ATOM     46  C   UNL A   1      39.228  31.543  32.950  1.00  0.00     0.031 C 
ATOM     47  C   UNL A   1      40.105  27.294  27.577  1.00  0.00     0.029 A 
ATOM     48  C   UNL A   1      41.142  27.232  28.601  1.00  0.00     0.049 A 
ATOM     49  H   UNL A   1      41.210  28.286  30.397  1.00  0.00     0.167 HD
ATOM     50  C   UNL A   1      41.272  30.702  34.077  1.00  0.00     0.034 A 
ATOM     51  C   UNL A   1      42.249  26.464  28.546  1.00  0.00     0.034 A 
ATOM     52  C   UNL A   1      42.438  29.856  34.146  1.00  0.00     0.049 A 
ATOM     53  C   UNL A   1      43.232  26.527  29.690  1.00  0.00     0.074 A 
ATOM     54  C   UNL A   1      43.367  29.749  35.166  1.00  0.00     0.029 A 
ATOM     55  N   UNL A   1      42.843  28.977  33.149  1.00  0.00    -0.354 N 
ATOM     56  N   UNL A   1      43.178  27.246  30.788  1.00  0.00    -0.248 NA
ATOM     57  C   UNL A   1      44.420  25.669  29.592  1.00  0.00     0.031 C 
ATOM     58  C   UNL A   1      44.370  28.866  34.756  1.00  0.00     0.029 A 
ATOM     59  C   UNL A   1      44.024  28.350  33.518  1.00  0.00     0.049 A 
ATOM     60  H   UNL A   1      42.362  28.822  32.304  1.00  0.00     0.167 HD
ATOM     61  C   UNL A   1      44.305  26.894  31.527  1.00  0.00     0.074 A 
ATOM     62  C   UNL A   1      45.011  25.892  30.757  1.00  0.00     0.031 C 
ATOM     63  C   UNL A   1      44.717  27.353  32.737  1.00  0.00     0.034 A 
BRANCH  50  64
ATOM     64  C   UNL A   1      41.000  31.661  35.212  1.00  0.00     0.023 A 
ATOM     65  C   UNL A   1      39.929  31.463  36.102  1.00  0.00     0.031 A 
ATOM     66  C   UNL A   1      41.808  32.795  35.400  1.00  0.00     0.131 A 
ATOM     67  C   UNL A   1      39.653  32.419  37.091  1.00  0.00     0.055 A 
ATOM     68  C   UNL A   1      41.580  33.699  36.439  1.00  0.00     0.041 A 
ATOM     69  F   UNL A   1      42.831  33.051  34.568  1.00  0.00    -0.206 F 
ATOM     70  C   UNL A   1      40.487  33.522  37.283  1.00  0.00     0.022 A 
BRANCH  67  71
ATOM     71  S   UNL A   1      38.104  32.276  38.024  1.00  0.00     0.124 S 
ATOM     72  O   UNL A   1      37.370  33.451  37.561  1.00  0.00    -0.237 OA
ATOM     73  O   UNL A   1      37.589  30.985  37.584  1.00  0.00    -0.237 OA
ATOM     74  O   UNL A   1      38.539  32.331  39.419  1.00  0.00    -0.744 OA
ENDBRANCH  67  71
ENDBRANCH  50  64
BRANCH  51  75
ATOM     75  C   UNL A   1      42.507  25.580  27.372  1.00  0.00     0.023 A 
ATOM     76  C   UNL A   1      42.015  24.266  27.338  1.00  0.00     0.031 A 
ATOM     77  C   UNL A   1      43.304  26.011  26.295  1.00  0.00     0.131 A 
ATOM     78  C   UNL A   1      42.375  23.410  26.285  1.00  0.00     0.055 A 
ATOM     79  C   UNL A   1      43.603  25.177  25.217  1.00  0.00     0.041 A 
ATOM     80  F   UNL A   1      43.803  27.257  26.274  1.00  0.00    -0.206 F 
ATOM     81  C   UNL A   1      43.151  23.861  25.217  1.00  0.00     0.022 A 
BRANCH  78  82
ATOM     82  S   UNL A   1      41.910  21.659  26.394  1.00  0.00     0.124 S 
ATOM     83  O   UNL A   1      42.725  21.072  25.337  1.00  0.00    -0.237 OA
ATOM     84  O   UNL A   1      42.294  21.329  27.761  1.00  0.00    -0.237 OA
ATOM     85  O   UNL A   1      40.471  21.676  26.138  1.00  0.00    -0.744 OA
ENDBRANCH  78  82
ENDBRANCH  51  75
BRANCH  63  86
ATOM     86  C   UNL A   1      45.959  26.728  33.326  1.00  0.00     0.023 A 
ATOM     87  C   UNL A   1      45.906  25.570  34.121  1.00  0.00     0.031 A 
ATOM     88  C   UNL A   1      47.219  27.305  33.081  1.00  0.00     0.131 A 
ATOM     89  C   UNL A   1      47.083  25.057  34.687  1.00  0.00     0.055 A 
ATOM     90  C   UNL A   1      48.393  26.751  33.593  1.00  0.00     0.041 A 
ATOM     91  F   UNL A   1      47.329  28.414  32.332  1.00  0.00    -0.206 F 
ATOM     92  C   UNL A   1      48.328  25.628  34.411  1.00  0.00     0.022 A 
BRANCH  89  93
ATOM     93  S   UNL A   1      46.957  23.686  35.867  1.00  0.00     0.124 S 
ATOM     94  O   UNL A   1      45.605  23.857  36.388  1.00  0.00    -0.237 OA
ATOM     95  O   UNL A   1      47.166  22.519  35.015  1.00  0.00    -0.237 OA
ATOM     96  O   UNL A   1      48.029  23.955  36.824  1.00  0.00    -0.744 OA
ENDBRANCH  89  93
ENDBRANCH  63  86
ENDBRANCH  37  38
ENDBRANCH  29  32
ENDBRANCH  27  28
ENDBRANCH  26  27
ENDBRANCH  25  26
ENDBRANCH   1  25
TORSDOF 21
ENDMDL
MODEL 3
REMARK VINA RESULT:     -10.0      2.454      3.899
REMARK SMILES CC[N@@H+](C[C@@H](C)C(=O)NCCCCCCNC(=O)c1ccc(-c2c3nc(c(-c4cc(S(=O)(=O)[O-])ccc4F)c4ccc([nH]4)c(-c4cc(S(=O)(=O)[O-])ccc4F)c4nc(c(-c5cc(S(=O)(=O)[O-])ccc5F)c5ccc2[nH]5)C=C4)C=C3)cc1)[C@@H]1CCC[C@H](S(C)(=O)=O)C1
REMARK SMILES IDX 12 1 11 2 10 3 9 4 7 5 8 6 5 8 6 9 4 10 3 11 2 13 1 14 82 15
REMARK SMILES IDX 83 16 91 17 84 18 86 19 85 20 87 21 88 22 89 23 90 24 13 25
REMARK SMILES IDX 14 26 15 27 16 28 17 29 18 31 19 32 20 33 81 34 21 35 80 36
REMARK SMILES IDX 22 37 23 38 24 39 74 40 25 41 79 42 73 43 75 44 26 45 78 46
REMARK SMILES IDX 72 47 71 48 27 50 59 51 39 52 58 53 40 54 43 55 57 56 76 57
REMARK SMILES IDX 41 58 42 59 56 61 77 62 44 63 28 64 29 65 37 66 30 67 36 68
REMARK SMILES IDX 38 69 35 70 31 71 32 72 33 73 34 74 60 75 61 76 69 77 62 78
REMARK SMILES IDX 68 79 70 80 67 81 63 82 64 83 65 84 66 85 45 86 46 87 54 88
REMARK SMILES IDX 47 89 53 90 55 91 52 92 48 93 49 94 50 95 51 96
REMARK H PARENT 9 7 3 12 16 30 75 49 43 60
REMARK Flexibility Score: inf
ROOT
ATOM      1  C   UNL A   1      33.258  26.543  23.866  1.00  0.00     0.002 C 
ENDROOT
BRANCH   1   2
ATOM      2  C   UNL A   1      34.074  26.060  25.065  1.00  0.00     0.021 C 
BRANCH   2   3
ATOM      3  C   UNL A   1      34.189  24.542  25.112  1.00  0.00     0.116 C 
BRANCH   3   4
ATOM      4  N   UNL A   1      35.029  24.051  24.031  1.00  0.00    -0.356 N 
ATOM      5  C   UNL A   1      35.719  22.882  23.910  1.00  0.00     0.228 C 
ATOM      6  O   UNL A   1      36.376  22.700  22.882  1.00  0.00    -0.275 OA
ATOM      7  H   UNL A   1      35.113  24.662  23.264  1.00  0.00     0.163 HD
BRANCH   5   8
ATOM      8  C   UNL A   1      35.634  21.794  24.982  1.00  0.00     0.130 C 
ATOM      9  C   UNL A   1      37.033  21.648  25.580  1.00  0.00     0.024 C 
BRANCH   8  10
ATOM     10  C   UNL A   1      34.866  20.552  24.449  1.00  0.00     0.275 C 
BRANCH  10  11
ATOM     11  N   UNL A   1      33.538  20.179  24.984  1.00  0.00    -0.332 N 
ATOM     12  H   UNL A   1      33.540  20.630  25.899  1.00  0.00     0.348 HD
BRANCH  11  13
ATOM     13  C   UNL A   1      33.422  18.739  25.232  1.00  0.00     0.259 C 
ATOM     14  C   UNL A   1      34.239  17.877  24.275  1.00  0.00     0.071 C 
ENDBRANCH  11  13
BRANCH  11  15
ATOM     15  C   UNL A   1      32.318  20.898  24.529  1.00  0.00     0.185 C 
ATOM     16  C   UNL A   1      32.488  21.645  23.189  1.00  0.00     0.065 C 
ATOM     17  C   UNL A   1      31.652  21.723  25.652  1.00  0.00     0.084 C 
ATOM     18  C   UNL A   1      31.351  22.604  22.862  1.00  0.00     0.007 C 
ATOM     19  C   UNL A   1      30.652  22.824  25.271  1.00  0.00     0.114 C 
ATOM     20  C   UNL A   1      31.049  23.566  23.999  1.00  0.00     0.020 C 
BRANCH  19  21
ATOM     21  S   UNL A   1      30.545  23.977  26.688  1.00  0.00     0.150 S 
ATOM     22  C   UNL A   1      30.398  25.597  25.975  1.00  0.00     0.158 C 
ATOM     23  O   UNL A   1      29.314  23.694  27.396  1.00  0.00    -0.229 OA
ATOM     24  O   UNL A   1      31.811  23.936  27.405  1.00  0.00    -0.229 OA
ENDBRANCH  19  21
ENDBRANCH  11  15
ENDBRANCH  10  11
ENDBRANCH   8  10
ENDBRANCH   5   8
ENDBRANCH   3   4
ENDBRANCH   2   3
ENDBRANCH   1   2
BRANCH   1  25
ATOM     25  C   UNL A   1      33.242  28.068  23.694  1.00  0.00     0.002 C 
BRANCH  25  26
ATOM     26  C   UNL A   1      32.430  28.821  24.751  1.00  0.00     0.021 C 
BRANCH  26  27
ATOM     27  C   UNL A   1      33.259  29.327  25.925  1.00  0.00     0.116 C 
BRANCH  27  28
ATOM     28  N   UNL A   1      32.909  30.698  26.273  1.00  0.00    -0.352 N 
ATOM     29  C   UNL A   1      33.492  31.530  27.195  1.00  0.00     0.251 C 
ATOM     30  H   UNL A   1      32.150  31.080  25.778  1.00  0.00     0.163 HD
ATOM     31  O   UNL A   1      32.920  32.557  27.545  1.00  0.00    -0.269 OA
BRANCH  29  32
ATOM     32  C   UNL A   1      34.802  31.163  27.765  1.00  0.00     0.039 A 
ATOM     33  C   UNL A   1      35.756  32.159  27.980  1.00  0.00     0.014 A 
ATOM     34  C   UNL A   1      35.077  29.833  28.098  1.00  0.00     0.014 A 
ATOM     35  C   UNL A   1      36.967  31.828  28.588  1.00  0.00     0.010 A 
ATOM     36  C   UNL A   1      36.251  29.520  28.773  1.00  0.00     0.010 A 
ATOM     37  C   UNL A   1      37.209  30.514  29.023  1.00  0.00    -0.014 A 
BRANCH  37  38
ATOM     38  C   UNL A   1      38.462  30.152  29.733  1.00  0.00     0.031 A 
ATOM     39  C   UNL A   1      39.410  29.159  29.119  1.00  0.00     0.074 A 
ATOM     40  C   UNL A   1      38.714  30.672  30.951  1.00  0.00     0.049 A 
ATOM     41  N   UNL A   1      40.503  28.642  29.617  1.00  0.00    -0.248 NA
ATOM     42  C   UNL A   1      39.064  28.660  27.779  1.00  0.00     0.031 C 
ATOM     43  C   UNL A   1      37.854  31.626  31.656  1.00  0.00     0.029 A 
ATOM     44  N   UNL A   1      39.759  30.468  31.816  1.00  0.00    -0.354 N 
ATOM     45  C   UNL A   1      40.973  27.755  28.654  1.00  0.00     0.074 A 
ATOM     46  C   UNL A   1      40.008  27.753  27.576  1.00  0.00     0.031 C 
ATOM     47  C   UNL A   1      38.422  31.946  32.829  1.00  0.00     0.029 A 
ATOM     48  C   UNL A   1      39.653  31.178  32.989  1.00  0.00     0.049 A 
ATOM     49  H   UNL A   1      40.514  29.870  31.615  1.00  0.00     0.167 HD
ATOM     50  C   UNL A   1      42.118  27.028  28.659  1.00  0.00     0.034 A 
ATOM     51  C   UNL A   1      40.447  31.194  34.079  1.00  0.00     0.034 A 
ATOM     52  C   UNL A   1      43.070  27.044  29.743  1.00  0.00     0.049 A 
ATOM     53  C   UNL A   1      41.684  30.328  34.086  1.00  0.00     0.074 A 
ATOM     54  C   UNL A   1      44.277  26.373  29.840  1.00  0.00     0.029 A 
ATOM     55  N   UNL A   1      42.919  27.760  30.924  1.00  0.00    -0.354 N 
ATOM     56  N   UNL A   1      42.134  29.521  33.152  1.00  0.00    -0.248 NA
ATOM     57  C   UNL A   1      42.523  30.381  35.290  1.00  0.00     0.031 C 
ATOM     58  C   UNL A   1      44.817  26.622  31.105  1.00  0.00     0.029 A 
ATOM     59  C   UNL A   1      43.995  27.521  31.766  1.00  0.00     0.049 A 
ATOM     60  H   UNL A   1      42.160  28.351  31.133  1.00  0.00     0.167 HD
ATOM     61  C   UNL A   1      43.330  29.004  33.643  1.00  0.00     0.074 A 
ATOM     62  C   UNL A   1      43.536  29.599  34.946  1.00  0.00     0.031 C 
ATOM     63  C   UNL A   1      44.186  28.122  33.065  1.00  0.00     0.034 A 
BRANCH  50  64
ATOM     64  C   UNL A   1      42.387  26.142  27.467  1.00  0.00     0.023 A 
ATOM     65  C   UNL A   1      41.933  24.812  27.421  1.00  0.00     0.031 A 
ATOM     66  C   UNL A   1      43.118  26.624  26.367  1.00  0.00     0.131 A 
ATOM     67  C   UNL A   1      42.275  23.990  26.337  1.00  0.00     0.055 A 
ATOM     68  C   UNL A   1      43.382  25.827  25.252  1.00  0.00     0.041 A 
ATOM     69  F   UNL A   1      43.598  27.878  26.361  1.00  0.00    -0.206 F 
ATOM     70  C   UNL A   1      42.973  24.497  25.238  1.00  0.00     0.022 A 
BRANCH  67  71
ATOM     71  S   UNL A   1      41.921  22.215  26.451  1.00  0.00     0.124 S 
ATOM     72  O   UNL A   1      42.431  21.898  27.783  1.00  0.00    -0.237 OA
ATOM     73  O   UNL A   1      40.473  22.171  26.292  1.00  0.00    -0.237 OA
ATOM     74  O   UNL A   1      42.688  21.642  25.346  1.00  0.00    -0.744 OA
ENDBRANCH  67  71
ENDBRANCH  50  64
BRANCH  51  75
ATOM     75  C   UNL A   1      40.104  32.038  35.261  1.00  0.00     0.023 A 
ATOM     76  C   UNL A   1      39.207  31.579  36.237  1.00  0.00     0.031 A 
ATOM     77  C   UNL A   1      40.616  33.342  35.399  1.00  0.00     0.131 A 
ATOM     78  C   UNL A   1      38.799  32.436  37.272  1.00  0.00     0.055 A 
ATOM     79  C   UNL A   1      40.259  34.165  36.468  1.00  0.00     0.041 A 
ATOM     80  F   UNL A   1      41.477  33.835  34.495  1.00  0.00    -0.206 F 
ATOM     81  C   UNL A   1      39.331  33.719  37.404  1.00  0.00     0.022 A 
BRANCH  78  82
ATOM     82  S   UNL A   1      37.469  31.887  38.378  1.00  0.00     0.124 S 
ATOM     83  O   UNL A   1      37.199  30.547  37.870  1.00  0.00    -0.237 OA
ATOM     84  O   UNL A   1      38.112  31.963  39.684  1.00  0.00    -0.237 OA
ATOM     85  O   UNL A   1      36.411  32.868  38.145  1.00  0.00    -0.744 OA
ENDBRANCH  78  82
ENDBRANCH  51  75
BRANCH  63  86
ATOM     86  C   UNL A   1      45.453  27.795  33.819  1.00  0.00     0.023 A 
ATOM     87  C   UNL A   1      46.627  28.551  33.667  1.00  0.00     0.031 A 
ATOM     88  C   UNL A   1      45.479  26.705  34.710  1.00  0.00     0.131 A 
ATOM     89  C   UNL A   1      47.793  28.176  34.351  1.00  0.00     0.055 A 
ATOM     90  C   UNL A   1      46.623  26.378  35.437  1.00  0.00     0.041 A 
ATOM     91  F   UNL A   1      44.387  25.945  34.891  1.00  0.00    -0.206 F 
ATOM     92  C   UNL A   1      47.793  27.107  35.251  1.00  0.00     0.022 A 
BRANCH  89  93
ATOM     93  S   UNL A   1      49.340  29.047  33.980  1.00  0.00     0.124 S 
ATOM     94  O   UNL A   1      50.183  27.968  33.475  1.00  0.00    -0.237 OA
ATOM     95  O   UNL A   1      48.915  30.036  32.995  1.00  0.00    -0.237 OA
ATOM     96  O   UNL A   1      49.745  29.596  35.274  1.00  0.00    -0.744 OA
ENDBRANCH  89  93
ENDBRANCH  63  86
ENDBRANCH  37  38
ENDBRANCH  29  32
ENDBRANCH  27  28
ENDBRANCH  26  27
ENDBRANCH  25  26
ENDBRANCH   1  25
TORSDOF 21
ENDMDL
