MODEL 1
REMARK VINA RESULT:     -12.3      0.000      0.000
REMARK SMILES N#Cc1ccc2c(c1)C=C(C(=O)NCCCCCCNC(=O)c1ccc(-c3c4nc(c(-c5cc(S(=O)(=O)[O-])ccc5F)c5ccc([nH]5)c(-c5cc(S(=O)(=O)[O-])ccc5F)c5nc(c(-c6cc(S(=O)(=O)[O-])ccc6F)c6ccc3[nH]6)C=C5)C=C4)cc1)[C@@H](C(F)(F)F)O2
REMARK SMILES IDX 17 1 16 2 15 3 14 4 13 5 11 6 12 7 10 9 3 10 4 11 8 12 5 13
REMARK SMILES IDX 7 14 6 15 9 16 91 17 86 18 2 19 1 20 87 21 88 22 89 23 90 24
REMARK SMILES IDX 18 25 19 26 20 27 21 28 22 30 23 31 24 32 85 33 25 34 84 35
REMARK SMILES IDX 26 36 27 37 28 38 78 39 29 40 83 41 77 42 79 43 30 44 82 45
REMARK SMILES IDX 76 46 75 47 31 49 63 50 43 51 62 52 44 53 47 54 61 55 80 56
REMARK SMILES IDX 45 57 46 58 60 60 81 61 48 62 32 63 33 64 41 65 34 66 40 67
REMARK SMILES IDX 42 68 39 69 35 70 36 71 37 72 38 73 64 74 65 75 73 76 66 77
REMARK SMILES IDX 72 78 74 79 71 80 67 81 68 82 69 83 70 84 49 85 50 86 58 87
REMARK SMILES IDX 51 88 57 89 59 90 56 91 52 92 53 93 54 94 55 95
REMARK H PARENT 13 8 20 29 79 48 47 59
REMARK Flexibility Score: inf
ROOT
ATOM      1  C   UNL A   1      32.621  29.563  24.867  1.00  0.00     0.002 C 
ENDROOT
BRANCH   1   2
ATOM      2  C   UNL A   1      33.526  28.677  25.735  1.00  0.00     0.002 C 
BRANCH   2   3
ATOM      3  C   UNL A   1      33.836  27.304  25.138  1.00  0.00     0.021 C 
BRANCH   3   4
ATOM      4  C   UNL A   1      33.944  27.326  23.619  1.00  0.00     0.116 C 
BRANCH   4   5
ATOM      5  N   UNL A   1      33.346  26.144  23.020  1.00  0.00    -0.352 N 
ATOM      6  C   UNL A   1      32.100  25.715  22.710  1.00  0.00     0.251 C 
ATOM      7  O   UNL A   1      32.036  24.610  22.163  1.00  0.00    -0.270 OA
ATOM      8  H   UNL A   1      34.029  25.478  22.775  1.00  0.00     0.163 HD
BRANCH   6   9
ATOM      9  C   UNL A   1      30.843  26.475  22.985  1.00  0.00     0.067 C 
ATOM     10  C   UNL A   1      28.260  30.529  22.415  1.00  0.00     0.053 A 
ATOM     11  C   UNL A   1      27.166  29.916  23.035  1.00  0.00     0.023 A 
ATOM     12  C   UNL A   1      29.452  29.814  22.225  1.00  0.00     0.031 A 
ATOM     13  C   UNL A   1      27.266  28.598  23.469  1.00  0.00     0.048 A 
ATOM     14  C   UNL A   1      29.553  28.490  22.661  1.00  0.00     0.018 A 
ATOM     15  C   UNL A   1      28.456  27.899  23.288  1.00  0.00     0.128 A 
ATOM     16  C   UNL A   1      30.756  27.699  22.432  1.00  0.00     0.025 C 
ATOM     17  O   UNL A   1      28.451  26.611  23.724  1.00  0.00    -0.475 OA
ATOM     18  C   UNL A   1      29.734  25.952  23.854  1.00  0.00     0.314 C 
BRANCH  10  19
ATOM     19  C   UNL A   1      28.151  31.883  21.964  1.00  0.00     0.099 C 
ATOM     20  N   UNL A   1      28.065  32.985  21.605  1.00  0.00    -0.192 NA
ENDBRANCH  10  19
BRANCH  18  21
ATOM     21  C   UNL A   1      30.125  25.912  25.343  1.00  0.00     0.429 C 
ATOM     22  F   UNL A   1      31.100  24.995  25.554  1.00  0.00    -0.167 F 
ATOM     23  F   UNL A   1      30.608  27.094  25.793  1.00  0.00    -0.167 F 
ATOM     24  F   UNL A   1      29.080  25.590  26.139  1.00  0.00    -0.167 F 
ENDBRANCH  18  21
ENDBRANCH   6   9
ENDBRANCH   4   5
ENDBRANCH   3   4
ENDBRANCH   2   3
ENDBRANCH   1   2
BRANCH   1  25
ATOM     25  C   UNL A   1      31.659  30.460  25.648  1.00  0.00     0.021 C 
BRANCH  25  26
ATOM     26  C   UNL A   1      32.188  30.897  27.008  1.00  0.00     0.116 C 
BRANCH  26  27
ATOM     27  N   UNL A   1      32.312  32.344  27.103  1.00  0.00    -0.352 N 
ATOM     28  C   UNL A   1      33.329  33.094  27.640  1.00  0.00     0.251 C 
ATOM     29  H   UNL A   1      31.560  32.858  26.729  1.00  0.00     0.163 HD
ATOM     30  O   UNL A   1      33.174  34.295  27.832  1.00  0.00    -0.269 OA
BRANCH  28  31
ATOM     31  C   UNL A   1      34.590  32.422  28.017  1.00  0.00     0.039 A 
ATOM     32  C   UNL A   1      34.585  31.071  28.371  1.00  0.00     0.014 A 
ATOM     33  C   UNL A   1      35.767  33.168  28.087  1.00  0.00     0.014 A 
ATOM     34  C   UNL A   1      35.701  30.522  28.987  1.00  0.00     0.010 A 
ATOM     35  C   UNL A   1      36.921  32.578  28.607  1.00  0.00     0.010 A 
ATOM     36  C   UNL A   1      36.880  31.271  29.121  1.00  0.00    -0.014 A 
BRANCH  36  37
ATOM     37  C   UNL A   1      38.053  30.686  29.822  1.00  0.00     0.031 A 
ATOM     38  C   UNL A   1      38.372  31.086  31.240  1.00  0.00     0.074 A 
ATOM     39  C   UNL A   1      38.813  29.769  29.192  1.00  0.00     0.049 A 
ATOM     40  N   UNL A   1      39.374  30.712  31.993  1.00  0.00    -0.248 NA
ATOM     41  C   UNL A   1      37.453  32.031  31.897  1.00  0.00     0.031 C 
ATOM     42  C   UNL A   1      38.584  29.290  27.829  1.00  0.00     0.029 A 
ATOM     43  N   UNL A   1      39.921  29.073  29.607  1.00  0.00    -0.354 N 
ATOM     44  C   UNL A   1      39.223  31.392  33.196  1.00  0.00     0.074 A 
ATOM     45  C   UNL A   1      38.052  32.230  33.064  1.00  0.00     0.031 C 
ATOM     46  C   UNL A   1      39.497  28.356  27.532  1.00  0.00     0.029 A 
ATOM     47  C   UNL A   1      40.432  28.230  28.647  1.00  0.00     0.049 A 
ATOM     48  H   UNL A   1      40.312  29.167  30.505  1.00  0.00     0.167 HD
ATOM     49  C   UNL A   1      39.983  31.308  34.313  1.00  0.00     0.034 A 
ATOM     50  C   UNL A   1      41.544  27.465  28.644  1.00  0.00     0.034 A 
ATOM     51  C   UNL A   1      41.128  30.439  34.435  1.00  0.00     0.049 A 
ATOM     52  C   UNL A   1      42.401  27.429  29.882  1.00  0.00     0.074 A 
ATOM     53  C   UNL A   1      41.938  30.254  35.541  1.00  0.00     0.029 A 
ATOM     54  N   UNL A   1      41.625  29.618  33.434  1.00  0.00    -0.354 N 
ATOM     55  N   UNL A   1      42.213  28.036  31.030  1.00  0.00    -0.248 NA
ATOM     56  C   UNL A   1      43.615  26.602  29.835  1.00  0.00     0.031 C 
ATOM     57  C   UNL A   1      42.973  29.394  35.183  1.00  0.00     0.029 A 
ATOM     58  C   UNL A   1      42.753  28.954  33.888  1.00  0.00     0.049 A 
ATOM     59  H   UNL A   1      41.234  29.520  32.536  1.00  0.00     0.167 HD
ATOM     60  C   UNL A   1      43.265  27.639  31.851  1.00  0.00     0.074 A 
ATOM     61  C   UNL A   1      44.072  26.721  31.075  1.00  0.00     0.031 C 
ATOM     62  C   UNL A   1      43.537  28.009  33.127  1.00  0.00     0.034 A 
BRANCH  49  63
ATOM     63  C   UNL A   1      39.626  32.147  35.516  1.00  0.00     0.023 A 
ATOM     64  C   UNL A   1      38.854  31.585  36.552  1.00  0.00     0.031 A 
ATOM     65  C   UNL A   1      39.884  33.529  35.557  1.00  0.00     0.131 A 
ATOM     66  C   UNL A   1      38.313  32.410  37.547  1.00  0.00     0.055 A 
ATOM     67  C   UNL A   1      39.392  34.336  36.584  1.00  0.00     0.041 A 
ATOM     68  F   UNL A   1      40.612  34.115  34.593  1.00  0.00    -0.206 F 
ATOM     69  C   UNL A   1      38.586  33.781  37.573  1.00  0.00     0.022 A 
BRANCH  66  70
ATOM     70  S   UNL A   1      37.155  31.754  38.779  1.00  0.00     0.124 S 
ATOM     71  O   UNL A   1      35.993  32.620  38.588  1.00  0.00    -0.237 OA
ATOM     72  O   UNL A   1      36.985  30.375  38.330  1.00  0.00    -0.237 OA
ATOM     73  O   UNL A   1      37.855  31.926  40.046  1.00  0.00    -0.744 OA
ENDBRANCH  66  70
ENDBRANCH  49  63
BRANCH  50  74
ATOM     74  C   UNL A   1      41.873  26.665  27.427  1.00  0.00     0.023 A 
ATOM     75  C   UNL A   1      41.552  25.296  27.355  1.00  0.00     0.031 A 
ATOM     76  C   UNL A   1      42.604  27.226  26.367  1.00  0.00     0.131 A 
ATOM     77  C   UNL A   1      42.031  24.520  26.293  1.00  0.00     0.055 A 
ATOM     78  C   UNL A   1      43.003  26.466  25.265  1.00  0.00     0.041 A 
ATOM     79  F   UNL A   1      42.949  28.521  26.393  1.00  0.00    -0.206 F 
ATOM     80  C   UNL A   1      42.735  25.101  25.235  1.00  0.00     0.022 A 
BRANCH  77  81
ATOM     81  S   UNL A   1      41.887  22.711  26.327  1.00  0.00     0.124 S 
ATOM     82  O   UNL A   1      40.441  22.519  26.303  1.00  0.00    -0.237 OA
ATOM     83  O   UNL A   1      42.595  22.335  25.105  1.00  0.00    -0.237 OA
ATOM     84  O   UNL A   1      42.554  22.336  27.569  1.00  0.00    -0.744 OA
ENDBRANCH  77  81
ENDBRANCH  50  74
BRANCH  62  85
ATOM     85  C   UNL A   1      44.740  27.418  33.826  1.00  0.00     0.023 A 
ATOM     86  C   UNL A   1      44.594  26.229  34.568  1.00  0.00     0.031 A 
ATOM     87  C   UNL A   1      45.953  28.118  33.924  1.00  0.00     0.131 A 
ATOM     88  C   UNL A   1      45.616  25.817  35.433  1.00  0.00     0.055 A 
ATOM     89  C   UNL A   1      46.995  27.667  34.736  1.00  0.00     0.041 A 
ATOM     90  F   UNL A   1      46.138  29.263  33.247  1.00  0.00    -0.206 F 
ATOM     91  C   UNL A   1      46.819  26.523  35.513  1.00  0.00     0.022 A 
BRANCH  88  92
ATOM     92  S   UNL A   1      45.369  24.429  36.575  1.00  0.00     0.124 S 
ATOM     93  O   UNL A   1      44.502  25.022  37.590  1.00  0.00    -0.237 OA
ATOM     94  O   UNL A   1      44.733  23.436  35.714  1.00  0.00    -0.237 OA
ATOM     95  O   UNL A   1      46.717  24.099  37.026  1.00  0.00    -0.744 OA
ENDBRANCH  88  92
ENDBRANCH  62  85
ENDBRANCH  36  37
ENDBRANCH  28  31
ENDBRANCH  26  27
ENDBRANCH  25  26
ENDBRANCH   1  25
TORSDOF 18
ENDMDL
MODEL 2
REMARK VINA RESULT:     -12.1      1.923      2.519
REMARK SMILES N#Cc1ccc2c(c1)C=C(C(=O)NCCCCCCNC(=O)c1ccc(-c3c4nc(c(-c5cc(S(=O)(=O)[O-])ccc5F)c5ccc([nH]5)c(-c5cc(S(=O)(=O)[O-])ccc5F)c5nc(c(-c6cc(S(=O)(=O)[O-])ccc6F)c6ccc3[nH]6)C=C5)C=C4)cc1)[C@@H](C(F)(F)F)O2
REMARK SMILES IDX 17 1 16 2 15 3 14 4 13 5 11 6 12 7 10 9 3 10 4 11 8 12 5 13
REMARK SMILES IDX 7 14 6 15 9 16 91 17 86 18 2 19 1 20 87 21 88 22 89 23 90 24
REMARK SMILES IDX 18 25 19 26 20 27 21 28 22 30 23 31 24 32 85 33 25 34 84 35
REMARK SMILES IDX 26 36 27 37 28 38 78 39 29 40 83 41 77 42 79 43 30 44 82 45
REMARK SMILES IDX 76 46 75 47 31 49 63 50 43 51 62 52 44 53 47 54 61 55 80 56
REMARK SMILES IDX 45 57 46 58 60 60 81 61 48 62 32 63 33 64 41 65 34 66 40 67
REMARK SMILES IDX 42 68 39 69 35 70 36 71 37 72 38 73 64 74 65 75 73 76 66 77
REMARK SMILES IDX 72 78 74 79 71 80 67 81 68 82 69 83 70 84 49 85 50 86 58 87
REMARK SMILES IDX 51 88 57 89 59 90 56 91 52 92 53 93 54 94 55 95
REMARK H PARENT 13 8 20 29 79 48 47 59
REMARK Flexibility Score: inf
ROOT
ATOM      1  C   UNL A   1      32.314  29.932  26.761  1.00  0.00     0.002 C 
ENDROOT
BRANCH   1   2
ATOM      2  C   UNL A   1      32.966  29.505  25.439  1.00  0.00     0.002 C 
BRANCH   2   3
ATOM      3  C   UNL A   1      34.151  28.551  25.591  1.00  0.00     0.021 C 
BRANCH   3   4
ATOM      4  C   UNL A   1      33.728  27.095  25.738  1.00  0.00     0.116 C 
BRANCH   4   5
ATOM      5  N   UNL A   1      33.656  26.423  24.452  1.00  0.00    -0.352 N 
ATOM      6  C   UNL A   1      32.746  26.280  23.459  1.00  0.00     0.251 C 
ATOM      7  O   UNL A   1      33.118  25.620  22.484  1.00  0.00    -0.270 OA
ATOM      8  H   UNL A   1      34.492  25.944  24.246  1.00  0.00     0.163 HD
BRANCH   6   9
ATOM      9  C   UNL A   1      31.366  26.854  23.479  1.00  0.00     0.067 C 
ATOM     10  C   UNL A   1      28.442  30.610  22.602  1.00  0.00     0.053 A 
ATOM     11  C   UNL A   1      27.332  29.811  22.895  1.00  0.00     0.023 A 
ATOM     12  C   UNL A   1      29.734  30.065  22.652  1.00  0.00     0.031 A 
ATOM     13  C   UNL A   1      27.512  28.476  23.243  1.00  0.00     0.048 A 
ATOM     14  C   UNL A   1      29.916  28.724  23.002  1.00  0.00     0.018 A 
ATOM     15  C   UNL A   1      28.798  27.946  23.303  1.00  0.00     0.128 A 
ATOM     16  C   UNL A   1      31.238  28.109  23.012  1.00  0.00     0.025 C 
ATOM     17  O   UNL A   1      28.873  26.628  23.630  1.00  0.00    -0.475 OA
ATOM     18  C   UNL A   1      30.172  26.116  24.016  1.00  0.00     0.314 C 
BRANCH  10  19
ATOM     19  C   UNL A   1      28.251  31.981  22.238  1.00  0.00     0.099 C 
ATOM     20  N   UNL A   1      28.094  33.097  21.950  1.00  0.00    -0.192 NA
ENDBRANCH  10  19
BRANCH  18  21
ATOM     21  C   UNL A   1      30.214  25.969  25.549  1.00  0.00     0.429 C 
ATOM     22  F   UNL A   1      30.587  27.136  26.128  1.00  0.00    -0.167 F 
ATOM     23  F   UNL A   1      29.012  25.644  26.080  1.00  0.00    -0.167 F 
ATOM     24  F   UNL A   1      31.087  25.015  25.947  1.00  0.00    -0.167 F 
ENDBRANCH  18  21
ENDBRANCH   6   9
ENDBRANCH   4   5
ENDBRANCH   3   4
ENDBRANCH   2   3
ENDBRANCH   1   2
BRANCH   1  25
ATOM     25  C   UNL A   1      32.016  31.428  26.878  1.00  0.00     0.021 C 
BRANCH  25  26
ATOM     26  C   UNL A   1      33.181  32.249  27.414  1.00  0.00     0.116 C 
BRANCH  26  27
ATOM     27  N   UNL A   1      32.803  33.634  27.655  1.00  0.00    -0.352 N 
ATOM     28  C   UNL A   1      33.227  34.490  28.642  1.00  0.00     0.251 C 
ATOM     29  H   UNL A   1      32.150  34.011  27.022  1.00  0.00     0.163 HD
ATOM     30  O   UNL A   1      32.646  35.553  28.827  1.00  0.00    -0.269 OA
BRANCH  28  31
ATOM     31  C   UNL A   1      34.365  34.088  29.495  1.00  0.00     0.039 A 
ATOM     32  C   UNL A   1      35.666  34.449  29.141  1.00  0.00     0.014 A 
ATOM     33  C   UNL A   1      34.132  33.286  30.613  1.00  0.00     0.014 A 
ATOM     34  C   UNL A   1      36.740  33.842  29.778  1.00  0.00     0.010 A 
ATOM     35  C   UNL A   1      35.217  32.765  31.320  1.00  0.00     0.010 A 
ATOM     36  C   UNL A   1      36.529  32.985  30.869  1.00  0.00    -0.014 A 
BRANCH  36  37
ATOM     37  C   UNL A   1      37.685  32.307  31.513  1.00  0.00     0.031 A 
ATOM     38  C   UNL A   1      38.168  32.747  32.870  1.00  0.00     0.074 A 
ATOM     39  C   UNL A   1      38.280  31.273  30.886  1.00  0.00     0.049 A 
ATOM     40  N   UNL A   1      39.183  32.302  33.565  1.00  0.00    -0.248 NA
ATOM     41  C   UNL A   1      37.422  33.828  33.535  1.00  0.00     0.031 C 
ATOM     42  C   UNL A   1      37.881  30.748  29.580  1.00  0.00     0.029 A 
ATOM     43  N   UNL A   1      39.334  30.477  31.256  1.00  0.00    -0.354 N 
ATOM     44  C   UNL A   1      39.214  33.061  34.729  1.00  0.00     0.074 A 
ATOM     45  C   UNL A   1      38.138  34.022  34.635  1.00  0.00     0.031 C 
ATOM     46  C   UNL A   1      38.654  29.698  29.274  1.00  0.00     0.029 A 
ATOM     47  C   UNL A   1      39.663  29.527  30.317  1.00  0.00     0.049 A 
ATOM     48  H   UNL A   1      39.810  30.575  32.113  1.00  0.00     0.167 HD
ATOM     49  C   UNL A   1      40.054  32.952  35.785  1.00  0.00     0.034 A 
ATOM     50  C   UNL A   1      40.677  28.638  30.276  1.00  0.00     0.034 A 
ATOM     51  C   UNL A   1      41.101  31.963  35.872  1.00  0.00     0.049 A 
ATOM     52  C   UNL A   1      41.629  28.571  31.441  1.00  0.00     0.074 A 
ATOM     53  C   UNL A   1      41.978  31.747  36.920  1.00  0.00     0.029 A 
ATOM     54  N   UNL A   1      41.414  31.034  34.892  1.00  0.00    -0.354 N 
ATOM     55  N   UNL A   1      41.611  29.260  32.559  1.00  0.00    -0.248 NA
ATOM     56  C   UNL A   1      42.733  27.607  31.353  1.00  0.00     0.031 C 
ATOM     57  C   UNL A   1      42.875  30.753  36.539  1.00  0.00     0.029 A 
ATOM     58  C   UNL A   1      42.495  30.269  35.297  1.00  0.00     0.049 A 
ATOM     59  H   UNL A   1      40.938  30.932  34.036  1.00  0.00     0.167 HD
ATOM     60  C   UNL A   1      42.679  28.789  33.318  1.00  0.00     0.074 A 
ATOM     61  C   UNL A   1      43.307  27.741  32.542  1.00  0.00     0.031 C 
ATOM     62  C   UNL A   1      43.099  29.197  34.540  1.00  0.00     0.034 A 
BRANCH  49  63
ATOM     63  C   UNL A   1      39.899  33.894  36.954  1.00  0.00     0.023 A 
ATOM     64  C   UNL A   1      39.336  33.424  38.157  1.00  0.00     0.031 A 
ATOM     65  C   UNL A   1      40.132  35.275  36.827  1.00  0.00     0.131 A 
ATOM     66  C   UNL A   1      38.963  34.332  39.156  1.00  0.00     0.055 A 
ATOM     67  C   UNL A   1      39.813  36.169  37.850  1.00  0.00     0.041 A 
ATOM     68  F   UNL A   1      40.664  35.776  35.701  1.00  0.00    -0.206 F 
ATOM     69  C   UNL A   1      39.208  35.701  39.012  1.00  0.00     0.022 A 
BRANCH  66  70
ATOM     70  S   UNL A   1      38.057  33.783  40.628  1.00  0.00     0.124 S 
ATOM     71  O   UNL A   1      37.903  35.034  41.368  1.00  0.00    -0.237 OA
ATOM     72  O   UNL A   1      36.830  33.248  40.046  1.00  0.00    -0.237 OA
ATOM     73  O   UNL A   1      38.945  32.805  41.243  1.00  0.00    -0.744 OA
ENDBRANCH  66  70
ENDBRANCH  49  63
BRANCH  50  74
ATOM     74  C   UNL A   1      40.807  27.737  29.092  1.00  0.00     0.023 A 
ATOM     75  C   UNL A   1      41.736  28.016  28.072  1.00  0.00     0.031 A 
ATOM     76  C   UNL A   1      39.938  26.649  28.910  1.00  0.00     0.131 A 
ATOM     77  C   UNL A   1      41.717  27.273  26.885  1.00  0.00     0.055 A 
ATOM     78  C   UNL A   1      39.983  25.854  27.762  1.00  0.00     0.041 A 
ATOM     79  F   UNL A   1      39.024  26.349  29.845  1.00  0.00    -0.206 F 
ATOM     80  C   UNL A   1      40.862  26.179  26.734  1.00  0.00     0.022 A 
BRANCH  77  81
ATOM     81  S   UNL A   1      42.692  27.796  25.447  1.00  0.00     0.124 S 
ATOM     82  O   UNL A   1      42.668  26.600  24.611  1.00  0.00    -0.237 OA
ATOM     83  O   UNL A   1      41.909  28.927  24.955  1.00  0.00    -0.237 OA
ATOM     84  O   UNL A   1      43.989  28.143  26.017  1.00  0.00    -0.744 OA
ENDBRANCH  77  81
ENDBRANCH  50  74
BRANCH  62  85
ATOM     85  C   UNL A   1      44.285  28.509  35.178  1.00  0.00     0.023 A 
ATOM     86  C   UNL A   1      44.066  27.478  36.114  1.00  0.00     0.031 A 
ATOM     87  C   UNL A   1      45.592  28.996  35.020  1.00  0.00     0.131 A 
ATOM     88  C   UNL A   1      45.125  27.020  36.908  1.00  0.00     0.055 A 
ATOM     89  C   UNL A   1      46.658  28.488  35.767  1.00  0.00     0.041 A 
ATOM     90  F   UNL A   1      45.853  29.986  34.152  1.00  0.00    -0.206 F 
ATOM     91  C   UNL A   1      46.421  27.512  36.732  1.00  0.00     0.022 A 
BRANCH  88  92
ATOM     92  S   UNL A   1      44.833  25.867  38.278  1.00  0.00     0.124 S 
ATOM     93  O   UNL A   1      46.167  25.746  38.861  1.00  0.00    -0.237 OA
ATOM     94  O   UNL A   1      43.861  26.596  39.088  1.00  0.00    -0.237 OA
ATOM     95  O   UNL A   1      44.330  24.663  37.624  1.00  0.00    -0.744 OA
ENDBRANCH  88  92
ENDBRANCH  62  85
ENDBRANCH  36  37
ENDBRANCH  28  31
ENDBRANCH  26  27
ENDBRANCH  25  26
ENDBRANCH   1  25
TORSDOF 18
ENDMDL
MODEL 3
REMARK VINA RESULT:     -12.0      2.381      7.851
REMARK SMILES N#Cc1ccc2c(c1)C=C(C(=O)NCCCCCCNC(=O)c1ccc(-c3c4nc(c(-c5cc(S(=O)(=O)[O-])ccc5F)c5ccc([nH]5)c(-c5cc(S(=O)(=O)[O-])ccc5F)c5nc(c(-c6cc(S(=O)(=O)[O-])ccc6F)c6ccc3[nH]6)C=C5)C=C4)cc1)[C@@H](C(F)(F)F)O2
REMARK SMILES IDX 17 1 16 2 15 3 14 4 13 5 11 6 12 7 10 9 3 10 4 11 8 12 5 13
REMARK SMILES IDX 7 14 6 15 9 16 91 17 86 18 2 19 1 20 87 21 88 22 89 23 90 24
REMARK SMILES IDX 18 25 19 26 20 27 21 28 22 30 23 31 24 32 85 33 25 34 84 35
REMARK SMILES IDX 26 36 27 37 28 38 78 39 29 40 83 41 77 42 79 43 30 44 82 45
REMARK SMILES IDX 76 46 75 47 31 49 63 50 43 51 62 52 44 53 47 54 61 55 80 56
REMARK SMILES IDX 45 57 46 58 60 60 81 61 48 62 32 63 33 64 41 65 34 66 40 67
REMARK SMILES IDX 42 68 39 69 35 70 36 71 37 72 38 73 64 74 65 75 73 76 66 77
REMARK SMILES IDX 72 78 74 79 71 80 67 81 68 82 69 83 70 84 49 85 50 86 58 87
REMARK SMILES IDX 51 88 57 89 59 90 56 91 52 92 53 93 54 94 55 95
REMARK H PARENT 13 8 20 29 79 48 47 59
REMARK Flexibility Score: inf
ROOT
ATOM      1  C   UNL A   1      32.367  30.017  26.015  1.00  0.00     0.002 C 
ENDROOT
BRANCH   1   2
ATOM      2  C   UNL A   1      33.417  29.054  26.588  1.00  0.00     0.002 C 
BRANCH   2   3
ATOM      3  C   UNL A   1      34.118  28.182  25.546  1.00  0.00     0.021 C 
BRANCH   3   4
ATOM      4  C   UNL A   1      33.716  26.715  25.629  1.00  0.00     0.116 C 
BRANCH   4   5
ATOM      5  N   UNL A   1      33.596  26.115  24.311  1.00  0.00    -0.352 N 
ATOM      6  C   UNL A   1      32.665  26.060  23.329  1.00  0.00     0.251 C 
ATOM      7  O   UNL A   1      32.994  25.438  22.315  1.00  0.00    -0.270 OA
ATOM      8  H   UNL A   1      34.409  25.615  24.066  1.00  0.00     0.163 HD
BRANCH   6   9
ATOM      9  C   UNL A   1      31.309  26.685  23.404  1.00  0.00     0.067 C 
ATOM     10  C   UNL A   1      28.498  30.553  22.652  1.00  0.00     0.053 A 
ATOM     11  C   UNL A   1      27.371  29.795  22.985  1.00  0.00     0.023 A 
ATOM     12  C   UNL A   1      29.770  29.959  22.651  1.00  0.00     0.031 A 
ATOM     13  C   UNL A   1      27.514  28.453  23.322  1.00  0.00     0.048 A 
ATOM     14  C   UNL A   1      29.914  28.611  22.989  1.00  0.00     0.018 A 
ATOM     15  C   UNL A   1      28.780  27.874  23.331  1.00  0.00     0.128 A 
ATOM     16  C   UNL A   1      31.211  27.947  22.946  1.00  0.00     0.025 C 
ATOM     17  O   UNL A   1      28.818  26.553  23.651  1.00  0.00    -0.475 OA
ATOM     18  C   UNL A   1      30.110  25.991  23.985  1.00  0.00     0.314 C 
BRANCH  10  19
ATOM     19  C   UNL A   1      28.345  31.932  22.300  1.00  0.00     0.099 C 
ATOM     20  N   UNL A   1      28.226  33.054  22.020  1.00  0.00    -0.192 NA
ENDBRANCH  10  19
BRANCH  18  21
ATOM     21  C   UNL A   1      30.205  25.835  25.514  1.00  0.00     0.429 C 
ATOM     22  F   UNL A   1      28.987  25.559  26.040  1.00  0.00    -0.167 F 
ATOM     23  F   UNL A   1      31.023  24.823  25.891  1.00  0.00    -0.167 F 
ATOM     24  F   UNL A   1      30.669  26.954  26.115  1.00  0.00    -0.167 F 
ENDBRANCH  18  21
ENDBRANCH   6   9
ENDBRANCH   4   5
ENDBRANCH   3   4
ENDBRANCH   2   3
ENDBRANCH   1   2
BRANCH   1  25
ATOM     25  C   UNL A   1      31.998  31.185  26.932  1.00  0.00     0.021 C 
BRANCH  25  26
ATOM     26  C   UNL A   1      33.187  32.034  27.360  1.00  0.00     0.116 C 
BRANCH  26  27
ATOM     27  N   UNL A   1      32.824  33.434  27.524  1.00  0.00    -0.352 N 
ATOM     28  C   UNL A   1      33.250  34.335  28.468  1.00  0.00     0.251 C 
ATOM     29  H   UNL A   1      32.181  33.784  26.866  1.00  0.00     0.163 HD
ATOM     30  O   UNL A   1      32.681  35.414  28.592  1.00  0.00    -0.269 OA
BRANCH  28  31
ATOM     31  C   UNL A   1      34.376  33.967  29.352  1.00  0.00     0.039 A 
ATOM     32  C   UNL A   1      35.673  34.377  29.040  1.00  0.00     0.014 A 
ATOM     33  C   UNL A   1      34.138  33.146  30.455  1.00  0.00     0.014 A 
ATOM     34  C   UNL A   1      36.749  33.803  29.704  1.00  0.00     0.010 A 
ATOM     35  C   UNL A   1      35.220  32.657  31.190  1.00  0.00     0.010 A 
ATOM     36  C   UNL A   1      36.536  32.929  30.781  1.00  0.00    -0.014 A 
BRANCH  36  37
ATOM     37  C   UNL A   1      37.696  32.286  31.453  1.00  0.00     0.031 A 
ATOM     38  C   UNL A   1      38.430  31.151  30.788  1.00  0.00     0.074 A 
ATOM     39  C   UNL A   1      38.108  32.748  32.650  1.00  0.00     0.049 A 
ATOM     40  N   UNL A   1      39.434  30.445  31.242  1.00  0.00    -0.248 NA
ATOM     41  C   UNL A   1      37.979  30.750  29.445  1.00  0.00     0.031 C 
ATOM     42  C   UNL A   1      37.487  33.856  33.376  1.00  0.00     0.029 A 
ATOM     43  N   UNL A   1      39.140  32.355  33.465  1.00  0.00    -0.354 N 
ATOM     44  C   UNL A   1      39.716  29.505  30.257  1.00  0.00     0.074 A 
ATOM     45  C   UNL A   1      38.756  29.704  29.195  1.00  0.00     0.031 C 
ATOM     46  C   UNL A   1      38.169  34.078  34.507  1.00  0.00     0.029 A 
ATOM     47  C   UNL A   1      39.221  33.074  34.635  1.00  0.00     0.049 A 
ATOM     48  H   UNL A   1      39.763  31.629  33.234  1.00  0.00     0.167 HD
ATOM     49  C   UNL A   1      40.699  28.574  30.237  1.00  0.00     0.034 A 
ATOM     50  C   UNL A   1      40.026  32.927  35.709  1.00  0.00     0.034 A 
ATOM     51  C   UNL A   1      41.668  28.414  31.294  1.00  0.00     0.049 A 
ATOM     52  C   UNL A   1      41.078  31.850  35.683  1.00  0.00     0.074 A 
ATOM     53  C   UNL A   1      42.727  27.525  31.346  1.00  0.00     0.029 A 
ATOM     54  N   UNL A   1      41.703  29.147  32.471  1.00  0.00    -0.354 N 
ATOM     55  N   UNL A   1      41.366  31.005  34.721  1.00  0.00    -0.248 NA
ATOM     56  C   UNL A   1      41.921  31.705  36.877  1.00  0.00     0.031 C 
ATOM     57  C   UNL A   1      43.344  27.657  32.587  1.00  0.00     0.029 A 
ATOM     58  C   UNL A   1      42.743  28.702  33.270  1.00  0.00     0.049 A 
ATOM     59  H   UNL A   1      41.083  29.875  32.703  1.00  0.00     0.167 HD
ATOM     60  C   UNL A   1      42.444  30.252  35.181  1.00  0.00     0.074 A 
ATOM     61  C   UNL A   1      42.770  30.758  36.497  1.00  0.00     0.031 C 
ATOM     62  C   UNL A   1      43.094  29.232  34.568  1.00  0.00     0.034 A 
BRANCH  49  63
ATOM     63  C   UNL A   1      40.818  27.649  29.049  1.00  0.00     0.023 A 
ATOM     64  C   UNL A   1      41.751  27.939  28.033  1.00  0.00     0.031 A 
ATOM     65  C   UNL A   1      39.904  26.603  28.832  1.00  0.00     0.131 A 
ATOM     66  C   UNL A   1      41.705  27.237  26.822  1.00  0.00     0.055 A 
ATOM     67  C   UNL A   1      39.902  25.868  27.645  1.00  0.00     0.041 A 
ATOM     68  F   UNL A   1      38.993  26.288  29.765  1.00  0.00    -0.206 F 
ATOM     69  C   UNL A   1      40.792  26.197  26.627  1.00  0.00     0.022 A 
BRANCH  66  70
ATOM     70  S   UNL A   1      42.755  27.716  25.424  1.00  0.00     0.124 S 
ATOM     71  O   UNL A   1      43.956  28.198  26.102  1.00  0.00    -0.237 OA
ATOM     72  O   UNL A   1      42.907  26.450  24.712  1.00  0.00    -0.237 OA
ATOM     73  O   UNL A   1      41.978  28.740  24.735  1.00  0.00    -0.744 OA
ENDBRANCH  66  70
ENDBRANCH  49  63
BRANCH  50  74
ATOM     74  C   UNL A   1      39.862  33.849  36.872  1.00  0.00     0.023 A 
ATOM     75  C   UNL A   1      40.784  34.887  37.106  1.00  0.00     0.031 A 
ATOM     76  C   UNL A   1      38.849  33.643  37.823  1.00  0.00     0.131 A 
ATOM     77  C   UNL A   1      40.726  35.621  38.297  1.00  0.00     0.055 A 
ATOM     78  C   UNL A   1      38.741  34.437  38.967  1.00  0.00     0.041 A 
ATOM     79  F   UNL A   1      37.954  32.659  37.657  1.00  0.00    -0.206 F 
ATOM     80  C   UNL A   1      39.695  35.418  39.218  1.00  0.00     0.022 A 
BRANCH  77  81
ATOM     81  S   UNL A   1      42.068  36.752  38.756  1.00  0.00     0.124 S 
ATOM     82  O   UNL A   1      42.739  36.012  39.820  1.00  0.00    -0.237 OA
ATOM     83  O   UNL A   1      42.805  36.862  37.500  1.00  0.00    -0.237 OA
ATOM     84  O   UNL A   1      41.370  37.963  39.173  1.00  0.00    -0.744 OA
ENDBRANCH  77  81
ENDBRANCH  50  74
BRANCH  62  85
ATOM     85  C   UNL A   1      44.263  28.577  35.267  1.00  0.00     0.023 A 
ATOM     86  C   UNL A   1      44.028  27.513  36.160  1.00  0.00     0.031 A 
ATOM     87  C   UNL A   1      45.556  29.123  35.209  1.00  0.00     0.131 A 
ATOM     88  C   UNL A   1      45.051  27.078  37.012  1.00  0.00     0.055 A 
ATOM     89  C   UNL A   1      46.590  28.640  36.013  1.00  0.00     0.041 A 
ATOM     90  F   UNL A   1      45.830  30.146  34.385  1.00  0.00    -0.206 F 
ATOM     91  C   UNL A   1      46.333  27.628  36.936  1.00  0.00     0.022 A 
BRANCH  88  92
ATOM     92  S   UNL A   1      44.719  25.876  38.330  1.00  0.00     0.124 S 
ATOM     93  O   UNL A   1      44.217  26.734  39.401  1.00  0.00    -0.237 OA
ATOM     94  O   UNL A   1      43.724  25.007  37.708  1.00  0.00    -0.237 OA
ATOM     95  O   UNL A   1      46.019  25.264  38.585  1.00  0.00    -0.744 OA
ENDBRANCH  88  92
ENDBRANCH  62  85
ENDBRANCH  36  37
ENDBRANCH  28  31
ENDBRANCH  26  27
ENDBRANCH  25  26
ENDBRANCH   1  25
TORSDOF 18
ENDMDL
