MODEL 1
REMARK VINA RESULT:     -10.5      0.000      0.000
REMARK SMILES CC[C@@H](C)[C@@H](C(=O)NCCCCCCNC(=O)c1ccc(-c2c3nc(c(-c4cc(S(=O)(=O)[O-])ccc4F)c4ccc([nH]4)c(-c4cc(S(=O)(=O)[O-])ccc4F)c4nc(c(-c5cc(S(=O)(=O)[O-])ccc5F)c5ccc2[nH]5)C=C4)C=C3)cc1)S(=O)(=O)c1ccc(OC)cc1
REMARK SMILES IDX 11 1 10 2 9 3 8 4 6 5 7 6 5 8 3 9 4 10 2 11 1 12 81 13 82 14
REMARK SMILES IDX 83 15 84 16 85 17 91 18 86 19 90 20 87 21 88 22 89 23 12 24
REMARK SMILES IDX 13 25 14 26 15 27 16 28 17 30 18 31 19 32 80 33 20 34 79 35
REMARK SMILES IDX 21 36 22 37 23 38 73 39 24 40 78 41 72 42 74 43 25 44 77 45
REMARK SMILES IDX 71 46 70 47 26 49 58 50 38 51 57 52 39 53 42 54 56 55 75 56
REMARK SMILES IDX 40 57 41 58 55 60 76 61 43 62 27 63 28 64 36 65 29 66 35 67
REMARK SMILES IDX 37 68 34 69 30 70 31 71 32 72 33 73 59 74 60 75 68 76 61 77
REMARK SMILES IDX 67 78 69 79 66 80 62 81 63 82 64 83 65 84 44 85 45 86 53 87
REMARK SMILES IDX 46 88 52 89 54 90 51 91 47 92 48 93 49 94 50 95
REMARK H PARENT 8 7 15 29 74 48 42 59
REMARK Flexibility Score: inf
ROOT
ATOM      1  C   UNL A   1      31.342  27.962  25.075  1.00  0.00     0.002 C 
ENDROOT
BRANCH   1   2
ATOM      2  C   UNL A   1      30.299  26.883  24.780  1.00  0.00     0.021 C 
BRANCH   2   3
ATOM      3  C   UNL A   1      30.072  25.865  25.913  1.00  0.00     0.116 C 
BRANCH   3   4
ATOM      4  N   UNL A   1      30.159  24.520  25.377  1.00  0.00    -0.355 N 
ATOM      5  C   UNL A   1      31.196  23.863  24.780  1.00  0.00     0.239 C 
ATOM      6  O   UNL A   1      30.856  23.053  23.916  1.00  0.00    -0.274 OA
ATOM      7  H   UNL A   1      29.332  23.992  25.456  1.00  0.00     0.163 HD
BRANCH   5   8
ATOM      8  C   UNL A   1      32.664  24.098  25.163  1.00  0.00     0.205 C 
BRANCH   8   9
ATOM      9  C   UNL A   1      33.701  23.987  23.990  1.00  0.00     0.014 C 
ATOM     10  C   UNL A   1      35.110  24.456  24.390  1.00  0.00     0.009 C 
BRANCH   9  11
ATOM     11  C   UNL A   1      33.255  24.805  22.767  1.00  0.00     0.002 C 
ATOM     12  C   UNL A   1      33.570  26.293  22.763  1.00  0.00     0.004 C 
ENDBRANCH   9  11
ENDBRANCH   8   9
BRANCH   8  13
ATOM     13  S   UNL A   1      32.998  22.931  26.534  1.00  0.00     0.190 S 
ATOM     14  O   UNL A   1      34.165  23.371  27.276  1.00  0.00    -0.223 OA
ATOM     15  O   UNL A   1      31.766  22.726  27.281  1.00  0.00    -0.223 OA
BRANCH  13  16
ATOM     16  C   UNL A   1      33.449  21.360  25.799  1.00  0.00     0.068 A 
ATOM     17  C   UNL A   1      32.452  20.465  25.406  1.00  0.00     0.024 A 
ATOM     18  C   UNL A   1      34.794  21.019  25.634  1.00  0.00     0.024 A 
ATOM     19  C   UNL A   1      32.804  19.284  24.749  1.00  0.00     0.048 A 
ATOM     20  C   UNL A   1      35.140  19.833  24.974  1.00  0.00     0.048 A 
ATOM     21  C   UNL A   1      34.144  18.970  24.511  1.00  0.00     0.118 A 
BRANCH  21  22
ATOM     22  O   UNL A   1      34.345  17.802  23.829  1.00  0.00    -0.497 OA
ATOM     23  C   UNL A   1      33.188  17.042  23.500  1.00  0.00     0.278 C 
ENDBRANCH  21  22
ENDBRANCH  13  16
ENDBRANCH   8  13
ENDBRANCH   5   8
ENDBRANCH   3   4
ENDBRANCH   2   3
ENDBRANCH   1   2
BRANCH   1  24
ATOM     24  C   UNL A   1      31.767  28.057  26.539  1.00  0.00     0.002 C 
BRANCH  24  25
ATOM     25  C   UNL A   1      33.262  27.851  26.792  1.00  0.00     0.021 C 
BRANCH  25  26
ATOM     26  C   UNL A   1      34.172  28.906  26.163  1.00  0.00     0.116 C 
BRANCH  26  27
ATOM     27  N   UNL A   1      33.813  30.251  26.584  1.00  0.00    -0.352 N 
ATOM     28  C   UNL A   1      34.337  31.014  27.598  1.00  0.00     0.251 C 
ATOM     29  H   UNL A   1      33.089  30.674  26.069  1.00  0.00     0.163 HD
ATOM     30  O   UNL A   1      33.739  32.015  27.980  1.00  0.00    -0.269 OA
BRANCH  28  31
ATOM     31  C   UNL A   1      35.610  30.613  28.235  1.00  0.00     0.039 A 
ATOM     32  C   UNL A   1      35.582  29.692  29.283  1.00  0.00     0.014 A 
ATOM     33  C   UNL A   1      36.826  31.146  27.798  1.00  0.00     0.014 A 
ATOM     34  C   UNL A   1      36.783  29.250  29.845  1.00  0.00     0.010 A 
ATOM     35  C   UNL A   1      38.023  30.654  28.312  1.00  0.00     0.010 A 
ATOM     36  C   UNL A   1      38.015  29.694  29.337  1.00  0.00    -0.014 A 
BRANCH  36  37
ATOM     37  C   UNL A   1      39.298  29.138  29.841  1.00  0.00     0.031 A 
ATOM     38  C   UNL A   1      40.012  29.792  30.992  1.00  0.00     0.074 A 
ATOM     39  C   UNL A   1      39.845  28.074  29.218  1.00  0.00     0.049 A 
ATOM     40  N   UNL A   1      41.167  29.485  31.528  1.00  0.00    -0.248 NA
ATOM     41  C   UNL A   1      39.356  30.956  31.605  1.00  0.00     0.031 C 
ATOM     42  C   UNL A   1      39.261  27.381  28.067  1.00  0.00     0.029 A 
ATOM     43  N   UNL A   1      41.013  27.392  29.454  1.00  0.00    -0.354 N 
ATOM     44  C   UNL A   1      41.380  30.421  32.534  1.00  0.00     0.074 A 
ATOM     45  C   UNL A   1      40.260  31.338  32.497  1.00  0.00     0.031 C 
ATOM     46  C   UNL A   1      40.060  26.362  27.714  1.00  0.00     0.029 A 
ATOM     47  C   UNL A   1      41.239  26.359  28.572  1.00  0.00     0.049 A 
ATOM     48  H   UNL A   1      41.631  27.621  30.186  1.00  0.00     0.167 HD
ATOM     49  C   UNL A   1      42.408  30.497  33.415  1.00  0.00     0.034 A 
ATOM     50  C   UNL A   1      42.287  25.519  28.454  1.00  0.00     0.034 A 
ATOM     51  C   UNL A   1      43.513  29.569  33.441  1.00  0.00     0.049 A 
ATOM     52  C   UNL A   1      43.435  25.649  29.425  1.00  0.00     0.074 A 
ATOM     53  C   UNL A   1      44.570  29.515  34.333  1.00  0.00     0.029 A 
ATOM     54  N   UNL A   1      43.716  28.543  32.526  1.00  0.00    -0.354 N 
ATOM     55  N   UNL A   1      43.587  26.500  30.414  1.00  0.00    -0.248 NA
ATOM     56  C   UNL A   1      44.545  24.701  29.271  1.00  0.00     0.031 C 
ATOM     57  C   UNL A   1      45.452  28.516  33.910  1.00  0.00     0.029 A 
ATOM     58  C   UNL A   1      44.903  27.883  32.807  1.00  0.00     0.049 A 
ATOM     59  H   UNL A   1      43.106  28.317  31.788  1.00  0.00     0.167 HD
ATOM     60  C   UNL A   1      44.799  26.169  31.015  1.00  0.00     0.074 A 
ATOM     61  C   UNL A   1      45.321  25.028  30.293  1.00  0.00     0.031 C 
ATOM     62  C   UNL A   1      45.422  26.756  32.068  1.00  0.00     0.034 A 
BRANCH  49  63
ATOM     63  C   UNL A   1      42.404  31.637  34.406  1.00  0.00     0.023 A 
ATOM     64  C   UNL A   1      41.616  31.608  35.570  1.00  0.00     0.031 A 
ATOM     65  C   UNL A   1      43.210  32.769  34.187  1.00  0.00     0.131 A 
ATOM     66  C   UNL A   1      41.606  32.710  36.438  1.00  0.00     0.055 A 
ATOM     67  C   UNL A   1      43.256  33.829  35.094  1.00  0.00     0.041 A 
ATOM     68  F   UNL A   1      43.966  32.866  33.081  1.00  0.00    -0.206 F 
ATOM     69  C   UNL A   1      42.442  33.809  36.223  1.00  0.00     0.022 A 
BRANCH  66  70
ATOM     70  S   UNL A   1      40.394  32.743  37.786  1.00  0.00     0.124 S 
ATOM     71  O   UNL A   1      39.394  31.792  37.306  1.00  0.00    -0.237 OA
ATOM     72  O   UNL A   1      41.185  32.315  38.933  1.00  0.00    -0.237 OA
ATOM     73  O   UNL A   1      39.952  34.136  37.816  1.00  0.00    -0.744 OA
ENDBRANCH  66  70
ENDBRANCH  49  63
BRANCH  50  74
ATOM     74  C   UNL A   1      42.326  24.502  27.361  1.00  0.00     0.023 A 
ATOM     75  C   UNL A   1      41.558  23.329  27.433  1.00  0.00     0.031 A 
ATOM     76  C   UNL A   1      43.180  24.660  26.255  1.00  0.00     0.131 A 
ATOM     77  C   UNL A   1      41.701  22.336  26.451  1.00  0.00     0.055 A 
ATOM     78  C   UNL A   1      43.271  23.699  25.247  1.00  0.00     0.041 A 
ATOM     79  F   UNL A   1      43.938  25.762  26.134  1.00  0.00    -0.206 F 
ATOM     80  C   UNL A   1      42.540  22.521  25.350  1.00  0.00     0.022 A 
BRANCH  77  81
ATOM     81  S   UNL A   1      40.861  20.747  26.694  1.00  0.00     0.124 S 
ATOM     82  O   UNL A   1      40.886  20.618  28.147  1.00  0.00    -0.237 OA
ATOM     83  O   UNL A   1      39.555  21.003  26.095  1.00  0.00    -0.237 OA
ATOM     84  O   UNL A   1      41.704  19.802  25.967  1.00  0.00    -0.744 OA
ENDBRANCH  77  81
ENDBRANCH  50  74
BRANCH  62  85
ATOM     85  C   UNL A   1      46.727  26.143  32.521  1.00  0.00     0.023 A 
ATOM     86  C   UNL A   1      46.766  25.080  33.441  1.00  0.00     0.031 A 
ATOM     87  C   UNL A   1      47.950  26.638  32.032  1.00  0.00     0.131 A 
ATOM     88  C   UNL A   1      48.000  24.588  33.890  1.00  0.00     0.055 A 
ATOM     89  C   UNL A   1      49.174  26.097  32.429  1.00  0.00     0.041 A 
ATOM     90  F   UNL A   1      47.975  27.654  31.156  1.00  0.00    -0.206 F 
ATOM     91  C   UNL A   1      49.204  25.075  33.375  1.00  0.00     0.022 A 
BRANCH  88  92
ATOM     92  S   UNL A   1      48.014  23.370  35.233  1.00  0.00     0.124 S 
ATOM     93  O   UNL A   1      48.901  24.001  36.204  1.00  0.00    -0.237 OA
ATOM     94  O   UNL A   1      46.605  23.299  35.607  1.00  0.00    -0.237 OA
ATOM     95  O   UNL A   1      48.547  22.165  34.598  1.00  0.00    -0.744 OA
ENDBRANCH  88  92
ENDBRANCH  62  85
ENDBRANCH  36  37
ENDBRANCH  28  31
ENDBRANCH  26  27
ENDBRANCH  25  26
ENDBRANCH  24  25
ENDBRANCH   1  24
TORSDOF 21
ENDMDL
MODEL 2
REMARK VINA RESULT:     -10.3      2.472      7.944
REMARK SMILES CC[C@@H](C)[C@@H](C(=O)NCCCCCCNC(=O)c1ccc(-c2c3nc(c(-c4cc(S(=O)(=O)[O-])ccc4F)c4ccc([nH]4)c(-c4cc(S(=O)(=O)[O-])ccc4F)c4nc(c(-c5cc(S(=O)(=O)[O-])ccc5F)c5ccc2[nH]5)C=C4)C=C3)cc1)S(=O)(=O)c1ccc(OC)cc1
REMARK SMILES IDX 11 1 10 2 9 3 8 4 6 5 7 6 5 8 3 9 4 10 2 11 1 12 81 13 82 14
REMARK SMILES IDX 83 15 84 16 85 17 91 18 86 19 90 20 87 21 88 22 89 23 12 24
REMARK SMILES IDX 13 25 14 26 15 27 16 28 17 30 18 31 19 32 80 33 20 34 79 35
REMARK SMILES IDX 21 36 22 37 23 38 73 39 24 40 78 41 72 42 74 43 25 44 77 45
REMARK SMILES IDX 71 46 70 47 26 49 58 50 38 51 57 52 39 53 42 54 56 55 75 56
REMARK SMILES IDX 40 57 41 58 55 60 76 61 43 62 27 63 28 64 36 65 29 66 35 67
REMARK SMILES IDX 37 68 34 69 30 70 31 71 32 72 33 73 59 74 60 75 68 76 61 77
REMARK SMILES IDX 67 78 69 79 66 80 62 81 63 82 64 83 65 84 44 85 45 86 53 87
REMARK SMILES IDX 46 88 52 89 54 90 51 91 47 92 48 93 49 94 50 95
REMARK H PARENT 8 7 15 29 74 48 42 59
REMARK Flexibility Score: inf
ROOT
ATOM      1  C   UNL A   1      30.285  28.839  24.090  1.00  0.00     0.002 C 
ENDROOT
BRANCH   1   2
ATOM      2  C   UNL A   1      30.451  28.297  22.669  1.00  0.00     0.021 C 
BRANCH   2   3
ATOM      3  C   UNL A   1      31.081  26.894  22.575  1.00  0.00     0.116 C 
BRANCH   3   4
ATOM      4  N   UNL A   1      32.508  26.989  22.817  1.00  0.00    -0.355 N 
ATOM      5  C   UNL A   1      33.280  26.464  23.813  1.00  0.00     0.239 C 
ATOM      6  O   UNL A   1      34.248  27.159  24.126  1.00  0.00    -0.274 OA
ATOM      7  H   UNL A   1      33.002  27.520  22.152  1.00  0.00     0.163 HD
BRANCH   5   8
ATOM      8  C   UNL A   1      32.980  25.113  24.478  1.00  0.00     0.205 C 
BRANCH   8   9
ATOM      9  C   UNL A   1      32.650  25.165  26.011  1.00  0.00     0.014 C 
ATOM     10  C   UNL A   1      32.029  23.860  26.535  1.00  0.00     0.009 C 
BRANCH   9  11
ATOM     11  C   UNL A   1      31.686  26.317  26.339  1.00  0.00     0.002 C 
ATOM     12  C   UNL A   1      32.214  27.455  27.198  1.00  0.00     0.004 C 
ENDBRANCH   9  11
ENDBRANCH   8   9
BRANCH   8  13
ATOM     13  S   UNL A   1      34.421  24.052  24.086  1.00  0.00     0.190 S 
ATOM     14  O   UNL A   1      34.820  24.263  22.706  1.00  0.00    -0.223 OA
ATOM     15  O   UNL A   1      35.433  24.243  25.114  1.00  0.00    -0.223 OA
BRANCH  13  16
ATOM     16  C   UNL A   1      33.872  22.349  24.182  1.00  0.00     0.068 A 
ATOM     17  C   UNL A   1      32.700  21.959  23.533  1.00  0.00     0.024 A 
ATOM     18  C   UNL A   1      34.604  21.413  24.918  1.00  0.00     0.024 A 
ATOM     19  C   UNL A   1      32.326  20.613  23.531  1.00  0.00     0.048 A 
ATOM     20  C   UNL A   1      34.223  20.065  24.912  1.00  0.00     0.048 A 
ATOM     21  C   UNL A   1      33.093  19.657  24.201  1.00  0.00     0.118 A 
BRANCH  21  22
ATOM     22  O   UNL A   1      32.632  18.375  24.090  1.00  0.00    -0.497 OA
ATOM     23  C   UNL A   1      32.378  17.674  25.301  1.00  0.00     0.278 C 
ENDBRANCH  21  22
ENDBRANCH  13  16
ENDBRANCH   8  13
ENDBRANCH   5   8
ENDBRANCH   3   4
ENDBRANCH   2   3
ENDBRANCH   1   2
BRANCH   1  24
ATOM     24  C   UNL A   1      31.449  29.691  24.590  1.00  0.00     0.002 C 
BRANCH  24  25
ATOM     25  C   UNL A   1      31.058  30.823  25.544  1.00  0.00     0.021 C 
BRANCH  25  26
ATOM     26  C   UNL A   1      32.135  31.213  26.556  1.00  0.00     0.116 C 
BRANCH  26  27
ATOM     27  N   UNL A   1      32.121  32.639  26.838  1.00  0.00    -0.352 N 
ATOM     28  C   UNL A   1      32.922  33.366  27.683  1.00  0.00     0.251 C 
ATOM     29  H   UNL A   1      31.438  33.158  26.355  1.00  0.00     0.163 HD
ATOM     30  O   UNL A   1      32.601  34.508  27.997  1.00  0.00    -0.269 OA
BRANCH  28  31
ATOM     31  C   UNL A   1      34.158  32.761  28.222  1.00  0.00     0.039 A 
ATOM     32  C   UNL A   1      35.325  33.526  28.262  1.00  0.00     0.014 A 
ATOM     33  C   UNL A   1      34.165  31.443  28.687  1.00  0.00     0.014 A 
ATOM     34  C   UNL A   1      36.482  32.991  28.835  1.00  0.00     0.010 A 
ATOM     35  C   UNL A   1      35.298  30.936  29.320  1.00  0.00     0.010 A 
ATOM     36  C   UNL A   1      36.467  31.708  29.408  1.00  0.00    -0.014 A 
BRANCH  36  37
ATOM     37  C   UNL A   1      37.652  31.177  30.131  1.00  0.00     0.031 A 
ATOM     38  C   UNL A   1      38.546  30.155  29.483  1.00  0.00     0.074 A 
ATOM     39  C   UNL A   1      37.886  31.579  31.397  1.00  0.00     0.049 A 
ATOM     40  N   UNL A   1      39.586  29.535  29.980  1.00  0.00    -0.248 NA
ATOM     41  C   UNL A   1      38.213  29.759  28.107  1.00  0.00     0.031 C 
ATOM     42  C   UNL A   1      37.064  32.537  32.141  1.00  0.00     0.029 A 
ATOM     43  N   UNL A   1      38.871  31.230  32.287  1.00  0.00    -0.354 N 
ATOM     44  C   UNL A   1      40.027  28.671  28.984  1.00  0.00     0.074 A 
ATOM     45  C   UNL A   1      39.108  28.810  27.874  1.00  0.00     0.031 C 
ATOM     46  C   UNL A   1      37.593  32.716  33.362  1.00  0.00     0.029 A 
ATOM     47  C   UNL A   1      38.755  31.848  33.512  1.00  0.00     0.049 A 
ATOM     48  H   UNL A   1      39.594  30.598  32.069  1.00  0.00     0.167 HD
ATOM     49  C   UNL A   1      41.108  27.853  28.991  1.00  0.00     0.034 A 
ATOM     50  C   UNL A   1      39.487  31.714  34.637  1.00  0.00     0.034 A 
ATOM     51  C   UNL A   1      42.018  27.734  30.105  1.00  0.00     0.049 A 
ATOM     52  C   UNL A   1      40.663  30.768  34.629  1.00  0.00     0.074 A 
ATOM     53  C   UNL A   1      43.180  26.987  30.191  1.00  0.00     0.029 A 
ATOM     54  N   UNL A   1      41.862  28.365  31.333  1.00  0.00    -0.354 N 
ATOM     55  N   UNL A   1      41.105  30.009  33.652  1.00  0.00    -0.248 NA
ATOM     56  C   UNL A   1      41.443  30.669  35.868  1.00  0.00     0.031 C 
ATOM     57  C   UNL A   1      43.678  27.097  31.492  1.00  0.00     0.029 A 
ATOM     58  C   UNL A   1      42.881  27.986  32.195  1.00  0.00     0.049 A 
ATOM     59  H   UNL A   1      41.137  28.990  31.559  1.00  0.00     0.167 HD
ATOM     60  C   UNL A   1      42.231  29.363  34.155  1.00  0.00     0.074 A 
ATOM     61  C   UNL A   1      42.413  29.841  35.509  1.00  0.00     0.031 C 
ATOM     62  C   UNL A   1      43.042  28.457  33.551  1.00  0.00     0.034 A 
BRANCH  49  63
ATOM     63  C   UNL A   1      41.353  26.998  27.770  1.00  0.00     0.023 A 
ATOM     64  C   UNL A   1      41.031  25.629  27.745  1.00  0.00     0.031 A 
ATOM     65  C   UNL A   1      41.907  27.563  26.607  1.00  0.00     0.131 A 
ATOM     66  C   UNL A   1      41.320  24.862  26.607  1.00  0.00     0.055 A 
ATOM     67  C   UNL A   1      42.120  26.812  25.450  1.00  0.00     0.041 A 
ATOM     68  F   UNL A   1      42.257  28.860  26.578  1.00  0.00    -0.206 F 
ATOM     69  C   UNL A   1      41.837  25.450  25.449  1.00  0.00     0.022 A 
BRANCH  66  70
ATOM     70  S   UNL A   1      41.129  23.061  26.701  1.00  0.00     0.124 S 
ATOM     71  O   UNL A   1      42.118  22.609  25.724  1.00  0.00    -0.237 OA
ATOM     72  O   UNL A   1      41.437  22.783  28.098  1.00  0.00    -0.237 OA
ATOM     73  O   UNL A   1      39.737  22.843  26.313  1.00  0.00    -0.744 OA
ENDBRANCH  66  70
ENDBRANCH  49  63
BRANCH  50  74
ATOM     74  C   UNL A   1      39.120  32.462  35.876  1.00  0.00     0.023 A 
ATOM     75  C   UNL A   1      38.398  31.846  36.909  1.00  0.00     0.031 A 
ATOM     76  C   UNL A   1      39.436  33.826  36.018  1.00  0.00     0.131 A 
ATOM     77  C   UNL A   1      37.964  32.603  38.009  1.00  0.00     0.055 A 
ATOM     78  C   UNL A   1      39.059  34.559  37.144  1.00  0.00     0.041 A 
ATOM     79  F   UNL A   1      40.125  34.467  35.060  1.00  0.00    -0.206 F 
ATOM     80  C   UNL A   1      38.304  33.951  38.141  1.00  0.00     0.022 A 
BRANCH  77  81
ATOM     81  S   UNL A   1      36.850  31.827  39.212  1.00  0.00     0.124 S 
ATOM     82  O   UNL A   1      36.805  30.452  38.729  1.00  0.00    -0.237 OA
ATOM     83  O   UNL A   1      37.562  32.045  40.466  1.00  0.00    -0.237 OA
ATOM     84  O   UNL A   1      35.609  32.583  39.061  1.00  0.00    -0.744 OA
ENDBRANCH  77  81
ENDBRANCH  50  74
BRANCH  62  85
ATOM     85  C   UNL A   1      44.222  27.954  34.349  1.00  0.00     0.023 A 
ATOM     86  C   UNL A   1      44.129  26.814  35.167  1.00  0.00     0.031 A 
ATOM     87  C   UNL A   1      45.453  28.632  34.299  1.00  0.00     0.131 A 
ATOM     88  C   UNL A   1      45.226  26.422  35.948  1.00  0.00     0.055 A 
ATOM     89  C   UNL A   1      46.563  28.196  35.024  1.00  0.00     0.041 A 
ATOM     90  F   UNL A   1      45.599  29.729  33.540  1.00  0.00    -0.206 F 
ATOM     91  C   UNL A   1      46.449  27.093  35.866  1.00  0.00     0.022 A 
BRANCH  88  92
ATOM     92  S   UNL A   1      45.005  25.081  37.149  1.00  0.00     0.124 S 
ATOM     93  O   UNL A   1      43.884  25.571  37.945  1.00  0.00    -0.237 OA
ATOM     94  O   UNL A   1      44.726  23.935  36.291  1.00  0.00    -0.237 OA
ATOM     95  O   UNL A   1      46.288  25.033  37.850  1.00  0.00    -0.744 OA
ENDBRANCH  88  92
ENDBRANCH  62  85
ENDBRANCH  36  37
ENDBRANCH  28  31
ENDBRANCH  26  27
ENDBRANCH  25  26
ENDBRANCH  24  25
ENDBRANCH   1  24
TORSDOF 21
ENDMDL
MODEL 3
REMARK VINA RESULT:     -10.0      3.353      8.994
REMARK SMILES CC[C@@H](C)[C@@H](C(=O)NCCCCCCNC(=O)c1ccc(-c2c3nc(c(-c4cc(S(=O)(=O)[O-])ccc4F)c4ccc([nH]4)c(-c4cc(S(=O)(=O)[O-])ccc4F)c4nc(c(-c5cc(S(=O)(=O)[O-])ccc5F)c5ccc2[nH]5)C=C4)C=C3)cc1)S(=O)(=O)c1ccc(OC)cc1
REMARK SMILES IDX 11 1 10 2 9 3 8 4 6 5 7 6 5 8 3 9 4 10 2 11 1 12 81 13 82 14
REMARK SMILES IDX 83 15 84 16 85 17 91 18 86 19 90 20 87 21 88 22 89 23 12 24
REMARK SMILES IDX 13 25 14 26 15 27 16 28 17 30 18 31 19 32 80 33 20 34 79 35
REMARK SMILES IDX 21 36 22 37 23 38 73 39 24 40 78 41 72 42 74 43 25 44 77 45
REMARK SMILES IDX 71 46 70 47 26 49 58 50 38 51 57 52 39 53 42 54 56 55 75 56
REMARK SMILES IDX 40 57 41 58 55 60 76 61 43 62 27 63 28 64 36 65 29 66 35 67
REMARK SMILES IDX 37 68 34 69 30 70 31 71 32 72 33 73 59 74 60 75 68 76 61 77
REMARK SMILES IDX 67 78 69 79 66 80 62 81 63 82 64 83 65 84 44 85 45 86 53 87
REMARK SMILES IDX 46 88 52 89 54 90 51 91 47 92 48 93 49 94 50 95
REMARK H PARENT 8 7 15 29 74 48 42 59
REMARK Flexibility Score: inf
ROOT
ATOM      1  C   UNL A   1      32.056  28.662  27.096  1.00  0.00     0.002 C 
ENDROOT
BRANCH   1   2
ATOM      2  C   UNL A   1      31.105  27.566  26.614  1.00  0.00     0.021 C 
BRANCH   2   3
ATOM      3  C   UNL A   1      31.717  26.154  26.544  1.00  0.00     0.116 C 
BRANCH   3   4
ATOM      4  N   UNL A   1      33.124  26.255  26.205  1.00  0.00    -0.355 N 
ATOM      5  C   UNL A   1      33.845  25.667  25.206  1.00  0.00     0.239 C 
ATOM      6  O   UNL A   1      35.017  25.423  25.500  1.00  0.00    -0.274 OA
ATOM      7  H   UNL A   1      33.646  26.846  26.794  1.00  0.00     0.163 HD
BRANCH   5   8
ATOM      8  C   UNL A   1      33.255  25.353  23.824  1.00  0.00     0.205 C 
BRANCH   8   9
ATOM      9  C   UNL A   1      33.956  24.195  23.030  1.00  0.00     0.014 C 
ATOM     10  C   UNL A   1      33.044  23.561  21.966  1.00  0.00     0.009 C 
BRANCH   9  11
ATOM     11  C   UNL A   1      34.435  23.079  23.973  1.00  0.00     0.002 C 
ATOM     12  C   UNL A   1      33.476  21.932  24.252  1.00  0.00     0.004 C 
ENDBRANCH   9  11
ENDBRANCH   8   9
BRANCH   8  13
ATOM     13  S   UNL A   1      33.258  26.948  22.925  1.00  0.00     0.190 S 
ATOM     14  O   UNL A   1      34.092  27.905  23.630  1.00  0.00    -0.223 OA
ATOM     15  O   UNL A   1      33.566  26.693  21.525  1.00  0.00    -0.223 OA
BRANCH  13  16
ATOM     16  C   UNL A   1      31.592  27.605  22.996  1.00  0.00     0.068 A 
ATOM     17  C   UNL A   1      31.369  28.962  22.754  1.00  0.00     0.024 A 
ATOM     18  C   UNL A   1      30.518  26.769  23.311  1.00  0.00     0.024 A 
ATOM     19  C   UNL A   1      30.061  29.451  22.717  1.00  0.00     0.048 A 
ATOM     20  C   UNL A   1      29.209  27.266  23.272  1.00  0.00     0.048 A 
ATOM     21  C   UNL A   1      28.975  28.606  22.956  1.00  0.00     0.118 A 
BRANCH  21  22
ATOM     22  O   UNL A   1      27.751  29.208  22.855  1.00  0.00    -0.497 OA
ATOM     23  C   UNL A   1      27.706  30.614  23.065  1.00  0.00     0.278 C 
ENDBRANCH  21  22
ENDBRANCH  13  16
ENDBRANCH   8  13
ENDBRANCH   5   8
ENDBRANCH   3   4
ENDBRANCH   2   3
ENDBRANCH   1   2
BRANCH   1  24
ATOM     24  C   UNL A   1      32.153  29.876  26.174  1.00  0.00     0.002 C 
BRANCH  24  25
ATOM     25  C   UNL A   1      31.906  31.225  26.854  1.00  0.00     0.021 C 
BRANCH  25  26
ATOM     26  C   UNL A   1      33.169  32.016  27.191  1.00  0.00     0.116 C 
BRANCH  26  27
ATOM     27  N   UNL A   1      32.870  33.403  27.509  1.00  0.00    -0.352 N 
ATOM     28  C   UNL A   1      33.337  34.179  28.541  1.00  0.00     0.251 C 
ATOM     29  H   UNL A   1      32.241  33.850  26.898  1.00  0.00     0.163 HD
ATOM     30  O   UNL A   1      32.779  35.239  28.809  1.00  0.00    -0.269 OA
BRANCH  28  31
ATOM     31  C   UNL A   1      34.499  33.723  29.333  1.00  0.00     0.039 A 
ATOM     32  C   UNL A   1      34.290  32.847  30.399  1.00  0.00     0.014 A 
ATOM     33  C   UNL A   1      35.790  34.161  29.025  1.00  0.00     0.014 A 
ATOM     34  C   UNL A   1      35.386  32.352  31.110  1.00  0.00     0.010 A 
ATOM     35  C   UNL A   1      36.885  33.614  29.689  1.00  0.00     0.010 A 
ATOM     36  C   UNL A   1      36.695  32.697  30.735  1.00  0.00    -0.014 A 
BRANCH  36  37
ATOM     37  C   UNL A   1      37.872  32.080  31.402  1.00  0.00     0.031 A 
ATOM     38  C   UNL A   1      38.645  30.983  30.723  1.00  0.00     0.074 A 
ATOM     39  C   UNL A   1      38.204  32.475  32.648  1.00  0.00     0.049 A 
ATOM     40  N   UNL A   1      39.657  30.286  31.174  1.00  0.00    -0.248 NA
ATOM     41  C   UNL A   1      38.208  30.601  29.373  1.00  0.00     0.031 C 
ATOM     42  C   UNL A   1      37.503  33.503  33.421  1.00  0.00     0.029 A 
ATOM     43  N   UNL A   1      39.205  32.057  33.490  1.00  0.00    -0.354 N 
ATOM     44  C   UNL A   1      39.974  29.380  30.168  1.00  0.00     0.074 A 
ATOM     45  C   UNL A   1      39.010  29.580  29.107  1.00  0.00     0.031 C 
ATOM     46  C   UNL A   1      38.109  33.652  34.609  1.00  0.00     0.029 A 
ATOM     47  C   UNL A   1      39.204  32.694  34.711  1.00  0.00     0.049 A 
ATOM     48  H   UNL A   1      39.862  31.367  33.243  1.00  0.00     0.167 HD
ATOM     49  C   UNL A   1      40.985  28.477  30.130  1.00  0.00     0.034 A 
ATOM     50  C   UNL A   1      39.983  32.514  35.797  1.00  0.00     0.034 A 
ATOM     51  C   UNL A   1      41.941  28.297  31.197  1.00  0.00     0.049 A 
ATOM     52  C   UNL A   1      41.077  31.476  35.741  1.00  0.00     0.074 A 
ATOM     53  C   UNL A   1      43.042  27.459  31.232  1.00  0.00     0.029 A 
ATOM     54  N   UNL A   1      41.902  28.950  32.422  1.00  0.00    -0.354 N 
ATOM     55  N   UNL A   1      41.404  30.674  34.753  1.00  0.00    -0.248 NA
ATOM     56  C   UNL A   1      41.913  31.327  36.938  1.00  0.00     0.031 C 
ATOM     57  C   UNL A   1      43.617  27.542  32.503  1.00  0.00     0.029 A 
ATOM     58  C   UNL A   1      42.932  28.499  33.235  1.00  0.00     0.049 A 
ATOM     59  H   UNL A   1      41.242  29.634  32.677  1.00  0.00     0.167 HD
ATOM     60  C   UNL A   1      42.500  29.945  35.205  1.00  0.00     0.074 A 
ATOM     61  C   UNL A   1      42.792  30.420  36.541  1.00  0.00     0.031 C 
ATOM     62  C   UNL A   1      43.203  28.970  34.573  1.00  0.00     0.034 A 
BRANCH  49  63
ATOM     63  C   UNL A   1      41.094  27.592  28.911  1.00  0.00     0.023 A 
ATOM     64  C   UNL A   1      42.073  27.805  27.923  1.00  0.00     0.031 A 
ATOM     65  C   UNL A   1      40.211  26.512  28.737  1.00  0.00     0.131 A 
ATOM     66  C   UNL A   1      42.107  26.989  26.783  1.00  0.00     0.055 A 
ATOM     67  C   UNL A   1      40.300  25.654  27.639  1.00  0.00     0.041 A 
ATOM     68  F   UNL A   1      39.240  26.273  29.634  1.00  0.00    -0.206 F 
ATOM     69  C   UNL A   1      41.245  25.897  26.647  1.00  0.00     0.022 A 
BRANCH  66  70
ATOM     70  S   UNL A   1      43.211  27.447  25.420  1.00  0.00     0.124 S 
ATOM     71  O   UNL A   1      43.617  26.135  24.917  1.00  0.00    -0.237 OA
ATOM     72  O   UNL A   1      42.335  28.221  24.550  1.00  0.00    -0.237 OA
ATOM     73  O   UNL A   1      44.272  28.208  26.077  1.00  0.00    -0.744 OA
ENDBRANCH  66  70
ENDBRANCH  49  63
BRANCH  50  74
ATOM     74  C   UNL A   1      39.744  33.302  37.042  1.00  0.00     0.023 A 
ATOM     75  C   UNL A   1      40.546  34.406  37.368  1.00  0.00     0.031 A 
ATOM     76  C   UNL A   1      38.745  32.923  37.958  1.00  0.00     0.131 A 
ATOM     77  C   UNL A   1      40.376  35.057  38.600  1.00  0.00     0.055 A 
ATOM     78  C   UNL A   1      38.537  33.614  39.153  1.00  0.00     0.041 A 
ATOM     79  F   UNL A   1      37.948  31.874  37.699  1.00  0.00    -0.206 F 
ATOM     80  C   UNL A   1      39.366  34.678  39.487  1.00  0.00     0.022 A 
BRANCH  77  81
ATOM     81  S   UNL A   1      41.571  36.335  39.080  1.00  0.00     0.124 S 
ATOM     82  O   UNL A   1      41.599  36.184  40.530  1.00  0.00    -0.237 OA
ATOM     83  O   UNL A   1      42.771  35.907  38.367  1.00  0.00    -0.237 OA
ATOM     84  O   UNL A   1      40.963  37.569  38.590  1.00  0.00    -0.744 OA
ENDBRANCH  77  81
ENDBRANCH  50  74
BRANCH  62  85
ATOM     85  C   UNL A   1      44.380  28.381  35.315  1.00  0.00     0.023 A 
ATOM     86  C   UNL A   1      44.288  27.152  35.990  1.00  0.00     0.031 A 
ATOM     87  C   UNL A   1      45.607  29.067  35.356  1.00  0.00     0.131 A 
ATOM     88  C   UNL A   1      45.382  26.675  36.728  1.00  0.00     0.055 A 
ATOM     89  C   UNL A   1      46.714  28.554  36.033  1.00  0.00     0.041 A 
ATOM     90  F   UNL A   1      45.752  30.248  34.735  1.00  0.00    -0.206 F 
ATOM     91  C   UNL A   1      46.601  27.358  36.737  1.00  0.00     0.022 A 
BRANCH  88  92
ATOM     92  S   UNL A   1      45.160  25.200  37.759  1.00  0.00     0.124 S 
ATOM     93  O   UNL A   1      46.506  24.638  37.776  1.00  0.00    -0.237 OA
ATOM     94  O   UNL A   1      44.690  25.767  39.019  1.00  0.00    -0.237 OA
ATOM     95  O   UNL A   1      44.169  24.414  37.025  1.00  0.00    -0.744 OA
ENDBRANCH  88  92
ENDBRANCH  62  85
ENDBRANCH  36  37
ENDBRANCH  28  31
ENDBRANCH  26  27
ENDBRANCH  25  26
ENDBRANCH  24  25
ENDBRANCH   1  24
TORSDOF 21
ENDMDL
