MODEL 1
REMARK VINA RESULT:     -11.0      0.000      0.000
REMARK SMILES CC[C@@H](C)[C@H](NC(=O)N1CCn2c1nc1ccccc12)C(=O)N[C@H](C)C(=O)NCCCCCCNC(=O)c1ccc(-c2c3nc(c(-c4cc(S(=O)(=O)[O-])ccc4F)c4ccc([nH]4)c(-c4cc(S(=O)(=O)[O-])ccc4F)c4nc(c(-c5cc(S(=O)(=O)[O-])ccc5F)c5ccc2[nH]5)C=C4)C=C3)cc1
REMARK SMILES IDX 31 1 30 2 29 3 28 4 26 5 27 6 24 8 25 9 23 10 21 11 22 12
REMARK SMILES IDX 5 14 3 15 4 16 2 17 1 18 6 19 7 20 8 22 9 23 10 24 13 25
REMARK SMILES IDX 11 26 12 27 14 28 20 29 15 30 19 31 16 32 18 33 17 34 32 35
REMARK SMILES IDX 33 36 34 37 35 38 36 39 37 41 38 42 39 43 100 44 40 45 99 46
REMARK SMILES IDX 41 47 42 48 43 49 93 50 44 51 98 52 92 53 94 54 45 55 97 56
REMARK SMILES IDX 91 57 90 58 46 60 78 61 58 62 77 63 59 64 62 65 76 66 95 67
REMARK SMILES IDX 60 68 61 69 75 71 96 72 63 73 47 74 48 75 56 76 49 77 55 78
REMARK SMILES IDX 57 79 54 80 50 81 51 82 52 83 53 84 79 85 80 86 88 87 81 88
REMARK SMILES IDX 87 89 89 90 86 91 82 92 83 93 84 94 85 95 64 96 65 97 73 98
REMARK SMILES IDX 66 99 72 100 74 101 71 102 67 103 68 104 69 105 70 106
REMARK H PARENT 28 7 23 13 6 21 35 40 94 59 62 70
REMARK Flexibility Score: inf
ROOT
ATOM      1  C   UNL A   1      37.250  31.661  28.896  1.00  0.00     0.002 C 
ENDROOT
BRANCH   1   2
ATOM      2  C   UNL A   1      36.541  30.325  28.625  1.00  0.00     0.021 C 
BRANCH   2   3
ATOM      3  C   UNL A   1      35.924  29.970  27.241  1.00  0.00     0.116 C 
BRANCH   3   4
ATOM      4  N   UNL A   1      34.540  30.491  27.141  1.00  0.00    -0.354 N 
ATOM      5  C   UNL A   1      33.261  30.117  26.899  1.00  0.00     0.242 C 
ATOM      6  O   UNL A   1      32.482  31.089  26.950  1.00  0.00    -0.273 OA
ATOM      7  H   UNL A   1      34.556  31.460  27.311  1.00  0.00     0.163 HD
BRANCH   5   8
ATOM      8  C   UNL A   1      32.611  28.687  26.642  1.00  0.00     0.168 C 
ATOM      9  C   UNL A   1      31.583  28.374  27.770  1.00  0.00     0.041 C 
BRANCH   8  10
ATOM     10  N   UNL A   1      32.151  28.191  25.324  1.00  0.00    -0.343 N 
ATOM     11  C   UNL A   1      32.693  27.071  24.698  1.00  0.00     0.243 C 
ATOM     12  O   UNL A   1      33.769  27.191  24.107  1.00  0.00    -0.273 OA
ATOM     13  H   UNL A   1      31.427  28.676  24.868  1.00  0.00     0.164 HD
BRANCH  11  14
ATOM     14  C   UNL A   1      31.868  25.721  24.645  1.00  0.00     0.176 C 
BRANCH  14  15
ATOM     15  C   UNL A   1      30.538  25.797  23.851  1.00  0.00     0.018 C 
ATOM     16  C   UNL A   1      30.337  24.377  23.338  1.00  0.00     0.010 C 
BRANCH  15  17
ATOM     17  C   UNL A   1      30.545  27.077  22.973  1.00  0.00     0.002 C 
ATOM     18  C   UNL A   1      29.446  28.123  22.981  1.00  0.00     0.004 C 
ENDBRANCH  15  17
ENDBRANCH  14  15
BRANCH  14  19
ATOM     19  N   UNL A   1      31.625  25.170  25.985  1.00  0.00    -0.326 N 
ATOM     20  C   UNL A   1      31.683  23.860  26.360  1.00  0.00     0.324 C 
ATOM     21  H   UNL A   1      31.395  25.819  26.690  1.00  0.00     0.166 HD
ATOM     22  O   UNL A   1      30.895  23.478  27.230  1.00  0.00    -0.248 OA
BRANCH  20  23
ATOM     23  N   UNL A   1      32.495  22.980  25.704  1.00  0.00    -0.262 N 
ATOM     24  C   UNL A   1      32.132  21.589  25.383  1.00  0.00     0.152 C 
ATOM     25  C   UNL A   1      33.849  23.131  25.572  1.00  0.00     0.214 A 
ATOM     26  C   UNL A   1      33.470  20.857  25.152  1.00  0.00     0.148 C 
ATOM     27  N   UNL A   1      34.426  21.942  25.235  1.00  0.00    -0.308 N 
ATOM     28  N   UNL A   1      34.735  24.049  25.814  1.00  0.00    -0.212 NA
ATOM     29  C   UNL A   1      35.764  22.026  25.399  1.00  0.00     0.070 A 
ATOM     30  C   UNL A   1      35.938  23.378  25.720  1.00  0.00     0.091 A 
ATOM     31  C   UNL A   1      36.820  21.113  25.343  1.00  0.00     0.028 A 
ATOM     32  C   UNL A   1      37.224  23.856  25.968  1.00  0.00     0.031 A 
ATOM     33  C   UNL A   1      38.094  21.611  25.639  1.00  0.00     0.002 A 
ATOM     34  C   UNL A   1      38.294  22.956  25.952  1.00  0.00     0.002 A 
ENDBRANCH  20  23
ENDBRANCH  14  19
ENDBRANCH  11  14
ENDBRANCH   8  10
ENDBRANCH   5   8
ENDBRANCH   3   4
ENDBRANCH   2   3
ENDBRANCH   1   2
BRANCH   1  35
ATOM     35  C   UNL A   1      36.803  32.969  28.232  1.00  0.00     0.002 C 
BRANCH  35  36
ATOM     36  C   UNL A   1      35.500  33.671  28.641  1.00  0.00     0.021 C 
BRANCH  36  37
ATOM     37  C   UNL A   1      34.495  32.924  29.519  1.00  0.00     0.116 C 
BRANCH  37  38
ATOM     38  N   UNL A   1      34.060  33.637  30.712  1.00  0.00    -0.352 N 
ATOM     39  C   UNL A   1      34.694  33.772  31.929  1.00  0.00     0.251 C 
ATOM     40  H   UNL A   1      33.187  34.088  30.639  1.00  0.00     0.163 HD
ATOM     41  O   UNL A   1      34.201  34.467  32.813  1.00  0.00    -0.269 OA
BRANCH  39  42
ATOM     42  C   UNL A   1      35.958  33.049  32.162  1.00  0.00     0.039 A 
ATOM     43  C   UNL A   1      37.174  33.731  32.089  1.00  0.00     0.014 A 
ATOM     44  C   UNL A   1      35.924  31.663  32.356  1.00  0.00     0.014 A 
ATOM     45  C   UNL A   1      38.359  33.009  32.111  1.00  0.00     0.010 A 
ATOM     46  C   UNL A   1      37.120  30.945  32.404  1.00  0.00     0.010 A 
ATOM     47  C   UNL A   1      38.339  31.616  32.262  1.00  0.00    -0.014 A 
BRANCH  47  48
ATOM     48  C   UNL A   1      39.630  30.956  32.464  1.00  0.00     0.031 A 
ATOM     49  C   UNL A   1      40.623  31.177  31.385  1.00  0.00     0.074 A 
ATOM     50  C   UNL A   1      40.066  30.416  33.616  1.00  0.00     0.049 A 
ATOM     51  N   UNL A   1      41.449  32.176  31.406  1.00  0.00    -0.248 NA
ATOM     52  C   UNL A   1      40.632  30.417  30.137  1.00  0.00     0.031 C 
ATOM     53  C   UNL A   1      39.600  30.707  34.971  1.00  0.00     0.029 A 
ATOM     54  N   UNL A   1      41.125  29.567  33.803  1.00  0.00    -0.354 N 
ATOM     55  C   UNL A   1      42.073  32.211  30.177  1.00  0.00     0.074 A 
ATOM     56  C   UNL A   1      41.544  31.094  29.423  1.00  0.00     0.031 C 
ATOM     57  C   UNL A   1      40.455  30.138  35.855  1.00  0.00     0.029 A 
ATOM     58  C   UNL A   1      41.431  29.325  35.133  1.00  0.00     0.049 A 
ATOM     59  H   UNL A   1      41.625  29.164  33.057  1.00  0.00     0.167 HD
ATOM     60  C   UNL A   1      42.994  33.157  29.858  1.00  0.00     0.034 A 
ATOM     61  C   UNL A   1      42.652  28.952  35.611  1.00  0.00     0.034 A 
ATOM     62  C   UNL A   1      43.280  34.096  30.906  1.00  0.00     0.049 A 
ATOM     63  C   UNL A   1      43.541  30.009  35.007  1.00  0.00     0.074 A 
ATOM     64  C   UNL A   1      42.762  35.298  31.334  1.00  0.00     0.029 A 
ATOM     65  N   UNL A   1      44.157  33.716  31.897  1.00  0.00    -0.354 N 
ATOM     66  N   UNL A   1      43.617  31.233  35.462  1.00  0.00    -0.248 NA
ATOM     67  C   UNL A   1      44.084  29.835  33.660  1.00  0.00     0.031 C 
ATOM     68  C   UNL A   1      43.031  35.355  32.739  1.00  0.00     0.029 A 
ATOM     69  C   UNL A   1      43.640  34.150  33.096  1.00  0.00     0.049 A 
ATOM     70  H   UNL A   1      45.001  33.223  31.771  1.00  0.00     0.167 HD
ATOM     71  C   UNL A   1      43.920  32.028  34.356  1.00  0.00     0.074 A 
ATOM     72  C   UNL A   1      44.227  31.102  33.286  1.00  0.00     0.031 C 
ATOM     73  C   UNL A   1      43.713  33.380  34.326  1.00  0.00     0.034 A 
BRANCH  60  74
ATOM     74  C   UNL A   1      43.785  33.120  28.612  1.00  0.00     0.023 A 
ATOM     75  C   UNL A   1      44.769  32.154  28.364  1.00  0.00     0.031 A 
ATOM     76  C   UNL A   1      43.461  34.038  27.597  1.00  0.00     0.131 A 
ATOM     77  C   UNL A   1      45.382  32.115  27.102  1.00  0.00     0.055 A 
ATOM     78  C   UNL A   1      44.069  33.993  26.347  1.00  0.00     0.041 A 
ATOM     79  F   UNL A   1      42.524  34.978  27.811  1.00  0.00    -0.206 F 
ATOM     80  C   UNL A   1      45.031  33.021  26.092  1.00  0.00     0.022 A 
BRANCH  77  81
ATOM     81  S   UNL A   1      46.641  30.872  26.699  1.00  0.00     0.124 S 
ATOM     82  O   UNL A   1      47.860  31.674  26.650  1.00  0.00    -0.237 OA
ATOM     83  O   UNL A   1      46.539  29.958  27.834  1.00  0.00    -0.237 OA
ATOM     84  O   UNL A   1      46.198  30.327  25.420  1.00  0.00    -0.744 OA
ENDBRANCH  77  81
ENDBRANCH  60  74
BRANCH  61  85
ATOM     85  C   UNL A   1      42.901  27.472  35.506  1.00  0.00     0.023 A 
ATOM     86  C   UNL A   1      43.849  26.872  34.665  1.00  0.00     0.031 A 
ATOM     87  C   UNL A   1      42.055  26.593  36.215  1.00  0.00     0.131 A 
ATOM     88  C   UNL A   1      43.780  25.498  34.376  1.00  0.00     0.055 A 
ATOM     89  C   UNL A   1      42.028  25.212  35.976  1.00  0.00     0.041 A 
ATOM     90  F   UNL A   1      41.180  27.075  37.112  1.00  0.00    -0.206 F 
ATOM     91  C   UNL A   1      42.865  24.663  35.014  1.00  0.00     0.022 A 
BRANCH  88  92
ATOM     92  S   UNL A   1      44.822  24.792  33.069  1.00  0.00     0.124 S 
ATOM     93  O   UNL A   1      46.134  25.356  33.370  1.00  0.00    -0.237 OA
ATOM     94  O   UNL A   1      44.671  23.362  33.325  1.00  0.00    -0.237 OA
ATOM     95  O   UNL A   1      44.199  25.278  31.843  1.00  0.00    -0.744 OA
ENDBRANCH  88  92
ENDBRANCH  61  85
BRANCH  73  96
ATOM     96  C   UNL A   1      43.293  33.997  35.633  1.00  0.00     0.023 A 
ATOM     97  C   UNL A   1      41.974  34.449  35.840  1.00  0.00     0.031 A 
ATOM     98  C   UNL A   1      44.220  34.175  36.675  1.00  0.00     0.131 A 
ATOM     99  C   UNL A   1      41.636  35.117  37.024  1.00  0.00     0.055 A 
ATOM    100  C   UNL A   1      43.859  34.776  37.884  1.00  0.00     0.041 A 
ATOM    101  F   UNL A   1      45.500  33.797  36.527  1.00  0.00    -0.206 F 
ATOM    102  C   UNL A   1      42.567  35.264  38.058  1.00  0.00     0.022 A 
BRANCH  99 103
ATOM    103  S   UNL A   1      40.000  35.869  37.241  1.00  0.00     0.124 S 
ATOM    104  O   UNL A   1      39.625  36.223  35.872  1.00  0.00    -0.237 OA
ATOM    105  O   UNL A   1      39.238  34.767  37.826  1.00  0.00    -0.237 OA
ATOM    106  O   UNL A   1      40.240  37.005  38.125  1.00  0.00    -0.744 OA
ENDBRANCH  99 103
ENDBRANCH  73  96
ENDBRANCH  47  48
ENDBRANCH  39  42
ENDBRANCH  37  38
ENDBRANCH  36  37
ENDBRANCH  35  36
ENDBRANCH   1  35
TORSDOF 22
ENDMDL
MODEL 2
REMARK VINA RESULT:     -10.7      1.698      2.546
REMARK SMILES CC[C@@H](C)[C@H](NC(=O)N1CCn2c1nc1ccccc12)C(=O)N[C@H](C)C(=O)NCCCCCCNC(=O)c1ccc(-c2c3nc(c(-c4cc(S(=O)(=O)[O-])ccc4F)c4ccc([nH]4)c(-c4cc(S(=O)(=O)[O-])ccc4F)c4nc(c(-c5cc(S(=O)(=O)[O-])ccc5F)c5ccc2[nH]5)C=C4)C=C3)cc1
REMARK SMILES IDX 31 1 30 2 29 3 28 4 26 5 27 6 24 8 25 9 23 10 21 11 22 12
REMARK SMILES IDX 5 14 3 15 4 16 2 17 1 18 6 19 7 20 8 22 9 23 10 24 13 25
REMARK SMILES IDX 11 26 12 27 14 28 20 29 15 30 19 31 16 32 18 33 17 34 32 35
REMARK SMILES IDX 33 36 34 37 35 38 36 39 37 41 38 42 39 43 100 44 40 45 99 46
REMARK SMILES IDX 41 47 42 48 43 49 93 50 44 51 98 52 92 53 94 54 45 55 97 56
REMARK SMILES IDX 91 57 90 58 46 60 78 61 58 62 77 63 59 64 62 65 76 66 95 67
REMARK SMILES IDX 60 68 61 69 75 71 96 72 63 73 47 74 48 75 56 76 49 77 55 78
REMARK SMILES IDX 57 79 54 80 50 81 51 82 52 83 53 84 79 85 80 86 88 87 81 88
REMARK SMILES IDX 87 89 89 90 86 91 82 92 83 93 84 94 85 95 64 96 65 97 73 98
REMARK SMILES IDX 66 99 72 100 74 101 71 102 67 103 68 104 69 105 70 106
REMARK H PARENT 28 7 23 13 6 21 35 40 94 59 62 70
REMARK Flexibility Score: inf
ROOT
ATOM      1  C   UNL A   1      36.400  29.976  27.951  1.00  0.00     0.002 C 
ENDROOT
BRANCH   1   2
ATOM      2  C   UNL A   1      35.056  29.372  27.512  1.00  0.00     0.021 C 
BRANCH   2   3
ATOM      3  C   UNL A   1      33.848  30.248  27.072  1.00  0.00     0.116 C 
BRANCH   3   4
ATOM      4  N   UNL A   1      33.535  30.018  25.641  1.00  0.00    -0.354 N 
ATOM      5  C   UNL A   1      33.111  29.074  24.768  1.00  0.00     0.242 C 
ATOM      6  O   UNL A   1      33.050  29.520  23.604  1.00  0.00    -0.273 OA
ATOM      7  H   UNL A   1      33.693  30.853  25.146  1.00  0.00     0.163 HD
BRANCH   5   8
ATOM      8  C   UNL A   1      32.629  27.573  24.988  1.00  0.00     0.168 C 
ATOM      9  C   UNL A   1      31.452  27.550  26.009  1.00  0.00     0.041 C 
BRANCH   8  10
ATOM     10  N   UNL A   1      32.440  26.577  23.907  1.00  0.00    -0.343 N 
ATOM     11  C   UNL A   1      33.283  25.485  23.718  1.00  0.00     0.243 C 
ATOM     12  O   UNL A   1      34.364  25.669  23.152  1.00  0.00    -0.273 OA
ATOM     13  H   UNL A   1      31.680  26.693  23.291  1.00  0.00     0.164 HD
BRANCH  11  14
ATOM     14  C   UNL A   1      32.790  24.032  24.107  1.00  0.00     0.176 C 
BRANCH  14  15
ATOM     15  C   UNL A   1      31.888  23.342  23.052  1.00  0.00     0.018 C 
ATOM     16  C   UNL A   1      30.473  23.683  23.503  1.00  0.00     0.010 C 
BRANCH  15  17
ATOM     17  C   UNL A   1      32.425  21.911  22.784  1.00  0.00     0.002 C 
ATOM     18  C   UNL A   1      31.837  20.957  21.761  1.00  0.00     0.004 C 
ENDBRANCH  15  17
ENDBRANCH  14  15
BRANCH  14  19
ATOM     19  N   UNL A   1      32.139  24.005  25.424  1.00  0.00    -0.326 N 
ATOM     20  C   UNL A   1      32.115  22.968  26.309  1.00  0.00     0.324 C 
ATOM     21  H   UNL A   1      31.668  24.827  25.696  1.00  0.00     0.166 HD
ATOM     22  O   UNL A   1      31.097  22.823  26.993  1.00  0.00    -0.248 OA
BRANCH  20  23
ATOM     23  N   UNL A   1      33.126  22.052  26.342  1.00  0.00    -0.262 N 
ATOM     24  C   UNL A   1      34.551  22.385  26.511  1.00  0.00     0.152 C 
ATOM     25  C   UNL A   1      33.019  20.769  25.877  1.00  0.00     0.214 A 
ATOM     26  C   UNL A   1      35.327  21.169  25.966  1.00  0.00     0.148 C 
ATOM     27  N   UNL A   1      34.258  20.235  25.677  1.00  0.00    -0.308 N 
ATOM     28  N   UNL A   1      32.077  19.985  25.447  1.00  0.00    -0.212 NA
ATOM     29  C   UNL A   1      34.150  19.103  24.947  1.00  0.00     0.070 A 
ATOM     30  C   UNL A   1      32.762  18.943  24.855  1.00  0.00     0.091 A 
ATOM     31  C   UNL A   1      35.061  18.234  24.341  1.00  0.00     0.028 A 
ATOM     32  C   UNL A   1      32.251  17.851  24.154  1.00  0.00     0.031 A 
ATOM     33  C   UNL A   1      34.520  17.172  23.607  1.00  0.00     0.002 A 
ATOM     34  C   UNL A   1      33.140  16.986  23.509  1.00  0.00     0.002 A 
ENDBRANCH  20  23
ENDBRANCH  14  19
ENDBRANCH  11  14
ENDBRANCH   8  10
ENDBRANCH   5   8
ENDBRANCH   3   4
ENDBRANCH   2   3
ENDBRANCH   1   2
BRANCH   1  35
ATOM     35  C   UNL A   1      36.535  31.448  28.360  1.00  0.00     0.002 C 
BRANCH  35  36
ATOM     36  C   UNL A   1      35.308  32.365  28.471  1.00  0.00     0.021 C 
BRANCH  36  37
ATOM     37  C   UNL A   1      35.369  33.586  29.389  1.00  0.00     0.116 C 
BRANCH  37  38
ATOM     38  N   UNL A   1      34.470  33.551  30.535  1.00  0.00    -0.352 N 
ATOM     39  C   UNL A   1      34.680  33.029  31.793  1.00  0.00     0.251 C 
ATOM     40  H   UNL A   1      33.586  33.959  30.388  1.00  0.00     0.163 HD
ATOM     41  O   UNL A   1      33.821  33.141  32.664  1.00  0.00    -0.269 OA
BRANCH  39  42
ATOM     42  C   UNL A   1      35.938  32.311  32.070  1.00  0.00     0.039 A 
ATOM     43  C   UNL A   1      37.094  33.028  32.381  1.00  0.00     0.014 A 
ATOM     44  C   UNL A   1      35.975  30.920  31.921  1.00  0.00     0.014 A 
ATOM     45  C   UNL A   1      38.310  32.361  32.444  1.00  0.00     0.010 A 
ATOM     46  C   UNL A   1      37.198  30.250  32.010  1.00  0.00     0.010 A 
ATOM     47  C   UNL A   1      38.370  30.974  32.253  1.00  0.00    -0.014 A 
BRANCH  47  48
ATOM     48  C   UNL A   1      39.655  30.326  32.521  1.00  0.00     0.031 A 
ATOM     49  C   UNL A   1      40.670  30.482  31.451  1.00  0.00     0.074 A 
ATOM     50  C   UNL A   1      40.065  29.854  33.711  1.00  0.00     0.049 A 
ATOM     51  N   UNL A   1      41.498  31.480  31.431  1.00  0.00    -0.248 NA
ATOM     52  C   UNL A   1      40.703  29.650  30.251  1.00  0.00     0.031 C 
ATOM     53  C   UNL A   1      39.572  30.226  35.037  1.00  0.00     0.029 A 
ATOM     54  N   UNL A   1      41.118  29.017  33.971  1.00  0.00    -0.354 N 
ATOM     55  C   UNL A   1      42.148  31.441  30.216  1.00  0.00     0.074 A 
ATOM     56  C   UNL A   1      41.632  30.282  29.518  1.00  0.00     0.031 C 
ATOM     57  C   UNL A   1      40.406  29.708  35.970  1.00  0.00     0.029 A 
ATOM     58  C   UNL A   1      41.396  28.853  35.319  1.00  0.00     0.049 A 
ATOM     59  H   UNL A   1      41.632  28.570  33.260  1.00  0.00     0.167 HD
ATOM     60  C   UNL A   1      43.077  32.366  29.861  1.00  0.00     0.034 A 
ATOM     61  C   UNL A   1      42.605  28.508  35.844  1.00  0.00     0.034 A 
ATOM     62  C   UNL A   1      43.343  33.365  30.857  1.00  0.00     0.049 A 
ATOM     63  C   UNL A   1      43.509  29.527  35.197  1.00  0.00     0.074 A 
ATOM     64  C   UNL A   1      42.819  34.590  31.203  1.00  0.00     0.029 A 
ATOM     65  N   UNL A   1      44.199  33.043  31.887  1.00  0.00    -0.354 N 
ATOM     66  N   UNL A   1      43.578  30.775  35.580  1.00  0.00    -0.248 NA
ATOM     67  C   UNL A   1      44.080  29.273  33.874  1.00  0.00     0.031 C 
ATOM     68  C   UNL A   1      43.059  34.730  32.607  1.00  0.00     0.029 A 
ATOM     69  C   UNL A   1      43.657  33.548  33.047  1.00  0.00     0.049 A 
ATOM     70  H   UNL A   1      45.043  32.543  31.808  1.00  0.00     0.167 HD
ATOM     71  C   UNL A   1      43.906  31.504  34.436  1.00  0.00     0.074 A 
ATOM     72  C   UNL A   1      44.233  30.515  33.429  1.00  0.00     0.031 C 
ATOM     73  C   UNL A   1      43.703  32.851  34.322  1.00  0.00     0.034 A 
BRANCH  60  74
ATOM     74  C   UNL A   1      43.893  32.254  28.636  1.00  0.00     0.023 A 
ATOM     75  C   UNL A   1      43.676  33.050  27.502  1.00  0.00     0.031 A 
ATOM     76  C   UNL A   1      44.993  31.378  28.652  1.00  0.00     0.131 A 
ATOM     77  C   UNL A   1      44.579  32.967  26.431  1.00  0.00     0.055 A 
ATOM     78  C   UNL A   1      45.886  31.302  27.589  1.00  0.00     0.041 A 
ATOM     79  F   UNL A   1      45.219  30.599  29.724  1.00  0.00    -0.206 F 
ATOM     80  C   UNL A   1      45.685  32.107  26.472  1.00  0.00     0.022 A 
BRANCH  77  81
ATOM     81  S   UNL A   1      44.381  33.991  24.945  1.00  0.00     0.124 S 
ATOM     82  O   UNL A   1      43.249  34.838  25.305  1.00  0.00    -0.237 OA
ATOM     83  O   UNL A   1      45.672  34.670  24.870  1.00  0.00    -0.237 OA
ATOM     84  O   UNL A   1      44.127  33.021  23.884  1.00  0.00    -0.744 OA
ENDBRANCH  77  81
ENDBRANCH  60  74
BRANCH  61  85
ATOM     85  C   UNL A   1      42.854  27.024  35.831  1.00  0.00     0.023 A 
ATOM     86  C   UNL A   1      43.878  26.384  35.119  1.00  0.00     0.031 A 
ATOM     87  C   UNL A   1      41.933  26.181  36.489  1.00  0.00     0.131 A 
ATOM     88  C   UNL A   1      43.828  24.999  34.886  1.00  0.00     0.055 A 
ATOM     89  C   UNL A   1      41.921  24.790  36.311  1.00  0.00     0.041 A 
ATOM     90  F   UNL A   1      40.975  26.705  37.270  1.00  0.00    -0.206 F 
ATOM     91  C   UNL A   1      42.848  24.196  35.465  1.00  0.00     0.022 A 
BRANCH  88  92
ATOM     92  S   UNL A   1      44.993  24.231  33.726  1.00  0.00     0.124 S 
ATOM     93  O   UNL A   1      44.104  23.569  32.775  1.00  0.00    -0.237 OA
ATOM     94  O   UNL A   1      45.706  25.402  33.220  1.00  0.00    -0.237 OA
ATOM     95  O   UNL A   1      45.776  23.341  34.576  1.00  0.00    -0.744 OA
ENDBRANCH  88  92
ENDBRANCH  61  85
BRANCH  73  96
ATOM     96  C   UNL A   1      43.257  33.545  35.581  1.00  0.00     0.023 A 
ATOM     97  C   UNL A   1      41.896  33.818  35.825  1.00  0.00     0.031 A 
ATOM     98  C   UNL A   1      44.195  33.977  36.535  1.00  0.00     0.131 A 
ATOM     99  C   UNL A   1      41.517  34.559  36.952  1.00  0.00     0.055 A 
ATOM    100  C   UNL A   1      43.805  34.652  37.694  1.00  0.00     0.041 A 
ATOM    101  F   UNL A   1      45.510  33.777  36.344  1.00  0.00    -0.206 F 
ATOM    102  C   UNL A   1      42.464  34.960  37.900  1.00  0.00     0.022 A 
BRANCH  99 103
ATOM    103  S   UNL A   1      39.797  35.080  37.195  1.00  0.00     0.124 S 
ATOM    104  O   UNL A   1      39.062  34.193  36.293  1.00  0.00    -0.237 OA
ATOM    105  O   UNL A   1      39.601  34.816  38.619  1.00  0.00    -0.237 OA
ATOM    106  O   UNL A   1      39.790  36.488  36.810  1.00  0.00    -0.744 OA
ENDBRANCH  99 103
ENDBRANCH  73  96
ENDBRANCH  47  48
ENDBRANCH  39  42
ENDBRANCH  37  38
ENDBRANCH  36  37
ENDBRANCH  35  36
ENDBRANCH   1  35
TORSDOF 22
ENDMDL
MODEL 3
REMARK VINA RESULT:     -10.7      1.742      3.605
REMARK SMILES CC[C@@H](C)[C@H](NC(=O)N1CCn2c1nc1ccccc12)C(=O)N[C@H](C)C(=O)NCCCCCCNC(=O)c1ccc(-c2c3nc(c(-c4cc(S(=O)(=O)[O-])ccc4F)c4ccc([nH]4)c(-c4cc(S(=O)(=O)[O-])ccc4F)c4nc(c(-c5cc(S(=O)(=O)[O-])ccc5F)c5ccc2[nH]5)C=C4)C=C3)cc1
REMARK SMILES IDX 31 1 30 2 29 3 28 4 26 5 27 6 24 8 25 9 23 10 21 11 22 12
REMARK SMILES IDX 5 14 3 15 4 16 2 17 1 18 6 19 7 20 8 22 9 23 10 24 13 25
REMARK SMILES IDX 11 26 12 27 14 28 20 29 15 30 19 31 16 32 18 33 17 34 32 35
REMARK SMILES IDX 33 36 34 37 35 38 36 39 37 41 38 42 39 43 100 44 40 45 99 46
REMARK SMILES IDX 41 47 42 48 43 49 93 50 44 51 98 52 92 53 94 54 45 55 97 56
REMARK SMILES IDX 91 57 90 58 46 60 78 61 58 62 77 63 59 64 62 65 76 66 95 67
REMARK SMILES IDX 60 68 61 69 75 71 96 72 63 73 47 74 48 75 56 76 49 77 55 78
REMARK SMILES IDX 57 79 54 80 50 81 51 82 52 83 53 84 79 85 80 86 88 87 81 88
REMARK SMILES IDX 87 89 89 90 86 91 82 92 83 93 84 94 85 95 64 96 65 97 73 98
REMARK SMILES IDX 66 99 72 100 74 101 71 102 67 103 68 104 69 105 70 106
REMARK H PARENT 28 7 23 13 6 21 35 40 94 59 62 70
REMARK Flexibility Score: inf
ROOT
ATOM      1  C   UNL A   1      37.268  31.444  28.979  1.00  0.00     0.002 C 
ENDROOT
BRANCH   1   2
ATOM      2  C   UNL A   1      36.229  30.322  28.825  1.00  0.00     0.021 C 
BRANCH   2   3
ATOM      3  C   UNL A   1      35.750  29.809  27.436  1.00  0.00     0.116 C 
BRANCH   3   4
ATOM      4  N   UNL A   1      34.280  29.953  27.308  1.00  0.00    -0.354 N 
ATOM      5  C   UNL A   1      33.140  29.251  27.106  1.00  0.00     0.242 C 
ATOM      6  O   UNL A   1      32.139  29.996  27.090  1.00  0.00    -0.273 OA
ATOM      7  H   UNL A   1      34.048  30.905  27.404  1.00  0.00     0.163 HD
BRANCH   5   8
ATOM      8  C   UNL A   1      32.876  27.688  26.963  1.00  0.00     0.168 C 
ATOM      9  C   UNL A   1      31.356  27.400  27.148  1.00  0.00     0.041 C 
BRANCH   8  10
ATOM     10  N   UNL A   1      33.480  26.818  25.927  1.00  0.00    -0.343 N 
ATOM     11  C   UNL A   1      33.094  25.497  25.718  1.00  0.00     0.243 C 
ATOM     12  O   UNL A   1      33.527  24.630  26.481  1.00  0.00    -0.273 OA
ATOM     13  H   UNL A   1      34.190  27.193  25.357  1.00  0.00     0.164 HD
BRANCH  11  14
ATOM     14  C   UNL A   1      32.227  25.121  24.448  1.00  0.00     0.176 C 
BRANCH  14  15
ATOM     15  C   UNL A   1      31.332  23.865  24.615  1.00  0.00     0.018 C 
ATOM     16  C   UNL A   1      31.019  23.447  23.184  1.00  0.00     0.010 C 
BRANCH  15  17
ATOM     17  C   UNL A   1      30.279  24.138  25.722  1.00  0.00     0.002 C 
ATOM     18  C   UNL A   1      30.136  23.309  26.985  1.00  0.00     0.004 C 
ENDBRANCH  15  17
ENDBRANCH  14  15
BRANCH  14  19
ATOM     19  N   UNL A   1      33.048  24.997  23.236  1.00  0.00    -0.326 N 
ATOM     20  C   UNL A   1      33.136  25.887  22.207  1.00  0.00     0.324 C 
ATOM     21  H   UNL A   1      33.597  24.182  23.159  1.00  0.00     0.166 HD
ATOM     22  O   UNL A   1      33.299  25.434  21.070  1.00  0.00    -0.248 OA
BRANCH  20  23
ATOM     23  N   UNL A   1      32.920  27.219  22.413  1.00  0.00    -0.262 N 
ATOM     24  C   UNL A   1      33.866  28.125  23.088  1.00  0.00     0.152 C 
ATOM     25  C   UNL A   1      31.691  27.820  22.355  1.00  0.00     0.214 A 
ATOM     26  C   UNL A   1      33.023  29.328  23.556  1.00  0.00     0.148 C 
ATOM     27  N   UNL A   1      31.728  29.032  22.978  1.00  0.00    -0.308 N 
ATOM     28  N   UNL A   1      30.486  27.493  21.999  1.00  0.00    -0.212 NA
ATOM     29  C   UNL A   1      30.468  29.476  23.179  1.00  0.00     0.070 A 
ATOM     30  C   UNL A   1      29.706  28.510  22.512  1.00  0.00     0.091 A 
ATOM     31  C   UNL A   1      29.904  30.552  23.869  1.00  0.00     0.028 A 
ATOM     32  C   UNL A   1      28.317  28.632  22.501  1.00  0.00     0.031 A 
ATOM     33  C   UNL A   1      28.506  30.626  23.878  1.00  0.00     0.002 A 
ATOM     34  C   UNL A   1      27.725  29.680  23.211  1.00  0.00     0.002 A 
ENDBRANCH  20  23
ENDBRANCH  14  19
ENDBRANCH  11  14
ENDBRANCH   8  10
ENDBRANCH   5   8
ENDBRANCH   3   4
ENDBRANCH   2   3
ENDBRANCH   1   2
BRANCH   1  35
ATOM     35  C   UNL A   1      36.977  32.887  28.549  1.00  0.00     0.002 C 
BRANCH  35  36
ATOM     36  C   UNL A   1      35.617  33.546  28.824  1.00  0.00     0.021 C 
BRANCH  36  37
ATOM     37  C   UNL A   1      34.577  32.792  29.654  1.00  0.00     0.116 C 
BRANCH  37  38
ATOM     38  N   UNL A   1      34.145  33.463  30.872  1.00  0.00    -0.352 N 
ATOM     39  C   UNL A   1      34.776  33.543  32.095  1.00  0.00     0.251 C 
ATOM     40  H   UNL A   1      33.278  33.926  30.813  1.00  0.00     0.163 HD
ATOM     41  O   UNL A   1      34.288  34.209  33.004  1.00  0.00    -0.269 OA
BRANCH  39  42
ATOM     42  C   UNL A   1      36.031  32.796  32.304  1.00  0.00     0.039 A 
ATOM     43  C   UNL A   1      37.254  33.466  32.263  1.00  0.00     0.014 A 
ATOM     44  C   UNL A   1      35.979  31.405  32.444  1.00  0.00     0.014 A 
ATOM     45  C   UNL A   1      38.431  32.730  32.262  1.00  0.00     0.010 A 
ATOM     46  C   UNL A   1      37.167  30.671  32.468  1.00  0.00     0.010 A 
ATOM     47  C   UNL A   1      38.395  31.333  32.358  1.00  0.00    -0.014 A 
BRANCH  47  48
ATOM     48  C   UNL A   1      39.677  30.651  32.538  1.00  0.00     0.031 A 
ATOM     49  C   UNL A   1      40.669  30.883  31.461  1.00  0.00     0.074 A 
ATOM     50  C   UNL A   1      40.109  30.077  33.675  1.00  0.00     0.049 A 
ATOM     51  N   UNL A   1      41.509  31.870  31.503  1.00  0.00    -0.248 NA
ATOM     52  C   UNL A   1      40.662  30.154  30.195  1.00  0.00     0.031 C 
ATOM     53  C   UNL A   1      39.652  30.342  35.039  1.00  0.00     0.029 A 
ATOM     54  N   UNL A   1      41.156  29.209  33.838  1.00  0.00    -0.354 N 
ATOM     55  C   UNL A   1      42.129  31.925  30.273  1.00  0.00     0.074 A 
ATOM     56  C   UNL A   1      41.582  30.834  29.495  1.00  0.00     0.031 C 
ATOM     57  C   UNL A   1      40.502  29.739  35.906  1.00  0.00     0.029 A 
ATOM     58  C   UNL A   1      41.464  28.930  35.161  1.00  0.00     0.049 A 
ATOM     59  H   UNL A   1      41.648  28.817  33.080  1.00  0.00     0.167 HD
ATOM     60  C   UNL A   1      43.062  32.866  29.973  1.00  0.00     0.034 A 
ATOM     61  C   UNL A   1      42.681  28.529  35.625  1.00  0.00     0.034 A 
ATOM     62  C   UNL A   1      43.364  33.775  31.042  1.00  0.00     0.049 A 
ATOM     63  C   UNL A   1      43.583  29.588  35.043  1.00  0.00     0.074 A 
ATOM     64  C   UNL A   1      42.865  34.974  31.501  1.00  0.00     0.029 A 
ATOM     65  N   UNL A   1      44.240  33.359  32.020  1.00  0.00    -0.354 N 
ATOM     66  N   UNL A   1      43.678  30.799  35.526  1.00  0.00    -0.248 NA
ATOM     67  C   UNL A   1      44.119  29.438  33.689  1.00  0.00     0.031 C 
ATOM     68  C   UNL A   1      43.140  34.993  32.906  1.00  0.00     0.029 A 
ATOM     69  C   UNL A   1      43.733  33.772  33.231  1.00  0.00     0.049 A 
ATOM     70  H   UNL A   1      45.076  32.858  31.879  1.00  0.00     0.167 HD
ATOM     71  C   UNL A   1      43.988  31.617  34.438  1.00  0.00     0.074 A 
ATOM     72  C   UNL A   1      44.278  30.712  33.346  1.00  0.00     0.031 C 
ATOM     73  C   UNL A   1      43.800  32.971  34.442  1.00  0.00     0.034 A 
BRANCH  60  74
ATOM     74  C   UNL A   1      43.847  32.848  28.723  1.00  0.00     0.023 A 
ATOM     75  C   UNL A   1      44.802  31.861  28.439  1.00  0.00     0.031 A 
ATOM     76  C   UNL A   1      43.548  33.809  27.741  1.00  0.00     0.131 A 
ATOM     77  C   UNL A   1      45.409  31.848  27.174  1.00  0.00     0.055 A 
ATOM     78  C   UNL A   1      44.151  33.789  26.488  1.00  0.00     0.041 A 
ATOM     79  F   UNL A   1      42.641  34.769  27.991  1.00  0.00    -0.206 F 
ATOM     80  C   UNL A   1      45.082  32.798  26.197  1.00  0.00     0.022 A 
BRANCH  77  81
ATOM     81  S   UNL A   1      46.629  30.582  26.723  1.00  0.00     0.124 S 
ATOM     82  O   UNL A   1      46.207  30.214  25.375  1.00  0.00    -0.237 OA
ATOM     83  O   UNL A   1      47.883  31.328  26.804  1.00  0.00    -0.237 OA
ATOM     84  O   UNL A   1      46.454  29.549  27.740  1.00  0.00    -0.744 OA
ENDBRANCH  77  81
ENDBRANCH  60  74
BRANCH  61  85
ATOM     85  C   UNL A   1      42.910  27.049  35.483  1.00  0.00     0.023 A 
ATOM     86  C   UNL A   1      43.825  26.454  34.603  1.00  0.00     0.031 A 
ATOM     87  C   UNL A   1      42.073  26.165  36.199  1.00  0.00     0.131 A 
ATOM     88  C   UNL A   1      43.730  25.088  34.289  1.00  0.00     0.055 A 
ATOM     89  C   UNL A   1      42.023  24.790  35.934  1.00  0.00     0.041 A 
ATOM     90  F   UNL A   1      41.231  26.639  37.131  1.00  0.00    -0.206 F 
ATOM     91  C   UNL A   1      42.825  24.251  34.937  1.00  0.00     0.022 A 
BRANCH  88  92
ATOM     92  S   UNL A   1      44.726  24.396  32.938  1.00  0.00     0.124 S 
ATOM     93  O   UNL A   1      46.080  24.454  33.481  1.00  0.00    -0.237 OA
ATOM     94  O   UNL A   1      44.148  23.061  32.813  1.00  0.00    -0.237 OA
ATOM     95  O   UNL A   1      44.458  25.301  31.826  1.00  0.00    -0.744 OA
ENDBRANCH  88  92
ENDBRANCH  61  85
BRANCH  73  96
ATOM     96  C   UNL A   1      43.394  33.563  35.765  1.00  0.00     0.023 A 
ATOM     97  C   UNL A   1      42.123  33.310  36.322  1.00  0.00     0.031 A 
ATOM     98  C   UNL A   1      44.260  34.418  36.467  1.00  0.00     0.131 A 
ATOM     99  C   UNL A   1      41.730  33.958  37.500  1.00  0.00     0.055 A 
ATOM    100  C   UNL A   1      43.890  35.004  37.680  1.00  0.00     0.041 A 
ATOM    101  F   UNL A   1      45.471  34.725  35.972  1.00  0.00    -0.206 F 
ATOM    102  C   UNL A   1      42.615  34.788  38.195  1.00  0.00     0.022 A 
BRANCH  99 103
ATOM    103  S   UNL A   1      40.039  33.793  38.138  1.00  0.00     0.124 S 
ATOM    104  O   UNL A   1      40.165  32.702  39.104  1.00  0.00    -0.237 OA
ATOM    105  O   UNL A   1      39.809  35.113  38.721  1.00  0.00    -0.237 OA
ATOM    106  O   UNL A   1      39.239  33.479  36.958  1.00  0.00    -0.744 OA
ENDBRANCH  99 103
ENDBRANCH  73  96
ENDBRANCH  47  48
ENDBRANCH  39  42
ENDBRANCH  37  38
ENDBRANCH  36  37
ENDBRANCH  35  36
ENDBRANCH   1  35
TORSDOF 22
ENDMDL
