MODEL 1
REMARK VINA RESULT:     -11.3      0.000      0.000
REMARK SMILES C/C=C/c1cncc(-c2ccc([C@@H](C)C(=O)NCCCCCCNC(=O)c3ccc(-c4c5nc(c(-c6cc(S(=O)(=O)[O-])ccc6F)c6ccc([nH]6)c(-c6cc(S(=O)(=O)[O-])ccc6F)c6nc(c(-c7cc(S(=O)(=O)[O-])ccc7F)c7ccc4[nH]7)C=C6)C=C5)cc3)cc2)c1
REMARK SMILES IDX 20 1 19 2 18 3 17 4 15 5 16 6 13 8 14 9 12 10 9 11 10 12
REMARK SMILES IDX 91 13 11 14 90 15 8 16 4 17 5 18 92 19 6 20 7 21 3 22 1 23
REMARK SMILES IDX 2 24 21 25 22 26 23 27 24 28 25 29 26 31 27 32 28 33 89 34
REMARK SMILES IDX 29 35 88 36 30 37 31 38 32 39 82 40 33 41 87 42 81 43 83 44
REMARK SMILES IDX 34 45 86 46 80 47 79 48 35 50 67 51 47 52 66 53 48 54 51 55
REMARK SMILES IDX 65 56 84 57 49 58 50 59 64 61 85 62 52 63 36 64 37 65 45 66
REMARK SMILES IDX 38 67 44 68 46 69 43 70 39 71 40 72 41 73 42 74 68 75 69 76
REMARK SMILES IDX 77 77 70 78 76 79 78 80 75 81 71 82 72 83 73 84 74 85 53 86
REMARK SMILES IDX 54 87 62 88 55 89 61 90 63 91 60 92 56 93 57 94 58 95 59 96
REMARK H PARENT 17 7 24 30 83 49 51 60
REMARK Flexibility Score: inf
ROOT
ATOM      1  C   UNL A   1      32.736  26.646  26.450  1.00  0.00     0.002 C 
ENDROOT
BRANCH   1   2
ATOM      2  C   UNL A   1      33.902  26.247  25.540  1.00  0.00     0.021 C 
BRANCH   2   3
ATOM      3  C   UNL A   1      34.267  24.764  25.619  1.00  0.00     0.116 C 
BRANCH   3   4
ATOM      4  N   UNL A   1      34.849  24.290  24.380  1.00  0.00    -0.356 N 
ATOM      5  C   UNL A   1      34.321  23.566  23.356  1.00  0.00     0.227 C 
ATOM      6  O   UNL A   1      35.105  23.225  22.460  1.00  0.00    -0.274 OA
ATOM      7  H   UNL A   1      35.794  24.535  24.258  1.00  0.00     0.163 HD
BRANCH   5   8
ATOM      8  C   UNL A   1      32.836  23.189  23.256  1.00  0.00     0.105 C 
ATOM      9  C   UNL A   1      32.530  22.157  22.170  1.00  0.00     0.023 C 
BRANCH   8  10
ATOM     10  C   UNL A   1      31.894  24.382  23.330  1.00  0.00    -0.036 A 
ATOM     11  C   UNL A   1      30.088  26.596  23.290  1.00  0.00    -0.017 A 
ATOM     12  C   UNL A   1      29.885  25.496  24.135  1.00  0.00     0.009 A 
ATOM     13  C   UNL A   1      31.239  26.582  22.489  1.00  0.00     0.009 A 
ATOM     14  C   UNL A   1      30.786  24.427  24.179  1.00  0.00     0.005 A 
ATOM     15  C   UNL A   1      32.117  25.488  22.495  1.00  0.00     0.005 A 
BRANCH  11  16
ATOM     16  C   UNL A   1      29.116  27.706  23.249  1.00  0.00     0.001 A 
ATOM     17  C   UNL A   1      28.543  30.048  22.865  1.00  0.00    -0.007 A 
ATOM     18  C   UNL A   1      27.218  29.707  23.113  1.00  0.00     0.119 A 
ATOM     19  C   UNL A   1      29.496  29.025  22.948  1.00  0.00     0.020 A 
ATOM     20  N   UNL A   1      26.800  28.461  23.421  1.00  0.00    -0.263 NA
ATOM     21  C   UNL A   1      27.753  27.501  23.478  1.00  0.00     0.119 A 
BRANCH  17  22
ATOM     22  C   UNL A   1      28.897  31.442  22.579  1.00  0.00     0.005 C 
ATOM     23  C   UNL A   1      29.259  33.833  23.210  1.00  0.00     0.035 C 
ATOM     24  C   UNL A   1      28.868  32.420  23.497  1.00  0.00    -0.030 C 
ENDBRANCH  17  22
ENDBRANCH  11  16
ENDBRANCH   8  10
ENDBRANCH   5   8
ENDBRANCH   3   4
ENDBRANCH   2   3
ENDBRANCH   1   2
BRANCH   1  25
ATOM     25  C   UNL A   1      31.914  27.846  25.963  1.00  0.00     0.002 C 
BRANCH  25  26
ATOM     26  C   UNL A   1      32.126  29.148  26.743  1.00  0.00     0.021 C 
BRANCH  26  27
ATOM     27  C   UNL A   1      33.321  29.977  26.283  1.00  0.00     0.116 C 
BRANCH  27  28
ATOM     28  N   UNL A   1      33.192  31.370  26.685  1.00  0.00    -0.352 N 
ATOM     29  C   UNL A   1      33.877  32.068  27.647  1.00  0.00     0.251 C 
ATOM     30  H   UNL A   1      32.514  31.887  26.193  1.00  0.00     0.163 HD
ATOM     31  O   UNL A   1      33.451  33.155  28.026  1.00  0.00    -0.269 OA
BRANCH  29  32
ATOM     32  C   UNL A   1      35.115  31.506  28.231  1.00  0.00     0.039 A 
ATOM     33  C   UNL A   1      36.289  32.262  28.195  1.00  0.00     0.014 A 
ATOM     34  C   UNL A   1      35.123  30.224  28.789  1.00  0.00     0.014 A 
ATOM     35  C   UNL A   1      37.458  31.755  28.767  1.00  0.00     0.010 A 
ATOM     36  C   UNL A   1      36.268  29.751  29.423  1.00  0.00     0.010 A 
ATOM     37  C   UNL A   1      37.450  30.507  29.413  1.00  0.00    -0.014 A 
BRANCH  37  38
ATOM     38  C   UNL A   1      38.668  29.973  30.075  1.00  0.00     0.031 A 
ATOM     39  C   UNL A   1      39.065  30.465  31.440  1.00  0.00     0.074 A 
ATOM     40  C   UNL A   1      39.450  29.093  29.418  1.00  0.00     0.049 A 
ATOM     41  N   UNL A   1      40.121  30.170  32.153  1.00  0.00    -0.248 NA
ATOM     42  C   UNL A   1      38.170  31.446  32.068  1.00  0.00     0.031 C 
ATOM     43  C   UNL A   1      39.189  28.570  28.076  1.00  0.00     0.029 A 
ATOM     44  N   UNL A   1      40.625  28.488  29.787  1.00  0.00    -0.354 N 
ATOM     45  C   UNL A   1      40.026  30.941  33.308  1.00  0.00     0.074 A 
ATOM     46  C   UNL A   1      38.843  31.763  33.162  1.00  0.00     0.031 C 
ATOM     47  C   UNL A   1      40.155  27.698  27.749  1.00  0.00     0.029 A 
ATOM     48  C   UNL A   1      41.129  27.635  28.834  1.00  0.00     0.049 A 
ATOM     49  H   UNL A   1      41.064  28.650  30.653  1.00  0.00     0.167 HD
ATOM     50  C   UNL A   1      40.837  30.945  34.396  1.00  0.00     0.034 A 
ATOM     51  C   UNL A   1      42.254  26.893  28.830  1.00  0.00     0.034 A 
ATOM     52  C   UNL A   1      42.009  30.111  34.522  1.00  0.00     0.049 A 
ATOM     53  C   UNL A   1      43.160  26.939  30.033  1.00  0.00     0.074 A 
ATOM     54  C   UNL A   1      42.865  29.983  35.603  1.00  0.00     0.029 A 
ATOM     55  N   UNL A   1      42.502  29.275  33.527  1.00  0.00    -0.354 N 
ATOM     56  N   UNL A   1      43.028  27.628  31.143  1.00  0.00    -0.248 NA
ATOM     57  C   UNL A   1      44.365  26.101  29.982  1.00  0.00     0.031 C 
ATOM     58  C   UNL A   1      43.913  29.132  35.234  1.00  0.00     0.029 A 
ATOM     59  C   UNL A   1      43.672  28.661  33.954  1.00  0.00     0.049 A 
ATOM     60  H   UNL A   1      42.083  29.138  32.647  1.00  0.00     0.167 HD
ATOM     61  C   UNL A   1      44.117  27.281  31.937  1.00  0.00     0.074 A 
ATOM     62  C   UNL A   1      44.889  26.314  31.180  1.00  0.00     0.031 C 
ATOM     63  C   UNL A   1      44.445  27.714  33.182  1.00  0.00     0.034 A 
BRANCH  50  64
ATOM     64  C   UNL A   1      40.494  31.910  35.510  1.00  0.00     0.023 A 
ATOM     65  C   UNL A   1      39.465  31.643  36.431  1.00  0.00     0.031 A 
ATOM     66  C   UNL A   1      41.166  33.140  35.620  1.00  0.00     0.131 A 
ATOM     67  C   UNL A   1      39.069  32.628  37.349  1.00  0.00     0.055 A 
ATOM     68  C   UNL A   1      40.831  34.079  36.599  1.00  0.00     0.041 A 
ATOM     69  F   UNL A   1      42.145  33.464  34.762  1.00  0.00    -0.206 F 
ATOM     70  C   UNL A   1      39.763  33.835  37.457  1.00  0.00     0.022 A 
BRANCH  67  71
ATOM     71  S   UNL A   1      37.522  32.385  38.265  1.00  0.00     0.124 S 
ATOM     72  O   UNL A   1      37.372  30.932  38.209  1.00  0.00    -0.237 OA
ATOM     73  O   UNL A   1      37.840  32.945  39.573  1.00  0.00    -0.237 OA
ATOM     74  O   UNL A   1      36.539  33.134  37.485  1.00  0.00    -0.744 OA
ENDBRANCH  67  71
ENDBRANCH  50  64
BRANCH  51  75
ATOM     75  C   UNL A   1      42.583  26.036  27.657  1.00  0.00     0.023 A 
ATOM     76  C   UNL A   1      42.081  24.730  27.557  1.00  0.00     0.031 A 
ATOM     77  C   UNL A   1      43.416  26.505  26.624  1.00  0.00     0.131 A 
ATOM     78  C   UNL A   1      42.443  23.923  26.467  1.00  0.00     0.055 A 
ATOM     79  C   UNL A   1      43.734  25.716  25.518  1.00  0.00     0.041 A 
ATOM     80  F   UNL A   1      43.916  27.751  26.669  1.00  0.00    -0.206 F 
ATOM     81  C   UNL A   1      43.255  24.412  25.441  1.00  0.00     0.022 A 
BRANCH  78  82
ATOM     82  S   UNL A   1      41.883  22.198  26.439  1.00  0.00     0.124 S 
ATOM     83  O   UNL A   1      42.499  21.665  27.649  1.00  0.00    -0.237 OA
ATOM     84  O   UNL A   1      40.432  22.351  26.470  1.00  0.00    -0.237 OA
ATOM     85  O   UNL A   1      42.426  21.685  25.183  1.00  0.00    -0.744 OA
ENDBRANCH  78  82
ENDBRANCH  51  75
BRANCH  63  86
ATOM     86  C   UNL A   1      45.675  27.110  33.816  1.00  0.00     0.023 A 
ATOM     87  C   UNL A   1      45.613  25.932  34.583  1.00  0.00     0.031 A 
ATOM     88  C   UNL A   1      46.927  27.732  33.664  1.00  0.00     0.131 A 
ATOM     89  C   UNL A   1      46.769  25.446  35.213  1.00  0.00     0.055 A 
ATOM     90  C   UNL A   1      48.085  27.208  34.239  1.00  0.00     0.041 A 
ATOM     91  F   UNL A   1      47.046  28.861  32.947  1.00  0.00    -0.206 F 
ATOM     92  C   UNL A   1      48.008  26.066  35.030  1.00  0.00     0.022 A 
BRANCH  89  93
ATOM     93  S   UNL A   1      46.615  24.046  36.356  1.00  0.00     0.124 S 
ATOM     94  O   UNL A   1      45.430  23.365  35.845  1.00  0.00    -0.237 OA
ATOM     95  O   UNL A   1      47.882  23.348  36.167  1.00  0.00    -0.237 OA
ATOM     96  O   UNL A   1      46.450  24.685  37.661  1.00  0.00    -0.744 OA
ENDBRANCH  89  93
ENDBRANCH  63  86
ENDBRANCH  37  38
ENDBRANCH  29  32
ENDBRANCH  27  28
ENDBRANCH  26  27
ENDBRANCH  25  26
ENDBRANCH   1  25
TORSDOF 19
ENDMDL
MODEL 2
REMARK VINA RESULT:     -11.1      4.998     10.485
REMARK SMILES C/C=C/c1cncc(-c2ccc([C@@H](C)C(=O)NCCCCCCNC(=O)c3ccc(-c4c5nc(c(-c6cc(S(=O)(=O)[O-])ccc6F)c6ccc([nH]6)c(-c6cc(S(=O)(=O)[O-])ccc6F)c6nc(c(-c7cc(S(=O)(=O)[O-])ccc7F)c7ccc4[nH]7)C=C6)C=C5)cc3)cc2)c1
REMARK SMILES IDX 20 1 19 2 18 3 17 4 15 5 16 6 13 8 14 9 12 10 9 11 10 12
REMARK SMILES IDX 91 13 11 14 90 15 8 16 4 17 5 18 92 19 6 20 7 21 3 22 1 23
REMARK SMILES IDX 2 24 21 25 22 26 23 27 24 28 25 29 26 31 27 32 28 33 89 34
REMARK SMILES IDX 29 35 88 36 30 37 31 38 32 39 82 40 33 41 87 42 81 43 83 44
REMARK SMILES IDX 34 45 86 46 80 47 79 48 35 50 67 51 47 52 66 53 48 54 51 55
REMARK SMILES IDX 65 56 84 57 49 58 50 59 64 61 85 62 52 63 36 64 37 65 45 66
REMARK SMILES IDX 38 67 44 68 46 69 43 70 39 71 40 72 41 73 42 74 68 75 69 76
REMARK SMILES IDX 77 77 70 78 76 79 78 80 75 81 71 82 72 83 73 84 74 85 53 86
REMARK SMILES IDX 54 87 62 88 55 89 61 90 63 91 60 92 56 93 57 94 58 95 59 96
REMARK H PARENT 17 7 24 30 83 49 51 60
REMARK Flexibility Score: inf
ROOT
ATOM      1  C   UNL A   1      35.317  24.109  24.090  1.00  0.00     0.002 C 
ENDROOT
BRANCH   1   2
ATOM      2  C   UNL A   1      34.617  24.644  25.342  1.00  0.00     0.021 C 
BRANCH   2   3
ATOM      3  C   UNL A   1      34.143  26.093  25.213  1.00  0.00     0.116 C 
BRANCH   3   4
ATOM      4  N   UNL A   1      33.079  26.393  26.148  1.00  0.00    -0.356 N 
ATOM      5  C   UNL A   1      31.725  26.386  26.005  1.00  0.00     0.227 C 
ATOM      6  O   UNL A   1      31.067  26.789  26.973  1.00  0.00    -0.274 OA
ATOM      7  H   UNL A   1      33.390  26.646  27.047  1.00  0.00     0.163 HD
BRANCH   5   8
ATOM      8  C   UNL A   1      31.004  25.891  24.743  1.00  0.00     0.105 C 
ATOM      9  C   UNL A   1      29.548  26.347  24.642  1.00  0.00     0.023 C 
BRANCH   8  10
ATOM     10  C   UNL A   1      31.272  24.429  24.417  1.00  0.00    -0.036 A 
ATOM     11  C   UNL A   1      31.947  21.732  23.757  1.00  0.00    -0.017 A 
ATOM     12  C   UNL A   1      31.556  22.096  25.054  1.00  0.00     0.009 A 
ATOM     13  C   UNL A   1      31.957  22.743  22.786  1.00  0.00     0.009 A 
ATOM     14  C   UNL A   1      31.195  23.411  25.370  1.00  0.00     0.005 A 
ATOM     15  C   UNL A   1      31.643  24.070  23.112  1.00  0.00     0.005 A 
BRANCH  11  16
ATOM     16  C   UNL A   1      32.339  20.343  23.450  1.00  0.00     0.001 A 
ATOM     17  C   UNL A   1      33.323  18.198  24.079  1.00  0.00    -0.007 A 
ATOM     18  C   UNL A   1      32.964  17.728  22.821  1.00  0.00     0.119 A 
ATOM     19  C   UNL A   1      33.010  19.529  24.380  1.00  0.00     0.020 A 
ATOM     20  N   UNL A   1      32.333  18.468  21.885  1.00  0.00    -0.263 NA
ATOM     21  C   UNL A   1      32.038  19.745  22.224  1.00  0.00     0.119 A 
BRANCH  17  22
ATOM     22  C   UNL A   1      34.042  17.322  25.009  1.00  0.00     0.005 C 
ATOM     23  C   UNL A   1      35.903  15.777  25.641  1.00  0.00     0.035 C 
ATOM     24  C   UNL A   1      35.155  16.646  24.682  1.00  0.00    -0.030 C 
ENDBRANCH  17  22
ENDBRANCH  11  16
ENDBRANCH   8  10
ENDBRANCH   5   8
ENDBRANCH   3   4
ENDBRANCH   2   3
ENDBRANCH   1   2
BRANCH   1  25
ATOM     25  C   UNL A   1      35.327  22.580  23.955  1.00  0.00     0.002 C 
BRANCH  25  26
ATOM     26  C   UNL A   1      36.127  21.832  25.026  1.00  0.00     0.021 C 
BRANCH  26  27
ATOM     27  C   UNL A   1      37.554  22.334  25.220  1.00  0.00     0.116 C 
BRANCH  27  28
ATOM     28  N   UNL A   1      38.371  21.362  25.931  1.00  0.00    -0.352 N 
ATOM     29  C   UNL A   1      39.538  21.545  26.631  1.00  0.00     0.251 C 
ATOM     30  H   UNL A   1      38.037  20.436  25.907  1.00  0.00     0.163 HD
ATOM     31  O   UNL A   1      40.221  20.572  26.936  1.00  0.00    -0.269 OA
BRANCH  29  32
ATOM     32  C   UNL A   1      39.971  22.910  27.003  1.00  0.00     0.039 A 
ATOM     33  C   UNL A   1      41.045  23.066  27.883  1.00  0.00     0.014 A 
ATOM     34  C   UNL A   1      39.302  24.033  26.505  1.00  0.00     0.014 A 
ATOM     35  C   UNL A   1      41.482  24.349  28.221  1.00  0.00     0.010 A 
ATOM     36  C   UNL A   1      39.785  25.307  26.785  1.00  0.00     0.010 A 
ATOM     37  C   UNL A   1      40.876  25.480  27.651  1.00  0.00    -0.014 A 
BRANCH  37  38
ATOM     38  C   UNL A   1      41.360  26.852  27.955  1.00  0.00     0.031 A 
ATOM     39  C   UNL A   1      42.776  27.243  27.633  1.00  0.00     0.074 A 
ATOM     40  C   UNL A   1      40.543  27.722  28.581  1.00  0.00     0.049 A 
ATOM     41  N   UNL A   1      43.404  28.364  27.877  1.00  0.00    -0.248 NA
ATOM     42  C   UNL A   1      43.604  26.220  26.979  1.00  0.00     0.031 C 
ATOM     43  C   UNL A   1      39.161  27.446  28.977  1.00  0.00     0.029 A 
ATOM     44  N   UNL A   1      40.757  29.012  28.997  1.00  0.00    -0.354 N 
ATOM     45  C   UNL A   1      44.705  28.177  27.422  1.00  0.00     0.074 A 
ATOM     46  C   UNL A   1      44.789  26.811  26.950  1.00  0.00     0.031 C 
ATOM     47  C   UNL A   1      38.641  28.545  29.547  1.00  0.00     0.029 A 
ATOM     48  C   UNL A   1      39.663  29.585  29.602  1.00  0.00     0.049 A 
ATOM     49  H   UNL A   1      41.612  29.483  28.873  1.00  0.00     0.167 HD
ATOM     50  C   UNL A   1      45.728  29.069  27.381  1.00  0.00     0.034 A 
ATOM     51  C   UNL A   1      39.504  30.806  30.148  1.00  0.00     0.034 A 
ATOM     52  C   UNL A   1      45.620  30.430  27.852  1.00  0.00     0.049 A 
ATOM     53  C   UNL A   1      40.662  31.770  30.125  1.00  0.00     0.074 A 
ATOM     54  C   UNL A   1      46.566  31.439  27.799  1.00  0.00     0.029 A 
ATOM     55  N   UNL A   1      44.503  30.969  28.480  1.00  0.00    -0.354 N 
ATOM     56  N   UNL A   1      41.870  31.601  29.639  1.00  0.00    -0.248 NA
ATOM     57  C   UNL A   1      40.431  33.091  30.721  1.00  0.00     0.031 C 
ATOM     58  C   UNL A   1      46.051  32.559  28.461  1.00  0.00     0.029 A 
ATOM     59  C   UNL A   1      44.752  32.282  28.855  1.00  0.00     0.049 A 
ATOM     60  H   UNL A   1      43.658  30.489  28.635  1.00  0.00     0.167 HD
ATOM     61  C   UNL A   1      42.533  32.808  29.842  1.00  0.00     0.074 A 
ATOM     62  C   UNL A   1      41.586  33.697  30.485  1.00  0.00     0.031 C 
ATOM     63  C   UNL A   1      43.806  33.153  29.516  1.00  0.00     0.034 A 
BRANCH  50  64
ATOM     64  C   UNL A   1      47.053  28.578  26.841  1.00  0.00     0.023 A 
ATOM     65  C   UNL A   1      47.264  28.380  25.464  1.00  0.00     0.031 A 
ATOM     66  C   UNL A   1      48.102  28.249  27.716  1.00  0.00     0.131 A 
ATOM     67  C   UNL A   1      48.447  27.772  25.015  1.00  0.00     0.055 A 
ATOM     68  C   UNL A   1      49.316  27.735  27.254  1.00  0.00     0.041 A 
ATOM     69  F   UNL A   1      47.959  28.398  29.043  1.00  0.00    -0.206 F 
ATOM     70  C   UNL A   1      49.486  27.473  25.897  1.00  0.00     0.022 A 
BRANCH  67  71
ATOM     71  S   UNL A   1      48.529  27.211  23.291  1.00  0.00     0.124 S 
ATOM     72  O   UNL A   1      47.957  25.869  23.390  1.00  0.00    -0.237 OA
ATOM     73  O   UNL A   1      47.716  28.203  22.598  1.00  0.00    -0.237 OA
ATOM     74  O   UNL A   1      49.958  27.248  22.985  1.00  0.00    -0.744 OA
ENDBRANCH  67  71
ENDBRANCH  50  64
BRANCH  51  75
ATOM     75  C   UNL A   1      38.199  31.194  30.752  1.00  0.00     0.023 A 
ATOM     76  C   UNL A   1      37.207  31.819  29.982  1.00  0.00     0.031 A 
ATOM     77  C   UNL A   1      37.929  30.957  32.113  1.00  0.00     0.131 A 
ATOM     78  C   UNL A   1      36.004  32.219  30.583  1.00  0.00     0.055 A 
ATOM     79  C   UNL A   1      36.711  31.314  32.695  1.00  0.00     0.041 A 
ATOM     80  F   UNL A   1      38.842  30.354  32.891  1.00  0.00    -0.206 F 
ATOM     81  C   UNL A   1      35.744  31.958  31.930  1.00  0.00     0.022 A 
BRANCH  78  82
ATOM     82  S   UNL A   1      34.800  33.142  29.588  1.00  0.00     0.124 S 
ATOM     83  O   UNL A   1      34.194  32.079  28.794  1.00  0.00    -0.237 OA
ATOM     84  O   UNL A   1      33.953  33.739  30.615  1.00  0.00    -0.237 OA
ATOM     85  O   UNL A   1      35.629  34.086  28.841  1.00  0.00    -0.744 OA
ENDBRANCH  78  82
ENDBRANCH  51  75
BRANCH  63  86
ATOM     86  C   UNL A   1      44.230  34.571  29.819  1.00  0.00     0.023 A 
ATOM     87  C   UNL A   1      44.049  35.614  28.894  1.00  0.00     0.031 A 
ATOM     88  C   UNL A   1      44.840  34.878  31.049  1.00  0.00     0.131 A 
ATOM     89  C   UNL A   1      44.523  36.901  29.190  1.00  0.00     0.055 A 
ATOM     90  C   UNL A   1      45.251  36.174  31.363  1.00  0.00     0.041 A 
ATOM     91  F   UNL A   1      45.043  33.922  31.969  1.00  0.00    -0.206 F 
ATOM     92  C   UNL A   1      45.106  37.192  30.426  1.00  0.00     0.022 A 
BRANCH  89  93
ATOM     93  S   UNL A   1      44.458  38.172  27.897  1.00  0.00     0.124 S 
ATOM     94  O   UNL A   1      44.010  39.344  28.645  1.00  0.00    -0.237 OA
ATOM     95  O   UNL A   1      45.837  38.208  27.423  1.00  0.00    -0.237 OA
ATOM     96  O   UNL A   1      43.488  37.640  26.941  1.00  0.00    -0.744 OA
ENDBRANCH  89  93
ENDBRANCH  63  86
ENDBRANCH  37  38
ENDBRANCH  29  32
ENDBRANCH  27  28
ENDBRANCH  26  27
ENDBRANCH  25  26
ENDBRANCH   1  25
TORSDOF 19
ENDMDL
MODEL 3
REMARK VINA RESULT:     -11.1      2.232      2.594
REMARK SMILES C/C=C/c1cncc(-c2ccc([C@@H](C)C(=O)NCCCCCCNC(=O)c3ccc(-c4c5nc(c(-c6cc(S(=O)(=O)[O-])ccc6F)c6ccc([nH]6)c(-c6cc(S(=O)(=O)[O-])ccc6F)c6nc(c(-c7cc(S(=O)(=O)[O-])ccc7F)c7ccc4[nH]7)C=C6)C=C5)cc3)cc2)c1
REMARK SMILES IDX 20 1 19 2 18 3 17 4 15 5 16 6 13 8 14 9 12 10 9 11 10 12
REMARK SMILES IDX 91 13 11 14 90 15 8 16 4 17 5 18 92 19 6 20 7 21 3 22 1 23
REMARK SMILES IDX 2 24 21 25 22 26 23 27 24 28 25 29 26 31 27 32 28 33 89 34
REMARK SMILES IDX 29 35 88 36 30 37 31 38 32 39 82 40 33 41 87 42 81 43 83 44
REMARK SMILES IDX 34 45 86 46 80 47 79 48 35 50 67 51 47 52 66 53 48 54 51 55
REMARK SMILES IDX 65 56 84 57 49 58 50 59 64 61 85 62 52 63 36 64 37 65 45 66
REMARK SMILES IDX 38 67 44 68 46 69 43 70 39 71 40 72 41 73 42 74 68 75 69 76
REMARK SMILES IDX 77 77 70 78 76 79 78 80 75 81 71 82 72 83 73 84 74 85 53 86
REMARK SMILES IDX 54 87 62 88 55 89 61 90 63 91 60 92 56 93 57 94 58 95 59 96
REMARK H PARENT 17 7 24 30 83 49 51 60
REMARK Flexibility Score: inf
ROOT
ATOM      1  C   UNL A   1      32.387  26.762  26.368  1.00  0.00     0.002 C 
ENDROOT
BRANCH   1   2
ATOM      2  C   UNL A   1      33.759  26.340  25.834  1.00  0.00     0.021 C 
BRANCH   2   3
ATOM      3  C   UNL A   1      34.013  24.833  25.906  1.00  0.00     0.116 C 
BRANCH   3   4
ATOM      4  N   UNL A   1      34.709  24.352  24.731  1.00  0.00    -0.356 N 
ATOM      5  C   UNL A   1      34.278  23.630  23.661  1.00  0.00     0.227 C 
ATOM      6  O   UNL A   1      35.143  23.280  22.847  1.00  0.00    -0.274 OA
ATOM      7  H   UNL A   1      35.664  24.590  24.701  1.00  0.00     0.163 HD
BRANCH   5   8
ATOM      8  C   UNL A   1      32.807  23.263  23.417  1.00  0.00     0.105 C 
ATOM      9  C   UNL A   1      32.596  22.277  22.268  1.00  0.00     0.023 C 
BRANCH   8  10
ATOM     10  C   UNL A   1      31.864  24.457  23.456  1.00  0.00    -0.036 A 
ATOM     11  C   UNL A   1      30.069  26.678  23.347  1.00  0.00    -0.017 A 
ATOM     12  C   UNL A   1      29.798  25.551  24.137  1.00  0.00     0.009 A 
ATOM     13  C   UNL A   1      31.280  26.686  22.639  1.00  0.00     0.009 A 
ATOM     14  C   UNL A   1      30.692  24.478  24.215  1.00  0.00     0.005 A 
ATOM     15  C   UNL A   1      32.153  25.589  22.678  1.00  0.00     0.005 A 
BRANCH  11  16
ATOM     16  C   UNL A   1      29.105  27.792  23.266  1.00  0.00     0.001 A 
ATOM     17  C   UNL A   1      28.559  30.138  22.863  1.00  0.00    -0.007 A 
ATOM     18  C   UNL A   1      27.224  29.802  23.052  1.00  0.00     0.119 A 
ATOM     19  C   UNL A   1      29.503  29.111  22.985  1.00  0.00     0.020 A 
ATOM     20  N   UNL A   1      26.786  28.557  23.339  1.00  0.00    -0.263 NA
ATOM     21  C   UNL A   1      27.732  27.593  23.435  1.00  0.00     0.119 A 
BRANCH  17  22
ATOM     22  C   UNL A   1      28.931  31.530  22.595  1.00  0.00     0.005 C 
ATOM     23  C   UNL A   1      29.258  33.923  23.242  1.00  0.00     0.035 C 
ATOM     24  C   UNL A   1      28.849  32.510  23.508  1.00  0.00    -0.030 C 
ENDBRANCH  17  22
ENDBRANCH  11  16
ENDBRANCH   8  10
ENDBRANCH   5   8
ENDBRANCH   3   4
ENDBRANCH   2   3
ENDBRANCH   1   2
BRANCH   1  25
ATOM     25  C   UNL A   1      32.319  28.189  26.929  1.00  0.00     0.002 C 
BRANCH  25  26
ATOM     26  C   UNL A   1      33.640  28.745  27.471  1.00  0.00     0.021 C 
BRANCH  26  27
ATOM     27  C   UNL A   1      34.141  29.998  26.760  1.00  0.00     0.116 C 
BRANCH  27  28
ATOM     28  N   UNL A   1      33.962  31.187  27.580  1.00  0.00    -0.352 N 
ATOM     29  C   UNL A   1      34.665  31.601  28.684  1.00  0.00     0.251 C 
ATOM     30  H   UNL A   1      33.228  31.782  27.302  1.00  0.00     0.163 HD
ATOM     31  O   UNL A   1      34.205  32.486  29.399  1.00  0.00    -0.269 OA
BRANCH  29  32
ATOM     32  C   UNL A   1      35.964  30.974  29.013  1.00  0.00     0.039 A 
ATOM     33  C   UNL A   1      37.127  31.464  28.413  1.00  0.00     0.014 A 
ATOM     34  C   UNL A   1      36.031  29.887  29.889  1.00  0.00     0.014 A 
ATOM     35  C   UNL A   1      38.363  30.900  28.736  1.00  0.00     0.010 A 
ATOM     36  C   UNL A   1      37.269  29.375  30.265  1.00  0.00     0.010 A 
ATOM     37  C   UNL A   1      38.448  29.870  29.687  1.00  0.00    -0.014 A 
BRANCH  37  38
ATOM     38  C   UNL A   1      39.759  29.293  30.085  1.00  0.00     0.031 A 
ATOM     39  C   UNL A   1      40.549  29.910  31.206  1.00  0.00     0.074 A 
ATOM     40  C   UNL A   1      40.264  28.252  29.392  1.00  0.00     0.049 A 
ATOM     41  N   UNL A   1      41.735  29.593  31.657  1.00  0.00    -0.248 NA
ATOM     42  C   UNL A   1      39.934  31.059  31.884  1.00  0.00     0.031 C 
ATOM     43  C   UNL A   1      39.608  27.592  28.263  1.00  0.00     0.029 A 
ATOM     44  N   UNL A   1      41.447  27.571  29.533  1.00  0.00    -0.354 N 
ATOM     45  C   UNL A   1      42.016  30.513  32.663  1.00  0.00     0.074 A 
ATOM     46  C   UNL A   1      40.903  31.438  32.703  1.00  0.00     0.031 C 
ATOM     47  C   UNL A   1      40.381  26.581  27.836  1.00  0.00     0.029 A 
ATOM     48  C   UNL A   1      41.607  26.550  28.626  1.00  0.00     0.049 A 
ATOM     49  H   UNL A   1      42.117  27.794  30.219  1.00  0.00     0.167 HD
ATOM     50  C   UNL A   1      43.092  30.568  33.489  1.00  0.00     0.034 A 
ATOM     51  C   UNL A   1      42.630  25.692  28.447  1.00  0.00     0.034 A 
ATOM     52  C   UNL A   1      44.189  29.630  33.434  1.00  0.00     0.049 A 
ATOM     53  C   UNL A   1      43.831  25.791  29.350  1.00  0.00     0.074 A 
ATOM     54  C   UNL A   1      45.296  29.548  34.261  1.00  0.00     0.029 A 
ATOM     55  N   UNL A   1      44.328  28.621  32.487  1.00  0.00    -0.354 N 
ATOM     56  N   UNL A   1      44.059  26.629  30.335  1.00  0.00    -0.248 NA
ATOM     57  C   UNL A   1      44.911  24.824  29.119  1.00  0.00     0.031 C 
ATOM     58  C   UNL A   1      46.138  28.544  33.770  1.00  0.00     0.029 A 
ATOM     59  C   UNL A   1      45.521  27.940  32.686  1.00  0.00     0.049 A 
ATOM     60  H   UNL A   1      43.675  28.419  31.779  1.00  0.00     0.167 HD
ATOM     61  C   UNL A   1      45.295  26.268  30.862  1.00  0.00     0.074 A 
ATOM     62  C   UNL A   1      45.757  25.130  30.092  1.00  0.00     0.031 C 
ATOM     63  C   UNL A   1      45.982  26.820  31.897  1.00  0.00     0.034 A 
BRANCH  50  64
ATOM     64  C   UNL A   1      43.139  31.702  34.489  1.00  0.00     0.023 A 
ATOM     65  C   UNL A   1      42.567  31.585  35.769  1.00  0.00     0.031 A 
ATOM     66  C   UNL A   1      43.714  32.936  34.141  1.00  0.00     0.131 A 
ATOM     67  C   UNL A   1      42.488  32.707  36.608  1.00  0.00     0.055 A 
ATOM     68  C   UNL A   1      43.718  34.023  35.019  1.00  0.00     0.041 A 
ATOM     69  F   UNL A   1      44.260  33.120  32.929  1.00  0.00    -0.206 F 
ATOM     70  C   UNL A   1      43.083  33.919  36.254  1.00  0.00     0.022 A 
BRANCH  67  71
ATOM     71  S   UNL A   1      41.436  32.609  38.084  1.00  0.00     0.124 S 
ATOM     72  O   UNL A   1      42.174  31.656  38.910  1.00  0.00    -0.237 OA
ATOM     73  O   UNL A   1      41.426  33.990  38.554  1.00  0.00    -0.237 OA
ATOM     74  O   UNL A   1      40.162  32.115  37.565  1.00  0.00    -0.744 OA
ENDBRANCH  67  71
ENDBRANCH  50  64
BRANCH  51  75
ATOM     75  C   UNL A   1      42.561  24.658  27.376  1.00  0.00     0.023 A 
ATOM     76  C   UNL A   1      41.739  23.530  27.517  1.00  0.00     0.031 A 
ATOM     77  C   UNL A   1      43.328  24.775  26.202  1.00  0.00     0.131 A 
ATOM     78  C   UNL A   1      41.727  22.544  26.518  1.00  0.00     0.055 A 
ATOM     79  C   UNL A   1      43.276  23.815  25.189  1.00  0.00     0.041 A 
ATOM     80  F   UNL A   1      44.125  25.839  26.015  1.00  0.00    -0.206 F 
ATOM     81  C   UNL A   1      42.478  22.686  25.350  1.00  0.00     0.022 A 
BRANCH  78  82
ATOM     82  S   UNL A   1      40.754  21.039  26.795  1.00  0.00     0.124 S 
ATOM     83  O   UNL A   1      40.783  20.929  28.249  1.00  0.00    -0.237 OA
ATOM     84  O   UNL A   1      39.469  21.396  26.204  1.00  0.00    -0.237 OA
ATOM     85  O   UNL A   1      41.504  20.012  26.075  1.00  0.00    -0.744 OA
ENDBRANCH  78  82
ENDBRANCH  51  75
BRANCH  63  86
ATOM     86  C   UNL A   1      47.291  26.168  32.275  1.00  0.00     0.023 A 
ATOM     87  C   UNL A   1      48.494  26.479  31.616  1.00  0.00     0.031 A 
ATOM     88  C   UNL A   1      47.331  25.209  33.303  1.00  0.00     0.131 A 
ATOM     89  C   UNL A   1      49.672  25.796  31.953  1.00  0.00     0.055 A 
ATOM     90  C   UNL A   1      48.518  24.580  33.677  1.00  0.00     0.041 A 
ATOM     91  F   UNL A   1      46.212  24.869  33.964  1.00  0.00    -0.206 F 
ATOM     92  C   UNL A   1      49.696  24.862  32.992  1.00  0.00     0.022 A 
BRANCH  89  93
ATOM     93  S   UNL A   1      51.157  26.072  30.949  1.00  0.00     0.124 S 
ATOM     94  O   UNL A   1      51.350  27.513  31.080  1.00  0.00    -0.237 OA
ATOM     95  O   UNL A   1      52.147  25.233  31.616  1.00  0.00    -0.237 OA
ATOM     96  O   UNL A   1      50.760  25.619  29.617  1.00  0.00    -0.744 OA
ENDBRANCH  89  93
ENDBRANCH  63  86
ENDBRANCH  37  38
ENDBRANCH  29  32
ENDBRANCH  27  28
ENDBRANCH  26  27
ENDBRANCH  25  26
ENDBRANCH   1  25
TORSDOF 19
ENDMDL
