MODEL 1
REMARK VINA RESULT:     -11.6      0.000      0.000
REMARK SMILES CCOc1ccc(N2C[C@H](C(=O)NCCCCCCNC(=O)c3ccc(-c4c5nc(c(-c6cc(S(=O)(=O)[O-])ccc6F)c6ccc([nH]6)c(-c6cc(S(=O)(=O)[O-])ccc6F)c6nc(c(-c7cc(S(=O)(=O)[O-])ccc7F)c7ccc4[nH]7)C=C6)C=C5)cc3)CC2=O)cc1C(F)(F)F
REMARK SMILES IDX 16 1 15 2 14 3 13 4 11 5 12 6 10 8 8 9 9 10 87 11 86 12
REMARK SMILES IDX 88 13 7 14 4 15 5 16 90 17 6 18 89 19 3 20 2 21 1 22 91 23
REMARK SMILES IDX 92 24 93 25 94 26 17 27 18 28 19 29 20 30 21 31 22 33 23 34
REMARK SMILES IDX 24 35 85 36 25 37 84 38 26 39 27 40 28 41 78 42 29 43 83 44
REMARK SMILES IDX 77 45 79 46 30 47 82 48 76 49 75 50 31 52 63 53 43 54 62 55
REMARK SMILES IDX 44 56 47 57 61 58 80 59 45 60 46 61 60 63 81 64 48 65 32 66
REMARK SMILES IDX 33 67 41 68 34 69 40 70 42 71 39 72 35 73 36 74 37 75 38 76
REMARK SMILES IDX 64 77 65 78 73 79 66 80 72 81 74 82 71 83 67 84 68 85 69 86
REMARK SMILES IDX 70 87 49 88 50 89 58 90 51 91 57 92 59 93 56 94 52 95 53 96
REMARK SMILES IDX 54 97 55 98
REMARK H PARENT 13 7 20 32 79 51 47 62
REMARK Flexibility Score: inf
ROOT
ATOM      1  C   UNL A   1      33.166  29.583  26.041  1.00  0.00     0.002 C 
ENDROOT
BRANCH   1   2
ATOM      2  C   UNL A   1      33.651  29.320  24.612  1.00  0.00     0.021 C 
BRANCH   2   3
ATOM      3  C   UNL A   1      32.988  28.117  23.945  1.00  0.00     0.116 C 
BRANCH   3   4
ATOM      4  N   UNL A   1      31.916  28.513  23.050  1.00  0.00    -0.356 N 
ATOM      5  C   UNL A   1      30.683  27.998  22.818  1.00  0.00     0.225 C 
ATOM      6  O   UNL A   1      29.982  28.578  21.980  1.00  0.00    -0.275 OA
ATOM      7  H   UNL A   1      32.123  29.307  22.507  1.00  0.00     0.163 HD
BRANCH   5   8
ATOM      8  C   UNL A   1      30.149  26.739  23.483  1.00  0.00     0.107 C 
ATOM      9  N   UNL A   1      31.605  25.057  24.278  1.00  0.00    -0.312 N 
ATOM     10  C   UNL A   1      30.925  25.501  23.085  1.00  0.00     0.139 C 
ATOM     11  C   UNL A   1      31.106  25.702  25.420  1.00  0.00     0.227 C 
ATOM     12  C   UNL A   1      30.107  26.748  24.996  1.00  0.00     0.116 C 
ATOM     13  O   UNL A   1      31.423  25.553  26.589  1.00  0.00    -0.274 OA
BRANCH   9  14
ATOM     14  C   UNL A   1      32.666  24.107  24.257  1.00  0.00     0.044 A 
ATOM     15  C   UNL A   1      34.770  22.217  24.350  1.00  0.00     0.131 A 
ATOM     16  C   UNL A   1      35.043  23.568  24.135  1.00  0.00     0.049 A 
ATOM     17  C   UNL A   1      33.459  21.791  24.547  1.00  0.00     0.100 A 
ATOM     18  C   UNL A   1      33.999  24.500  24.071  1.00  0.00     0.030 A 
ATOM     19  C   UNL A   1      32.423  22.745  24.471  1.00  0.00     0.043 A 
BRANCH  15  20
ATOM     20  O   UNL A   1      35.810  21.346  24.498  1.00  0.00    -0.493 OA
BRANCH  20  21
ATOM     21  C   UNL A   1      36.590  21.585  25.674  1.00  0.00     0.226 C 
ATOM     22  C   UNL A   1      38.063  21.654  25.308  1.00  0.00     0.049 C 
ENDBRANCH  20  21
ENDBRANCH  15  20
BRANCH  17  23
ATOM     23  C   UNL A   1      33.089  20.351  24.790  1.00  0.00     0.420 C 
ATOM     24  F   UNL A   1      33.626  19.862  25.946  1.00  0.00    -0.166 F 
ATOM     25  F   UNL A   1      31.740  20.197  24.927  1.00  0.00    -0.166 F 
ATOM     26  F   UNL A   1      33.471  19.482  23.817  1.00  0.00    -0.166 F 
ENDBRANCH  17  23
ENDBRANCH   9  14
ENDBRANCH   5   8
ENDBRANCH   3   4
ENDBRANCH   2   3
ENDBRANCH   1   2
BRANCH   1  27
ATOM     27  C   UNL A   1      31.721  30.086  26.157  1.00  0.00     0.002 C 
BRANCH  27  28
ATOM     28  C   UNL A   1      31.567  31.531  26.642  1.00  0.00     0.021 C 
BRANCH  28  29
ATOM     29  C   UNL A   1      32.836  32.146  27.227  1.00  0.00     0.116 C 
BRANCH  29  30
ATOM     30  N   UNL A   1      32.673  33.565  27.496  1.00  0.00    -0.352 N 
ATOM     31  C   UNL A   1      33.268  34.348  28.453  1.00  0.00     0.251 C 
ATOM     32  H   UNL A   1      32.042  34.035  26.903  1.00  0.00     0.163 HD
ATOM     33  O   UNL A   1      32.823  35.469  28.683  1.00  0.00    -0.269 OA
BRANCH  31  34
ATOM     34  C   UNL A   1      34.428  33.834  29.213  1.00  0.00     0.039 A 
ATOM     35  C   UNL A   1      34.209  32.936  30.259  1.00  0.00     0.014 A 
ATOM     36  C   UNL A   1      35.727  34.252  28.906  1.00  0.00     0.014 A 
ATOM     37  C   UNL A   1      35.298  32.412  30.961  1.00  0.00     0.010 A 
ATOM     38  C   UNL A   1      36.814  33.676  29.559  1.00  0.00     0.010 A 
ATOM     39  C   UNL A   1      36.612  32.752  30.596  1.00  0.00    -0.014 A 
BRANCH  39  40
ATOM     40  C   UNL A   1      37.783  32.150  31.287  1.00  0.00     0.031 A 
ATOM     41  C   UNL A   1      38.558  31.039  30.629  1.00  0.00     0.074 A 
ATOM     42  C   UNL A   1      38.106  32.562  32.529  1.00  0.00     0.049 A 
ATOM     43  N   UNL A   1      39.556  30.336  31.099  1.00  0.00    -0.248 NA
ATOM     44  C   UNL A   1      38.137  30.650  29.274  1.00  0.00     0.031 C 
ATOM     45  C   UNL A   1      37.402  33.603  33.282  1.00  0.00     0.029 A 
ATOM     46  N   UNL A   1      39.097  32.150  33.385  1.00  0.00    -0.354 N 
ATOM     47  C   UNL A   1      39.870  29.410  30.110  1.00  0.00     0.074 A 
ATOM     48  C   UNL A   1      38.924  29.611  29.033  1.00  0.00     0.031 C 
ATOM     49  C   UNL A   1      37.990  33.756  34.479  1.00  0.00     0.029 A 
ATOM     50  C   UNL A   1      39.080  32.793  34.602  1.00  0.00     0.049 A 
ATOM     51  H   UNL A   1      39.758  31.459  33.151  1.00  0.00     0.167 HD
ATOM     52  C   UNL A   1      40.865  28.489  30.098  1.00  0.00     0.034 A 
ATOM     53  C   UNL A   1      39.841  32.614  35.701  1.00  0.00     0.034 A 
ATOM     54  C   UNL A   1      41.809  28.316  31.175  1.00  0.00     0.049 A 
ATOM     55  C   UNL A   1      40.931  31.570  35.666  1.00  0.00     0.074 A 
ATOM     56  C   UNL A   1      42.900  27.467  31.233  1.00  0.00     0.029 A 
ATOM     57  N   UNL A   1      41.768  28.993  32.388  1.00  0.00    -0.354 N 
ATOM     58  N   UNL A   1      41.259  30.751  34.692  1.00  0.00    -0.248 NA
ATOM     59  C   UNL A   1      41.762  31.436  36.870  1.00  0.00     0.031 C 
ATOM     60  C   UNL A   1      43.469  27.570  32.507  1.00  0.00     0.029 A 
ATOM     61  C   UNL A   1      42.790  28.549  33.214  1.00  0.00     0.049 A 
ATOM     62  H   UNL A   1      41.109  29.685  32.626  1.00  0.00     0.167 HD
ATOM     63  C   UNL A   1      42.354  30.028  35.159  1.00  0.00     0.074 A 
ATOM     64  C   UNL A   1      42.641  30.523  36.489  1.00  0.00     0.031 C 
ATOM     65  C   UNL A   1      43.061  29.047  34.542  1.00  0.00     0.034 A 
BRANCH  52  66
ATOM     66  C   UNL A   1      40.966  27.577  28.898  1.00  0.00     0.023 A 
ATOM     67  C   UNL A   1      41.974  27.729  27.929  1.00  0.00     0.031 A 
ATOM     68  C   UNL A   1      40.041  26.531  28.726  1.00  0.00     0.131 A 
ATOM     69  C   UNL A   1      41.998  26.888  26.806  1.00  0.00     0.055 A 
ATOM     70  C   UNL A   1      40.116  25.650  27.647  1.00  0.00     0.041 A 
ATOM     71  F   UNL A   1      39.044  26.349  29.606  1.00  0.00    -0.206 F 
ATOM     72  C   UNL A   1      41.093  25.832  26.672  1.00  0.00     0.022 A 
BRANCH  69  73
ATOM     73  S   UNL A   1      43.154  27.267  25.460  1.00  0.00     0.124 S 
ATOM     74  O   UNL A   1      42.319  28.073  24.572  1.00  0.00    -0.237 OA
ATOM     75  O   UNL A   1      44.222  27.978  26.152  1.00  0.00    -0.237 OA
ATOM     76  O   UNL A   1      43.516  25.951  24.938  1.00  0.00    -0.744 OA
ENDBRANCH  69  73
ENDBRANCH  52  66
BRANCH  53  77
ATOM     77  C   UNL A   1      39.589  33.409  36.940  1.00  0.00     0.023 A 
ATOM     78  C   UNL A   1      38.886  32.861  38.025  1.00  0.00     0.031 A 
ATOM     79  C   UNL A   1      39.996  34.752  37.031  1.00  0.00     0.131 A 
ATOM     80  C   UNL A   1      38.559  33.668  39.127  1.00  0.00     0.055 A 
ATOM     81  C   UNL A   1      39.724  35.532  38.156  1.00  0.00     0.041 A 
ATOM     82  F   UNL A   1      40.672  35.328  36.024  1.00  0.00    -0.206 F 
ATOM     83  C   UNL A   1      38.985  34.996  39.206  1.00  0.00     0.022 A 
BRANCH  80  84
ATOM     84  S   UNL A   1      37.467  32.989  40.407  1.00  0.00     0.124 S 
ATOM     85  O   UNL A   1      37.441  34.075  41.380  1.00  0.00    -0.237 OA
ATOM     86  O   UNL A   1      36.233  32.765  39.662  1.00  0.00    -0.237 OA
ATOM     87  O   UNL A   1      38.161  31.779  40.839  1.00  0.00    -0.744 OA
ENDBRANCH  80  84
ENDBRANCH  53  77
BRANCH  65  88
ATOM     88  C   UNL A   1      44.248  28.482  35.286  1.00  0.00     0.023 A 
ATOM     89  C   UNL A   1      44.111  27.453  36.234  1.00  0.00     0.031 A 
ATOM     90  C   UNL A   1      45.538  28.989  35.044  1.00  0.00     0.131 A 
ATOM     91  C   UNL A   1      45.234  27.003  36.944  1.00  0.00     0.055 A 
ATOM     92  C   UNL A   1      46.661  28.491  35.705  1.00  0.00     0.041 A 
ATOM     93  F   UNL A   1      45.728  29.975  34.152  1.00  0.00    -0.206 F 
ATOM     94  C   UNL A   1      46.511  27.502  36.672  1.00  0.00     0.022 A 
BRANCH  91  95
ATOM     95  S   UNL A   1      44.993  25.821  38.299  1.00  0.00     0.124 S 
ATOM     96  O   UNL A   1      46.348  25.681  38.823  1.00  0.00    -0.237 OA
ATOM     97  O   UNL A   1      44.046  26.522  39.160  1.00  0.00    -0.237 OA
ATOM     98  O   UNL A   1      44.461  24.635  37.630  1.00  0.00    -0.744 OA
ENDBRANCH  91  95
ENDBRANCH  65  88
ENDBRANCH  39  40
ENDBRANCH  31  34
ENDBRANCH  29  30
ENDBRANCH  28  29
ENDBRANCH  27  28
ENDBRANCH   1  27
TORSDOF 20
ENDMDL
MODEL 2
REMARK VINA RESULT:     -11.5      1.692      2.227
REMARK SMILES CCOc1ccc(N2C[C@H](C(=O)NCCCCCCNC(=O)c3ccc(-c4c5nc(c(-c6cc(S(=O)(=O)[O-])ccc6F)c6ccc([nH]6)c(-c6cc(S(=O)(=O)[O-])ccc6F)c6nc(c(-c7cc(S(=O)(=O)[O-])ccc7F)c7ccc4[nH]7)C=C6)C=C5)cc3)CC2=O)cc1C(F)(F)F
REMARK SMILES IDX 16 1 15 2 14 3 13 4 11 5 12 6 10 8 8 9 9 10 87 11 86 12
REMARK SMILES IDX 88 13 7 14 4 15 5 16 90 17 6 18 89 19 3 20 2 21 1 22 91 23
REMARK SMILES IDX 92 24 93 25 94 26 17 27 18 28 19 29 20 30 21 31 22 33 23 34
REMARK SMILES IDX 24 35 85 36 25 37 84 38 26 39 27 40 28 41 78 42 29 43 83 44
REMARK SMILES IDX 77 45 79 46 30 47 82 48 76 49 75 50 31 52 63 53 43 54 62 55
REMARK SMILES IDX 44 56 47 57 61 58 80 59 45 60 46 61 60 63 81 64 48 65 32 66
REMARK SMILES IDX 33 67 41 68 34 69 40 70 42 71 39 72 35 73 36 74 37 75 38 76
REMARK SMILES IDX 64 77 65 78 73 79 66 80 72 81 74 82 71 83 67 84 68 85 69 86
REMARK SMILES IDX 70 87 49 88 50 89 58 90 51 91 57 92 59 93 56 94 52 95 53 96
REMARK SMILES IDX 54 97 55 98
REMARK H PARENT 13 7 20 32 79 51 47 62
REMARK Flexibility Score: inf
ROOT
ATOM      1  C   UNL A   1      32.656  29.458  25.751  1.00  0.00     0.002 C 
ENDROOT
BRANCH   1   2
ATOM      2  C   UNL A   1      33.427  29.021  24.502  1.00  0.00     0.021 C 
BRANCH   2   3
ATOM      3  C   UNL A   1      32.542  28.774  23.283  1.00  0.00     0.116 C 
BRANCH   3   4
ATOM      4  N   UNL A   1      33.111  27.782  22.389  1.00  0.00    -0.356 N 
ATOM      5  C   UNL A   1      32.831  26.471  22.184  1.00  0.00     0.225 C 
ATOM      6  O   UNL A   1      33.500  25.883  21.327  1.00  0.00    -0.275 OA
ATOM      7  H   UNL A   1      33.837  28.127  21.822  1.00  0.00     0.163 HD
BRANCH   5   8
ATOM      8  C   UNL A   1      31.794  25.689  22.975  1.00  0.00     0.107 C 
ATOM      9  N   UNL A   1      32.370  23.724  24.151  1.00  0.00    -0.312 N 
ATOM     10  C   UNL A   1      31.974  24.193  22.844  1.00  0.00     0.139 C 
ATOM     11  C   UNL A   1      32.167  24.709  25.130  1.00  0.00     0.227 C 
ATOM     12  C   UNL A   1      31.723  25.983  24.458  1.00  0.00     0.116 C 
ATOM     13  O   UNL A   1      32.361  24.651  26.333  1.00  0.00    -0.274 OA
BRANCH   9  14
ATOM     14  C   UNL A   1      32.921  22.430  24.376  1.00  0.00     0.044 A 
ATOM     15  C   UNL A   1      34.056  19.857  24.695  1.00  0.00     0.131 A 
ATOM     16  C   UNL A   1      32.681  20.005  24.512  1.00  0.00     0.049 A 
ATOM     17  C   UNL A   1      34.886  20.976  24.696  1.00  0.00     0.100 A 
ATOM     18  C   UNL A   1      32.119  21.280  24.372  1.00  0.00     0.030 A 
ATOM     19  C   UNL A   1      34.297  22.250  24.561  1.00  0.00     0.043 A 
BRANCH  15  20
ATOM     20  O   UNL A   1      34.589  18.602  24.737  1.00  0.00    -0.493 OA
BRANCH  20  21
ATOM     21  C   UNL A   1      34.006  17.703  23.787  1.00  0.00     0.226 C 
ATOM     22  C   UNL A   1      34.056  16.284  24.324  1.00  0.00     0.049 C 
ENDBRANCH  20  21
ENDBRANCH  15  20
BRANCH  17  23
ATOM     23  C   UNL A   1      36.379  20.894  24.883  1.00  0.00     0.420 C 
ATOM     24  F   UNL A   1      37.065  21.526  23.887  1.00  0.00    -0.166 F 
ATOM     25  F   UNL A   1      36.773  21.507  26.037  1.00  0.00    -0.166 F 
ATOM     26  F   UNL A   1      36.888  19.635  24.931  1.00  0.00    -0.166 F 
ENDBRANCH  17  23
ENDBRANCH   9  14
ENDBRANCH   5   8
ENDBRANCH   3   4
ENDBRANCH   2   3
ENDBRANCH   1   2
BRANCH   1  27
ATOM     27  C   UNL A   1      31.482  30.412  25.492  1.00  0.00     0.002 C 
BRANCH  27  28
ATOM     28  C   UNL A   1      31.317  31.542  26.514  1.00  0.00     0.021 C 
BRANCH  28  29
ATOM     29  C   UNL A   1      32.627  32.147  27.011  1.00  0.00     0.116 C 
BRANCH  29  30
ATOM     30  N   UNL A   1      32.484  33.561  27.321  1.00  0.00    -0.352 N 
ATOM     31  C   UNL A   1      33.119  34.315  28.275  1.00  0.00     0.251 C 
ATOM     32  H   UNL A   1      31.835  34.049  26.764  1.00  0.00     0.163 HD
ATOM     33  O   UNL A   1      32.691  35.433  28.549  1.00  0.00    -0.269 OA
BRANCH  31  34
ATOM     34  C   UNL A   1      34.303  33.775  28.978  1.00  0.00     0.039 A 
ATOM     35  C   UNL A   1      34.113  32.931  30.074  1.00  0.00     0.014 A 
ATOM     36  C   UNL A   1      35.596  34.116  28.570  1.00  0.00     0.014 A 
ATOM     37  C   UNL A   1      35.221  32.382  30.726  1.00  0.00     0.010 A 
ATOM     38  C   UNL A   1      36.696  33.513  29.174  1.00  0.00     0.010 A 
ATOM     39  C   UNL A   1      36.521  32.643  30.260  1.00  0.00    -0.014 A 
BRANCH  39  40
ATOM     40  C   UNL A   1      37.707  32.012  30.898  1.00  0.00     0.031 A 
ATOM     41  C   UNL A   1      38.500  30.969  30.154  1.00  0.00     0.074 A 
ATOM     42  C   UNL A   1      38.030  32.333  32.167  1.00  0.00     0.049 A 
ATOM     43  N   UNL A   1      39.512  30.251  30.565  1.00  0.00    -0.248 NA
ATOM     44  C   UNL A   1      38.078  30.677  28.775  1.00  0.00     0.031 C 
ATOM     45  C   UNL A   1      37.311  33.300  33.001  1.00  0.00     0.029 A 
ATOM     46  N   UNL A   1      39.032  31.875  32.986  1.00  0.00    -0.354 N 
ATOM     47  C   UNL A   1      39.838  29.410  29.506  1.00  0.00     0.074 A 
ATOM     48  C   UNL A   1      38.883  29.675  28.452  1.00  0.00     0.031 C 
ATOM     49  C   UNL A   1      37.903  33.372  34.204  1.00  0.00     0.029 A 
ATOM     50  C   UNL A   1      39.010  32.423  34.249  1.00  0.00     0.049 A 
ATOM     51  H   UNL A   1      39.704  31.216  32.696  1.00  0.00     0.167 HD
ATOM     52  C   UNL A   1      40.850  28.511  29.420  1.00  0.00     0.034 A 
ATOM     53  C   UNL A   1      39.780  32.174  35.327  1.00  0.00     0.034 A 
ATOM     54  C   UNL A   1      41.802  28.273  30.477  1.00  0.00     0.049 A 
ATOM     55  C   UNL A   1      40.890  31.157  35.208  1.00  0.00     0.074 A 
ATOM     56  C   UNL A   1      42.909  27.443  30.465  1.00  0.00     0.029 A 
ATOM     57  N   UNL A   1      41.756  28.855  31.738  1.00  0.00    -0.354 N 
ATOM     58  N   UNL A   1      41.227  30.421  34.173  1.00  0.00    -0.248 NA
ATOM     59  C   UNL A   1      41.729  30.946  36.394  1.00  0.00     0.031 C 
ATOM     60  C   UNL A   1      43.483  27.459  31.741  1.00  0.00     0.029 A 
ATOM     61  C   UNL A   1      42.790  28.368  32.523  1.00  0.00     0.049 A 
ATOM     62  H   UNL A   1      41.086  29.514  32.032  1.00  0.00     0.167 HD
ATOM     63  C   UNL A   1      42.338  29.685  34.578  1.00  0.00     0.074 A 
ATOM     64  C   UNL A   1      42.623  30.082  35.941  1.00  0.00     0.031 C 
ATOM     65  C   UNL A   1      43.060  28.768  33.885  1.00  0.00     0.034 A 
BRANCH  52  66
ATOM     66  C   UNL A   1      40.961  27.696  28.153  1.00  0.00     0.023 A 
ATOM     67  C   UNL A   1      40.518  26.363  28.083  1.00  0.00     0.031 A 
ATOM     68  C   UNL A   1      41.515  28.265  26.992  1.00  0.00     0.131 A 
ATOM     69  C   UNL A   1      40.688  25.630  26.899  1.00  0.00     0.055 A 
ATOM     70  C   UNL A   1      41.611  27.555  25.795  1.00  0.00     0.041 A 
ATOM     71  F   UNL A   1      41.977  29.527  27.004  1.00  0.00    -0.206 F 
ATOM     72  C   UNL A   1      41.206  26.225  25.746  1.00  0.00     0.022 A 
BRANCH  69  73
ATOM     73  S   UNL A   1      40.333  23.851  26.920  1.00  0.00     0.124 S 
ATOM     74  O   UNL A   1      40.444  23.544  28.344  1.00  0.00    -0.237 OA
ATOM     75  O   UNL A   1      38.990  23.789  26.356  1.00  0.00    -0.237 OA
ATOM     76  O   UNL A   1      41.388  23.281  26.084  1.00  0.00    -0.744 OA
ENDBRANCH  69  73
ENDBRANCH  52  66
BRANCH  53  77
ATOM     77  C   UNL A   1      39.520  32.867  36.624  1.00  0.00     0.023 A 
ATOM     78  C   UNL A   1      38.632  32.330  37.570  1.00  0.00     0.031 A 
ATOM     79  C   UNL A   1      40.113  34.110  36.911  1.00  0.00     0.131 A 
ATOM     80  C   UNL A   1      38.315  33.061  38.726  1.00  0.00     0.055 A 
ATOM     81  C   UNL A   1      39.843  34.803  38.092  1.00  0.00     0.041 A 
ATOM     82  F   UNL A   1      40.971  34.670  36.043  1.00  0.00    -0.206 F 
ATOM     83  C   UNL A   1      38.925  34.287  39.000  1.00  0.00     0.022 A 
BRANCH  80  84
ATOM     84  S   UNL A   1      37.004  32.438  39.815  1.00  0.00     0.124 S 
ATOM     85  O   UNL A   1      35.823  32.592  38.974  1.00  0.00    -0.237 OA
ATOM     86  O   UNL A   1      37.442  31.068  40.062  1.00  0.00    -0.237 OA
ATOM     87  O   UNL A   1      37.068  33.329  40.970  1.00  0.00    -0.744 OA
ENDBRANCH  80  84
ENDBRANCH  53  77
BRANCH  65  88
ATOM     88  C   UNL A   1      44.261  28.169  34.578  1.00  0.00     0.023 A 
ATOM     89  C   UNL A   1      44.174  26.980  35.322  1.00  0.00     0.031 A 
ATOM     90  C   UNL A   1      45.511  28.808  34.496  1.00  0.00     0.131 A 
ATOM     91  C   UNL A   1      45.304  26.496  36.000  1.00  0.00     0.055 A 
ATOM     92  C   UNL A   1      46.647  28.286  35.117  1.00  0.00     0.041 A 
ATOM     93  F   UNL A   1      45.653  29.949  33.803  1.00  0.00    -0.206 F 
ATOM     94  C   UNL A   1      46.544  27.130  35.886  1.00  0.00     0.022 A 
BRANCH  91  95
ATOM     95  S   UNL A   1      45.111  25.075  37.112  1.00  0.00     0.124 S 
ATOM     96  O   UNL A   1      46.388  24.388  36.949  1.00  0.00    -0.237 OA
ATOM     97  O   UNL A   1      44.893  25.718  38.404  1.00  0.00    -0.237 OA
ATOM     98  O   UNL A   1      43.952  24.369  36.569  1.00  0.00    -0.744 OA
ENDBRANCH  91  95
ENDBRANCH  65  88
ENDBRANCH  39  40
ENDBRANCH  31  34
ENDBRANCH  29  30
ENDBRANCH  28  29
ENDBRANCH  27  28
ENDBRANCH   1  27
TORSDOF 20
ENDMDL
MODEL 3
REMARK VINA RESULT:     -11.1      1.800      2.551
REMARK SMILES CCOc1ccc(N2C[C@H](C(=O)NCCCCCCNC(=O)c3ccc(-c4c5nc(c(-c6cc(S(=O)(=O)[O-])ccc6F)c6ccc([nH]6)c(-c6cc(S(=O)(=O)[O-])ccc6F)c6nc(c(-c7cc(S(=O)(=O)[O-])ccc7F)c7ccc4[nH]7)C=C6)C=C5)cc3)CC2=O)cc1C(F)(F)F
REMARK SMILES IDX 16 1 15 2 14 3 13 4 11 5 12 6 10 8 8 9 9 10 87 11 86 12
REMARK SMILES IDX 88 13 7 14 4 15 5 16 90 17 6 18 89 19 3 20 2 21 1 22 91 23
REMARK SMILES IDX 92 24 93 25 94 26 17 27 18 28 19 29 20 30 21 31 22 33 23 34
REMARK SMILES IDX 24 35 85 36 25 37 84 38 26 39 27 40 28 41 78 42 29 43 83 44
REMARK SMILES IDX 77 45 79 46 30 47 82 48 76 49 75 50 31 52 63 53 43 54 62 55
REMARK SMILES IDX 44 56 47 57 61 58 80 59 45 60 46 61 60 63 81 64 48 65 32 66
REMARK SMILES IDX 33 67 41 68 34 69 40 70 42 71 39 72 35 73 36 74 37 75 38 76
REMARK SMILES IDX 64 77 65 78 73 79 66 80 72 81 74 82 71 83 67 84 68 85 69 86
REMARK SMILES IDX 70 87 49 88 50 89 58 90 51 91 57 92 59 93 56 94 52 95 53 96
REMARK SMILES IDX 54 97 55 98
REMARK H PARENT 13 7 20 32 79 51 47 62
REMARK Flexibility Score: inf
ROOT
ATOM      1  C   UNL A   1      32.481  29.513  25.727  1.00  0.00     0.002 C 
ENDROOT
BRANCH   1   2
ATOM      2  C   UNL A   1      32.454  28.277  24.823  1.00  0.00     0.021 C 
BRANCH   2   3
ATOM      3  C   UNL A   1      31.068  27.658  24.661  1.00  0.00     0.116 C 
BRANCH   3   4
ATOM      4  N   UNL A   1      31.083  26.516  23.764  1.00  0.00    -0.356 N 
ATOM      5  C   UNL A   1      31.435  25.219  23.944  1.00  0.00     0.225 C 
ATOM      6  O   UNL A   1      31.326  24.468  22.968  1.00  0.00    -0.275 OA
ATOM      7  H   UNL A   1      30.777  26.722  22.852  1.00  0.00     0.163 HD
BRANCH   5   8
ATOM      8  C   UNL A   1      31.996  24.663  25.245  1.00  0.00     0.107 C 
ATOM      9  N   UNL A   1      32.835  22.460  25.379  1.00  0.00    -0.312 N 
ATOM     10  C   UNL A   1      31.609  23.217  25.469  1.00  0.00     0.139 C 
ATOM     11  C   UNL A   1      33.959  23.300  25.418  1.00  0.00     0.227 C 
ATOM     12  C   UNL A   1      33.498  24.735  25.411  1.00  0.00     0.116 C 
ATOM     13  O   UNL A   1      35.142  23.005  25.395  1.00  0.00    -0.274 OA
BRANCH   9  14
ATOM     14  C   UNL A   1      32.862  21.043  25.236  1.00  0.00     0.044 A 
ATOM     15  C   UNL A   1      32.781  18.229  24.943  1.00  0.00     0.131 A 
ATOM     16  C   UNL A   1      32.921  18.804  26.206  1.00  0.00     0.049 A 
ATOM     17  C   UNL A   1      32.654  19.038  23.816  1.00  0.00     0.100 A 
ATOM     18  C   UNL A   1      32.979  20.197  26.348  1.00  0.00     0.030 A 
ATOM     19  C   UNL A   1      32.722  20.437  23.982  1.00  0.00     0.043 A 
BRANCH  15  20
ATOM     20  O   UNL A   1      32.636  16.876  24.842  1.00  0.00    -0.493 OA
BRANCH  20  21
ATOM     21  C   UNL A   1      33.502  16.144  25.716  1.00  0.00     0.226 C 
ATOM     22  C   UNL A   1      34.811  15.841  25.007  1.00  0.00     0.049 C 
ENDBRANCH  20  21
ENDBRANCH  15  20
BRANCH  17  23
ATOM     23  C   UNL A   1      32.494  18.490  22.422  1.00  0.00     0.420 C 
ATOM     24  F   UNL A   1      33.587  17.784  22.011  1.00  0.00    -0.166 F 
ATOM     25  F   UNL A   1      31.450  17.614  22.346  1.00  0.00    -0.166 F 
ATOM     26  F   UNL A   1      32.278  19.419  21.456  1.00  0.00    -0.166 F 
ENDBRANCH  17  23
ENDBRANCH   9  14
ENDBRANCH   5   8
ENDBRANCH   3   4
ENDBRANCH   2   3
ENDBRANCH   1   2
BRANCH   1  27
ATOM     27  C   UNL A   1      31.340  30.513  25.498  1.00  0.00     0.002 C 
BRANCH  27  28
ATOM     28  C   UNL A   1      31.244  31.645  26.526  1.00  0.00     0.021 C 
BRANCH  28  29
ATOM     29  C   UNL A   1      32.589  32.164  27.029  1.00  0.00     0.116 C 
BRANCH  29  30
ATOM     30  N   UNL A   1      32.509  33.557  27.439  1.00  0.00    -0.352 N 
ATOM     31  C   UNL A   1      33.181  34.214  28.439  1.00  0.00     0.251 C 
ATOM     32  H   UNL A   1      31.880  34.111  26.922  1.00  0.00     0.163 HD
ATOM     33  O   UNL A   1      32.803  35.327  28.794  1.00  0.00    -0.269 OA
BRANCH  31  34
ATOM     34  C   UNL A   1      34.342  33.575  29.094  1.00  0.00     0.039 A 
ATOM     35  C   UNL A   1      35.629  33.913  28.670  1.00  0.00     0.014 A 
ATOM     36  C   UNL A   1      34.163  32.630  30.110  1.00  0.00     0.014 A 
ATOM     37  C   UNL A   1      36.739  33.346  29.305  1.00  0.00     0.010 A 
ATOM     38  C   UNL A   1      35.268  32.122  30.788  1.00  0.00     0.010 A 
ATOM     39  C   UNL A   1      36.568  32.471  30.391  1.00  0.00    -0.014 A 
BRANCH  39  40
ATOM     40  C   UNL A   1      37.737  31.914  31.121  1.00  0.00     0.031 A 
ATOM     41  C   UNL A   1      38.580  30.838  30.488  1.00  0.00     0.074 A 
ATOM     42  C   UNL A   1      37.998  32.333  32.376  1.00  0.00     0.049 A 
ATOM     43  N   UNL A   1      39.587  30.174  30.992  1.00  0.00    -0.248 NA
ATOM     44  C   UNL A   1      38.223  30.439  29.118  1.00  0.00     0.031 C 
ATOM     45  C   UNL A   1      37.226  33.340  33.107  1.00  0.00     0.029 A 
ATOM     46  N   UNL A   1      38.973  31.957  33.266  1.00  0.00    -0.354 N 
ATOM     47  C   UNL A   1      39.974  29.266  30.011  1.00  0.00     0.074 A 
ATOM     48  C   UNL A   1      39.060  29.434  28.902  1.00  0.00     0.031 C 
ATOM     49  C   UNL A   1      37.764  33.511  34.325  1.00  0.00     0.029 A 
ATOM     50  C   UNL A   1      38.887  32.593  34.484  1.00  0.00     0.049 A 
ATOM     51  H   UNL A   1      39.669  31.294  33.053  1.00  0.00     0.167 HD
ATOM     52  C   UNL A   1      41.005  28.386  30.032  1.00  0.00     0.034 A 
ATOM     53  C   UNL A   1      39.614  32.438  35.609  1.00  0.00     0.034 A 
ATOM     54  C   UNL A   1      41.916  28.246  31.142  1.00  0.00     0.049 A 
ATOM     55  C   UNL A   1      40.747  31.440  35.609  1.00  0.00     0.074 A 
ATOM     56  C   UNL A   1      43.038  27.441  31.237  1.00  0.00     0.029 A 
ATOM     57  N   UNL A   1      41.804  28.915  32.355  1.00  0.00    -0.354 N 
ATOM     58  N   UNL A   1      41.142  30.640  34.646  1.00  0.00    -0.248 NA
ATOM     59  C   UNL A   1      41.538  31.334  36.842  1.00  0.00     0.031 C 
ATOM     60  C   UNL A   1      43.556  27.561  32.530  1.00  0.00     0.029 A 
ATOM     61  C   UNL A   1      42.813  28.509  33.216  1.00  0.00     0.049 A 
ATOM     62  H   UNL A   1      41.110  29.578  32.572  1.00  0.00     0.167 HD
ATOM     63  C   UNL A   1      42.248  29.959  35.149  1.00  0.00     0.074 A 
ATOM     64  C   UNL A   1      42.467  30.458  36.490  1.00  0.00     0.031 C 
ATOM     65  C   UNL A   1      43.016  29.010  34.554  1.00  0.00     0.034 A 
BRANCH  52  66
ATOM     66  C   UNL A   1      41.187  27.485  28.834  1.00  0.00     0.023 A 
ATOM     67  C   UNL A   1      42.187  27.714  27.873  1.00  0.00     0.031 A 
ATOM     68  C   UNL A   1      40.346  26.371  28.654  1.00  0.00     0.131 A 
ATOM     69  C   UNL A   1      42.285  26.878  26.750  1.00  0.00     0.055 A 
ATOM     70  C   UNL A   1      40.498  25.498  27.576  1.00  0.00     0.041 A 
ATOM     71  F   UNL A   1      39.358  26.113  29.526  1.00  0.00    -0.206 F 
ATOM     72  C   UNL A   1      41.466  25.755  26.609  1.00  0.00     0.022 A 
BRANCH  69  73
ATOM     73  S   UNL A   1      43.420  27.346  25.414  1.00  0.00     0.124 S 
ATOM     74  O   UNL A   1      42.522  28.039  24.493  1.00  0.00    -0.237 OA
ATOM     75  O   UNL A   1      44.395  28.180  26.104  1.00  0.00    -0.237 OA
ATOM     76  O   UNL A   1      43.926  26.063  24.930  1.00  0.00    -0.744 OA
ENDBRANCH  69  73
ENDBRANCH  52  66
BRANCH  53  77
ATOM     77  C   UNL A   1      39.286  33.217  36.841  1.00  0.00     0.023 A 
ATOM     78  C   UNL A   1      39.927  34.433  37.125  1.00  0.00     0.031 A 
ATOM     79  C   UNL A   1      38.366  32.723  37.783  1.00  0.00     0.131 A 
ATOM     80  C   UNL A   1      39.687  35.082  38.346  1.00  0.00     0.055 A 
ATOM     81  C   UNL A   1      38.083  33.405  38.968  1.00  0.00     0.041 A 
ATOM     82  F   UNL A   1      37.722  31.565  37.563  1.00  0.00    -0.206 F 
ATOM     83  C   UNL A   1      38.759  34.584  39.263  1.00  0.00     0.022 A 
BRANCH  80  84
ATOM     84  S   UNL A   1      40.692  36.531  38.772  1.00  0.00     0.124 S 
ATOM     85  O   UNL A   1      39.738  37.618  38.588  1.00  0.00    -0.237 OA
ATOM     86  O   UNL A   1      41.075  36.239  40.149  1.00  0.00    -0.237 OA
ATOM     87  O   UNL A   1      41.782  36.486  37.800  1.00  0.00    -0.744 OA
ENDBRANCH  80  84
ENDBRANCH  53  77
BRANCH  65  88
ATOM     88  C   UNL A   1      44.197  28.490  35.339  1.00  0.00     0.023 A 
ATOM     89  C   UNL A   1      44.072  27.438  36.263  1.00  0.00     0.031 A 
ATOM     90  C   UNL A   1      45.469  29.064  35.160  1.00  0.00     0.131 A 
ATOM     91  C   UNL A   1      45.185  27.030  37.013  1.00  0.00     0.055 A 
ATOM     92  C   UNL A   1      46.587  28.609  35.860  1.00  0.00     0.041 A 
ATOM     93  F   UNL A   1      45.648  30.073  34.293  1.00  0.00    -0.206 F 
ATOM     94  C   UNL A   1      46.446  27.595  36.803  1.00  0.00     0.022 A 
BRANCH  91  95
ATOM     95  S   UNL A   1      44.947  25.813  38.337  1.00  0.00     0.124 S 
ATOM     96  O   UNL A   1      44.525  26.657  39.451  1.00  0.00    -0.237 OA
ATOM     97  O   UNL A   1      43.923  24.938  37.777  1.00  0.00    -0.237 OA
ATOM     98  O   UNL A   1      46.268  25.205  38.486  1.00  0.00    -0.744 OA
ENDBRANCH  91  95
ENDBRANCH  65  88
ENDBRANCH  39  40
ENDBRANCH  31  34
ENDBRANCH  29  30
ENDBRANCH  28  29
ENDBRANCH  27  28
ENDBRANCH   1  27
TORSDOF 20
ENDMDL
