MODEL 1
REMARK VINA RESULT:     -10.8      0.000      0.000
REMARK SMILES CCOc1ccc2c(c1)=N[C@H](SCC(=O)NCCCCCCNC(=O)c1ccc(-c3c4nc(c(-c5cc(S(=O)(=O)[O-])ccc5F)c5ccc([nH]5)c(-c5cc(S(=O)(=O)[O-])ccc5F)c5nc(c(-c6cc(S(=O)(=O)[O-])ccc6F)c6ccc3[nH]6)C=C5)C=C4)cc1)N=2
REMARK SMILES IDX 19 1 18 2 17 3 16 4 14 5 15 6 13 8 12 9 11 10 4 11 5 12 9 13
REMARK SMILES IDX 6 14 8 15 7 16 10 17 89 18 3 19 2 20 1 21 20 22 21 23 22 24
REMARK SMILES IDX 23 25 24 26 25 28 26 29 27 30 88 31 28 32 87 33 29 34 30 35
REMARK SMILES IDX 31 36 81 37 32 38 86 39 80 40 82 41 33 42 85 43 79 44 78 45
REMARK SMILES IDX 34 47 66 48 46 49 65 50 47 51 50 52 64 53 83 54 48 55 49 56
REMARK SMILES IDX 63 58 84 59 51 60 35 61 36 62 44 63 37 64 43 65 45 66 42 67
REMARK SMILES IDX 38 68 39 69 40 70 41 71 67 72 68 73 76 74 69 75 75 76 77 77
REMARK SMILES IDX 74 78 70 79 71 80 72 81 73 82 52 83 53 84 61 85 54 86 60 87
REMARK SMILES IDX 62 88 59 89 55 90 56 91 57 92 58 93
REMARK H PARENT 16 7 23 27 82 46 50 57
REMARK Flexibility Score: inf
ROOT
ATOM      1  C   UNL A   1      31.695  28.870  27.297  1.00  0.00     0.002 C 
ENDROOT
BRANCH   1   2
ATOM      2  C   UNL A   1      32.172  27.428  27.083  1.00  0.00     0.021 C 
BRANCH   2   3
ATOM      3  C   UNL A   1      31.284  26.593  26.158  1.00  0.00     0.116 C 
BRANCH   3   4
ATOM      4  N   UNL A   1      30.904  25.335  26.773  1.00  0.00    -0.355 N 
ATOM      5  C   UNL A   1      31.583  24.152  26.826  1.00  0.00     0.230 C 
ATOM      6  O   UNL A   1      31.073  23.228  27.470  1.00  0.00    -0.274 OA
ATOM      7  H   UNL A   1      30.026  25.334  27.218  1.00  0.00     0.163 HD
BRANCH   5   8
ATOM      8  C   UNL A   1      32.985  24.018  26.246  1.00  0.00     0.173 C 
BRANCH   8   9
ATOM      9  S   UNL A   1      33.185  22.752  24.956  1.00  0.00    -0.102 SA
BRANCH   9  10
ATOM     10  C   UNL A   1      33.291  23.777  23.445  1.00  0.00     0.281 C 
ATOM     11  C   UNL A   1      31.263  27.654  22.410  1.00  0.00     0.121 A 
ATOM     12  C   UNL A   1      32.523  28.169  22.921  1.00  0.00     0.049 A 
ATOM     13  C   UNL A   1      30.971  26.347  22.370  1.00  0.00     0.076 A 
ATOM     14  C   UNL A   1      33.539  27.384  23.301  1.00  0.00     0.034 A 
ATOM     15  C   UNL A   1      32.007  25.419  22.821  1.00  0.00     0.090 A 
ATOM     16  C   UNL A   1      33.320  25.938  23.249  1.00  0.00     0.087 A 
ATOM     17  N   UNL A   1      31.951  24.138  22.903  1.00  0.00    -0.246 NA
ATOM     18  N   UNL A   1      34.134  24.991  23.554  1.00  0.00    -0.246 NA
BRANCH  11  19
ATOM     19  O   UNL A   1      30.311  28.600  22.105  1.00  0.00    -0.494 OA
BRANCH  19  20
ATOM     20  C   UNL A   1      29.730  29.219  23.258  1.00  0.00     0.226 C 
ATOM     21  C   UNL A   1      29.142  30.570  22.884  1.00  0.00     0.049 C 
ENDBRANCH  19  20
ENDBRANCH  11  19
ENDBRANCH   9  10
ENDBRANCH   8   9
ENDBRANCH   5   8
ENDBRANCH   3   4
ENDBRANCH   2   3
ENDBRANCH   1   2
BRANCH   1  22
ATOM     22  C   UNL A   1      32.195  29.894  26.274  1.00  0.00     0.002 C 
BRANCH  22  23
ATOM     23  C   UNL A   1      31.881  31.355  26.600  1.00  0.00     0.021 C 
BRANCH  23  24
ATOM     24  C   UNL A   1      32.982  32.101  27.344  1.00  0.00     0.116 C 
BRANCH  24  25
ATOM     25  N   UNL A   1      32.659  33.502  27.572  1.00  0.00    -0.352 N 
ATOM     26  C   UNL A   1      33.200  34.375  28.488  1.00  0.00     0.251 C 
ATOM     27  H   UNL A   1      31.956  33.876  26.992  1.00  0.00     0.163 HD
ATOM     28  O   UNL A   1      32.705  35.488  28.644  1.00  0.00    -0.269 OA
BRANCH  26  29
ATOM     29  C   UNL A   1      34.356  33.948  29.307  1.00  0.00     0.039 A 
ATOM     30  C   UNL A   1      35.651  34.346  28.969  1.00  0.00     0.014 A 
ATOM     31  C   UNL A   1      34.145  33.104  30.401  1.00  0.00     0.014 A 
ATOM     32  C   UNL A   1      36.740  33.767  29.613  1.00  0.00     0.010 A 
ATOM     33  C   UNL A   1      35.240  32.587  31.100  1.00  0.00     0.010 A 
ATOM     34  C   UNL A   1      36.549  32.872  30.680  1.00  0.00    -0.014 A 
BRANCH  34  35
ATOM     35  C   UNL A   1      37.731  32.253  31.335  1.00  0.00     0.031 A 
ATOM     36  C   UNL A   1      38.173  32.688  32.707  1.00  0.00     0.074 A 
ATOM     37  C   UNL A   1      38.379  31.250  30.707  1.00  0.00     0.049 A 
ATOM     38  N   UNL A   1      39.162  32.235  33.435  1.00  0.00    -0.248 NA
ATOM     39  C   UNL A   1      37.411  33.772  33.347  1.00  0.00     0.031 C 
ATOM     40  C   UNL A   1      38.038  30.745  29.377  1.00  0.00     0.029 A 
ATOM     41  N   UNL A   1      39.435  30.467  31.101  1.00  0.00    -0.354 N 
ATOM     42  C   UNL A   1      39.146  32.979  34.610  1.00  0.00     0.074 A 
ATOM     43  C   UNL A   1      38.073  33.940  34.484  1.00  0.00     0.031 C 
ATOM     44  C   UNL A   1      38.836  29.709  29.085  1.00  0.00     0.029 A 
ATOM     45  C   UNL A   1      39.791  29.516  30.174  1.00  0.00     0.049 A 
ATOM     46  H   UNL A   1      39.892  30.575  31.966  1.00  0.00     0.167 HD
ATOM     47  C   UNL A   1      39.943  32.856  35.699  1.00  0.00     0.034 A 
ATOM     48  C   UNL A   1      40.781  28.599  30.184  1.00  0.00     0.034 A 
ATOM     49  C   UNL A   1      40.998  31.883  35.818  1.00  0.00     0.049 A 
ATOM     50  C   UNL A   1      41.666  28.498  31.399  1.00  0.00     0.074 A 
ATOM     51  C   UNL A   1      41.852  31.676  36.888  1.00  0.00     0.029 A 
ATOM     52  N   UNL A   1      41.340  30.948  34.851  1.00  0.00    -0.354 N 
ATOM     53  N   UNL A   1      41.612  29.187  32.515  1.00  0.00    -0.248 NA
ATOM     54  C   UNL A   1      42.742  27.499  31.365  1.00  0.00     0.031 C 
ATOM     55  C   UNL A   1      42.739  30.655  36.550  1.00  0.00     0.029 A 
ATOM     56  C   UNL A   1      42.403  30.177  35.293  1.00  0.00     0.049 A 
ATOM     57  H   UNL A   1      40.894  30.848  33.979  1.00  0.00     0.167 HD
ATOM     58  C   UNL A   1      42.636  28.696  33.319  1.00  0.00     0.074 A 
ATOM     59  C   UNL A   1      43.272  27.628  32.575  1.00  0.00     0.031 C 
ATOM     60  C   UNL A   1      43.021  29.103  34.554  1.00  0.00     0.034 A 
BRANCH  47  61
ATOM     61  C   UNL A   1      39.712  33.772  36.875  1.00  0.00     0.023 A 
ATOM     62  C   UNL A   1      40.615  34.817  37.147  1.00  0.00     0.031 A 
ATOM     63  C   UNL A   1      38.689  33.518  37.805  1.00  0.00     0.131 A 
ATOM     64  C   UNL A   1      40.502  35.542  38.339  1.00  0.00     0.055 A 
ATOM     65  C   UNL A   1      38.558  34.269  38.974  1.00  0.00     0.041 A 
ATOM     66  F   UNL A   1      37.802  32.532  37.591  1.00  0.00    -0.206 F 
ATOM     67  C   UNL A   1      39.476  35.277  39.252  1.00  0.00     0.022 A 
BRANCH  64  68
ATOM     68  S   UNL A   1      41.715  36.815  38.784  1.00  0.00     0.124 S 
ATOM     69  O   UNL A   1      40.860  37.875  39.312  1.00  0.00    -0.237 OA
ATOM     70  O   UNL A   1      42.533  36.122  39.776  1.00  0.00    -0.237 OA
ATOM     71  O   UNL A   1      42.378  37.124  37.522  1.00  0.00    -0.744 OA
ENDBRANCH  64  68
ENDBRANCH  47  61
BRANCH  48  72
ATOM     72  C   UNL A   1      40.942  27.695  29.008  1.00  0.00     0.023 A 
ATOM     73  C   UNL A   1      41.952  27.927  28.055  1.00  0.00     0.031 A 
ATOM     74  C   UNL A   1      40.024  26.661  28.758  1.00  0.00     0.131 A 
ATOM     75  C   UNL A   1      41.972  27.189  26.865  1.00  0.00     0.055 A 
ATOM     76  C   UNL A   1      40.095  25.878  27.604  1.00  0.00     0.041 A 
ATOM     77  F   UNL A   1      39.036  26.408  29.630  1.00  0.00    -0.206 F 
ATOM     78  C   UNL A   1      41.061  26.155  26.641  1.00  0.00     0.022 A 
BRANCH  75  79
ATOM     79  S   UNL A   1      43.081  27.656  25.505  1.00  0.00     0.124 S 
ATOM     80  O   UNL A   1      42.180  28.385  24.618  1.00  0.00    -0.237 OA
ATOM     81  O   UNL A   1      44.080  28.468  26.196  1.00  0.00    -0.237 OA
ATOM     82  O   UNL A   1      43.568  26.376  25.003  1.00  0.00    -0.744 OA
ENDBRANCH  75  79
ENDBRANCH  48  72
BRANCH  60  83
ATOM     83  C   UNL A   1      44.191  28.411  35.211  1.00  0.00     0.023 A 
ATOM     84  C   UNL A   1      43.968  27.384  36.148  1.00  0.00     0.031 A 
ATOM     85  C   UNL A   1      45.505  28.873  35.030  1.00  0.00     0.131 A 
ATOM     86  C   UNL A   1      45.037  26.881  36.899  1.00  0.00     0.055 A 
ATOM     87  C   UNL A   1      46.575  28.338  35.748  1.00  0.00     0.041 A 
ATOM     88  F   UNL A   1      45.767  29.858  34.156  1.00  0.00    -0.206 F 
ATOM     89  C   UNL A   1      46.341  27.348  36.699  1.00  0.00     0.022 A 
BRANCH  86  90
ATOM     90  S   UNL A   1      44.768  25.671  38.223  1.00  0.00     0.124 S 
ATOM     91  O   UNL A   1      43.947  26.432  39.163  1.00  0.00    -0.237 OA
ATOM     92  O   UNL A   1      44.075  24.595  37.521  1.00  0.00    -0.237 OA
ATOM     93  O   UNL A   1      46.113  25.353  38.689  1.00  0.00    -0.744 OA
ENDBRANCH  86  90
ENDBRANCH  60  83
ENDBRANCH  34  35
ENDBRANCH  26  29
ENDBRANCH  24  25
ENDBRANCH  23  24
ENDBRANCH  22  23
ENDBRANCH   1  22
TORSDOF 20
ENDMDL
MODEL 2
REMARK VINA RESULT:     -10.5      2.480      3.675
REMARK SMILES CCOc1ccc2c(c1)=N[C@H](SCC(=O)NCCCCCCNC(=O)c1ccc(-c3c4nc(c(-c5cc(S(=O)(=O)[O-])ccc5F)c5ccc([nH]5)c(-c5cc(S(=O)(=O)[O-])ccc5F)c5nc(c(-c6cc(S(=O)(=O)[O-])ccc6F)c6ccc3[nH]6)C=C5)C=C4)cc1)N=2
REMARK SMILES IDX 19 1 18 2 17 3 16 4 14 5 15 6 13 8 12 9 11 10 4 11 5 12 9 13
REMARK SMILES IDX 6 14 8 15 7 16 10 17 89 18 3 19 2 20 1 21 20 22 21 23 22 24
REMARK SMILES IDX 23 25 24 26 25 28 26 29 27 30 88 31 28 32 87 33 29 34 30 35
REMARK SMILES IDX 31 36 81 37 32 38 86 39 80 40 82 41 33 42 85 43 79 44 78 45
REMARK SMILES IDX 34 47 66 48 46 49 65 50 47 51 50 52 64 53 83 54 48 55 49 56
REMARK SMILES IDX 63 58 84 59 51 60 35 61 36 62 44 63 37 64 43 65 45 66 42 67
REMARK SMILES IDX 38 68 39 69 40 70 41 71 67 72 68 73 76 74 69 75 75 76 77 77
REMARK SMILES IDX 74 78 70 79 71 80 72 81 73 82 52 83 53 84 61 85 54 86 60 87
REMARK SMILES IDX 62 88 59 89 55 90 56 91 57 92 58 93
REMARK H PARENT 16 7 23 27 82 46 50 57
REMARK Flexibility Score: inf
ROOT
ATOM      1  C   UNL A   1      32.653  29.487  26.844  1.00  0.00     0.002 C 
ENDROOT
BRANCH   1   2
ATOM      2  C   UNL A   1      31.883  28.328  27.488  1.00  0.00     0.021 C 
BRANCH   2   3
ATOM      3  C   UNL A   1      31.082  27.471  26.506  1.00  0.00     0.116 C 
BRANCH   3   4
ATOM      4  N   UNL A   1      31.140  26.062  26.853  1.00  0.00    -0.355 N 
ATOM      5  C   UNL A   1      31.766  25.033  26.210  1.00  0.00     0.230 C 
ATOM      6  O   UNL A   1      31.724  23.917  26.741  1.00  0.00    -0.274 OA
ATOM      7  H   UNL A   1      30.657  25.813  27.673  1.00  0.00     0.163 HD
BRANCH   5   8
ATOM      8  C   UNL A   1      32.613  25.274  24.968  1.00  0.00     0.173 C 
BRANCH   8   9
ATOM      9  S   UNL A   1      34.410  25.111  25.198  1.00  0.00    -0.102 SA
BRANCH   9  10
ATOM     10  C   UNL A   1      34.770  23.600  24.231  1.00  0.00     0.281 C 
ATOM     11  C   UNL A   1      32.616  19.656  24.084  1.00  0.00     0.121 A 
ATOM     12  C   UNL A   1      31.999  20.311  22.944  1.00  0.00     0.049 A 
ATOM     13  C   UNL A   1      33.536  20.249  24.857  1.00  0.00     0.076 A 
ATOM     14  C   UNL A   1      32.365  21.523  22.503  1.00  0.00     0.034 A 
ATOM     15  C   UNL A   1      33.954  21.599  24.479  1.00  0.00     0.090 A 
ATOM     16  C   UNL A   1      33.397  22.226  23.266  1.00  0.00     0.087 A 
ATOM     17  N   UNL A   1      34.790  22.372  25.075  1.00  0.00    -0.246 NA
ATOM     18  N   UNL A   1      33.912  23.381  23.043  1.00  0.00    -0.246 NA
BRANCH  11  19
ATOM     19  O   UNL A   1      32.090  18.431  24.427  1.00  0.00    -0.494 OA
BRANCH  19  20
ATOM     20  C   UNL A   1      33.074  17.486  24.859  1.00  0.00     0.226 C 
ATOM     21  C   UNL A   1      33.953  17.077  23.689  1.00  0.00     0.049 C 
ENDBRANCH  19  20
ENDBRANCH  11  19
ENDBRANCH   9  10
ENDBRANCH   8   9
ENDBRANCH   5   8
ENDBRANCH   3   4
ENDBRANCH   2   3
ENDBRANCH   1   2
BRANCH   1  22
ATOM     22  C   UNL A   1      31.809  30.482  26.042  1.00  0.00     0.002 C 
BRANCH  22  23
ATOM     23  C   UNL A   1      31.520  31.811  26.741  1.00  0.00     0.021 C 
BRANCH  23  24
ATOM     24  C   UNL A   1      32.746  32.529  27.294  1.00  0.00     0.116 C 
BRANCH  24  25
ATOM     25  N   UNL A   1      32.475  33.915  27.647  1.00  0.00    -0.352 N 
ATOM     26  C   UNL A   1      33.097  34.703  28.588  1.00  0.00     0.251 C 
ATOM     27  H   UNL A   1      31.748  34.348  27.143  1.00  0.00     0.163 HD
ATOM     28  O   UNL A   1      32.642  35.811  28.860  1.00  0.00    -0.269 OA
BRANCH  26  29
ATOM     29  C   UNL A   1      34.289  34.189  29.297  1.00  0.00     0.039 A 
ATOM     30  C   UNL A   1      35.573  34.482  28.830  1.00  0.00     0.014 A 
ATOM     31  C   UNL A   1      34.120  33.368  30.416  1.00  0.00     0.014 A 
ATOM     32  C   UNL A   1      36.670  33.820  29.373  1.00  0.00     0.010 A 
ATOM     33  C   UNL A   1      35.234  32.768  31.011  1.00  0.00     0.010 A 
ATOM     34  C   UNL A   1      36.514  32.948  30.464  1.00  0.00    -0.014 A 
BRANCH  34  35
ATOM     35  C   UNL A   1      37.702  32.238  31.008  1.00  0.00     0.031 A 
ATOM     36  C   UNL A   1      38.205  32.525  32.398  1.00  0.00     0.074 A 
ATOM     37  C   UNL A   1      38.299  31.289  30.260  1.00  0.00     0.049 A 
ATOM     38  N   UNL A   1      39.206  31.978  33.039  1.00  0.00    -0.248 NA
ATOM     39  C   UNL A   1      37.495  33.557  33.171  1.00  0.00     0.031 C 
ATOM     40  C   UNL A   1      37.898  30.927  28.901  1.00  0.00     0.029 A 
ATOM     41  N   UNL A   1      39.347  30.446  30.534  1.00  0.00    -0.354 N 
ATOM     42  C   UNL A   1      39.253  32.602  34.282  1.00  0.00     0.074 A 
ATOM     43  C   UNL A   1      38.203  33.596  34.293  1.00  0.00     0.031 C 
ATOM     44  C   UNL A   1      38.656  29.907  28.477  1.00  0.00     0.029 A 
ATOM     45  C   UNL A   1      39.645  29.584  29.504  1.00  0.00     0.049 A 
ATOM     46  H   UNL A   1      39.839  30.457  31.387  1.00  0.00     0.167 HD
ATOM     47  C   UNL A   1      40.086  32.354  35.321  1.00  0.00     0.034 A 
ATOM     48  C   UNL A   1      40.609  28.648  29.386  1.00  0.00     0.034 A 
ATOM     49  C   UNL A   1      41.118  31.349  35.303  1.00  0.00     0.049 A 
ATOM     50  C   UNL A   1      41.534  28.406  30.549  1.00  0.00     0.074 A 
ATOM     51  C   UNL A   1      42.004  31.017  36.314  1.00  0.00     0.029 A 
ATOM     52  N   UNL A   1      41.399  30.508  34.236  1.00  0.00    -0.354 N 
ATOM     53  N   UNL A   1      41.540  28.981  31.730  1.00  0.00    -0.248 NA
ATOM     54  C   UNL A   1      42.581  27.390  30.376  1.00  0.00     0.031 C 
ATOM     55  C   UNL A   1      42.851  30.014  35.843  1.00  0.00     0.029 A 
ATOM     56  C   UNL A   1      42.456  29.672  34.559  1.00  0.00     0.049 A 
ATOM     57  H   UNL A   1      40.919  30.505  33.377  1.00  0.00     0.167 HD
ATOM     58  C   UNL A   1      42.578  28.390  32.441  1.00  0.00     0.074 A 
ATOM     59  C   UNL A   1      43.158  27.386  31.571  1.00  0.00     0.031 C 
ATOM     60  C   UNL A   1      43.019  28.663  33.695  1.00  0.00     0.034 A 
BRANCH  47  61
ATOM     61  C   UNL A   1      39.922  33.153  36.590  1.00  0.00     0.023 A 
ATOM     62  C   UNL A   1      39.157  32.641  37.655  1.00  0.00     0.031 A 
ATOM     63  C   UNL A   1      40.394  34.474  36.684  1.00  0.00     0.131 A 
ATOM     64  C   UNL A   1      38.852  33.460  38.749  1.00  0.00     0.055 A 
ATOM     65  C   UNL A   1      40.119  35.273  37.795  1.00  0.00     0.041 A 
ATOM     66  F   UNL A   1      41.130  35.008  35.695  1.00  0.00    -0.206 F 
ATOM     67  C   UNL A   1      39.332  34.772  38.827  1.00  0.00     0.022 A 
BRANCH  64  68
ATOM     68  S   UNL A   1      37.769  32.880  40.084  1.00  0.00     0.124 S 
ATOM     69  O   UNL A   1      37.664  34.070  40.925  1.00  0.00    -0.237 OA
ATOM     70  O   UNL A   1      36.555  32.521  39.358  1.00  0.00    -0.237 OA
ATOM     71  O   UNL A   1      38.506  31.768  40.675  1.00  0.00    -0.744 OA
ENDBRANCH  64  68
ENDBRANCH  47  61
BRANCH  48  72
ATOM     72  C   UNL A   1      40.703  27.861  28.121  1.00  0.00     0.023 A 
ATOM     73  C   UNL A   1      40.148  26.570  28.035  1.00  0.00     0.031 A 
ATOM     74  C   UNL A   1      41.444  28.335  27.026  1.00  0.00     0.131 A 
ATOM     75  C   UNL A   1      40.407  25.772  26.914  1.00  0.00     0.055 A 
ATOM     76  C   UNL A   1      41.636  27.564  25.878  1.00  0.00     0.041 A 
ATOM     77  F   UNL A   1      42.003  29.554  27.064  1.00  0.00    -0.206 F 
ATOM     78  C   UNL A   1      41.133  26.267  25.827  1.00  0.00     0.022 A 
BRANCH  75  79
ATOM     79  S   UNL A   1      39.946  24.016  26.901  1.00  0.00     0.124 S 
ATOM     80  O   UNL A   1      41.047  23.420  26.151  1.00  0.00    -0.237 OA
ATOM     81  O   UNL A   1      39.912  23.703  28.328  1.00  0.00    -0.237 OA
ATOM     82  O   UNL A   1      38.647  24.007  26.237  1.00  0.00    -0.744 OA
ENDBRANCH  75  79
ENDBRANCH  48  72
BRANCH  60  83
ATOM     83  C   UNL A   1      44.192  27.882  34.234  1.00  0.00     0.023 A 
ATOM     84  C   UNL A   1      43.974  26.740  35.029  1.00  0.00     0.031 A 
ATOM     85  C   UNL A   1      45.507  28.356  34.095  1.00  0.00     0.131 A 
ATOM     86  C   UNL A   1      45.051  26.135  35.689  1.00  0.00     0.055 A 
ATOM     87  C   UNL A   1      46.584  27.723  34.719  1.00  0.00     0.041 A 
ATOM     88  F   UNL A   1      45.764  29.447  33.357  1.00  0.00    -0.206 F 
ATOM     89  C   UNL A   1      46.356  26.616  35.532  1.00  0.00     0.022 A 
BRANCH  86  90
ATOM     90  S   UNL A   1      44.791  24.760  36.844  1.00  0.00     0.124 S 
ATOM     91  O   UNL A   1      46.105  24.643  37.473  1.00  0.00    -0.237 OA
ATOM     92  O   UNL A   1      43.732  25.277  37.705  1.00  0.00    -0.237 OA
ATOM     93  O   UNL A   1      44.413  23.644  35.984  1.00  0.00    -0.744 OA
ENDBRANCH  86  90
ENDBRANCH  60  83
ENDBRANCH  34  35
ENDBRANCH  26  29
ENDBRANCH  24  25
ENDBRANCH  23  24
ENDBRANCH  22  23
ENDBRANCH   1  22
TORSDOF 20
ENDMDL
MODEL 3
REMARK VINA RESULT:     -10.5      6.004     11.092
REMARK SMILES CCOc1ccc2c(c1)=N[C@H](SCC(=O)NCCCCCCNC(=O)c1ccc(-c3c4nc(c(-c5cc(S(=O)(=O)[O-])ccc5F)c5ccc([nH]5)c(-c5cc(S(=O)(=O)[O-])ccc5F)c5nc(c(-c6cc(S(=O)(=O)[O-])ccc6F)c6ccc3[nH]6)C=C5)C=C4)cc1)N=2
REMARK SMILES IDX 19 1 18 2 17 3 16 4 14 5 15 6 13 8 12 9 11 10 4 11 5 12 9 13
REMARK SMILES IDX 6 14 8 15 7 16 10 17 89 18 3 19 2 20 1 21 20 22 21 23 22 24
REMARK SMILES IDX 23 25 24 26 25 28 26 29 27 30 88 31 28 32 87 33 29 34 30 35
REMARK SMILES IDX 31 36 81 37 32 38 86 39 80 40 82 41 33 42 85 43 79 44 78 45
REMARK SMILES IDX 34 47 66 48 46 49 65 50 47 51 50 52 64 53 83 54 48 55 49 56
REMARK SMILES IDX 63 58 84 59 51 60 35 61 36 62 44 63 37 64 43 65 45 66 42 67
REMARK SMILES IDX 38 68 39 69 40 70 41 71 67 72 68 73 76 74 69 75 75 76 77 77
REMARK SMILES IDX 74 78 70 79 71 80 72 81 73 82 52 83 53 84 61 85 54 86 60 87
REMARK SMILES IDX 62 88 59 89 55 90 56 91 57 92 58 93
REMARK H PARENT 16 7 23 27 82 46 50 57
REMARK Flexibility Score: inf
ROOT
ATOM      1  C   UNL A   1      37.125  22.694  25.192  1.00  0.00     0.002 C 
ENDROOT
BRANCH   1   2
ATOM      2  C   UNL A   1      36.423  24.017  24.859  1.00  0.00     0.021 C 
BRANCH   2   3
ATOM      3  C   UNL A   1      34.895  23.964  24.932  1.00  0.00     0.116 C 
BRANCH   3   4
ATOM      4  N   UNL A   1      34.281  24.735  23.867  1.00  0.00    -0.355 N 
ATOM      5  C   UNL A   1      33.285  25.667  23.930  1.00  0.00     0.230 C 
ATOM      6  O   UNL A   1      32.971  26.241  22.881  1.00  0.00    -0.274 OA
ATOM      7  H   UNL A   1      34.635  24.560  22.965  1.00  0.00     0.163 HD
BRANCH   5   8
ATOM      8  C   UNL A   1      32.688  26.097  25.263  1.00  0.00     0.173 C 
BRANCH   8   9
ATOM      9  S   UNL A   1      30.875  26.007  25.378  1.00  0.00    -0.102 SA
BRANCH   9  10
ATOM     10  C   UNL A   1      30.632  24.338  26.088  1.00  0.00     0.281 C 
ATOM     11  C   UNL A   1      33.184  20.648  25.787  1.00  0.00     0.121 A 
ATOM     12  C   UNL A   1      33.674  21.179  27.048  1.00  0.00     0.049 A 
ATOM     13  C   UNL A   1      32.243  21.259  25.054  1.00  0.00     0.076 A 
ATOM     14  C   UNL A   1      33.162  22.268  27.638  1.00  0.00     0.034 A 
ATOM     15  C   UNL A   1      31.667  22.488  25.600  1.00  0.00     0.090 A 
ATOM     16  C   UNL A   1      32.097  22.974  26.924  1.00  0.00     0.087 A 
ATOM     17  N   UNL A   1      30.783  23.257  25.073  1.00  0.00    -0.246 NA
ATOM     18  N   UNL A   1      31.452  24.025  27.282  1.00  0.00    -0.246 NA
BRANCH  11  19
ATOM     19  O   UNL A   1      33.853  19.548  25.302  1.00  0.00    -0.494 OA
BRANCH  19  20
ATOM     20  C   UNL A   1      33.017  18.651  24.561  1.00  0.00     0.226 C 
ATOM     21  C   UNL A   1      32.797  17.372  25.350  1.00  0.00     0.049 C 
ENDBRANCH  19  20
ENDBRANCH  11  19
ENDBRANCH   9  10
ENDBRANCH   8   9
ENDBRANCH   5   8
ENDBRANCH   3   4
ENDBRANCH   2   3
ENDBRANCH   1   2
BRANCH   1  22
ATOM     22  C   UNL A   1      36.735  21.497  24.321  1.00  0.00     0.002 C 
BRANCH  22  23
ATOM     23  C   UNL A   1      37.461  20.189  24.639  1.00  0.00     0.021 C 
BRANCH  23  24
ATOM     24  C   UNL A   1      38.228  20.181  25.956  1.00  0.00     0.116 C 
BRANCH  24  25
ATOM     25  N   UNL A   1      39.451  19.393  25.891  1.00  0.00    -0.352 N 
ATOM     26  C   UNL A   1      40.750  19.797  26.098  1.00  0.00     0.251 C 
ATOM     27  H   UNL A   1      39.331  18.441  25.668  1.00  0.00     0.163 HD
ATOM     28  O   UNL A   1      41.678  19.029  25.857  1.00  0.00    -0.269 OA
BRANCH  26  29
ATOM     29  C   UNL A   1      41.019  21.172  26.574  1.00  0.00     0.039 A 
ATOM     30  C   UNL A   1      40.620  22.275  25.816  1.00  0.00     0.014 A 
ATOM     31  C   UNL A   1      41.717  21.358  27.770  1.00  0.00     0.014 A 
ATOM     32  C   UNL A   1      41.066  23.547  26.163  1.00  0.00     0.010 A 
ATOM     33  C   UNL A   1      42.093  22.647  28.161  1.00  0.00     0.010 A 
ATOM     34  C   UNL A   1      41.816  23.748  27.335  1.00  0.00    -0.014 A 
BRANCH  34  35
ATOM     35  C   UNL A   1      42.297  25.115  27.669  1.00  0.00     0.031 A 
ATOM     36  C   UNL A   1      43.670  25.574  27.259  1.00  0.00     0.074 A 
ATOM     37  C   UNL A   1      41.465  25.966  28.302  1.00  0.00     0.049 A 
ATOM     38  N   UNL A   1      44.237  26.740  27.442  1.00  0.00    -0.248 NA
ATOM     39  C   UNL A   1      44.522  24.604  26.551  1.00  0.00     0.031 C 
ATOM     40  C   UNL A   1      40.112  25.630  28.746  1.00  0.00     0.029 A 
ATOM     41  N   UNL A   1      41.618  27.281  28.663  1.00  0.00    -0.354 N 
ATOM     42  C   UNL A   1      45.507  26.642  26.884  1.00  0.00     0.074 A 
ATOM     43  C   UNL A   1      45.645  25.291  26.387  1.00  0.00     0.031 C 
ATOM     44  C   UNL A   1      39.542  26.721  29.277  1.00  0.00     0.029 A 
ATOM     45  C   UNL A   1      40.508  27.817  29.275  1.00  0.00     0.049 A 
ATOM     46  H   UNL A   1      42.442  27.793  28.499  1.00  0.00     0.167 HD
ATOM     47  C   UNL A   1      46.462  27.598  26.781  1.00  0.00     0.034 A 
ATOM     48  C   UNL A   1      40.290  29.044  29.792  1.00  0.00     0.034 A 
ATOM     49  C   UNL A   1      46.305  28.946  27.266  1.00  0.00     0.049 A 
ATOM     50  C   UNL A   1      41.375  30.083  29.682  1.00  0.00     0.074 A 
ATOM     51  C   UNL A   1      47.213  29.988  27.196  1.00  0.00     0.029 A 
ATOM     52  N   UNL A   1      45.174  29.446  27.895  1.00  0.00    -0.354 N 
ATOM     53  N   UNL A   1      42.557  29.982  29.118  1.00  0.00    -0.248 NA
ATOM     54  C   UNL A   1      41.106  31.402  30.270  1.00  0.00     0.031 C 
ATOM     55  C   UNL A   1      46.654  31.100  27.826  1.00  0.00     0.029 A 
ATOM     56  C   UNL A   1      45.370  30.775  28.234  1.00  0.00     0.049 A 
ATOM     57  H   UNL A   1      44.353  28.932  28.074  1.00  0.00     0.167 HD
ATOM     58  C   UNL A   1      43.164  31.224  29.273  1.00  0.00     0.074 A 
ATOM     59  C   UNL A   1      42.207  32.072  29.953  1.00  0.00     0.031 C 
ATOM     60  C   UNL A   1      44.406  31.619  28.897  1.00  0.00     0.034 A 
BRANCH  47  61
ATOM     61  C   UNL A   1      47.763  27.255  26.102  1.00  0.00     0.023 A 
ATOM     62  C   UNL A   1      47.938  27.520  24.730  1.00  0.00     0.031 A 
ATOM     63  C   UNL A   1      48.767  26.534  26.773  1.00  0.00     0.131 A 
ATOM     64  C   UNL A   1      49.068  27.030  24.065  1.00  0.00     0.055 A 
ATOM     65  C   UNL A   1      49.911  26.082  26.113  1.00  0.00     0.041 A 
ATOM     66  F   UNL A   1      48.648  26.257  28.082  1.00  0.00    -0.206 F 
ATOM     67  C   UNL A   1      50.058  26.318  24.749  1.00  0.00     0.022 A 
BRANCH  64  68
ATOM     68  S   UNL A   1      49.272  27.245  22.275  1.00  0.00     0.124 S 
ATOM     69  O   UNL A   1      50.724  27.352  22.148  1.00  0.00    -0.237 OA
ATOM     70  O   UNL A   1      48.689  26.012  21.753  1.00  0.00    -0.237 OA
ATOM     71  O   UNL A   1      48.532  28.468  21.982  1.00  0.00    -0.744 OA
ENDBRANCH  64  68
ENDBRANCH  47  61
BRANCH  48  72
ATOM     72  C   UNL A   1      38.970  29.341  30.421  1.00  0.00     0.023 A 
ATOM     73  C   UNL A   1      38.026  30.153  29.763  1.00  0.00     0.031 A 
ATOM     74  C   UNL A   1      38.678  28.917  31.728  1.00  0.00     0.131 A 
ATOM     75  C   UNL A   1      36.877  30.578  30.442  1.00  0.00     0.055 A 
ATOM     76  C   UNL A   1      37.494  29.281  32.373  1.00  0.00     0.041 A 
ATOM     77  F   UNL A   1      39.551  28.152  32.401  1.00  0.00    -0.206 F 
ATOM     78  C   UNL A   1      36.596  30.133  31.736  1.00  0.00     0.022 A 
BRANCH  75  79
ATOM     79  S   UNL A   1      35.793  31.845  29.723  1.00  0.00     0.124 S 
ATOM     80  O   UNL A   1      36.707  32.973  29.571  1.00  0.00    -0.237 OA
ATOM     81  O   UNL A   1      35.366  31.206  28.480  1.00  0.00    -0.237 OA
ATOM     82  O   UNL A   1      34.745  32.007  30.725  1.00  0.00    -0.744 OA
ENDBRANCH  75  79
ENDBRANCH  48  72
BRANCH  60  83
ATOM     83  C   UNL A   1      44.837  33.033  29.203  1.00  0.00     0.023 A 
ATOM     84  C   UNL A   1      44.821  34.011  28.190  1.00  0.00     0.031 A 
ATOM     85  C   UNL A   1      45.408  33.367  30.442  1.00  0.00     0.131 A 
ATOM     86  C   UNL A   1      45.404  35.263  28.422  1.00  0.00     0.055 A 
ATOM     87  C   UNL A   1      45.948  34.631  30.684  1.00  0.00     0.041 A 
ATOM     88  F   UNL A   1      45.457  32.465  31.436  1.00  0.00    -0.206 F 
ATOM     89  C   UNL A   1      45.961  35.581  29.666  1.00  0.00     0.022 A 
BRANCH  86  90
ATOM     90  S   UNL A   1      45.543  36.493  27.095  1.00  0.00     0.124 S 
ATOM     91  O   UNL A   1      45.885  35.658  25.946  1.00  0.00    -0.237 OA
ATOM     92  O   UNL A   1      44.202  37.070  27.069  1.00  0.00    -0.237 OA
ATOM     93  O   UNL A   1      46.602  37.386  27.552  1.00  0.00    -0.744 OA
ENDBRANCH  86  90
ENDBRANCH  60  83
ENDBRANCH  34  35
ENDBRANCH  26  29
ENDBRANCH  24  25
ENDBRANCH  23  24
ENDBRANCH  22  23
ENDBRANCH   1  22
TORSDOF 20
ENDMDL
