MODEL 1
REMARK VINA RESULT:     -11.3      0.000      0.000
REMARK SMILES [NH3+][C@H]([C@@H](C(=O)NCCCCCCNC(=O)c1ccc(-c2c3nc(c(-c4cc(S(=O)(=O)[O-])ccc4F)c4ccc([nH]4)c(-c4cc(S(=O)(=O)[O-])ccc4F)c4nc(c(-c5cc(S(=O)(=O)[O-])ccc5F)c5ccc2[nH]5)C=C4)C=C3)cc1)C(=O)OCC1c2ccccc2-c2ccccc21)C(F)(F)F
REMARK SMILES IDX 9 1 8 2 7 3 6 4 4 5 5 6 3 8 2 9 1 10 96 14 97 15 98 16 99 17
REMARK SMILES IDX 79 18 80 19 81 20 82 21 83 22 84 23 95 24 85 25 89 26 90 27
REMARK SMILES IDX 94 28 86 29 88 30 91 31 93 32 87 33 92 34 10 35 11 36 12 37
REMARK SMILES IDX 13 38 14 39 15 41 16 42 17 43 78 44 18 45 77 46 19 47 20 48
REMARK SMILES IDX 21 49 71 50 22 51 76 52 70 53 72 54 23 55 75 56 69 57 68 58
REMARK SMILES IDX 24 60 56 61 36 62 55 63 37 64 40 65 54 66 73 67 38 68 39 69
REMARK SMILES IDX 53 71 74 72 41 73 25 74 26 75 34 76 27 77 33 78 35 79 32 80
REMARK SMILES IDX 28 81 29 82 30 83 31 84 57 85 58 86 66 87 59 88 65 89 67 90
REMARK SMILES IDX 64 91 60 92 61 93 62 94 63 95 42 96 43 97 51 98 44 99 50 100
REMARK SMILES IDX 52 101 49 102 45 103 46 104 47 105 48 106
REMARK H PARENT 6 7 1 11 1 12 1 13 13 40 72 59 40 70
REMARK Flexibility Score: inf
ROOT
ATOM      1  C   UNL A   1      37.073  22.089  25.356  1.00  0.00     0.002 C 
ENDROOT
BRANCH   1   2
ATOM      2  C   UNL A   1      36.724  22.512  23.929  1.00  0.00     0.021 C 
BRANCH   2   3
ATOM      3  C   UNL A   1      35.619  23.568  23.826  1.00  0.00     0.116 C 
BRANCH   3   4
ATOM      4  N   UNL A   1      34.452  23.021  23.146  1.00  0.00    -0.355 N 
ATOM      5  C   UNL A   1      33.235  22.615  23.608  1.00  0.00     0.240 C 
ATOM      6  O   UNL A   1      32.494  22.027  22.816  1.00  0.00    -0.274 OA
ATOM      7  H   UNL A   1      34.563  22.927  22.172  1.00  0.00     0.163 HD
BRANCH   5   8
ATOM      8  C   UNL A   1      32.773  22.899  25.027  1.00  0.00     0.255 C 
BRANCH   8   9
ATOM      9  C   UNL A   1      33.069  21.758  26.043  1.00  0.00     0.311 C 
BRANCH   9  10
ATOM     10  N   UNL A   1      33.779  20.561  25.486  1.00  0.00    -0.346 N 
ATOM     11  H   UNL A   1      34.045  20.743  24.519  1.00  0.00     0.345 HD
ATOM     12  H   UNL A   1      33.158  19.752  25.522  1.00  0.00     0.345 HD
ATOM     13  H   UNL A   1      34.614  20.374  26.041  1.00  0.00     0.345 HD
ENDBRANCH   9  10
BRANCH   9  14
ATOM     14  C   UNL A   1      33.803  22.280  27.293  1.00  0.00     0.442 C 
ATOM     15  F   UNL A   1      34.639  21.351  27.802  1.00  0.00    -0.165 F 
ATOM     16  F   UNL A   1      34.545  23.373  27.012  1.00  0.00    -0.165 F 
ATOM     17  F   UNL A   1      32.913  22.631  28.246  1.00  0.00    -0.165 F 
ENDBRANCH   9  14
ENDBRANCH   8   9
BRANCH   8  18
ATOM     18  C   UNL A   1      31.298  23.285  24.987  1.00  0.00     0.325 C 
ATOM     19  O   UNL A   1      30.426  22.708  25.628  1.00  0.00    -0.251 OA
BRANCH  18  20
ATOM     20  O   UNL A   1      31.075  24.385  24.220  1.00  0.00    -0.464 OA
BRANCH  20  21
ATOM     21  C   UNL A   1      30.377  25.479  24.837  1.00  0.00     0.246 C 
BRANCH  21  22
ATOM     22  C   UNL A   1      30.855  26.803  24.233  1.00  0.00     0.088 C 
ATOM     23  C   UNL A   1      31.827  27.578  25.116  1.00  0.00    -0.029 A 
ATOM     24  C   UNL A   1      29.850  27.897  23.865  1.00  0.00    -0.029 A 
ATOM     25  C   UNL A   1      32.795  27.099  25.984  1.00  0.00     0.005 A 
ATOM     26  C   UNL A   1      31.594  28.964  24.977  1.00  0.00    -0.014 A 
ATOM     27  C   UNL A   1      30.422  29.161  24.149  1.00  0.00    -0.014 A 
ATOM     28  C   UNL A   1      28.612  27.815  23.249  1.00  0.00     0.005 A 
ATOM     29  C   UNL A   1      33.530  28.025  26.728  1.00  0.00     0.000 A 
ATOM     30  C   UNL A   1      32.342  29.883  25.693  1.00  0.00     0.009 A 
ATOM     31  C   UNL A   1      29.834  30.331  23.695  1.00  0.00     0.009 A 
ATOM     32  C   UNL A   1      27.993  29.000  22.833  1.00  0.00     0.000 A 
ATOM     33  C   UNL A   1      33.313  29.404  26.578  1.00  0.00     0.001 A 
ATOM     34  C   UNL A   1      28.618  30.242  23.017  1.00  0.00     0.001 A 
ENDBRANCH  21  22
ENDBRANCH  20  21
ENDBRANCH  18  20
ENDBRANCH   8  18
ENDBRANCH   5   8
ENDBRANCH   3   4
ENDBRANCH   2   3
ENDBRANCH   1   2
BRANCH   1  35
ATOM     35  C   UNL A   1      38.569  21.914  25.618  1.00  0.00     0.002 C 
BRANCH  35  36
ATOM     36  C   UNL A   1      39.123  20.515  25.329  1.00  0.00     0.021 C 
BRANCH  36  37
ATOM     37  C   UNL A   1      39.814  19.836  26.510  1.00  0.00     0.116 C 
BRANCH  37  38
ATOM     38  N   UNL A   1      41.023  19.143  26.101  1.00  0.00    -0.352 N 
ATOM     39  C   UNL A   1      42.257  19.664  25.796  1.00  0.00     0.251 C 
ATOM     40  H   UNL A   1      40.947  18.164  26.032  1.00  0.00     0.163 HD
ATOM     41  O   UNL A   1      43.088  18.970  25.219  1.00  0.00    -0.269 OA
BRANCH  39  42
ATOM     42  C   UNL A   1      42.567  21.066  26.149  1.00  0.00     0.039 A 
ATOM     43  C   UNL A   1      42.740  21.407  27.492  1.00  0.00     0.014 A 
ATOM     44  C   UNL A   1      42.685  22.043  25.155  1.00  0.00     0.014 A 
ATOM     45  C   UNL A   1      43.093  22.714  27.833  1.00  0.00     0.010 A 
ATOM     46  C   UNL A   1      43.106  23.328  25.491  1.00  0.00     0.010 A 
ATOM     47  C   UNL A   1      43.316  23.677  26.834  1.00  0.00    -0.014 A 
BRANCH  47  48
ATOM     48  C   UNL A   1      43.784  25.047  27.181  1.00  0.00     0.031 A 
ATOM     49  C   UNL A   1      42.822  26.058  27.743  1.00  0.00     0.074 A 
ATOM     50  C   UNL A   1      45.065  25.391  26.937  1.00  0.00     0.049 A 
ATOM     51  N   UNL A   1      43.031  27.312  28.053  1.00  0.00    -0.248 NA
ATOM     52  C   UNL A   1      41.439  25.609  27.961  1.00  0.00     0.031 C 
ATOM     53  C   UNL A   1      46.079  24.506  26.356  1.00  0.00     0.029 A 
ATOM     54  N   UNL A   1      45.735  26.573  27.136  1.00  0.00    -0.354 N 
ATOM     55  C   UNL A   1      41.806  27.804  28.493  1.00  0.00     0.074 A 
ATOM     56  C   UNL A   1      40.850  26.727  28.356  1.00  0.00     0.031 C 
ATOM     57  C   UNL A   1      47.243  25.169  26.269  1.00  0.00     0.029 A 
ATOM     58  C   UNL A   1      47.051  26.538  26.735  1.00  0.00     0.049 A 
ATOM     59  H   UNL A   1      45.312  27.370  27.529  1.00  0.00     0.167 HD
ATOM     60  C   UNL A   1      41.514  29.035  28.981  1.00  0.00     0.034 A 
ATOM     61  C   UNL A   1      47.993  27.503  26.726  1.00  0.00     0.034 A 
ATOM     62  C   UNL A   1      42.485  30.095  29.119  1.00  0.00     0.049 A 
ATOM     63  C   UNL A   1      47.632  28.873  27.248  1.00  0.00     0.074 A 
ATOM     64  C   UNL A   1      42.309  31.356  29.663  1.00  0.00     0.029 A 
ATOM     65  N   UNL A   1      43.807  30.027  28.697  1.00  0.00    -0.354 N 
ATOM     66  N   UNL A   1      46.485  29.301  27.720  1.00  0.00    -0.248 NA
ATOM     67  C   UNL A   1      48.697  29.885  27.244  1.00  0.00     0.031 C 
ATOM     68  C   UNL A   1      43.497  32.076  29.494  1.00  0.00     0.029 A 
ATOM     69  C   UNL A   1      44.443  31.237  28.929  1.00  0.00     0.049 A 
ATOM     70  H   UNL A   1      44.230  29.235  28.292  1.00  0.00     0.167 HD
ATOM     71  C   UNL A   1      46.700  30.624  28.098  1.00  0.00     0.074 A 
ATOM     72  C   UNL A   1      48.091  30.914  27.818  1.00  0.00     0.031 C 
ATOM     73  C   UNL A   1      45.829  31.518  28.631  1.00  0.00     0.034 A 
BRANCH  60  74
ATOM     74  C   UNL A   1      40.081  29.314  29.374  1.00  0.00     0.023 A 
ATOM     75  C   UNL A   1      39.678  29.371  30.719  1.00  0.00     0.031 A 
ATOM     76  C   UNL A   1      39.104  29.528  28.386  1.00  0.00     0.131 A 
ATOM     77  C   UNL A   1      38.326  29.573  31.037  1.00  0.00     0.055 A 
ATOM     78  C   UNL A   1      37.775  29.807  28.710  1.00  0.00     0.041 A 
ATOM     79  F   UNL A   1      39.423  29.464  27.083  1.00  0.00    -0.206 F 
ATOM     80  C   UNL A   1      37.376  29.819  30.044  1.00  0.00     0.022 A 
BRANCH  77  81
ATOM     81  S   UNL A   1      37.802  29.380  32.763  1.00  0.00     0.124 S 
ATOM     82  O   UNL A   1      38.928  29.975  33.481  1.00  0.00    -0.237 OA
ATOM     83  O   UNL A   1      36.553  30.131  32.800  1.00  0.00    -0.237 OA
ATOM     84  O   UNL A   1      37.667  27.934  32.921  1.00  0.00    -0.744 OA
ENDBRANCH  77  81
ENDBRANCH  60  74
BRANCH  61  85
ATOM     85  C   UNL A   1      49.356  27.229  26.183  1.00  0.00     0.023 A 
ATOM     86  C   UNL A   1      49.739  27.689  24.914  1.00  0.00     0.031 A 
ATOM     87  C   UNL A   1      50.279  26.452  26.906  1.00  0.00     0.131 A 
ATOM     88  C   UNL A   1      50.986  27.323  24.383  1.00  0.00     0.055 A 
ATOM     89  C   UNL A   1      51.543  26.145  26.401  1.00  0.00     0.041 A 
ATOM     90  F   UNL A   1      49.968  25.986  28.126  1.00  0.00    -0.206 F 
ATOM     91  C   UNL A   1      51.897  26.567  25.123  1.00  0.00     0.022 A 
BRANCH  88  92
ATOM     92  S   UNL A   1      51.359  27.759  22.661  1.00  0.00     0.124 S 
ATOM     93  O   UNL A   1      50.767  26.641  21.937  1.00  0.00    -0.237 OA
ATOM     94  O   UNL A   1      50.684  29.045  22.523  1.00  0.00    -0.237 OA
ATOM     95  O   UNL A   1      52.819  27.819  22.635  1.00  0.00    -0.744 OA
ENDBRANCH  88  92
ENDBRANCH  61  85
BRANCH  73  96
ATOM     96  C   UNL A   1      46.373  32.883  28.981  1.00  0.00     0.023 A 
ATOM     97  C   UNL A   1      46.270  33.972  28.098  1.00  0.00     0.031 A 
ATOM     98  C   UNL A   1      47.014  33.094  30.215  1.00  0.00     0.131 A 
ATOM     99  C   UNL A   1      46.853  35.203  28.434  1.00  0.00     0.055 A 
ATOM    100  C   UNL A   1      47.531  34.339  30.574  1.00  0.00     0.041 A 
ATOM    101  F   UNL A   1      47.147  32.090  31.097  1.00  0.00    -0.206 F 
ATOM    102  C   UNL A   1      47.466  35.399  29.675  1.00  0.00     0.022 A 
BRANCH  99 103
ATOM    103  S   UNL A   1      46.893  36.518  27.185  1.00  0.00     0.124 S 
ATOM    104  O   UNL A   1      47.195  37.695  27.993  1.00  0.00    -0.237 OA
ATOM    105  O   UNL A   1      47.955  36.068  26.291  1.00  0.00    -0.237 OA
ATOM    106  O   UNL A   1      45.548  36.488  26.612  1.00  0.00    -0.744 OA
ENDBRANCH  99 103
ENDBRANCH  73  96
ENDBRANCH  47  48
ENDBRANCH  39  42
ENDBRANCH  37  38
ENDBRANCH  36  37
ENDBRANCH  35  36
ENDBRANCH   1  35
TORSDOF 23
ENDMDL
MODEL 2
REMARK VINA RESULT:     -11.3      1.019      7.432
REMARK SMILES [NH3+][C@H]([C@@H](C(=O)NCCCCCCNC(=O)c1ccc(-c2c3nc(c(-c4cc(S(=O)(=O)[O-])ccc4F)c4ccc([nH]4)c(-c4cc(S(=O)(=O)[O-])ccc4F)c4nc(c(-c5cc(S(=O)(=O)[O-])ccc5F)c5ccc2[nH]5)C=C4)C=C3)cc1)C(=O)OCC1c2ccccc2-c2ccccc21)C(F)(F)F
REMARK SMILES IDX 9 1 8 2 7 3 6 4 4 5 5 6 3 8 2 9 1 10 96 14 97 15 98 16 99 17
REMARK SMILES IDX 79 18 80 19 81 20 82 21 83 22 84 23 95 24 85 25 89 26 90 27
REMARK SMILES IDX 94 28 86 29 88 30 91 31 93 32 87 33 92 34 10 35 11 36 12 37
REMARK SMILES IDX 13 38 14 39 15 41 16 42 17 43 78 44 18 45 77 46 19 47 20 48
REMARK SMILES IDX 21 49 71 50 22 51 76 52 70 53 72 54 23 55 75 56 69 57 68 58
REMARK SMILES IDX 24 60 56 61 36 62 55 63 37 64 40 65 54 66 73 67 38 68 39 69
REMARK SMILES IDX 53 71 74 72 41 73 25 74 26 75 34 76 27 77 33 78 35 79 32 80
REMARK SMILES IDX 28 81 29 82 30 83 31 84 57 85 58 86 66 87 59 88 65 89 67 90
REMARK SMILES IDX 64 91 60 92 61 93 62 94 63 95 42 96 43 97 51 98 44 99 50 100
REMARK SMILES IDX 52 101 49 102 45 103 46 104 47 105 48 106
REMARK H PARENT 6 7 1 11 1 12 1 13 13 40 72 59 40 70
REMARK Flexibility Score: inf
ROOT
ATOM      1  C   UNL A   1      37.106  21.581  24.497  1.00  0.00     0.002 C 
ENDROOT
BRANCH   1   2
ATOM      2  C   UNL A   1      36.955  22.635  25.595  1.00  0.00     0.021 C 
BRANCH   2   3
ATOM      3  C   UNL A   1      35.739  23.553  25.439  1.00  0.00     0.116 C 
BRANCH   3   4
ATOM      4  N   UNL A   1      35.209  23.472  24.083  1.00  0.00    -0.355 N 
ATOM      5  C   UNL A   1      34.035  22.984  23.593  1.00  0.00     0.240 C 
ATOM      6  O   UNL A   1      33.927  22.889  22.367  1.00  0.00    -0.274 OA
ATOM      7  H   UNL A   1      35.810  23.838  23.395  1.00  0.00     0.163 HD
BRANCH   5   8
ATOM      8  C   UNL A   1      32.876  22.602  24.498  1.00  0.00     0.255 C 
BRANCH   8   9
ATOM      9  C   UNL A   1      32.314  21.170  24.257  1.00  0.00     0.311 C 
BRANCH   9  10
ATOM     10  N   UNL A   1      32.129  20.777  22.824  1.00  0.00    -0.346 N 
ATOM     11  H   UNL A   1      31.593  21.497  22.340  1.00  0.00     0.345 HD
ATOM     12  H   UNL A   1      31.628  19.890  22.777  1.00  0.00     0.345 HD
ATOM     13  H   UNL A   1      33.042  20.676  22.379  1.00  0.00     0.345 HD
ENDBRANCH   9  10
BRANCH   9  14
ATOM     14  C   UNL A   1      33.135  20.100  25.003  1.00  0.00     0.442 C 
ATOM     15  F   UNL A   1      34.165  19.654  24.254  1.00  0.00    -0.165 F 
ATOM     16  F   UNL A   1      33.657  20.587  26.150  1.00  0.00    -0.165 F 
ATOM     17  F   UNL A   1      32.351  19.051  25.331  1.00  0.00    -0.165 F 
ENDBRANCH   9  14
ENDBRANCH   8   9
BRANCH   8  18
ATOM     18  C   UNL A   1      31.804  23.682  24.392  1.00  0.00     0.325 C 
ATOM     19  O   UNL A   1      30.668  23.474  23.979  1.00  0.00    -0.251 OA
BRANCH  18  20
ATOM     20  O   UNL A   1      32.229  24.877  24.879  1.00  0.00    -0.464 OA
BRANCH  20  21
ATOM     21  C   UNL A   1      31.217  25.816  25.279  1.00  0.00     0.246 C 
BRANCH  21  22
ATOM     22  C   UNL A   1      31.504  27.183  24.651  1.00  0.00     0.088 C 
ATOM     23  C   UNL A   1      32.230  28.156  25.574  1.00  0.00    -0.029 A 
ATOM     24  C   UNL A   1      30.357  28.059  24.140  1.00  0.00    -0.029 A 
ATOM     25  C   UNL A   1      33.181  27.895  26.548  1.00  0.00     0.005 A 
ATOM     26  C   UNL A   1      31.764  29.468  25.343  1.00  0.00    -0.014 A 
ATOM     27  C   UNL A   1      30.662  29.416  24.406  1.00  0.00    -0.014 A 
ATOM     28  C   UNL A   1      29.220  27.727  23.422  1.00  0.00     0.005 A 
ATOM     29  C   UNL A   1      33.662  28.966  27.304  1.00  0.00     0.000 A 
ATOM     30  C   UNL A   1      32.262  30.535  26.073  1.00  0.00     0.009 A 
ATOM     31  C   UNL A   1      29.917  30.440  23.842  1.00  0.00     0.009 A 
ATOM     32  C   UNL A   1      28.440  28.762  22.892  1.00  0.00     0.000 A 
ATOM     33  C   UNL A   1      33.214  30.275  27.063  1.00  0.00     0.001 A 
ATOM     34  C   UNL A   1      28.808  30.104  23.064  1.00  0.00     0.001 A 
ENDBRANCH  21  22
ENDBRANCH  20  21
ENDBRANCH  18  20
ENDBRANCH   8  18
ENDBRANCH   5   8
ENDBRANCH   3   4
ENDBRANCH   2   3
ENDBRANCH   1   2
BRANCH   1  35
ATOM     35  C   UNL A   1      37.143  20.139  25.002  1.00  0.00     0.002 C 
BRANCH  35  36
ATOM     36  C   UNL A   1      38.525  19.478  24.987  1.00  0.00     0.021 C 
BRANCH  36  37
ATOM     37  C   UNL A   1      39.447  19.882  26.136  1.00  0.00     0.116 C 
BRANCH  37  38
ATOM     38  N   UNL A   1      40.685  19.122  26.126  1.00  0.00    -0.352 N 
ATOM     39  C   UNL A   1      41.980  19.579  26.111  1.00  0.00     0.251 C 
ATOM     40  H   UNL A   1      40.581  18.143  26.130  1.00  0.00     0.163 HD
ATOM     41  O   UNL A   1      42.897  18.810  25.840  1.00  0.00    -0.269 OA
BRANCH  39  42
ATOM     42  C   UNL A   1      42.256  21.002  26.403  1.00  0.00     0.039 A 
ATOM     43  C   UNL A   1      42.496  21.391  27.723  1.00  0.00     0.014 A 
ATOM     44  C   UNL A   1      42.279  21.950  25.375  1.00  0.00     0.014 A 
ATOM     45  C   UNL A   1      42.818  22.721  28.003  1.00  0.00     0.010 A 
ATOM     46  C   UNL A   1      42.670  23.260  25.647  1.00  0.00     0.010 A 
ATOM     47  C   UNL A   1      42.945  23.659  26.964  1.00  0.00    -0.014 A 
BRANCH  47  48
ATOM     48  C   UNL A   1      43.380  25.055  27.242  1.00  0.00     0.031 A 
ATOM     49  C   UNL A   1      44.818  25.455  27.044  1.00  0.00     0.074 A 
ATOM     50  C   UNL A   1      42.488  25.945  27.722  1.00  0.00     0.049 A 
ATOM     51  N   UNL A   1      45.395  26.604  27.284  1.00  0.00    -0.248 NA
ATOM     52  C   UNL A   1      45.730  24.420  26.536  1.00  0.00     0.031 C 
ATOM     53  C   UNL A   1      41.076  25.660  27.991  1.00  0.00     0.029 A 
ATOM     54  N   UNL A   1      42.632  27.263  28.077  1.00  0.00    -0.354 N 
ATOM     55  C   UNL A   1      46.738  26.429  26.966  1.00  0.00     0.074 A 
ATOM     56  C   UNL A   1      46.897  25.047  26.570  1.00  0.00     0.031 C 
ATOM     57  C   UNL A   1      40.482  26.775  28.446  1.00  0.00     0.029 A 
ATOM     58  C   UNL A   1      41.475  27.838  28.551  1.00  0.00     0.049 A 
ATOM     59  H   UNL A   1      43.483  27.751  27.999  1.00  0.00     0.167 HD
ATOM     60  C   UNL A   1      47.740  27.343  26.988  1.00  0.00     0.034 A 
ATOM     61  C   UNL A   1      41.243  29.076  29.036  1.00  0.00     0.034 A 
ATOM     62  C   UNL A   1      47.560  28.722  27.378  1.00  0.00     0.049 A 
ATOM     63  C   UNL A   1      42.382  30.064  29.076  1.00  0.00     0.074 A 
ATOM     64  C   UNL A   1      48.492  29.746  27.371  1.00  0.00     0.029 A 
ATOM     65  N   UNL A   1      46.377  29.268  27.859  1.00  0.00    -0.354 N 
ATOM     66  N   UNL A   1      43.632  29.900  28.709  1.00  0.00    -0.248 NA
ATOM     67  C   UNL A   1      42.077  31.408  29.584  1.00  0.00     0.031 C 
ATOM     68  C   UNL A   1      47.896  30.884  27.926  1.00  0.00     0.029 A 
ATOM     69  C   UNL A   1      46.568  30.600  28.193  1.00  0.00     0.049 A 
ATOM     70  H   UNL A   1      45.526  28.779  27.950  1.00  0.00     0.167 HD
ATOM     71  C   UNL A   1      44.253  31.129  28.915  1.00  0.00     0.074 A 
ATOM     72  C   UNL A   1      43.235  32.028  29.418  1.00  0.00     0.031 C 
ATOM     73  C   UNL A   1      45.547  31.483  28.707  1.00  0.00     0.034 A 
BRANCH  60  74
ATOM     74  C   UNL A   1      49.126  26.877  26.607  1.00  0.00     0.023 A 
ATOM     75  C   UNL A   1      49.744  27.282  25.411  1.00  0.00     0.031 A 
ATOM     76  C   UNL A   1      49.842  26.014  27.456  1.00  0.00     0.131 A 
ATOM     77  C   UNL A   1      51.008  26.776  25.069  1.00  0.00     0.055 A 
ATOM     78  C   UNL A   1      51.131  25.577  27.148  1.00  0.00     0.041 A 
ATOM     79  F   UNL A   1      49.296  25.574  28.601  1.00  0.00    -0.206 F 
ATOM     80  C   UNL A   1      51.717  25.948  25.941  1.00  0.00     0.022 A 
BRANCH  77  81
ATOM     81  S   UNL A   1      51.656  27.111  23.408  1.00  0.00     0.124 S 
ATOM     82  O   UNL A   1      50.507  26.774  22.570  1.00  0.00    -0.237 OA
ATOM     83  O   UNL A   1      52.000  28.526  23.483  1.00  0.00    -0.237 OA
ATOM     84  O   UNL A   1      52.791  26.198  23.293  1.00  0.00    -0.744 OA
ENDBRANCH  77  81
ENDBRANCH  60  74
BRANCH  61  85
ATOM     85  C   UNL A   1      39.891  29.449  29.548  1.00  0.00     0.023 A 
ATOM     86  C   UNL A   1      39.625  29.499  30.925  1.00  0.00     0.031 A 
ATOM     87  C   UNL A   1      38.829  29.708  28.664  1.00  0.00     0.131 A 
ATOM     88  C   UNL A   1      38.318  29.745  31.377  1.00  0.00     0.055 A 
ATOM     89  C   UNL A   1      37.546  30.015  29.118  1.00  0.00     0.041 A 
ATOM     90  F   UNL A   1      39.026  29.675  27.336  1.00  0.00    -0.206 F 
ATOM     91  C   UNL A   1      37.280  30.018  30.484  1.00  0.00     0.022 A 
BRANCH  88  92
ATOM     92  S   UNL A   1      37.970  29.594  33.151  1.00  0.00     0.124 S 
ATOM     93  O   UNL A   1      37.044  30.699  33.367  1.00  0.00    -0.237 OA
ATOM     94  O   UNL A   1      37.401  28.253  33.234  1.00  0.00    -0.237 OA
ATOM     95  O   UNL A   1      39.285  29.750  33.770  1.00  0.00    -0.744 OA
ENDBRANCH  88  92
ENDBRANCH  61  85
BRANCH  73  96
ATOM     96  C   UNL A   1      45.919  32.921  28.986  1.00  0.00     0.023 A 
ATOM     97  C   UNL A   1      45.769  33.927  28.016  1.00  0.00     0.031 A 
ATOM     98  C   UNL A   1      46.443  33.286  30.239  1.00  0.00     0.131 A 
ATOM     99  C   UNL A   1      46.195  35.235  28.293  1.00  0.00     0.055 A 
ATOM    100  C   UNL A   1      46.800  34.602  30.533  1.00  0.00     0.041 A 
ATOM    101  F   UNL A   1      46.614  32.366  31.203  1.00  0.00    -0.206 F 
ATOM    102  C   UNL A   1      46.691  35.583  29.552  1.00  0.00     0.022 A 
BRANCH  99 103
ATOM    103  S   UNL A   1      46.190  36.455  26.951  1.00  0.00     0.124 S 
ATOM    104  O   UNL A   1      47.350  36.046  26.165  1.00  0.00    -0.237 OA
ATOM    105  O   UNL A   1      44.888  36.232  26.330  1.00  0.00    -0.237 OA
ATOM    106  O   UNL A   1      46.332  37.733  27.648  1.00  0.00    -0.744 OA
ENDBRANCH  99 103
ENDBRANCH  73  96
ENDBRANCH  47  48
ENDBRANCH  39  42
ENDBRANCH  37  38
ENDBRANCH  36  37
ENDBRANCH  35  36
ENDBRANCH   1  35
TORSDOF 23
ENDMDL
MODEL 3
REMARK VINA RESULT:     -11.1      1.807      2.341
REMARK SMILES [NH3+][C@H]([C@@H](C(=O)NCCCCCCNC(=O)c1ccc(-c2c3nc(c(-c4cc(S(=O)(=O)[O-])ccc4F)c4ccc([nH]4)c(-c4cc(S(=O)(=O)[O-])ccc4F)c4nc(c(-c5cc(S(=O)(=O)[O-])ccc5F)c5ccc2[nH]5)C=C4)C=C3)cc1)C(=O)OCC1c2ccccc2-c2ccccc21)C(F)(F)F
REMARK SMILES IDX 9 1 8 2 7 3 6 4 4 5 5 6 3 8 2 9 1 10 96 14 97 15 98 16 99 17
REMARK SMILES IDX 79 18 80 19 81 20 82 21 83 22 84 23 95 24 85 25 89 26 90 27
REMARK SMILES IDX 94 28 86 29 88 30 91 31 93 32 87 33 92 34 10 35 11 36 12 37
REMARK SMILES IDX 13 38 14 39 15 41 16 42 17 43 78 44 18 45 77 46 19 47 20 48
REMARK SMILES IDX 21 49 71 50 22 51 76 52 70 53 72 54 23 55 75 56 69 57 68 58
REMARK SMILES IDX 24 60 56 61 36 62 55 63 37 64 40 65 54 66 73 67 38 68 39 69
REMARK SMILES IDX 53 71 74 72 41 73 25 74 26 75 34 76 27 77 33 78 35 79 32 80
REMARK SMILES IDX 28 81 29 82 30 83 31 84 57 85 58 86 66 87 59 88 65 89 67 90
REMARK SMILES IDX 64 91 60 92 61 93 62 94 63 95 42 96 43 97 51 98 44 99 50 100
REMARK SMILES IDX 52 101 49 102 45 103 46 104 47 105 48 106
REMARK H PARENT 6 7 1 11 1 12 1 13 13 40 72 59 40 70
REMARK Flexibility Score: inf
ROOT
ATOM      1  C   UNL A   1      35.818  20.681  24.918  1.00  0.00     0.002 C 
ENDROOT
BRANCH   1   2
ATOM      2  C   UNL A   1      34.909  21.897  24.724  1.00  0.00     0.021 C 
BRANCH   2   3
ATOM      3  C   UNL A   1      33.456  21.686  25.159  1.00  0.00     0.116 C 
BRANCH   3   4
ATOM      4  N   UNL A   1      32.543  22.038  24.079  1.00  0.00    -0.355 N 
ATOM      5  C   UNL A   1      31.975  23.222  23.716  1.00  0.00     0.240 C 
ATOM      6  O   UNL A   1      31.095  23.189  22.852  1.00  0.00    -0.274 OA
ATOM      7  H   UNL A   1      32.291  21.279  23.504  1.00  0.00     0.163 HD
BRANCH   5   8
ATOM      8  C   UNL A   1      32.417  24.548  24.312  1.00  0.00     0.255 C 
BRANCH   8   9
ATOM      9  C   UNL A   1      31.251  25.514  24.675  1.00  0.00     0.311 C 
BRANCH   9  10
ATOM     10  N   UNL A   1      29.900  25.122  24.160  1.00  0.00    -0.346 N 
ATOM     11  H   UNL A   1      29.300  24.862  24.942  1.00  0.00     0.345 HD
ATOM     12  H   UNL A   1      29.996  24.329  23.526  1.00  0.00     0.345 HD
ATOM     13  H   UNL A   1      29.487  25.909  23.660  1.00  0.00     0.345 HD
ENDBRANCH   9  10
BRANCH   9  14
ATOM     14  C   UNL A   1      31.186  25.790  26.189  1.00  0.00     0.442 C 
ATOM     15  F   UNL A   1      30.311  26.775  26.477  1.00  0.00    -0.165 F 
ATOM     16  F   UNL A   1      30.793  24.694  26.876  1.00  0.00    -0.165 F 
ATOM     17  F   UNL A   1      32.404  26.141  26.655  1.00  0.00    -0.165 F 
ENDBRANCH   9  14
ENDBRANCH   8   9
BRANCH   8  18
ATOM     18  C   UNL A   1      33.439  25.183  23.374  1.00  0.00     0.325 C 
ATOM     19  O   UNL A   1      33.698  24.748  22.257  1.00  0.00    -0.251 OA
BRANCH  18  20
ATOM     20  O   UNL A   1      33.970  26.323  23.888  1.00  0.00    -0.464 OA
BRANCH  20  21
ATOM     21  C   UNL A   1      34.179  27.414  22.977  1.00  0.00     0.246 C 
BRANCH  21  22
ATOM     22  C   UNL A   1      33.392  28.640  23.450  1.00  0.00     0.088 C 
ATOM     23  C   UNL A   1      33.451  28.879  24.955  1.00  0.00    -0.029 A 
ATOM     24  C   UNL A   1      31.887  28.744  23.192  1.00  0.00    -0.029 A 
ATOM     25  C   UNL A   1      34.489  28.637  25.841  1.00  0.00     0.005 A 
ATOM     26  C   UNL A   1      32.211  29.383  25.406  1.00  0.00    -0.014 A 
ATOM     27  C   UNL A   1      31.272  29.369  24.304  1.00  0.00    -0.014 A 
ATOM     28  C   UNL A   1      31.141  28.431  22.068  1.00  0.00     0.005 A 
ATOM     29  C   UNL A   1      34.274  28.895  27.196  1.00  0.00     0.000 A 
ATOM     30  C   UNL A   1      32.007  29.668  26.745  1.00  0.00     0.009 A 
ATOM     31  C   UNL A   1      29.958  29.807  24.243  1.00  0.00     0.009 A 
ATOM     32  C   UNL A   1      29.799  28.830  22.024  1.00  0.00     0.000 A 
ATOM     33  C   UNL A   1      33.049  29.415  27.644  1.00  0.00     0.001 A 
ATOM     34  C   UNL A   1      29.225  29.548  23.083  1.00  0.00     0.001 A 
ENDBRANCH  21  22
ENDBRANCH  20  21
ENDBRANCH  18  20
ENDBRANCH   8  18
ENDBRANCH   5   8
ENDBRANCH   3   4
ENDBRANCH   2   3
ENDBRANCH   1   2
BRANCH   1  35
ATOM     35  C   UNL A   1      37.310  20.973  24.760  1.00  0.00     0.002 C 
BRANCH  35  36
ATOM     36  C   UNL A   1      38.246  19.853  25.228  1.00  0.00     0.021 C 
BRANCH  36  37
ATOM     37  C   UNL A   1      39.500  20.323  25.962  1.00  0.00     0.116 C 
BRANCH  37  38
ATOM     38  N   UNL A   1      40.517  19.286  26.008  1.00  0.00    -0.352 N 
ATOM     39  C   UNL A   1      41.884  19.418  26.034  1.00  0.00     0.251 C 
ATOM     40  H   UNL A   1      40.180  18.362  26.023  1.00  0.00     0.163 HD
ATOM     41  O   UNL A   1      42.597  18.444  25.808  1.00  0.00    -0.269 OA
BRANCH  39  42
ATOM     42  C   UNL A   1      42.487  20.738  26.314  1.00  0.00     0.039 A 
ATOM     43  C   UNL A   1      42.755  21.603  25.251  1.00  0.00     0.014 A 
ATOM     44  C   UNL A   1      42.789  21.122  27.625  1.00  0.00     0.014 A 
ATOM     45  C   UNL A   1      43.268  22.876  25.508  1.00  0.00     0.010 A 
ATOM     46  C   UNL A   1      43.234  22.416  27.885  1.00  0.00     0.010 A 
ATOM     47  C   UNL A   1      43.477  23.308  26.829  1.00  0.00    -0.014 A 
BRANCH  47  48
ATOM     48  C   UNL A   1      43.933  24.695  27.118  1.00  0.00     0.031 A 
ATOM     49  C   UNL A   1      42.966  25.716  27.655  1.00  0.00     0.074 A 
ATOM     50  C   UNL A   1      45.207  25.045  26.846  1.00  0.00     0.049 A 
ATOM     51  N   UNL A   1      43.163  26.983  27.915  1.00  0.00    -0.248 NA
ATOM     52  C   UNL A   1      41.591  25.259  27.907  1.00  0.00     0.031 C 
ATOM     53  C   UNL A   1      46.224  24.151  26.286  1.00  0.00     0.029 A 
ATOM     54  N   UNL A   1      45.864  26.241  26.993  1.00  0.00    -0.354 N 
ATOM     55  C   UNL A   1      41.938  27.477  28.351  1.00  0.00     0.074 A 
ATOM     56  C   UNL A   1      40.993  26.385  28.266  1.00  0.00     0.031 C 
ATOM     57  C   UNL A   1      47.379  24.823  26.160  1.00  0.00     0.029 A 
ATOM     58  C   UNL A   1      47.176  26.206  26.577  1.00  0.00     0.049 A 
ATOM     59  H   UNL A   1      45.437  27.048  27.361  1.00  0.00     0.167 HD
ATOM     60  C   UNL A   1      41.637  28.722  28.797  1.00  0.00     0.034 A 
ATOM     61  C   UNL A   1      48.106  27.181  26.520  1.00  0.00     0.034 A 
ATOM     62  C   UNL A   1      42.596  29.798  28.883  1.00  0.00     0.049 A 
ATOM     63  C   UNL A   1      47.736  28.565  26.995  1.00  0.00     0.074 A 
ATOM     64  C   UNL A   1      42.412  31.075  29.382  1.00  0.00     0.029 A 
ATOM     65  N   UNL A   1      43.914  29.729  28.447  1.00  0.00    -0.354 N 
ATOM     66  N   UNL A   1      46.589  28.998  27.466  1.00  0.00    -0.248 NA
ATOM     67  C   UNL A   1      48.788  29.589  26.941  1.00  0.00     0.031 C 
ATOM     68  C   UNL A   1      43.590  31.802  29.171  1.00  0.00     0.029 A 
ATOM     69  C   UNL A   1      44.539  30.954  28.626  1.00  0.00     0.049 A 
ATOM     70  H   UNL A   1      44.341  28.927  28.067  1.00  0.00     0.167 HD
ATOM     71  C   UNL A   1      46.793  30.336  27.791  1.00  0.00     0.074 A 
ATOM     72  C   UNL A   1      48.177  30.631  27.482  1.00  0.00     0.031 C 
ATOM     73  C   UNL A   1      45.917  31.240  28.300  1.00  0.00     0.034 A 
BRANCH  60  74
ATOM     74  C   UNL A   1      40.206  28.999  29.196  1.00  0.00     0.023 A 
ATOM     75  C   UNL A   1      39.797  28.998  30.541  1.00  0.00     0.031 A 
ATOM     76  C   UNL A   1      39.235  29.270  28.216  1.00  0.00     0.131 A 
ATOM     77  C   UNL A   1      38.446  29.200  30.863  1.00  0.00     0.055 A 
ATOM     78  C   UNL A   1      37.908  29.549  28.547  1.00  0.00     0.041 A 
ATOM     79  F   UNL A   1      39.560  29.262  26.913  1.00  0.00    -0.206 F 
ATOM     80  C   UNL A   1      37.504  29.503  29.879  1.00  0.00     0.022 A 
BRANCH  77  81
ATOM     81  S   UNL A   1      37.913  28.933  32.577  1.00  0.00     0.124 S 
ATOM     82  O   UNL A   1      38.027  27.482  32.698  1.00  0.00    -0.237 OA
ATOM     83  O   UNL A   1      38.881  29.717  33.334  1.00  0.00    -0.237 OA
ATOM     84  O   UNL A   1      36.544  29.446  32.593  1.00  0.00    -0.744 OA
ENDBRANCH  77  81
ENDBRANCH  60  74
BRANCH  61  85
ATOM     85  C   UNL A   1      49.466  26.903  25.971  1.00  0.00     0.023 A 
ATOM     86  C   UNL A   1      49.811  27.272  24.662  1.00  0.00     0.031 A 
ATOM     87  C   UNL A   1      50.425  26.210  26.732  1.00  0.00     0.131 A 
ATOM     88  C   UNL A   1      51.058  26.900  24.134  1.00  0.00     0.055 A 
ATOM     89  C   UNL A   1      51.687  25.899  26.225  1.00  0.00     0.041 A 
ATOM     90  F   UNL A   1      50.151  25.833  27.991  1.00  0.00    -0.206 F 
ATOM     91  C   UNL A   1      52.004  26.229  24.911  1.00  0.00     0.022 A 
BRANCH  88  92
ATOM     92  S   UNL A   1      51.385  27.209  22.377  1.00  0.00     0.124 S 
ATOM     93  O   UNL A   1      50.129  26.794  21.764  1.00  0.00    -0.237 OA
ATOM     94  O   UNL A   1      51.661  28.642  22.369  1.00  0.00    -0.237 OA
ATOM     95  O   UNL A   1      52.534  26.354  22.089  1.00  0.00    -0.744 OA
ENDBRANCH  88  92
ENDBRANCH  61  85
BRANCH  73  96
ATOM     96  C   UNL A   1      46.449  32.623  28.593  1.00  0.00     0.023 A 
ATOM     97  C   UNL A   1      46.995  32.958  29.844  1.00  0.00     0.031 A 
ATOM     98  C   UNL A   1      46.397  33.625  27.607  1.00  0.00     0.131 A 
ATOM     99  C   UNL A   1      47.411  34.274  30.096  1.00  0.00     0.055 A 
ATOM    100  C   UNL A   1      46.876  34.914  27.840  1.00  0.00     0.041 A 
ATOM    101  F   UNL A   1      45.881  33.364  26.395  1.00  0.00    -0.206 F 
ATOM    102  C   UNL A   1      47.373  35.250  29.096  1.00  0.00     0.022 A 
BRANCH  99 103
ATOM    103  S   UNL A   1      47.905  34.724  31.783  1.00  0.00     0.124 S 
ATOM    104  O   UNL A   1      48.217  33.422  32.364  1.00  0.00    -0.237 OA
ATOM    105  O   UNL A   1      49.042  35.608  31.550  1.00  0.00    -0.237 OA
ATOM    106  O   UNL A   1      46.715  35.376  32.327  1.00  0.00    -0.744 OA
ENDBRANCH  99 103
ENDBRANCH  73  96
ENDBRANCH  47  48
ENDBRANCH  39  42
ENDBRANCH  37  38
ENDBRANCH  36  37
ENDBRANCH  35  36
ENDBRANCH   1  35
TORSDOF 23
ENDMDL
