MODEL 1
REMARK VINA RESULT:      -9.9      0.000      0.000
REMARK SMILES COc1cccc([C@H]2CC(c3ccc(S(C)(=O)=O)cc3)=NN2c2ccc(C(=O)NCCCCCCNC(=O)c3ccc(-c4c5nc(c(-c6cc(S(=O)(=O)[O-])ccc6F)c6ccc([nH]6)c(-c6cc(S(=O)(=O)[O-])ccc6F)c6nc(c(-c7cc(S(=O)(=O)[O-])ccc7F)c7ccc4[nH]7)C=C6)C=C5)cc3)cc2)c1
REMARK SMILES IDX 32 1 31 2 30 3 29 4 27 5 28 6 26 8 23 9 24 10 103 11 25 12
REMARK SMILES IDX 102 13 22 14 8 15 9 16 10 17 21 18 7 19 3 20 4 21 104 22
REMARK SMILES IDX 5 23 6 24 2 25 1 26 11 27 12 28 20 29 13 30 19 31 14 32
REMARK SMILES IDX 15 33 16 34 17 35 18 36 33 37 34 38 35 39 36 40 37 41 38 43
REMARK SMILES IDX 39 44 40 45 101 46 41 47 100 48 42 49 43 50 44 51 94 52
REMARK SMILES IDX 45 53 99 54 93 55 95 56 46 57 98 58 92 59 91 60 47 62 79 63
REMARK SMILES IDX 59 64 78 65 60 66 63 67 77 68 96 69 61 70 62 71 76 73 97 74
REMARK SMILES IDX 64 75 48 76 49 77 57 78 50 79 56 80 58 81 55 82 51 83 52 84
REMARK SMILES IDX 53 85 54 86 80 87 81 88 89 89 82 90 88 91 90 92 87 93 83 94
REMARK SMILES IDX 84 95 85 96 86 97 65 98 66 99 74 100 67 101 73 102 75 103
REMARK SMILES IDX 72 104 68 105 69 106 70 107 71 108
REMARK H PARENT 29 7 36 42 95 61 63 72
REMARK Flexibility Score: inf
ROOT
ATOM      1  C   UNL A   1      41.026  27.500  27.661  1.00  0.00     0.002 C 
ENDROOT
BRANCH   1   2
ATOM      2  C   UNL A   1      41.884  28.269  28.675  1.00  0.00     0.021 C 
BRANCH   2   3
ATOM      3  C   UNL A   1      41.636  27.830  30.119  1.00  0.00     0.116 C 
BRANCH   3   4
ATOM      4  N   UNL A   1      41.659  28.988  30.991  1.00  0.00    -0.352 N 
ATOM      5  C   UNL A   1      40.811  30.051  31.143  1.00  0.00     0.251 C 
ATOM      6  O   UNL A   1      41.135  30.922  31.953  1.00  0.00    -0.269 OA
ATOM      7  H   UNL A   1      42.439  29.016  31.590  1.00  0.00     0.163 HD
BRANCH   5   8
ATOM      8  C   UNL A   1      39.501  30.163  30.444  1.00  0.00     0.039 A 
ATOM      9  C   UNL A   1      37.009  30.097  29.110  1.00  0.00     0.060 A 
ATOM     10  C   UNL A   1      37.314  29.162  30.103  1.00  0.00     0.029 A 
ATOM     11  C   UNL A   1      37.934  31.108  28.845  1.00  0.00     0.029 A 
ATOM     12  C   UNL A   1      38.551  29.178  30.746  1.00  0.00     0.016 A 
ATOM     13  C   UNL A   1      39.151  31.167  29.538  1.00  0.00     0.016 A 
BRANCH   9  14
ATOM     14  N   UNL A   1      35.810  30.009  28.430  1.00  0.00    -0.257 N 
ATOM     15  C   UNL A   1      34.554  30.618  28.865  1.00  0.00     0.144 C 
ATOM     16  C   UNL A   1      33.570  30.158  27.777  1.00  0.00     0.091 C 
ATOM     17  C   UNL A   1      34.471  29.261  26.975  1.00  0.00     0.071 C 
ATOM     18  N   UNL A   1      35.709  29.205  27.347  1.00  0.00    -0.176 NA
BRANCH  15  19
ATOM     19  C   UNL A   1      34.681  32.131  28.965  1.00  0.00    -0.019 A 
ATOM     20  C   UNL A   1      34.619  34.186  30.284  1.00  0.00     0.119 A 
ATOM     21  C   UNL A   1      34.750  34.930  29.111  1.00  0.00     0.046 A 
ATOM     22  C   UNL A   1      34.581  32.793  30.207  1.00  0.00     0.052 A 
ATOM     23  C   UNL A   1      34.863  34.294  27.876  1.00  0.00     0.004 A 
ATOM     24  C   UNL A   1      34.829  32.902  27.802  1.00  0.00     0.006 A 
BRANCH  20  25
ATOM     25  O   UNL A   1      34.502  34.928  31.427  1.00  0.00    -0.497 OA
ATOM     26  C   UNL A   1      35.255  34.488  32.550  1.00  0.00     0.278 C 
ENDBRANCH  20  25
ENDBRANCH  15  19
BRANCH  17  27
ATOM     27  C   UNL A   1      33.970  28.468  25.851  1.00  0.00    -0.002 A 
ATOM     28  C   UNL A   1      34.080  27.075  25.926  1.00  0.00     0.011 A 
ATOM     29  C   UNL A   1      33.473  29.092  24.706  1.00  0.00     0.011 A 
ATOM     30  C   UNL A   1      33.679  26.292  24.848  1.00  0.00     0.021 A 
ATOM     31  C   UNL A   1      33.096  28.310  23.613  1.00  0.00     0.021 A 
ATOM     32  C   UNL A   1      33.209  26.915  23.688  1.00  0.00     0.067 A 
BRANCH  32  33
ATOM     33  S   UNL A   1      32.759  25.911  22.292  1.00  0.00     0.175 S 
ATOM     34  C   UNL A   1      31.163  26.521  21.813  1.00  0.00     0.163 C 
ATOM     35  O   UNL A   1      33.704  26.210  21.236  1.00  0.00    -0.224 OA
ATOM     36  O   UNL A   1      32.576  24.552  22.770  1.00  0.00    -0.224 OA
ENDBRANCH  32  33
ENDBRANCH  17  27
ENDBRANCH   9  14
ENDBRANCH   5   8
ENDBRANCH   3   4
ENDBRANCH   2   3
ENDBRANCH   1   2
BRANCH   1  37
ATOM     37  C   UNL A   1      39.800  26.803  28.264  1.00  0.00     0.002 C 
BRANCH  37  38
ATOM     38  C   UNL A   1      39.363  25.528  27.538  1.00  0.00     0.021 C 
BRANCH  38  39
ATOM     39  C   UNL A   1      40.340  25.051  26.467  1.00  0.00     0.116 C 
BRANCH  39  40
ATOM     40  N   UNL A   1      41.028  23.840  26.881  1.00  0.00    -0.352 N 
ATOM     41  C   UNL A   1      42.373  23.578  26.931  1.00  0.00     0.251 C 
ATOM     42  H   UNL A   1      40.444  23.101  27.166  1.00  0.00     0.163 HD
ATOM     43  O   UNL A   1      42.756  22.418  27.048  1.00  0.00    -0.269 OA
BRANCH  41  44
ATOM     44  C   UNL A   1      43.351  24.684  26.837  1.00  0.00     0.039 A 
ATOM     45  C   UNL A   1      43.692  25.175  25.575  1.00  0.00     0.014 A 
ATOM     46  C   UNL A   1      43.971  25.202  27.980  1.00  0.00     0.014 A 
ATOM     47  C   UNL A   1      44.632  26.202  25.460  1.00  0.00     0.010 A 
ATOM     48  C   UNL A   1      44.853  26.274  27.869  1.00  0.00     0.010 A 
ATOM     49  C   UNL A   1      45.209  26.770  26.607  1.00  0.00    -0.014 A 
BRANCH  49  50
ATOM     50  C   UNL A   1      46.220  27.854  26.490  1.00  0.00     0.031 A 
ATOM     51  C   UNL A   1      45.792  29.296  26.574  1.00  0.00     0.074 A 
ATOM     52  C   UNL A   1      47.513  27.540  26.283  1.00  0.00     0.049 A 
ATOM     53  N   UNL A   1      46.517  30.382  26.482  1.00  0.00    -0.248 NA
ATOM     54  C   UNL A   1      44.355  29.549  26.754  1.00  0.00     0.031 C 
ATOM     55  C   UNL A   1      48.038  26.179  26.139  1.00  0.00     0.029 A 
ATOM     56  N   UNL A   1      48.621  28.337  26.162  1.00  0.00    -0.354 N 
ATOM     57  C   UNL A   1      45.624  31.445  26.584  1.00  0.00     0.074 A 
ATOM     58  C   UNL A   1      44.299  30.868  26.672  1.00  0.00     0.031 C 
ATOM     59  C   UNL A   1      49.370  26.238  25.981  1.00  0.00     0.029 A 
ATOM     60  C   UNL A   1      49.790  27.635  25.977  1.00  0.00     0.049 A 
ATOM     61  H   UNL A   1      48.585  29.320  26.202  1.00  0.00     0.167 HD
ATOM     62  C   UNL A   1      45.886  32.775  26.626  1.00  0.00     0.034 A 
ATOM     63  C   UNL A   1      51.056  28.071  25.824  1.00  0.00     0.034 A 
ATOM     64  C   UNL A   1      47.217  33.330  26.549  1.00  0.00     0.049 A 
ATOM     65  C   UNL A   1      51.325  29.553  25.882  1.00  0.00     0.074 A 
ATOM     66  C   UNL A   1      47.605  34.657  26.621  1.00  0.00     0.029 A 
ATOM     67  N   UNL A   1      48.379  32.588  26.378  1.00  0.00    -0.354 N 
ATOM     68  N   UNL A   1      50.475  30.544  26.029  1.00  0.00    -0.248 NA
ATOM     69  C   UNL A   1      52.727  29.971  25.779  1.00  0.00     0.031 C 
ATOM     70  C   UNL A   1      48.991  34.721  26.432  1.00  0.00     0.029 A 
ATOM     71  C   UNL A   1      49.480  33.429  26.321  1.00  0.00     0.049 A 
ATOM     72  H   UNL A   1      48.415  31.607  26.307  1.00  0.00     0.167 HD
ATOM     73  C   UNL A   1      51.247  31.701  26.070  1.00  0.00     0.074 A 
ATOM     74  C   UNL A   1      52.629  31.280  25.954  1.00  0.00     0.031 C 
ATOM     75  C   UNL A   1      50.852  32.996  26.193  1.00  0.00     0.034 A 
BRANCH  62  76
ATOM     76  C   UNL A   1      44.704  33.712  26.739  1.00  0.00     0.023 A 
ATOM     77  C   UNL A   1      44.175  34.089  27.987  1.00  0.00     0.031 A 
ATOM     78  C   UNL A   1      44.072  34.206  25.585  1.00  0.00     0.131 A 
ATOM     79  C   UNL A   1      43.005  34.861  28.050  1.00  0.00     0.055 A 
ATOM     80  C   UNL A   1      42.959  35.048  25.656  1.00  0.00     0.041 A 
ATOM     81  F   UNL A   1      44.515  33.867  24.364  1.00  0.00    -0.206 F 
ATOM     82  C   UNL A   1      42.408  35.365  26.893  1.00  0.00     0.022 A 
BRANCH  79  83
ATOM     83  S   UNL A   1      42.188  35.066  29.657  1.00  0.00     0.124 S 
ATOM     84  O   UNL A   1      42.926  36.195  30.219  1.00  0.00    -0.237 OA
ATOM     85  O   UNL A   1      40.806  35.330  29.277  1.00  0.00    -0.237 OA
ATOM     86  O   UNL A   1      42.419  33.786  30.325  1.00  0.00    -0.744 OA
ENDBRANCH  79  83
ENDBRANCH  62  76
BRANCH  63  87
ATOM     87  C   UNL A   1      52.169  27.101  25.613  1.00  0.00     0.023 A 
ATOM     88  C   UNL A   1      53.037  26.755  26.661  1.00  0.00     0.031 A 
ATOM     89  C   UNL A   1      52.407  26.537  24.348  1.00  0.00     0.131 A 
ATOM     90  C   UNL A   1      54.133  25.914  26.414  1.00  0.00     0.055 A 
ATOM     91  C   UNL A   1      53.466  25.658  24.119  1.00  0.00     0.041 A 
ATOM     92  F   UNL A   1      51.601  26.825  23.313  1.00  0.00    -0.206 F 
ATOM     93  C   UNL A   1      54.347  25.354  25.153  1.00  0.00     0.022 A 
BRANCH  90  94
ATOM     94  S   UNL A   1      55.329  25.633  27.748  1.00  0.00     0.124 S 
ATOM     95  O   UNL A   1      54.524  25.905  28.933  1.00  0.00    -0.237 OA
ATOM     96  O   UNL A   1      55.701  24.238  27.531  1.00  0.00    -0.237 OA
ATOM     97  O   UNL A   1      56.383  26.607  27.470  1.00  0.00    -0.744 OA
ENDBRANCH  90  94
ENDBRANCH  63  87
BRANCH  75  98
ATOM     98  C   UNL A   1      51.945  34.036  26.258  1.00  0.00     0.023 A 
ATOM     99  C   UNL A   1      52.424  34.681  25.102  1.00  0.00     0.031 A 
ATOM    100  C   UNL A   1      52.546  34.356  27.488  1.00  0.00     0.131 A 
ATOM    101  C   UNL A   1      53.522  35.548  25.190  1.00  0.00     0.055 A 
ATOM    102  C   UNL A   1      53.593  35.275  27.578  1.00  0.00     0.041 A 
ATOM    103  F   UNL A   1      52.131  33.773  28.623  1.00  0.00    -0.206 F 
ATOM    104  C   UNL A   1      54.100  35.862  26.423  1.00  0.00     0.022 A 
BRANCH 101 105
ATOM    105  S   UNL A   1      54.271  36.160  23.654  1.00  0.00     0.124 S 
ATOM    106  O   UNL A   1      53.830  35.162  22.684  1.00  0.00    -0.237 OA
ATOM    107  O   UNL A   1      53.673  37.484  23.523  1.00  0.00    -0.237 OA
ATOM    108  O   UNL A   1      55.703  36.152  23.944  1.00  0.00    -0.744 OA
ENDBRANCH 101 105
ENDBRANCH  75  98
ENDBRANCH  49  50
ENDBRANCH  41  44
ENDBRANCH  39  40
ENDBRANCH  38  39
ENDBRANCH  37  38
ENDBRANCH   1  37
TORSDOF 21
ENDMDL
MODEL 2
REMARK VINA RESULT:      -9.8      6.458     10.679
REMARK SMILES COc1cccc([C@H]2CC(c3ccc(S(C)(=O)=O)cc3)=NN2c2ccc(C(=O)NCCCCCCNC(=O)c3ccc(-c4c5nc(c(-c6cc(S(=O)(=O)[O-])ccc6F)c6ccc([nH]6)c(-c6cc(S(=O)(=O)[O-])ccc6F)c6nc(c(-c7cc(S(=O)(=O)[O-])ccc7F)c7ccc4[nH]7)C=C6)C=C5)cc3)cc2)c1
REMARK SMILES IDX 32 1 31 2 30 3 29 4 27 5 28 6 26 8 23 9 24 10 103 11 25 12
REMARK SMILES IDX 102 13 22 14 8 15 9 16 10 17 21 18 7 19 3 20 4 21 104 22
REMARK SMILES IDX 5 23 6 24 2 25 1 26 11 27 12 28 20 29 13 30 19 31 14 32
REMARK SMILES IDX 15 33 16 34 17 35 18 36 33 37 34 38 35 39 36 40 37 41 38 43
REMARK SMILES IDX 39 44 40 45 101 46 41 47 100 48 42 49 43 50 44 51 94 52
REMARK SMILES IDX 45 53 99 54 93 55 95 56 46 57 98 58 92 59 91 60 47 62 79 63
REMARK SMILES IDX 59 64 78 65 60 66 63 67 77 68 96 69 61 70 62 71 76 73 97 74
REMARK SMILES IDX 64 75 48 76 49 77 57 78 50 79 56 80 58 81 55 82 51 83 52 84
REMARK SMILES IDX 53 85 54 86 80 87 81 88 89 89 82 90 88 91 90 92 87 93 83 94
REMARK SMILES IDX 84 95 85 96 86 97 65 98 66 99 74 100 67 101 73 102 75 103
REMARK SMILES IDX 72 104 68 105 69 106 70 107 71 108
REMARK H PARENT 29 7 36 42 95 61 63 72
REMARK Flexibility Score: inf
ROOT
ATOM      1  C   UNL A   1      37.354  30.875  29.704  1.00  0.00     0.002 C 
ENDROOT
BRANCH   1   2
ATOM      2  C   UNL A   1      37.830  30.222  28.399  1.00  0.00     0.021 C 
BRANCH   2   3
ATOM      3  C   UNL A   1      36.683  29.642  27.571  1.00  0.00     0.116 C 
BRANCH   3   4
ATOM      4  N   UNL A   1      35.587  30.590  27.527  1.00  0.00    -0.352 N 
ATOM      5  C   UNL A   1      34.258  30.458  27.226  1.00  0.00     0.251 C 
ATOM      6  O   UNL A   1      33.574  31.482  27.229  1.00  0.00    -0.269 OA
ATOM      7  H   UNL A   1      35.851  31.510  27.756  1.00  0.00     0.163 HD
BRANCH   5   8
ATOM      8  C   UNL A   1      33.599  29.146  26.979  1.00  0.00     0.039 A 
ATOM      9  C   UNL A   1      32.427  26.681  26.244  1.00  0.00     0.060 A 
ATOM     10  C   UNL A   1      33.644  27.086  25.691  1.00  0.00     0.029 A 
ATOM     11  C   UNL A   1      31.840  27.487  27.221  1.00  0.00     0.029 A 
ATOM     12  C   UNL A   1      34.213  28.312  26.035  1.00  0.00     0.016 A 
ATOM     13  C   UNL A   1      32.445  28.687  27.619  1.00  0.00     0.016 A 
BRANCH   9  14
ATOM     14  N   UNL A   1      31.842  25.502  25.825  1.00  0.00    -0.257 N 
ATOM     15  C   UNL A   1      30.403  25.289  25.674  1.00  0.00     0.144 C 
ATOM     16  C   UNL A   1      30.330  23.815  25.244  1.00  0.00     0.091 C 
ATOM     17  C   UNL A   1      31.784  23.444  25.344  1.00  0.00     0.071 C 
ATOM     18  N   UNL A   1      32.602  24.397  25.654  1.00  0.00    -0.176 NA
BRANCH  15  19
ATOM     19  C   UNL A   1      29.807  26.247  24.654  1.00  0.00    -0.019 A 
ATOM     20  C   UNL A   1      30.070  28.036  23.010  1.00  0.00     0.119 A 
ATOM     21  C   UNL A   1      28.682  28.121  22.898  1.00  0.00     0.046 A 
ATOM     22  C   UNL A   1      30.626  27.103  23.888  1.00  0.00     0.052 A 
ATOM     23  C   UNL A   1      27.856  27.274  23.636  1.00  0.00     0.004 A 
ATOM     24  C   UNL A   1      28.415  26.341  24.509  1.00  0.00     0.006 A 
BRANCH  20  25
ATOM     25  O   UNL A   1      30.767  28.930  22.246  1.00  0.00    -0.497 OA
ATOM     26  C   UNL A   1      30.041  30.055  21.764  1.00  0.00     0.278 C 
ENDBRANCH  20  25
ENDBRANCH  15  19
BRANCH  17  27
ATOM     27  C   UNL A   1      32.248  22.071  25.133  1.00  0.00    -0.002 A 
ATOM     28  C   UNL A   1      32.873  21.416  26.199  1.00  0.00     0.011 A 
ATOM     29  C   UNL A   1      32.139  21.469  23.879  1.00  0.00     0.011 A 
ATOM     30  C   UNL A   1      33.389  20.136  26.015  1.00  0.00     0.021 A 
ATOM     31  C   UNL A   1      32.680  20.197  23.685  1.00  0.00     0.021 A 
ATOM     32  C   UNL A   1      33.309  19.542  24.752  1.00  0.00     0.067 A 
BRANCH  32  33
ATOM     33  S   UNL A   1      34.026  17.934  24.510  1.00  0.00     0.175 S 
ATOM     34  C   UNL A   1      33.389  17.404  22.941  1.00  0.00     0.163 C 
ATOM     35  O   UNL A   1      35.457  18.127  24.385  1.00  0.00    -0.224 OA
ATOM     36  O   UNL A   1      33.475  17.051  25.521  1.00  0.00    -0.224 OA
ENDBRANCH  32  33
ENDBRANCH  17  27
ENDBRANCH   9  14
ENDBRANCH   5   8
ENDBRANCH   3   4
ENDBRANCH   2   3
ENDBRANCH   1   2
BRANCH   1  37
ATOM     37  C   UNL A   1      37.522  32.399  29.751  1.00  0.00     0.002 C 
BRANCH  37  38
ATOM     38  C   UNL A   1      36.287  33.168  30.230  1.00  0.00     0.021 C 
BRANCH  38  39
ATOM     39  C   UNL A   1      35.404  32.391  31.202  1.00  0.00     0.116 C 
BRANCH  39  40
ATOM     40  N   UNL A   1      35.332  33.050  32.494  1.00  0.00    -0.352 N 
ATOM     41  C   UNL A   1      36.098  32.856  33.614  1.00  0.00     0.251 C 
ATOM     42  H   UNL A   1      34.631  33.737  32.577  1.00  0.00     0.163 HD
ATOM     43  O   UNL A   1      35.719  33.311  34.690  1.00  0.00    -0.269 OA
BRANCH  41  44
ATOM     44  C   UNL A   1      37.366  32.098  33.527  1.00  0.00     0.039 A 
ATOM     45  C   UNL A   1      38.535  32.782  33.186  1.00  0.00     0.014 A 
ATOM     46  C   UNL A   1      37.399  30.714  33.729  1.00  0.00     0.014 A 
ATOM     47  C   UNL A   1      39.739  32.084  33.073  1.00  0.00     0.010 A 
ATOM     48  C   UNL A   1      38.612  30.032  33.688  1.00  0.00     0.010 A 
ATOM     49  C   UNL A   1      39.791  30.705  33.338  1.00  0.00    -0.014 A 
BRANCH  49  50
ATOM     50  C   UNL A   1      41.068  29.955  33.206  1.00  0.00     0.031 A 
ATOM     51  C   UNL A   1      41.323  29.110  31.986  1.00  0.00     0.074 A 
ATOM     52  C   UNL A   1      41.981  30.016  34.195  1.00  0.00     0.049 A 
ATOM     53  N   UNL A   1      42.364  28.372  31.693  1.00  0.00    -0.248 NA
ATOM     54  C   UNL A   1      40.253  29.064  30.979  1.00  0.00     0.031 C 
ATOM     55  C   UNL A   1      41.824  30.766  35.444  1.00  0.00     0.029 A 
ATOM     56  N   UNL A   1      43.222  29.444  34.306  1.00  0.00    -0.354 N 
ATOM     57  C   UNL A   1      42.070  27.769  30.473  1.00  0.00     0.074 A 
ATOM     58  C   UNL A   1      40.725  28.173  30.122  1.00  0.00     0.031 C 
ATOM     59  C   UNL A   1      42.940  30.632  36.179  1.00  0.00     0.029 A 
ATOM     60  C   UNL A   1      43.874  29.762  35.474  1.00  0.00     0.049 A 
ATOM     61  H   UNL A   1      43.609  28.859  33.615  1.00  0.00     0.167 HD
ATOM     62  C   UNL A   1      42.857  26.974  29.706  1.00  0.00     0.034 A 
ATOM     63  C   UNL A   1      45.091  29.395  35.923  1.00  0.00     0.034 A 
ATOM     64  C   UNL A   1      44.202  26.592  30.068  1.00  0.00     0.049 A 
ATOM     65  C   UNL A   1      45.952  28.517  35.051  1.00  0.00     0.074 A 
ATOM     66  C   UNL A   1      45.105  25.825  29.352  1.00  0.00     0.029 A 
ATOM     67  N   UNL A   1      44.837  26.946  31.252  1.00  0.00    -0.354 N 
ATOM     68  N   UNL A   1      45.679  27.995  33.876  1.00  0.00    -0.248 NA
ATOM     69  C   UNL A   1      47.293  28.202  35.554  1.00  0.00     0.031 C 
ATOM     70  C   UNL A   1      46.259  25.665  30.128  1.00  0.00     0.029 A 
ATOM     71  C   UNL A   1      46.110  26.397  31.296  1.00  0.00     0.049 A 
ATOM     72  H   UNL A   1      44.441  27.506  31.958  1.00  0.00     0.167 HD
ATOM     73  C   UNL A   1      46.831  27.317  33.487  1.00  0.00     0.074 A 
ATOM     74  C   UNL A   1      47.803  27.517  34.542  1.00  0.00     0.031 C 
ATOM     75  C   UNL A   1      47.066  26.595  32.360  1.00  0.00     0.034 A 
BRANCH  62  76
ATOM     76  C   UNL A   1      42.267  26.452  28.414  1.00  0.00     0.023 A 
ATOM     77  C   UNL A   1      41.725  25.158  28.319  1.00  0.00     0.031 A 
ATOM     78  C   UNL A   1      42.279  27.244  27.253  1.00  0.00     0.131 A 
ATOM     79  C   UNL A   1      41.298  24.665  27.077  1.00  0.00     0.055 A 
ATOM     80  C   UNL A   1      41.771  26.778  26.037  1.00  0.00     0.041 A 
ATOM     81  F   UNL A   1      42.802  28.480  27.272  1.00  0.00    -0.206 F 
ATOM     82  C   UNL A   1      41.292  25.475  25.941  1.00  0.00     0.022 A 
BRANCH  79  83
ATOM     83  S   UNL A   1      40.895  22.901  26.937  1.00  0.00     0.124 S 
ATOM     84  O   UNL A   1      41.764  22.489  25.837  1.00  0.00    -0.237 OA
ATOM     85  O   UNL A   1      41.247  22.391  28.256  1.00  0.00    -0.237 OA
ATOM     86  O   UNL A   1      39.466  22.899  26.627  1.00  0.00    -0.744 OA
ENDBRANCH  79  83
ENDBRANCH  62  76
BRANCH  63  87
ATOM     87  C   UNL A   1      45.578  29.859  37.254  1.00  0.00     0.023 A 
ATOM     88  C   UNL A   1      46.248  31.085  37.393  1.00  0.00     0.031 A 
ATOM     89  C   UNL A   1      45.417  29.063  38.401  1.00  0.00     0.131 A 
ATOM     90  C   UNL A   1      46.780  31.455  38.638  1.00  0.00     0.055 A 
ATOM     91  C   UNL A   1      45.899  29.461  39.649  1.00  0.00     0.041 A 
ATOM     92  F   UNL A   1      44.774  27.887  38.327  1.00  0.00    -0.206 F 
ATOM     93  C   UNL A   1      46.599  30.657  39.769  1.00  0.00     0.022 A 
BRANCH  90  94
ATOM     94  S   UNL A   1      47.789  32.959  38.738  1.00  0.00     0.124 S 
ATOM     95  O   UNL A   1      49.082  32.424  39.148  1.00  0.00    -0.237 OA
ATOM     96  O   UNL A   1      47.709  33.469  37.373  1.00  0.00    -0.237 OA
ATOM     97  O   UNL A   1      47.098  33.765  39.743  1.00  0.00    -0.744 OA
ENDBRANCH  90  94
ENDBRANCH  63  87
BRANCH  75  98
ATOM     98  C   UNL A   1      48.451  26.015  32.201  1.00  0.00     0.023 A 
ATOM     99  C   UNL A   1      48.847  24.846  32.877  1.00  0.00     0.031 A 
ATOM    100  C   UNL A   1      49.403  26.666  31.397  1.00  0.00     0.131 A 
ATOM    101  C   UNL A   1      50.178  24.410  32.799  1.00  0.00     0.055 A 
ATOM    102  C   UNL A   1      50.707  26.187  31.267  1.00  0.00     0.041 A 
ATOM    103  F   UNL A   1      49.082  27.785  30.729  1.00  0.00    -0.206 F 
ATOM    104  C   UNL A   1      51.107  25.064  31.986  1.00  0.00     0.022 A 
BRANCH 101 105
ATOM    105  S   UNL A   1      50.712  23.054  33.879  1.00  0.00     0.124 S 
ATOM    106  O   UNL A   1      49.910  23.286  35.077  1.00  0.00    -0.237 OA
ATOM    107  O   UNL A   1      50.361  21.875  33.096  1.00  0.00    -0.237 OA
ATOM    108  O   UNL A   1      52.147  23.288  34.040  1.00  0.00    -0.744 OA
ENDBRANCH 101 105
ENDBRANCH  75  98
ENDBRANCH  49  50
ENDBRANCH  41  44
ENDBRANCH  39  40
ENDBRANCH  38  39
ENDBRANCH  37  38
ENDBRANCH   1  37
TORSDOF 21
ENDMDL
MODEL 3
REMARK VINA RESULT:      -9.7      6.130     10.854
REMARK SMILES COc1cccc([C@H]2CC(c3ccc(S(C)(=O)=O)cc3)=NN2c2ccc(C(=O)NCCCCCCNC(=O)c3ccc(-c4c5nc(c(-c6cc(S(=O)(=O)[O-])ccc6F)c6ccc([nH]6)c(-c6cc(S(=O)(=O)[O-])ccc6F)c6nc(c(-c7cc(S(=O)(=O)[O-])ccc7F)c7ccc4[nH]7)C=C6)C=C5)cc3)cc2)c1
REMARK SMILES IDX 32 1 31 2 30 3 29 4 27 5 28 6 26 8 23 9 24 10 103 11 25 12
REMARK SMILES IDX 102 13 22 14 8 15 9 16 10 17 21 18 7 19 3 20 4 21 104 22
REMARK SMILES IDX 5 23 6 24 2 25 1 26 11 27 12 28 20 29 13 30 19 31 14 32
REMARK SMILES IDX 15 33 16 34 17 35 18 36 33 37 34 38 35 39 36 40 37 41 38 43
REMARK SMILES IDX 39 44 40 45 101 46 41 47 100 48 42 49 43 50 44 51 94 52
REMARK SMILES IDX 45 53 99 54 93 55 95 56 46 57 98 58 92 59 91 60 47 62 79 63
REMARK SMILES IDX 59 64 78 65 60 66 63 67 77 68 96 69 61 70 62 71 76 73 97 74
REMARK SMILES IDX 64 75 48 76 49 77 57 78 50 79 56 80 58 81 55 82 51 83 52 84
REMARK SMILES IDX 53 85 54 86 80 87 81 88 89 89 82 90 88 91 90 92 87 93 83 94
REMARK SMILES IDX 84 95 85 96 86 97 65 98 66 99 74 100 67 101 73 102 75 103
REMARK SMILES IDX 72 104 68 105 69 106 70 107 71 108
REMARK H PARENT 29 7 36 42 95 61 63 72
REMARK Flexibility Score: inf
ROOT
ATOM      1  C   UNL A   1      36.806  31.693  29.510  1.00  0.00     0.002 C 
ENDROOT
BRANCH   1   2
ATOM      2  C   UNL A   1      37.388  30.572  28.637  1.00  0.00     0.021 C 
BRANCH   2   3
ATOM      3  C   UNL A   1      36.398  30.058  27.591  1.00  0.00     0.116 C 
BRANCH   3   4
ATOM      4  N   UNL A   1      35.234  30.921  27.558  1.00  0.00    -0.352 N 
ATOM      5  C   UNL A   1      33.922  30.697  27.237  1.00  0.00     0.251 C 
ATOM      6  O   UNL A   1      33.161  31.666  27.258  1.00  0.00    -0.269 OA
ATOM      7  H   UNL A   1      35.424  31.852  27.814  1.00  0.00     0.163 HD
BRANCH   5   8
ATOM      8  C   UNL A   1      33.368  29.346  26.947  1.00  0.00     0.039 A 
ATOM      9  C   UNL A   1      32.389  26.822  26.132  1.00  0.00     0.060 A 
ATOM     10  C   UNL A   1      33.567  27.342  25.587  1.00  0.00     0.029 A 
ATOM     11  C   UNL A   1      31.748  27.544  27.139  1.00  0.00     0.029 A 
ATOM     12  C   UNL A   1      34.039  28.597  25.971  1.00  0.00     0.016 A 
ATOM     13  C   UNL A   1      32.259  28.775  27.576  1.00  0.00     0.016 A 
BRANCH   9  14
ATOM     14  N   UNL A   1      31.897  25.615  25.675  1.00  0.00    -0.257 N 
ATOM     15  C   UNL A   1      30.479  25.300  25.506  1.00  0.00     0.144 C 
ATOM     16  C   UNL A   1      30.520  23.837  25.033  1.00  0.00     0.091 C 
ATOM     17  C   UNL A   1      31.997  23.574  25.134  1.00  0.00     0.071 C 
ATOM     18  N   UNL A   1      32.740  24.576  25.479  1.00  0.00    -0.176 NA
BRANCH  15  19
ATOM     19  C   UNL A   1      29.819  26.239  24.509  1.00  0.00    -0.019 A 
ATOM     20  C   UNL A   1      29.975  28.009  22.832  1.00  0.00     0.119 A 
ATOM     21  C   UNL A   1      28.582  28.083  22.795  1.00  0.00     0.046 A 
ATOM     22  C   UNL A   1      30.587  27.093  23.689  1.00  0.00     0.052 A 
ATOM     23  C   UNL A   1      27.806  27.239  23.589  1.00  0.00     0.004 A 
ATOM     24  C   UNL A   1      28.420  26.321  24.441  1.00  0.00     0.006 A 
BRANCH  20  25
ATOM     25  O   UNL A   1      30.620  28.900  22.019  1.00  0.00    -0.497 OA
ATOM     26  C   UNL A   1      29.912  30.088  21.690  1.00  0.00     0.278 C 
ENDBRANCH  20  25
ENDBRANCH  15  19
BRANCH  17  27
ATOM     27  C   UNL A   1      32.563  22.246  24.888  1.00  0.00    -0.002 A 
ATOM     28  C   UNL A   1      31.983  21.457  23.890  1.00  0.00     0.011 A 
ATOM     29  C   UNL A   1      33.600  21.757  25.685  1.00  0.00     0.011 A 
ATOM     30  C   UNL A   1      32.450  20.163  23.675  1.00  0.00     0.021 A 
ATOM     31  C   UNL A   1      34.051  20.451  25.489  1.00  0.00     0.021 A 
ATOM     32  C   UNL A   1      33.468  19.659  24.491  1.00  0.00     0.067 A 
BRANCH  32  33
ATOM     33  S   UNL A   1      34.014  17.985  24.252  1.00  0.00     0.175 S 
ATOM     34  C   UNL A   1      33.109  17.054  25.461  1.00  0.00     0.163 C 
ATOM     35  O   UNL A   1      33.570  17.582  22.932  1.00  0.00    -0.224 OA
ATOM     36  O   UNL A   1      35.417  17.924  24.620  1.00  0.00    -0.224 OA
ENDBRANCH  32  33
ENDBRANCH  17  27
ENDBRANCH   9  14
ENDBRANCH   5   8
ENDBRANCH   3   4
ENDBRANCH   2   3
ENDBRANCH   1   2
BRANCH   1  37
ATOM     37  C   UNL A   1      37.208  33.109  29.081  1.00  0.00     0.002 C 
BRANCH  37  38
ATOM     38  C   UNL A   1      36.125  34.173  29.278  1.00  0.00     0.021 C 
BRANCH  38  39
ATOM     39  C   UNL A   1      35.080  33.815  30.331  1.00  0.00     0.116 C 
BRANCH  39  40
ATOM     40  N   UNL A   1      35.042  34.801  31.397  1.00  0.00    -0.352 N 
ATOM     41  C   UNL A   1      35.799  34.879  32.537  1.00  0.00     0.251 C 
ATOM     42  H   UNL A   1      34.377  35.518  31.283  1.00  0.00     0.163 HD
ATOM     43  O   UNL A   1      35.444  35.625  33.446  1.00  0.00    -0.269 OA
BRANCH  41  44
ATOM     44  C   UNL A   1      37.027  34.065  32.674  1.00  0.00     0.039 A 
ATOM     45  C   UNL A   1      38.242  34.605  32.244  1.00  0.00     0.014 A 
ATOM     46  C   UNL A   1      36.980  32.759  33.172  1.00  0.00     0.014 A 
ATOM     47  C   UNL A   1      39.410  33.847  32.340  1.00  0.00     0.010 A 
ATOM     48  C   UNL A   1      38.156  32.032  33.334  1.00  0.00     0.010 A 
ATOM     49  C   UNL A   1      39.380  32.559  32.900  1.00  0.00    -0.014 A 
BRANCH  49  50
ATOM     50  C   UNL A   1      40.618  31.742  32.992  1.00  0.00     0.031 A 
ATOM     51  C   UNL A   1      40.954  30.756  31.904  1.00  0.00     0.074 A 
ATOM     52  C   UNL A   1      41.423  31.872  34.064  1.00  0.00     0.049 A 
ATOM     53  N   UNL A   1      41.976  29.944  31.807  1.00  0.00    -0.248 NA
ATOM     54  C   UNL A   1      39.995  30.647  30.794  1.00  0.00     0.031 C 
ATOM     55  C   UNL A   1      41.177  32.761  35.202  1.00  0.00     0.029 A 
ATOM     56  N   UNL A   1      42.611  31.260  34.373  1.00  0.00    -0.354 N 
ATOM     57  C   UNL A   1      41.780  29.223  30.633  1.00  0.00     0.074 A 
ATOM     58  C   UNL A   1      40.505  29.646  30.094  1.00  0.00     0.031 C 
ATOM     59  C   UNL A   1      42.199  32.660  36.067  1.00  0.00     0.029 A 
ATOM     60  C   UNL A   1      43.153  31.676  35.566  1.00  0.00     0.049 A 
ATOM     61  H   UNL A   1      43.036  30.585  33.795  1.00  0.00     0.167 HD
ATOM     62  C   UNL A   1      42.598  28.314  30.047  1.00  0.00     0.034 A 
ATOM     63  C   UNL A   1      44.292  31.307  36.185  1.00  0.00     0.034 A 
ATOM     64  C   UNL A   1      43.872  27.914  30.595  1.00  0.00     0.049 A 
ATOM     65  C   UNL A   1      45.190  30.300  35.511  1.00  0.00     0.074 A 
ATOM     66  C   UNL A   1      44.801  27.033  30.069  1.00  0.00     0.029 A 
ATOM     67  N   UNL A   1      44.398  28.369  31.798  1.00  0.00    -0.354 N 
ATOM     68  N   UNL A   1      45.014  29.663  34.375  1.00  0.00    -0.248 NA
ATOM     69  C   UNL A   1      46.450  29.983  36.192  1.00  0.00     0.031 C 
ATOM     70  C   UNL A   1      45.856  26.908  30.982  1.00  0.00     0.029 A 
ATOM     71  C   UNL A   1      45.625  27.771  32.042  1.00  0.00     0.049 A 
ATOM     72  H   UNL A   1      43.961  29.021  32.393  1.00  0.00     0.167 HD
ATOM     73  C   UNL A   1      46.160  28.896  34.190  1.00  0.00     0.074 A 
ATOM     74  C   UNL A   1      47.025  29.168  35.321  1.00  0.00     0.031 C 
ATOM     75  C   UNL A   1      46.472  28.043  33.180  1.00  0.00     0.034 A 
BRANCH  62  76
ATOM     76  C   UNL A   1      42.119  27.679  28.759  1.00  0.00     0.023 A 
ATOM     77  C   UNL A   1      41.512  26.410  28.742  1.00  0.00     0.031 A 
ATOM     78  C   UNL A   1      42.306  28.332  27.529  1.00  0.00     0.131 A 
ATOM     79  C   UNL A   1      41.191  25.802  27.519  1.00  0.00     0.055 A 
ATOM     80  C   UNL A   1      41.904  27.757  26.320  1.00  0.00     0.041 A 
ATOM     81  F   UNL A   1      42.900  29.535  27.475  1.00  0.00    -0.206 F 
ATOM     82  C   UNL A   1      41.359  26.478  26.309  1.00  0.00     0.022 A 
BRANCH  79  83
ATOM     83  S   UNL A   1      40.697  24.056  27.524  1.00  0.00     0.124 S 
ATOM     84  O   UNL A   1      41.518  23.522  28.609  1.00  0.00    -0.237 OA
ATOM     85  O   UNL A   1      39.265  24.134  27.784  1.00  0.00    -0.237 OA
ATOM     86  O   UNL A   1      41.066  23.592  26.187  1.00  0.00    -0.744 OA
ENDBRANCH  79  83
ENDBRANCH  62  76
BRANCH  63  87
ATOM     87  C   UNL A   1      44.660  31.894  37.505  1.00  0.00     0.023 A 
ATOM     88  C   UNL A   1      44.362  31.226  38.703  1.00  0.00     0.031 A 
ATOM     89  C   UNL A   1      45.278  33.154  37.590  1.00  0.00     0.131 A 
ATOM     90  C   UNL A   1      44.633  31.843  39.935  1.00  0.00     0.055 A 
ATOM     91  C   UNL A   1      45.595  33.739  38.816  1.00  0.00     0.041 A 
ATOM     92  F   UNL A   1      45.595  33.831  36.474  1.00  0.00    -0.206 F 
ATOM     93  C   UNL A   1      45.258  33.089  39.999  1.00  0.00     0.022 A 
BRANCH  90  94
ATOM     94  S   UNL A   1      44.074  31.027  41.455  1.00  0.00     0.124 S 
ATOM     95  O   UNL A   1      44.559  29.665  41.258  1.00  0.00    -0.237 OA
ATOM     96  O   UNL A   1      44.753  31.808  42.484  1.00  0.00    -0.237 OA
ATOM     97  O   UNL A   1      42.622  31.186  41.412  1.00  0.00    -0.744 OA
ENDBRANCH  90  94
ENDBRANCH  63  87
BRANCH  75  98
ATOM     98  C   UNL A   1      47.832  27.387  33.238  1.00  0.00     0.023 A 
ATOM     99  C   UNL A   1      48.968  27.984  32.661  1.00  0.00     0.031 A 
ATOM    100  C   UNL A   1      47.984  26.127  33.842  1.00  0.00     0.131 A 
ATOM    101  C   UNL A   1      50.184  27.287  32.629  1.00  0.00     0.055 A 
ATOM    102  C   UNL A   1      49.214  25.469  33.870  1.00  0.00     0.041 A 
ATOM    103  F   UNL A   1      46.935  25.509  34.408  1.00  0.00    -0.206 F 
ATOM    104  C   UNL A   1      50.318  26.039  33.244  1.00  0.00     0.022 A 
BRANCH 101 105
ATOM    105  S   UNL A   1      51.554  27.974  31.658  1.00  0.00     0.124 S 
ATOM    106  O   UNL A   1      51.495  29.389  32.010  1.00  0.00    -0.237 OA
ATOM    107  O   UNL A   1      52.701  27.236  32.175  1.00  0.00    -0.237 OA
ATOM    108  O   UNL A   1      51.186  27.663  30.278  1.00  0.00    -0.744 OA
ENDBRANCH 101 105
ENDBRANCH  75  98
ENDBRANCH  49  50
ENDBRANCH  41  44
ENDBRANCH  39  40
ENDBRANCH  38  39
ENDBRANCH  37  38
ENDBRANCH   1  37
TORSDOF 21
ENDMDL
