MODEL 1
REMARK VINA RESULT:     -10.3      0.000      0.000
REMARK SMILES CC[C@@](C)([NH2+]CCC(=O)NC(C)C)C(=O)NCCCCCCNC(=O)c1ccc(-c2c3nc(c(-c4cc(S(=O)(=O)[O-])ccc4F)c4ccc([nH]4)c(-c4cc(S(=O)(=O)[O-])ccc4F)c4nc(c(-c5cc(S(=O)(=O)[O-])ccc5F)c5ccc2[nH]5)C=C4)C=C3)cc1
REMARK SMILES IDX 18 1 17 2 16 3 14 4 15 5 3 7 4 8 2 9 1 10 5 11 6 14 7 15
REMARK SMILES IDX 8 16 9 17 10 18 11 20 12 21 13 22 19 23 20 24 21 25 22 26
REMARK SMILES IDX 23 27 24 28 25 30 26 31 27 32 88 33 28 34 87 35 29 36 30 37
REMARK SMILES IDX 31 38 81 39 32 40 86 41 80 42 82 43 33 44 85 45 79 46 78 47
REMARK SMILES IDX 34 49 66 50 46 51 65 52 47 53 50 54 64 55 83 56 48 57 49 58
REMARK SMILES IDX 63 60 84 61 51 62 35 63 36 64 44 65 37 66 43 67 45 68 42 69
REMARK SMILES IDX 38 70 39 71 40 72 41 73 67 74 68 75 76 76 69 77 75 78 77 79
REMARK SMILES IDX 74 80 70 81 71 82 72 83 73 84 52 85 53 86 61 87 54 88 60 89
REMARK SMILES IDX 62 90 59 91 55 92 56 93 57 94 58 95
REMARK H PARENT 16 6 5 12 5 13 10 19 23 29 82 48 50 59
REMARK Flexibility Score: inf
ROOT
ATOM      1  C   UNL A   1      34.303  29.205  26.593  1.00  0.00     0.021 C 
ENDROOT
BRANCH   1   2
ATOM      2  C   UNL A   1      33.659  28.171  25.678  1.00  0.00     0.116 C 
BRANCH   2   3
ATOM      3  N   UNL A   1      33.818  28.553  24.297  1.00  0.00    -0.351 N 
ATOM      4  C   UNL A   1      33.232  28.055  23.174  1.00  0.00     0.281 C 
ATOM      5  O   UNL A   1      33.704  28.445  22.101  1.00  0.00    -0.268 OA
ATOM      6  H   UNL A   1      34.452  29.290  24.140  1.00  0.00     0.163 HD
BRANCH   4   7
ATOM      7  C   UNL A   1      32.017  27.069  23.245  1.00  0.00     0.172 C 
ATOM      8  C   UNL A   1      31.903  26.318  21.904  1.00  0.00     0.090 C 
BRANCH   7   9
ATOM      9  C   UNL A   1      32.327  26.020  24.383  1.00  0.00     0.075 C 
ATOM     10  C   UNL A   1      31.176  25.129  24.839  1.00  0.00     0.011 C 
ENDBRANCH   7   9
BRANCH   7  11
ATOM     11  N   UNL A   1      30.828  27.751  23.823  1.00  0.00    -0.333 N 
ATOM     12  H   UNL A   1      31.153  28.698  24.020  1.00  0.00     0.347 HD
ATOM     13  H   UNL A   1      30.584  27.044  24.515  1.00  0.00     0.347 HD
BRANCH  11  14
ATOM     14  C   UNL A   1      29.496  27.940  23.255  1.00  0.00     0.271 C 
BRANCH  14  15
ATOM     15  C   UNL A   1      29.093  29.202  22.480  1.00  0.00     0.161 C 
BRANCH  15  16
ATOM     16  C   UNL A   1      27.810  29.905  22.893  1.00  0.00     0.225 C 
ATOM     17  O   UNL A   1      26.883  29.271  23.399  1.00  0.00    -0.275 OA
ATOM     18  N   UNL A   1      27.686  31.259  22.809  1.00  0.00    -0.354 N 
ATOM     19  H   UNL A   1      26.904  31.647  23.263  1.00  0.00     0.163 HD
BRANCH  18  20
ATOM     20  C   UNL A   1      28.558  32.199  22.138  1.00  0.00     0.075 C 
ATOM     21  C   UNL A   1      28.010  32.543  20.759  1.00  0.00     0.030 C 
ATOM     22  C   UNL A   1      28.841  33.434  22.979  1.00  0.00     0.030 C 
ENDBRANCH  18  20
ENDBRANCH  15  16
ENDBRANCH  14  15
ENDBRANCH  11  14
ENDBRANCH   7  11
ENDBRANCH   4   7
ENDBRANCH   2   3
ENDBRANCH   1   2
BRANCH   1  23
ATOM     23  C   UNL A   1      33.290  29.899  27.503  1.00  0.00     0.002 C 
BRANCH  23  24
ATOM     24  C   UNL A   1      32.007  30.337  26.788  1.00  0.00     0.002 C 
BRANCH  24  25
ATOM     25  C   UNL A   1      31.706  31.835  26.889  1.00  0.00     0.021 C 
BRANCH  25  26
ATOM     26  C   UNL A   1      32.952  32.710  26.960  1.00  0.00     0.116 C 
BRANCH  26  27
ATOM     27  N   UNL A   1      32.665  33.980  27.609  1.00  0.00    -0.352 N 
ATOM     28  C   UNL A   1      33.161  34.470  28.789  1.00  0.00     0.251 C 
ATOM     29  H   UNL A   1      32.030  34.565  27.137  1.00  0.00     0.163 HD
ATOM     30  O   UNL A   1      32.607  35.405  29.351  1.00  0.00    -0.269 OA
BRANCH  28  31
ATOM     31  C   UNL A   1      34.367  33.845  29.363  1.00  0.00     0.039 A 
ATOM     32  C   UNL A   1      35.626  34.331  29.009  1.00  0.00     0.014 A 
ATOM     33  C   UNL A   1      34.240  32.782  30.263  1.00  0.00     0.014 A 
ATOM     34  C   UNL A   1      36.764  33.779  29.600  1.00  0.00     0.010 A 
ATOM     35  C   UNL A   1      35.367  32.289  30.907  1.00  0.00     0.010 A 
ATOM     36  C   UNL A   1      36.640  32.773  30.574  1.00  0.00    -0.014 A 
BRANCH  36  37
ATOM     37  C   UNL A   1      37.829  32.187  31.243  1.00  0.00     0.031 A 
ATOM     38  C   UNL A   1      38.574  31.063  30.574  1.00  0.00     0.074 A 
ATOM     39  C   UNL A   1      38.185  32.612  32.473  1.00  0.00     0.049 A 
ATOM     40  N   UNL A   1      39.555  30.332  31.035  1.00  0.00    -0.248 NA
ATOM     41  C   UNL A   1      38.137  30.692  29.218  1.00  0.00     0.031 C 
ATOM     42  C   UNL A   1      37.520  33.678  33.225  1.00  0.00     0.029 A 
ATOM     43  N   UNL A   1      39.184  32.189  33.314  1.00  0.00    -0.354 N 
ATOM     44  C   UNL A   1      39.834  29.401  30.040  1.00  0.00     0.074 A 
ATOM     45  C   UNL A   1      38.890  29.630  28.969  1.00  0.00     0.031 C 
ATOM     46  C   UNL A   1      38.140  33.837  34.406  1.00  0.00     0.029 A 
ATOM     47  C   UNL A   1      39.208  32.848  34.523  1.00  0.00     0.049 A 
ATOM     48  H   UNL A   1      39.825  31.481  33.075  1.00  0.00     0.167 HD
ATOM     49  C   UNL A   1      40.801  28.453  30.020  1.00  0.00     0.034 A 
ATOM     50  C   UNL A   1      39.986  32.659  35.608  1.00  0.00     0.034 A 
ATOM     51  C   UNL A   1      41.751  28.261  31.085  1.00  0.00     0.049 A 
ATOM     52  C   UNL A   1      41.036  31.572  35.565  1.00  0.00     0.074 A 
ATOM     53  C   UNL A   1      42.818  27.380  31.134  1.00  0.00     0.029 A 
ATOM     54  N   UNL A   1      41.749  28.951  32.289  1.00  0.00    -0.354 N 
ATOM     55  N   UNL A   1      41.324  30.740  34.591  1.00  0.00    -0.248 NA
ATOM     56  C   UNL A   1      41.870  31.405  36.763  1.00  0.00     0.031 C 
ATOM     57  C   UNL A   1      43.407  27.477  32.397  1.00  0.00     0.029 A 
ATOM     58  C   UNL A   1      42.771  28.488  33.102  1.00  0.00     0.049 A 
ATOM     59  H   UNL A   1      41.116  29.665  32.530  1.00  0.00     0.167 HD
ATOM     60  C   UNL A   1      42.406  29.988  35.043  1.00  0.00     0.074 A 
ATOM     61  C   UNL A   1      42.722  30.469  36.370  1.00  0.00     0.031 C 
ATOM     62  C   UNL A   1      43.082  28.991  34.417  1.00  0.00     0.034 A 
BRANCH  49  63
ATOM     63  C   UNL A   1      40.865  27.531  28.828  1.00  0.00     0.023 A 
ATOM     64  C   UNL A   1      41.839  27.673  27.826  1.00  0.00     0.031 A 
ATOM     65  C   UNL A   1      39.948  26.471  28.710  1.00  0.00     0.131 A 
ATOM     66  C   UNL A   1      41.846  26.799  26.728  1.00  0.00     0.055 A 
ATOM     67  C   UNL A   1      40.006  25.560  27.655  1.00  0.00     0.041 A 
ATOM     68  F   UNL A   1      38.979  26.301  29.624  1.00  0.00    -0.206 F 
ATOM     69  C   UNL A   1      40.955  25.727  26.650  1.00  0.00     0.022 A 
BRANCH  66  70
ATOM     70  S   UNL A   1      42.969  27.146  25.348  1.00  0.00     0.124 S 
ATOM     71  O   UNL A   1      44.194  27.520  26.050  1.00  0.00    -0.237 OA
ATOM     72  O   UNL A   1      43.003  25.871  24.639  1.00  0.00    -0.237 OA
ATOM     73  O   UNL A   1      42.309  28.238  24.635  1.00  0.00    -0.744 OA
ENDBRANCH  66  70
ENDBRANCH  49  63
BRANCH  50  74
ATOM     74  C   UNL A   1      39.804  33.483  36.840  1.00  0.00     0.023 A 
ATOM     75  C   UNL A   1      39.153  32.956  37.968  1.00  0.00     0.031 A 
ATOM     76  C   UNL A   1      40.188  34.836  36.879  1.00  0.00     0.131 A 
ATOM     77  C   UNL A   1      38.831  33.794  39.047  1.00  0.00     0.055 A 
ATOM     78  C   UNL A   1      39.932  35.646  37.987  1.00  0.00     0.041 A 
ATOM     79  F   UNL A   1      40.814  35.396  35.832  1.00  0.00    -0.206 F 
ATOM     80  C   UNL A   1      39.229  35.131  39.072  1.00  0.00     0.022 A 
BRANCH  77  81
ATOM     81  S   UNL A   1      37.750  33.144  40.352  1.00  0.00     0.124 S 
ATOM     82  O   UNL A   1      36.556  32.790  39.594  1.00  0.00    -0.237 OA
ATOM     83  O   UNL A   1      38.537  32.029  40.869  1.00  0.00    -0.237 OA
ATOM     84  O   UNL A   1      37.600  34.275  41.263  1.00  0.00    -0.744 OA
ENDBRANCH  77  81
ENDBRANCH  50  74
BRANCH  62  85
ATOM     85  C   UNL A   1      44.282  28.413  35.127  1.00  0.00     0.023 A 
ATOM     86  C   UNL A   1      44.189  27.279  35.951  1.00  0.00     0.031 A 
ATOM     87  C   UNL A   1      45.546  29.007  34.957  1.00  0.00     0.131 A 
ATOM     88  C   UNL A   1      45.331  26.803  36.613  1.00  0.00     0.055 A 
ATOM     89  C   UNL A   1      46.690  28.489  35.565  1.00  0.00     0.041 A 
ATOM     90  F   UNL A   1      45.693  30.095  34.183  1.00  0.00    -0.206 F 
ATOM     91  C   UNL A   1      46.584  27.388  36.408  1.00  0.00     0.022 A 
BRANCH  88  92
ATOM     92  S   UNL A   1      45.146  25.455  37.813  1.00  0.00     0.124 S 
ATOM     93  O   UNL A   1      46.524  25.004  37.977  1.00  0.00    -0.237 OA
ATOM     94  O   UNL A   1      44.558  26.138  38.961  1.00  0.00    -0.237 OA
ATOM     95  O   UNL A   1      44.260  24.511  37.135  1.00  0.00    -0.744 OA
ENDBRANCH  88  92
ENDBRANCH  62  85
ENDBRANCH  36  37
ENDBRANCH  28  31
ENDBRANCH  26  27
ENDBRANCH  25  26
ENDBRANCH  24  25
ENDBRANCH  23  24
ENDBRANCH   1  23
TORSDOF 22
ENDMDL
MODEL 2
REMARK VINA RESULT:      -9.9      5.838     11.532
REMARK SMILES CC[C@@](C)([NH2+]CCC(=O)NC(C)C)C(=O)NCCCCCCNC(=O)c1ccc(-c2c3nc(c(-c4cc(S(=O)(=O)[O-])ccc4F)c4ccc([nH]4)c(-c4cc(S(=O)(=O)[O-])ccc4F)c4nc(c(-c5cc(S(=O)(=O)[O-])ccc5F)c5ccc2[nH]5)C=C4)C=C3)cc1
REMARK SMILES IDX 18 1 17 2 16 3 14 4 15 5 3 7 4 8 2 9 1 10 5 11 6 14 7 15
REMARK SMILES IDX 8 16 9 17 10 18 11 20 12 21 13 22 19 23 20 24 21 25 22 26
REMARK SMILES IDX 23 27 24 28 25 30 26 31 27 32 88 33 28 34 87 35 29 36 30 37
REMARK SMILES IDX 31 38 81 39 32 40 86 41 80 42 82 43 33 44 85 45 79 46 78 47
REMARK SMILES IDX 34 49 66 50 46 51 65 52 47 53 50 54 64 55 83 56 48 57 49 58
REMARK SMILES IDX 63 60 84 61 51 62 35 63 36 64 44 65 37 66 43 67 45 68 42 69
REMARK SMILES IDX 38 70 39 71 40 72 41 73 67 74 68 75 76 76 69 77 75 78 77 79
REMARK SMILES IDX 74 80 70 81 71 82 72 83 73 84 52 85 53 86 61 87 54 88 60 89
REMARK SMILES IDX 62 90 59 91 55 92 56 93 57 94 58 95
REMARK H PARENT 16 6 5 12 5 13 10 19 23 29 82 48 50 59
REMARK Flexibility Score: inf
ROOT
ATOM      1  C   UNL A   1      35.301  21.981  26.014  1.00  0.00     0.021 C 
ENDROOT
BRANCH   1   2
ATOM      2  C   UNL A   1      33.783  22.110  26.000  1.00  0.00     0.116 C 
BRANCH   2   3
ATOM      3  N   UNL A   1      33.261  21.763  24.702  1.00  0.00    -0.351 N 
ATOM      4  C   UNL A   1      32.788  22.558  23.704  1.00  0.00     0.281 C 
ATOM      5  O   UNL A   1      32.221  21.976  22.773  1.00  0.00    -0.268 OA
ATOM      6  H   UNL A   1      33.243  20.798  24.506  1.00  0.00     0.163 HD
BRANCH   4   7
ATOM      7  C   UNL A   1      32.976  24.113  23.727  1.00  0.00     0.172 C 
ATOM      8  C   UNL A   1      34.451  24.443  23.425  1.00  0.00     0.090 C 
BRANCH   7   9
ATOM      9  C   UNL A   1      32.082  24.713  22.573  1.00  0.00     0.075 C 
ATOM     10  C   UNL A   1      32.772  25.622  21.560  1.00  0.00     0.011 C 
ENDBRANCH   7   9
BRANCH   7  11
ATOM     11  N   UNL A   1      32.308  24.700  24.920  1.00  0.00    -0.333 N 
ATOM     12  H   UNL A   1      32.636  25.665  24.941  1.00  0.00     0.347 HD
ATOM     13  H   UNL A   1      32.549  23.969  25.588  1.00  0.00     0.347 HD
BRANCH  11  14
ATOM     14  C   UNL A   1      30.885  24.796  25.234  1.00  0.00     0.271 C 
BRANCH  14  15
ATOM     15  C   UNL A   1      30.163  26.137  25.423  1.00  0.00     0.161 C 
BRANCH  15  16
ATOM     16  C   UNL A   1      30.252  27.153  24.295  1.00  0.00     0.225 C 
ATOM     17  O   UNL A   1      29.472  27.101  23.343  1.00  0.00    -0.275 OA
ATOM     18  N   UNL A   1      31.122  28.200  24.352  1.00  0.00    -0.354 N 
ATOM     19  H   UNL A   1      30.989  28.905  23.679  1.00  0.00     0.163 HD
BRANCH  18  20
ATOM     20  C   UNL A   1      32.216  28.408  25.277  1.00  0.00     0.075 C 
ATOM     21  C   UNL A   1      33.544  28.058  24.618  1.00  0.00     0.030 C 
ATOM     22  C   UNL A   1      32.212  29.804  25.879  1.00  0.00     0.030 C 
ENDBRANCH  18  20
ENDBRANCH  15  16
ENDBRANCH  14  15
ENDBRANCH  11  14
ENDBRANCH   7  11
ENDBRANCH   4   7
ENDBRANCH   2   3
ENDBRANCH   1   2
BRANCH   1  23
ATOM     23  C   UNL A   1      35.809  20.900  25.061  1.00  0.00     0.002 C 
BRANCH  23  24
ATOM     24  C   UNL A   1      37.263  21.095  24.616  1.00  0.00     0.002 C 
BRANCH  24  25
ATOM     25  C   UNL A   1      38.203  19.948  25.001  1.00  0.00     0.021 C 
BRANCH  25  26
ATOM     26  C   UNL A   1      39.249  20.331  26.041  1.00  0.00     0.116 C 
BRANCH  26  27
ATOM     27  N   UNL A   1      40.369  19.404  26.024  1.00  0.00    -0.352 N 
ATOM     28  C   UNL A   1      41.712  19.682  26.017  1.00  0.00     0.251 C 
ATOM     29  H   UNL A   1      40.131  18.449  26.017  1.00  0.00     0.163 HD
ATOM     30  O   UNL A   1      42.520  18.818  25.702  1.00  0.00    -0.269 OA
BRANCH  28  31
ATOM     31  C   UNL A   1      42.155  21.038  26.391  1.00  0.00     0.039 A 
ATOM     32  C   UNL A   1      42.479  21.311  27.720  1.00  0.00     0.014 A 
ATOM     33  C   UNL A   1      42.258  22.032  25.413  1.00  0.00     0.014 A 
ATOM     34  C   UNL A   1      42.957  22.577  28.062  1.00  0.00     0.010 A 
ATOM     35  C   UNL A   1      42.807  23.264  25.741  1.00  0.00     0.010 A 
ATOM     36  C   UNL A   1      43.151  23.554  27.070  1.00  0.00    -0.014 A 
BRANCH  36  37
ATOM     37  C   UNL A   1      43.686  24.900  27.396  1.00  0.00     0.031 A 
ATOM     38  C   UNL A   1      42.767  25.938  27.981  1.00  0.00     0.074 A 
ATOM     39  C   UNL A   1      44.966  25.204  27.097  1.00  0.00     0.049 A 
ATOM     40  N   UNL A   1      42.997  27.202  28.223  1.00  0.00    -0.248 NA
ATOM     41  C   UNL A   1      41.399  25.504  28.309  1.00  0.00     0.031 C 
ATOM     42  C   UNL A   1      45.939  24.282  26.506  1.00  0.00     0.029 A 
ATOM     43  N   UNL A   1      45.665  26.377  27.234  1.00  0.00    -0.354 N 
ATOM     44  C   UNL A   1      41.799  27.719  28.706  1.00  0.00     0.074 A 
ATOM     45  C   UNL A   1      40.832  26.644  28.679  1.00  0.00     0.031 C 
ATOM     46  C   UNL A   1      47.111  24.919  26.350  1.00  0.00     0.029 A 
ATOM     47  C   UNL A   1      46.960  26.309  26.772  1.00  0.00     0.049 A 
ATOM     48  H   UNL A   1      45.276  27.192  27.627  1.00  0.00     0.167 HD
ATOM     49  C   UNL A   1      41.537  28.974  29.142  1.00  0.00     0.034 A 
ATOM     50  C   UNL A   1      47.908  27.264  26.677  1.00  0.00     0.034 A 
ATOM     51  C   UNL A   1      42.523  30.023  29.189  1.00  0.00     0.049 A 
ATOM     52  C   UNL A   1      47.574  28.663  27.145  1.00  0.00     0.074 A 
ATOM     53  C   UNL A   1      42.384  31.309  29.683  1.00  0.00     0.029 A 
ATOM     54  N   UNL A   1      43.824  29.916  28.719  1.00  0.00    -0.354 N 
ATOM     55  N   UNL A   1      46.452  29.118  27.654  1.00  0.00    -0.248 NA
ATOM     56  C   UNL A   1      48.636  29.672  27.036  1.00  0.00     0.031 C 
ATOM     57  C   UNL A   1      43.571  32.002  29.436  1.00  0.00     0.029 A 
ATOM     58  C   UNL A   1      44.485  31.123  28.876  1.00  0.00     0.049 A 
ATOM     59  H   UNL A   1      44.220  29.102  28.331  1.00  0.00     0.167 HD
ATOM     60  C   UNL A   1      46.695  30.453  27.970  1.00  0.00     0.074 A 
ATOM     61  C   UNL A   1      48.067  30.725  27.603  1.00  0.00     0.031 C 
ATOM     62  C   UNL A   1      45.860  31.372  28.520  1.00  0.00     0.034 A 
BRANCH  49  63
ATOM     63  C   UNL A   1      40.129  29.295  29.578  1.00  0.00     0.023 A 
ATOM     64  C   UNL A   1      39.765  29.370  30.932  1.00  0.00     0.031 A 
ATOM     65  C   UNL A   1      39.139  29.558  28.614  1.00  0.00     0.131 A 
ATOM     66  C   UNL A   1      38.437  29.655  31.285  1.00  0.00     0.055 A 
ATOM     67  C   UNL A   1      37.838  29.914  28.972  1.00  0.00     0.041 A 
ATOM     68  F   UNL A   1      39.422  29.476  27.303  1.00  0.00    -0.206 F 
ATOM     69  C   UNL A   1      37.479  29.956  30.315  1.00  0.00     0.022 A 
BRANCH  66  70
ATOM     70  S   UNL A   1      37.954  29.524  33.028  1.00  0.00     0.124 S 
ATOM     71  O   UNL A   1      39.245  29.623  33.702  1.00  0.00    -0.237 OA
ATOM     72  O   UNL A   1      37.057  30.662  33.194  1.00  0.00    -0.237 OA
ATOM     73  O   UNL A   1      37.315  28.211  33.108  1.00  0.00    -0.744 OA
ENDBRANCH  66  70
ENDBRANCH  49  63
BRANCH  50  74
ATOM     74  C   UNL A   1      49.251  26.963  26.098  1.00  0.00     0.023 A 
ATOM     75  C   UNL A   1      49.602  27.423  24.818  1.00  0.00     0.031 A 
ATOM     76  C   UNL A   1      50.167  26.132  26.769  1.00  0.00     0.131 A 
ATOM     77  C   UNL A   1      50.791  26.983  24.217  1.00  0.00     0.055 A 
ATOM     78  C   UNL A   1      51.385  25.760  26.196  1.00  0.00     0.041 A 
ATOM     79  F   UNL A   1      49.888  25.663  27.995  1.00  0.00    -0.206 F 
ATOM     80  C   UNL A   1      51.693  26.168  24.902  1.00  0.00     0.022 A 
BRANCH  77  81
ATOM     81  S   UNL A   1      51.070  27.373  22.467  1.00  0.00     0.124 S 
ATOM     82  O   UNL A   1      52.389  26.792  22.243  1.00  0.00    -0.237 OA
ATOM     83  O   UNL A   1      49.951  26.693  21.824  1.00  0.00    -0.237 OA
ATOM     84  O   UNL A   1      51.015  28.832  22.430  1.00  0.00    -0.744 OA
ENDBRANCH  77  81
ENDBRANCH  50  74
BRANCH  62  85
ATOM     85  C   UNL A   1      46.435  32.732  28.834  1.00  0.00     0.023 A 
ATOM     86  C   UNL A   1      46.330  33.812  27.941  1.00  0.00     0.031 A 
ATOM     87  C   UNL A   1      47.086  32.948  30.062  1.00  0.00     0.131 A 
ATOM     88  C   UNL A   1      46.910  35.047  28.270  1.00  0.00     0.055 A 
ATOM     89  C   UNL A   1      47.603  34.195  30.411  1.00  0.00     0.041 A 
ATOM     90  F   UNL A   1      47.217  31.950  30.951  1.00  0.00    -0.206 F 
ATOM     91  C   UNL A   1      47.527  35.250  29.508  1.00  0.00     0.022 A 
BRANCH  88  92
ATOM     92  S   UNL A   1      46.922  36.365  27.025  1.00  0.00     0.124 S 
ATOM     93  O   UNL A   1      48.179  36.114  26.329  1.00  0.00    -0.237 OA
ATOM     94  O   UNL A   1      45.706  36.088  26.266  1.00  0.00    -0.237 OA
ATOM     95  O   UNL A   1      46.887  37.590  27.821  1.00  0.00    -0.744 OA
ENDBRANCH  88  92
ENDBRANCH  62  85
ENDBRANCH  36  37
ENDBRANCH  28  31
ENDBRANCH  26  27
ENDBRANCH  25  26
ENDBRANCH  24  25
ENDBRANCH  23  24
ENDBRANCH   1  23
TORSDOF 22
ENDMDL
MODEL 3
REMARK VINA RESULT:      -9.8      4.917      8.112
REMARK SMILES CC[C@@](C)([NH2+]CCC(=O)NC(C)C)C(=O)NCCCCCCNC(=O)c1ccc(-c2c3nc(c(-c4cc(S(=O)(=O)[O-])ccc4F)c4ccc([nH]4)c(-c4cc(S(=O)(=O)[O-])ccc4F)c4nc(c(-c5cc(S(=O)(=O)[O-])ccc5F)c5ccc2[nH]5)C=C4)C=C3)cc1
REMARK SMILES IDX 18 1 17 2 16 3 14 4 15 5 3 7 4 8 2 9 1 10 5 11 6 14 7 15
REMARK SMILES IDX 8 16 9 17 10 18 11 20 12 21 13 22 19 23 20 24 21 25 22 26
REMARK SMILES IDX 23 27 24 28 25 30 26 31 27 32 88 33 28 34 87 35 29 36 30 37
REMARK SMILES IDX 31 38 81 39 32 40 86 41 80 42 82 43 33 44 85 45 79 46 78 47
REMARK SMILES IDX 34 49 66 50 46 51 65 52 47 53 50 54 64 55 83 56 48 57 49 58
REMARK SMILES IDX 63 60 84 61 51 62 35 63 36 64 44 65 37 66 43 67 45 68 42 69
REMARK SMILES IDX 38 70 39 71 40 72 41 73 67 74 68 75 76 76 69 77 75 78 77 79
REMARK SMILES IDX 74 80 70 81 71 82 72 83 73 84 52 85 53 86 61 87 54 88 60 89
REMARK SMILES IDX 62 90 59 91 55 92 56 93 57 94 58 95
REMARK H PARENT 16 6 5 12 5 13 10 19 23 29 82 48 50 59
REMARK Flexibility Score: inf
ROOT
ATOM      1  C   UNL A   1      33.143  22.697  23.517  1.00  0.00     0.021 C 
ENDROOT
BRANCH   1   2
ATOM      2  C   UNL A   1      31.686  22.958  23.880  1.00  0.00     0.116 C 
BRANCH   2   3
ATOM      3  N   UNL A   1      31.547  23.140  25.303  1.00  0.00    -0.351 N 
ATOM      4  C   UNL A   1      31.401  24.279  26.033  1.00  0.00     0.281 C 
ATOM      5  O   UNL A   1      31.501  24.151  27.258  1.00  0.00    -0.268 OA
ATOM      6  H   UNL A   1      31.561  22.309  25.832  1.00  0.00     0.163 HD
BRANCH   4   7
ATOM      7  C   UNL A   1      31.097  25.659  25.357  1.00  0.00     0.172 C 
ATOM      8  C   UNL A   1      29.608  25.707  24.963  1.00  0.00     0.090 C 
BRANCH   7   9
ATOM      9  C   UNL A   1      31.366  26.780  26.436  1.00  0.00     0.075 C 
ATOM     10  C   UNL A   1      32.820  27.169  26.686  1.00  0.00     0.011 C 
ENDBRANCH   7   9
BRANCH   7  11
ATOM     11  N   UNL A   1      32.147  25.990  24.357  1.00  0.00    -0.333 N 
ATOM     12  H   UNL A   1      32.628  25.105  24.196  1.00  0.00     0.347 HD
ATOM     13  H   UNL A   1      32.535  26.807  24.827  1.00  0.00     0.347 HD
BRANCH  11  14
ATOM     14  C   UNL A   1      32.011  26.572  23.024  1.00  0.00     0.271 C 
BRANCH  14  15
ATOM     15  C   UNL A   1      32.518  27.976  22.673  1.00  0.00     0.161 C 
BRANCH  15  16
ATOM     16  C   UNL A   1      32.026  29.139  23.520  1.00  0.00     0.225 C 
ATOM     17  O   UNL A   1      32.724  29.589  24.430  1.00  0.00    -0.275 OA
ATOM     18  N   UNL A   1      30.856  29.776  23.238  1.00  0.00    -0.354 N 
ATOM     19  H   UNL A   1      30.703  30.623  23.714  1.00  0.00     0.163 HD
BRANCH  18  20
ATOM     20  C   UNL A   1      29.808  29.365  22.327  1.00  0.00     0.075 C 
ATOM     21  C   UNL A   1      28.737  28.576  23.068  1.00  0.00     0.030 C 
ATOM     22  C   UNL A   1      29.235  30.529  21.535  1.00  0.00     0.030 C 
ENDBRANCH  18  20
ENDBRANCH  15  16
ENDBRANCH  14  15
ENDBRANCH  11  14
ENDBRANCH   7  11
ENDBRANCH   4   7
ENDBRANCH   2   3
ENDBRANCH   1   2
BRANCH   1  23
ATOM     23  C   UNL A   1      34.118  23.278  24.541  1.00  0.00     0.002 C 
BRANCH  23  24
ATOM     24  C   UNL A   1      35.365  23.917  23.921  1.00  0.00     0.002 C 
BRANCH  24  25
ATOM     25  C   UNL A   1      36.680  23.213  24.272  1.00  0.00     0.021 C 
BRANCH  25  26
ATOM     26  C   UNL A   1      36.918  23.067  25.771  1.00  0.00     0.116 C 
BRANCH  26  27
ATOM     27  N   UNL A   1      38.031  22.171  26.040  1.00  0.00    -0.352 N 
ATOM     28  C   UNL A   1      39.325  22.487  26.367  1.00  0.00     0.251 C 
ATOM     29  H   UNL A   1      37.829  21.210  25.980  1.00  0.00     0.163 HD
ATOM     30  O   UNL A   1      40.209  21.646  26.269  1.00  0.00    -0.269 OA
BRANCH  28  31
ATOM     31  C   UNL A   1      39.624  23.854  26.831  1.00  0.00     0.039 A 
ATOM     32  C   UNL A   1      39.480  24.165  28.184  1.00  0.00     0.014 A 
ATOM     33  C   UNL A   1      40.058  24.820  25.919  1.00  0.00     0.014 A 
ATOM     34  C   UNL A   1      39.822  25.442  28.632  1.00  0.00     0.010 A 
ATOM     35  C   UNL A   1      40.471  26.063  26.380  1.00  0.00     0.010 A 
ATOM     36  C   UNL A   1      40.347  26.391  27.738  1.00  0.00    -0.014 A 
BRANCH  36  37
ATOM     37  C   UNL A   1      40.748  27.748  28.190  1.00  0.00     0.031 A 
ATOM     38  C   UNL A   1      42.211  28.075  28.331  1.00  0.00     0.074 A 
ATOM     39  C   UNL A   1      39.805  28.645  28.540  1.00  0.00     0.049 A 
ATOM     40  N   UNL A   1      42.772  29.149  28.822  1.00  0.00    -0.248 NA
ATOM     41  C   UNL A   1      43.167  27.047  27.890  1.00  0.00     0.031 C 
ATOM     42  C   UNL A   1      38.359  28.426  28.465  1.00  0.00     0.029 A 
ATOM     43  N   UNL A   1      39.919  29.917  29.043  1.00  0.00    -0.354 N 
ATOM     44  C   UNL A   1      44.143  28.915  28.774  1.00  0.00     0.074 A 
ATOM     45  C   UNL A   1      44.326  27.581  28.248  1.00  0.00     0.031 C 
ATOM     46  C   UNL A   1      37.723  29.531  28.888  1.00  0.00     0.029 A 
ATOM     47  C   UNL A   1      38.710  30.516  29.320  1.00  0.00     0.049 A 
ATOM     48  H   UNL A   1      40.785  30.361  29.191  1.00  0.00     0.167 HD
ATOM     49  C   UNL A   1      45.152  29.747  29.124  1.00  0.00     0.034 A 
ATOM     50  C   UNL A   1      38.433  31.710  29.881  1.00  0.00     0.034 A 
ATOM     51  C   UNL A   1      44.949  31.084  29.619  1.00  0.00     0.049 A 
ATOM     52  C   UNL A   1      39.583  32.603  30.289  1.00  0.00     0.074 A 
ATOM     53  C   UNL A   1      45.903  32.037  29.932  1.00  0.00     0.029 A 
ATOM     54  N   UNL A   1      43.712  31.658  29.880  1.00  0.00    -0.354 N 
ATOM     55  N   UNL A   1      40.874  32.388  30.180  1.00  0.00    -0.248 NA
ATOM     56  C   UNL A   1      39.239  33.900  30.886  1.00  0.00     0.031 C 
ATOM     57  C   UNL A   1      45.248  33.152  30.461  1.00  0.00     0.029 A 
ATOM     58  C   UNL A   1      43.881  32.936  30.387  1.00  0.00     0.049 A 
ATOM     59  H   UNL A   1      42.843  31.221  29.727  1.00  0.00     0.167 HD
ATOM     60  C   UNL A   1      41.491  33.545  30.648  1.00  0.00     0.074 A 
ATOM     61  C   UNL A   1      40.434  34.455  31.032  1.00  0.00     0.031 C 
ATOM     62  C   UNL A   1      42.813  33.835  30.749  1.00  0.00     0.034 A 
BRANCH  49  63
ATOM     63  C   UNL A   1      46.566  29.231  29.016  1.00  0.00     0.023 A 
ATOM     64  C   UNL A   1      47.248  29.176  27.789  1.00  0.00     0.031 A 
ATOM     65  C   UNL A   1      47.251  28.813  30.171  1.00  0.00     0.131 A 
ATOM     66  C   UNL A   1      48.557  28.672  27.740  1.00  0.00     0.055 A 
ATOM     67  C   UNL A   1      48.578  28.383  30.126  1.00  0.00     0.041 A 
ATOM     68  F   UNL A   1      46.641  28.820  31.368  1.00  0.00    -0.206 F 
ATOM     69  C   UNL A   1      49.236  28.303  28.903  1.00  0.00     0.022 A 
BRANCH  66  70
ATOM     70  S   UNL A   1      49.325  28.406  26.118  1.00  0.00     0.124 S 
ATOM     71  O   UNL A   1      50.233  29.547  26.030  1.00  0.00    -0.237 OA
ATOM     72  O   UNL A   1      49.955  27.099  26.277  1.00  0.00    -0.237 OA
ATOM     73  O   UNL A   1      48.194  28.444  25.193  1.00  0.00    -0.744 OA
ENDBRANCH  66  70
ENDBRANCH  49  63
BRANCH  50  74
ATOM     74  C   UNL A   1      37.023  32.140  30.122  1.00  0.00     0.023 A 
ATOM     75  C   UNL A   1      36.283  32.779  29.114  1.00  0.00     0.031 A 
ATOM     76  C   UNL A   1      36.426  32.009  31.389  1.00  0.00     0.131 A 
ATOM     77  C   UNL A   1      35.029  33.334  29.409  1.00  0.00     0.055 A 
ATOM     78  C   UNL A   1      35.145  32.497  31.657  1.00  0.00     0.041 A 
ATOM     79  F   UNL A   1      37.083  31.407  32.392  1.00  0.00    -0.206 F 
ATOM     80  C   UNL A   1      34.447  33.185  30.669  1.00  0.00     0.022 A 
BRANCH  77  81
ATOM     81  S   UNL A   1      34.235  34.387  28.163  1.00  0.00     0.124 S 
ATOM     82  O   UNL A   1      34.078  35.640  28.892  1.00  0.00    -0.237 OA
ATOM     83  O   UNL A   1      35.227  34.387  27.091  1.00  0.00    -0.237 OA
ATOM     84  O   UNL A   1      32.993  33.680  27.860  1.00  0.00    -0.744 OA
ENDBRANCH  77  81
ENDBRANCH  50  74
BRANCH  62  85
ATOM     85  C   UNL A   1      43.188  35.221  31.216  1.00  0.00     0.023 A 
ATOM     86  C   UNL A   1      43.243  35.561  32.578  1.00  0.00     0.031 A 
ATOM     87  C   UNL A   1      43.510  36.212  30.271  1.00  0.00     0.131 A 
ATOM     88  C   UNL A   1      43.566  36.874  32.956  1.00  0.00     0.055 A 
ATOM     89  C   UNL A   1      43.894  37.497  30.655  1.00  0.00     0.041 A 
ATOM     90  F   UNL A   1      43.470  35.943  28.956  1.00  0.00    -0.206 F 
ATOM     91  C   UNL A   1      43.912  37.837  32.003  1.00  0.00     0.022 A 
BRANCH  88  92
ATOM     92  S   UNL A   1      43.449  37.332  34.707  1.00  0.00     0.124 S 
ATOM     93  O   UNL A   1      44.228  38.565  34.750  1.00  0.00    -0.237 OA
ATOM     94  O   UNL A   1      42.009  37.480  34.895  1.00  0.00    -0.237 OA
ATOM     95  O   UNL A   1      44.049  36.194  35.400  1.00  0.00    -0.744 OA
ENDBRANCH  88  92
ENDBRANCH  62  85
ENDBRANCH  36  37
ENDBRANCH  28  31
ENDBRANCH  26  27
ENDBRANCH  25  26
ENDBRANCH  24  25
ENDBRANCH  23  24
ENDBRANCH   1  23
TORSDOF 22
ENDMDL
