MODEL 1
REMARK VINA RESULT:     -12.1      0.000      0.000
REMARK SMILES C[C@@H]1CCC[C@@]1(C(=O)NCCCCCCNC(=O)c1ccc(-c2c3nc(c(-c4cc(S(=O)(=O)[O-])ccc4F)c4ccc([nH]4)c(-c4cc(S(=O)(=O)[O-])ccc4F)c4nc(c(-c5cc(S(=O)(=O)[O-])ccc5F)c5ccc2[nH]5)C=C4)C=C3)cc1)c1ccc(Cl)cc1Cl
REMARK SMILES IDX 13 1 12 2 11 3 10 4 9 5 7 6 8 7 6 9 1 10 2 11 3 12 4 13 5 14
REMARK SMILES IDX 82 15 83 16 88 17 84 18 87 19 89 20 85 21 86 22 14 23 15 24
REMARK SMILES IDX 16 25 17 26 18 28 19 29 20 30 81 31 21 32 80 33 22 34 23 35
REMARK SMILES IDX 24 36 74 37 25 38 79 39 73 40 75 41 26 42 78 43 72 44 71 45
REMARK SMILES IDX 27 47 59 48 39 49 58 50 40 51 43 52 57 53 76 54 41 55 42 56
REMARK SMILES IDX 56 58 77 59 44 60 28 61 29 62 37 63 30 64 36 65 38 66 35 67
REMARK SMILES IDX 31 68 32 69 33 70 34 71 60 72 61 73 69 74 62 75 68 76 70 77
REMARK SMILES IDX 67 78 63 79 64 80 65 81 66 82 45 83 46 84 54 85 47 86 53 87
REMARK SMILES IDX 55 88 52 89 48 90 49 91 50 92 51 93
REMARK H PARENT 9 8 16 27 75 46 43 57
REMARK Flexibility Score: inf
ROOT
ATOM      1  C   UNL A   1      31.511  27.587  26.528  1.00  0.00     0.002 C 
ENDROOT
BRANCH   1   2
ATOM      2  C   UNL A   1      31.680  26.222  25.854  1.00  0.00     0.002 C 
BRANCH   2   3
ATOM      3  C   UNL A   1      30.517  25.255  26.073  1.00  0.00     0.021 C 
BRANCH   3   4
ATOM      4  C   UNL A   1      30.916  23.790  25.982  1.00  0.00     0.116 C 
BRANCH   4   5
ATOM      5  N   UNL A   1      32.100  23.498  26.764  1.00  0.00    -0.355 N 
ATOM      6  C   UNL A   1      33.281  22.922  26.368  1.00  0.00     0.230 C 
ATOM      7  O   UNL A   1      34.159  22.773  27.220  1.00  0.00    -0.274 OA
ATOM      8  H   UNL A   1      32.050  23.748  27.715  1.00  0.00     0.163 HD
BRANCH   6   9
ATOM      9  C   UNL A   1      33.437  22.429  24.902  1.00  0.00     0.078 C 
ATOM     10  C   UNL A   1      34.668  24.768  24.803  1.00  0.00     0.009 C 
ATOM     11  C   UNL A   1      34.601  23.313  24.276  1.00  0.00     0.006 C 
ATOM     12  C   UNL A   1      34.311  23.407  22.776  1.00  0.00     0.005 C 
ATOM     13  C   UNL A   1      32.816  23.179  22.622  1.00  0.00     0.002 C 
ATOM     14  C   UNL A   1      32.248  22.854  24.008  1.00  0.00     0.022 C 
BRANCH   9  15
ATOM     15  C   UNL A   1      33.577  20.869  24.834  1.00  0.00    -0.013 A 
ATOM     16  C   UNL A   1      32.439  20.057  24.653  1.00  0.00     0.008 A 
ATOM     17  C   UNL A   1      34.820  20.178  24.884  1.00  0.00     0.046 A 
ATOM     18  C   UNL A   1      32.528  18.679  24.418  1.00  0.00     0.021 A 
ATOM     19  C   UNL A   1      34.914  18.810  24.581  1.00  0.00     0.041 A 
ATOM     20  Cl  UNL A   1      36.323  20.900  25.353  1.00  0.00    -0.084 Cl
ATOM     21  C   UNL A   1      33.769  18.069  24.336  1.00  0.00     0.042 A 
ATOM     22  Cl  UNL A   1      33.889  16.398  23.957  1.00  0.00    -0.084 Cl
ENDBRANCH   9  15
ENDBRANCH   6   9
ENDBRANCH   4   5
ENDBRANCH   3   4
ENDBRANCH   2   3
ENDBRANCH   1   2
BRANCH   1  23
ATOM     23  C   UNL A   1      32.793  28.184  27.115  1.00  0.00     0.021 C 
BRANCH  23  24
ATOM     24  C   UNL A   1      33.617  29.005  26.131  1.00  0.00     0.116 C 
BRANCH  24  25
ATOM     25  N   UNL A   1      33.636  30.413  26.484  1.00  0.00    -0.352 N 
ATOM     26  C   UNL A   1      34.460  31.066  27.362  1.00  0.00     0.251 C 
ATOM     27  H   UNL A   1      32.966  30.975  26.030  1.00  0.00     0.163 HD
ATOM     28  O   UNL A   1      34.202  32.216  27.709  1.00  0.00    -0.269 OA
BRANCH  26  29
ATOM     29  C   UNL A   1      35.640  30.362  27.900  1.00  0.00     0.039 A 
ATOM     30  C   UNL A   1      36.838  30.405  27.187  1.00  0.00     0.014 A 
ATOM     31  C   UNL A   1      35.563  29.682  29.119  1.00  0.00     0.014 A 
ATOM     32  C   UNL A   1      37.979  29.807  27.725  1.00  0.00     0.010 A 
ATOM     33  C   UNL A   1      36.718  29.158  29.690  1.00  0.00     0.010 A 
ATOM     34  C   UNL A   1      37.936  29.210  28.995  1.00  0.00    -0.014 A 
BRANCH  34  35
ATOM     35  C   UNL A   1      39.152  28.617  29.609  1.00  0.00     0.031 A 
ATOM     36  C   UNL A   1      39.688  29.172  30.899  1.00  0.00     0.074 A 
ATOM     37  C   UNL A   1      39.802  27.622  28.974  1.00  0.00     0.049 A 
ATOM     38  N   UNL A   1      40.773  28.848  31.553  1.00  0.00    -0.248 NA
ATOM     39  C   UNL A   1      38.913  30.257  31.518  1.00  0.00     0.031 C 
ATOM     40  C   UNL A   1      39.394  27.022  27.702  1.00  0.00     0.029 A 
ATOM     41  N   UNL A   1      40.944  26.940  29.309  1.00  0.00    -0.354 N 
ATOM     42  C   UNL A   1      40.816  29.695  32.657  1.00  0.00     0.074 A 
ATOM     43  C   UNL A   1      39.689  30.595  32.536  1.00  0.00     0.031 C 
ATOM     44  C   UNL A   1      40.252  26.041  27.383  1.00  0.00     0.029 A 
ATOM     45  C   UNL A   1      41.301  25.976  28.395  1.00  0.00     0.049 A 
ATOM     46  H   UNL A   1      41.460  27.123  30.128  1.00  0.00     0.167 HD
ATOM     47  C   UNL A   1      41.698  29.702  33.687  1.00  0.00     0.034 A 
ATOM     48  C   UNL A   1      42.362  25.144  28.370  1.00  0.00     0.034 A 
ATOM     49  C   UNL A   1      42.816  28.796  33.787  1.00  0.00     0.049 A 
ATOM     50  C   UNL A   1      43.361  25.207  29.497  1.00  0.00     0.074 A 
ATOM     51  C   UNL A   1      43.750  28.687  34.803  1.00  0.00     0.029 A 
ATOM     52  N   UNL A   1      43.159  27.847  32.831  1.00  0.00    -0.354 N 
ATOM     53  N   UNL A   1      43.368  25.986  30.554  1.00  0.00    -0.248 NA
ATOM     54  C   UNL A   1      44.490  24.272  29.431  1.00  0.00     0.031 C 
ATOM     55  C   UNL A   1      44.700  27.732  34.424  1.00  0.00     0.029 A 
ATOM     56  C   UNL A   1      44.310  27.176  33.216  1.00  0.00     0.049 A 
ATOM     57  H   UNL A   1      42.658  27.675  32.002  1.00  0.00     0.167 HD
ATOM     58  C   UNL A   1      44.483  25.607  31.298  1.00  0.00     0.074 A 
ATOM     59  C   UNL A   1      45.115  24.525  30.572  1.00  0.00     0.031 C 
ATOM     60  C   UNL A   1      44.938  26.104  32.477  1.00  0.00     0.034 A 
BRANCH  47  61
ATOM     61  C   UNL A   1      41.494  30.743  34.765  1.00  0.00     0.023 A 
ATOM     62  C   UNL A   1      40.332  30.768  35.557  1.00  0.00     0.031 A 
ATOM     63  C   UNL A   1      42.450  31.753  34.975  1.00  0.00     0.131 A 
ATOM     64  C   UNL A   1      40.112  31.827  36.449  1.00  0.00     0.055 A 
ATOM     65  C   UNL A   1      42.269  32.752  35.934  1.00  0.00     0.041 A 
ATOM     66  F   UNL A   1      43.570  31.800  34.235  1.00  0.00    -0.206 F 
ATOM     67  C   UNL A   1      41.086  32.805  36.664  1.00  0.00     0.022 A 
BRANCH  64  68
ATOM     68  S   UNL A   1      38.465  32.007  37.187  1.00  0.00     0.124 S 
ATOM     69  O   UNL A   1      37.929  30.656  37.042  1.00  0.00    -0.237 OA
ATOM     70  O   UNL A   1      38.775  32.430  38.548  1.00  0.00    -0.237 OA
ATOM     71  O   UNL A   1      37.822  33.017  36.350  1.00  0.00    -0.744 OA
ENDBRANCH  64  68
ENDBRANCH  47  61
BRANCH  48  72
ATOM     72  C   UNL A   1      42.540  24.183  27.244  1.00  0.00     0.023 A 
ATOM     73  C   UNL A   1      41.933  22.918  27.273  1.00  0.00     0.031 A 
ATOM     74  C   UNL A   1      43.349  24.500  26.138  1.00  0.00     0.131 A 
ATOM     75  C   UNL A   1      42.182  21.997  26.243  1.00  0.00     0.055 A 
ATOM     76  C   UNL A   1      43.546  23.603  25.086  1.00  0.00     0.041 A 
ATOM     77  F   UNL A   1      43.952  25.697  26.057  1.00  0.00    -0.206 F 
ATOM     78  C   UNL A   1      42.970  22.337  25.142  1.00  0.00     0.022 A 
BRANCH  75  79
ATOM     79  S   UNL A   1      41.528  20.314  26.407  1.00  0.00     0.124 S 
ATOM     80  O   UNL A   1      40.104  20.526  26.173  1.00  0.00    -0.237 OA
ATOM     81  O   UNL A   1      42.252  19.603  25.358  1.00  0.00    -0.237 OA
ATOM     82  O   UNL A   1      41.889  19.942  27.773  1.00  0.00    -0.744 OA
ENDBRANCH  75  79
ENDBRANCH  48  72
BRANCH  60  83
ATOM     83  C   UNL A   1      46.154  25.439  33.081  1.00  0.00     0.023 A 
ATOM     84  C   UNL A   1      46.044  24.372  33.988  1.00  0.00     0.031 A 
ATOM     85  C   UNL A   1      47.443  25.891  32.745  1.00  0.00     0.131 A 
ATOM     86  C   UNL A   1      47.200  23.831  34.572  1.00  0.00     0.055 A 
ATOM     87  C   UNL A   1      48.591  25.304  33.277  1.00  0.00     0.041 A 
ATOM     88  F   UNL A   1      47.608  26.912  31.887  1.00  0.00    -0.206 F 
ATOM     89  C   UNL A   1      48.473  24.276  34.207  1.00  0.00     0.022 A 
BRANCH  86  90
ATOM     90  S   UNL A   1      47.014  22.603  35.895  1.00  0.00     0.124 S 
ATOM     91  O   UNL A   1      45.950  23.188  36.704  1.00  0.00    -0.237 OA
ATOM     92  O   UNL A   1      46.661  21.397  35.154  1.00  0.00    -0.237 OA
ATOM     93  O   UNL A   1      48.332  22.578  36.528  1.00  0.00    -0.744 OA
ENDBRANCH  86  90
ENDBRANCH  60  83
ENDBRANCH  34  35
ENDBRANCH  26  29
ENDBRANCH  24  25
ENDBRANCH  23  24
ENDBRANCH   1  23
TORSDOF 17
ENDMDL
MODEL 2
REMARK VINA RESULT:     -12.1      3.430      8.771
REMARK SMILES C[C@@H]1CCC[C@@]1(C(=O)NCCCCCCNC(=O)c1ccc(-c2c3nc(c(-c4cc(S(=O)(=O)[O-])ccc4F)c4ccc([nH]4)c(-c4cc(S(=O)(=O)[O-])ccc4F)c4nc(c(-c5cc(S(=O)(=O)[O-])ccc5F)c5ccc2[nH]5)C=C4)C=C3)cc1)c1ccc(Cl)cc1Cl
REMARK SMILES IDX 13 1 12 2 11 3 10 4 9 5 7 6 8 7 6 9 1 10 2 11 3 12 4 13 5 14
REMARK SMILES IDX 82 15 83 16 88 17 84 18 87 19 89 20 85 21 86 22 14 23 15 24
REMARK SMILES IDX 16 25 17 26 18 28 19 29 20 30 81 31 21 32 80 33 22 34 23 35
REMARK SMILES IDX 24 36 74 37 25 38 79 39 73 40 75 41 26 42 78 43 72 44 71 45
REMARK SMILES IDX 27 47 59 48 39 49 58 50 40 51 43 52 57 53 76 54 41 55 42 56
REMARK SMILES IDX 56 58 77 59 44 60 28 61 29 62 37 63 30 64 36 65 38 66 35 67
REMARK SMILES IDX 31 68 32 69 33 70 34 71 60 72 61 73 69 74 62 75 68 76 70 77
REMARK SMILES IDX 67 78 63 79 64 80 65 81 66 82 45 83 46 84 54 85 47 86 53 87
REMARK SMILES IDX 55 88 52 89 48 90 49 91 50 92 51 93
REMARK H PARENT 9 8 16 27 75 46 43 57
REMARK Flexibility Score: inf
ROOT
ATOM      1  C   UNL A   1      31.994  30.455  26.047  1.00  0.00     0.002 C 
ENDROOT
BRANCH   1   2
ATOM      2  C   UNL A   1      31.761  29.187  26.874  1.00  0.00     0.002 C 
BRANCH   2   3
ATOM      3  C   UNL A   1      33.001  28.316  27.066  1.00  0.00     0.021 C 
BRANCH   3   4
ATOM      4  C   UNL A   1      32.912  26.965  26.372  1.00  0.00     0.116 C 
BRANCH   4   5
ATOM      5  N   UNL A   1      31.847  26.144  26.913  1.00  0.00    -0.355 N 
ATOM      6  C   UNL A   1      31.369  24.939  26.465  1.00  0.00     0.230 C 
ATOM      7  O   UNL A   1      30.446  24.419  27.094  1.00  0.00    -0.274 OA
ATOM      8  H   UNL A   1      31.404  26.502  27.716  1.00  0.00     0.163 HD
BRANCH   6   9
ATOM      9  C   UNL A   1      31.955  24.319  25.164  1.00  0.00     0.078 C 
ATOM     10  C   UNL A   1      30.217  26.054  24.183  1.00  0.00     0.009 C 
ATOM     11  C   UNL A   1      31.576  25.334  24.001  1.00  0.00     0.006 C 
ATOM     12  C   UNL A   1      31.457  24.497  22.723  1.00  0.00     0.005 C 
ATOM     13  C   UNL A   1      31.144  23.081  23.176  1.00  0.00     0.002 C 
ATOM     14  C   UNL A   1      31.178  23.062  24.709  1.00  0.00     0.022 C 
BRANCH   9  15
ATOM     15  C   UNL A   1      33.464  23.932  25.344  1.00  0.00    -0.013 A 
ATOM     16  C   UNL A   1      34.427  24.357  24.406  1.00  0.00     0.008 A 
ATOM     17  C   UNL A   1      33.972  23.203  26.455  1.00  0.00     0.046 A 
ATOM     18  C   UNL A   1      35.802  24.183  24.610  1.00  0.00     0.021 A 
ATOM     19  C   UNL A   1      35.352  23.089  26.692  1.00  0.00     0.041 A 
ATOM     20  Cl  UNL A   1      32.990  22.352  27.600  1.00  0.00    -0.084 Cl
ATOM     21  C   UNL A   1      36.261  23.591  25.775  1.00  0.00     0.042 A 
ATOM     22  Cl  UNL A   1      37.948  23.457  26.072  1.00  0.00    -0.084 Cl
ENDBRANCH   9  15
ENDBRANCH   6   9
ENDBRANCH   4   5
ENDBRANCH   3   4
ENDBRANCH   2   3
ENDBRANCH   1   2
BRANCH   1  23
ATOM     23  C   UNL A   1      31.685  31.769  26.772  1.00  0.00     0.021 C 
BRANCH  23  24
ATOM     24  C   UNL A   1      32.903  32.469  27.359  1.00  0.00     0.116 C 
BRANCH  24  25
ATOM     25  N   UNL A   1      32.647  33.875  27.617  1.00  0.00    -0.352 N 
ATOM     26  C   UNL A   1      33.183  34.681  28.587  1.00  0.00     0.251 C 
ATOM     27  H   UNL A   1      32.000  34.308  27.014  1.00  0.00     0.163 HD
ATOM     28  O   UNL A   1      32.698  35.788  28.806  1.00  0.00    -0.269 OA
BRANCH  26  29
ATOM     29  C   UNL A   1      34.331  34.190  29.375  1.00  0.00     0.039 A 
ATOM     30  C   UNL A   1      34.092  33.459  30.539  1.00  0.00     0.014 A 
ATOM     31  C   UNL A   1      35.639  34.435  28.946  1.00  0.00     0.014 A 
ATOM     32  C   UNL A   1      35.169  32.926  31.247  1.00  0.00     0.010 A 
ATOM     33  C   UNL A   1      36.705  33.835  29.609  1.00  0.00     0.010 A 
ATOM     34  C   UNL A   1      36.481  33.081  30.770  1.00  0.00    -0.014 A 
BRANCH  34  35
ATOM     35  C   UNL A   1      37.635  32.474  31.481  1.00  0.00     0.031 A 
ATOM     36  C   UNL A   1      38.389  31.334  30.852  1.00  0.00     0.074 A 
ATOM     37  C   UNL A   1      37.966  32.911  32.711  1.00  0.00     0.049 A 
ATOM     38  N   UNL A   1      39.370  30.621  31.339  1.00  0.00    -0.248 NA
ATOM     39  C   UNL A   1      37.956  30.925  29.508  1.00  0.00     0.031 C 
ATOM     40  C   UNL A   1      37.289  33.990  33.435  1.00  0.00     0.029 A 
ATOM     41  N   UNL A   1      38.951  32.502  33.574  1.00  0.00    -0.354 N 
ATOM     42  C   UNL A   1      39.669  29.673  30.365  1.00  0.00     0.074 A 
ATOM     43  C   UNL A   1      38.710  29.857  29.297  1.00  0.00     0.031 C 
ATOM     44  C   UNL A   1      37.901  34.178  34.615  1.00  0.00     0.029 A 
ATOM     45  C   UNL A   1      38.975  33.202  34.758  1.00  0.00     0.049 A 
ATOM     46  H   UNL A   1      39.581  31.775  33.365  1.00  0.00     0.167 HD
ATOM     47  C   UNL A   1      40.665  28.753  30.353  1.00  0.00     0.034 A 
ATOM     48  C   UNL A   1      39.765  33.062  35.841  1.00  0.00     0.034 A 
ATOM     49  C   UNL A   1      41.609  28.586  31.431  1.00  0.00     0.049 A 
ATOM     50  C   UNL A   1      40.831  31.996  35.830  1.00  0.00     0.074 A 
ATOM     51  C   UNL A   1      42.682  27.714  31.511  1.00  0.00     0.029 A 
ATOM     52  N   UNL A   1      41.590  29.298  32.624  1.00  0.00    -0.354 N 
ATOM     53  N   UNL A   1      41.127  31.132  34.885  1.00  0.00    -0.248 NA
ATOM     54  C   UNL A   1      41.675  31.892  37.026  1.00  0.00     0.031 C 
ATOM     55  C   UNL A   1      43.258  27.843  32.779  1.00  0.00     0.029 A 
ATOM     56  C   UNL A   1      42.608  28.860  33.459  1.00  0.00     0.049 A 
ATOM     57  H   UNL A   1      40.948  30.011  32.845  1.00  0.00     0.167 HD
ATOM     58  C   UNL A   1      42.218  30.408  35.362  1.00  0.00     0.074 A 
ATOM     59  C   UNL A   1      42.530  30.945  36.671  1.00  0.00     0.031 C 
ATOM     60  C   UNL A   1      42.902  29.397  34.768  1.00  0.00     0.034 A 
BRANCH  47  61
ATOM     61  C   UNL A   1      40.755  27.848  29.146  1.00  0.00     0.023 A 
ATOM     62  C   UNL A   1      41.689  28.077  28.118  1.00  0.00     0.031 A 
ATOM     63  C   UNL A   1      39.869  26.767  28.994  1.00  0.00     0.131 A 
ATOM     64  C   UNL A   1      41.652  27.303  26.950  1.00  0.00     0.055 A 
ATOM     65  C   UNL A   1      39.902  25.939  27.870  1.00  0.00     0.041 A 
ATOM     66  F   UNL A   1      38.939  26.507  29.927  1.00  0.00    -0.206 F 
ATOM     67  C   UNL A   1      40.784  26.216  26.830  1.00  0.00     0.022 A 
BRANCH  64  68
ATOM     68  S   UNL A   1      42.629  27.848  25.522  1.00  0.00     0.124 S 
ATOM     69  O   UNL A   1      41.813  28.948  25.012  1.00  0.00    -0.237 OA
ATOM     70  O   UNL A   1      43.898  28.223  26.134  1.00  0.00    -0.237 OA
ATOM     71  O   UNL A   1      42.672  26.666  24.665  1.00  0.00    -0.744 OA
ENDBRANCH  64  68
ENDBRANCH  47  61
BRANCH  48  72
ATOM     72  C   UNL A   1      39.582  33.946  37.028  1.00  0.00     0.023 A 
ATOM     73  C   UNL A   1      38.993  33.460  38.206  1.00  0.00     0.031 A 
ATOM     74  C   UNL A   1      39.961  35.300  36.992  1.00  0.00     0.131 A 
ATOM     75  C   UNL A   1      38.755  34.330  39.281  1.00  0.00     0.055 A 
ATOM     76  C   UNL A   1      39.775  36.148  38.086  1.00  0.00     0.041 A 
ATOM     77  F   UNL A   1      40.530  35.817  35.892  1.00  0.00    -0.206 F 
ATOM     78  C   UNL A   1      39.156  35.666  39.235  1.00  0.00     0.022 A 
BRANCH  75  79
ATOM     79  S   UNL A   1      37.829  33.708  40.711  1.00  0.00     0.124 S 
ATOM     80  O   UNL A   1      38.849  32.934  41.409  1.00  0.00    -0.237 OA
ATOM     81  O   UNL A   1      37.406  34.945  41.360  1.00  0.00    -0.237 OA
ATOM     82  O   UNL A   1      36.754  32.926  40.106  1.00  0.00    -0.744 OA
ENDBRANCH  75  79
ENDBRANCH  48  72
BRANCH  60  83
ATOM     83  C   UNL A   1      44.094  28.842  35.513  1.00  0.00     0.023 A 
ATOM     84  C   UNL A   1      43.982  27.746  36.386  1.00  0.00     0.031 A 
ATOM     85  C   UNL A   1      45.362  29.429  35.350  1.00  0.00     0.131 A 
ATOM     86  C   UNL A   1      45.105  27.309  37.106  1.00  0.00     0.055 A 
ATOM     87  C   UNL A   1      46.489  28.946  36.016  1.00  0.00     0.041 A 
ATOM     88  F   UNL A   1      45.528  30.483  34.533  1.00  0.00    -0.206 F 
ATOM     89  C   UNL A   1      46.362  27.888  36.911  1.00  0.00     0.022 A 
BRANCH  86  90
ATOM     90  S   UNL A   1      44.882  26.035  38.379  1.00  0.00     0.124 S 
ATOM     91  O   UNL A   1      44.215  26.782  39.440  1.00  0.00    -0.237 OA
ATOM     92  O   UNL A   1      44.065  25.043  37.688  1.00  0.00    -0.237 OA
ATOM     93  O   UNL A   1      46.247  25.610  38.683  1.00  0.00    -0.744 OA
ENDBRANCH  86  90
ENDBRANCH  60  83
ENDBRANCH  34  35
ENDBRANCH  26  29
ENDBRANCH  24  25
ENDBRANCH  23  24
ENDBRANCH   1  23
TORSDOF 17
ENDMDL
MODEL 3
REMARK VINA RESULT:     -12.0      5.002      9.851
REMARK SMILES C[C@@H]1CCC[C@@]1(C(=O)NCCCCCCNC(=O)c1ccc(-c2c3nc(c(-c4cc(S(=O)(=O)[O-])ccc4F)c4ccc([nH]4)c(-c4cc(S(=O)(=O)[O-])ccc4F)c4nc(c(-c5cc(S(=O)(=O)[O-])ccc5F)c5ccc2[nH]5)C=C4)C=C3)cc1)c1ccc(Cl)cc1Cl
REMARK SMILES IDX 13 1 12 2 11 3 10 4 9 5 7 6 8 7 6 9 1 10 2 11 3 12 4 13 5 14
REMARK SMILES IDX 82 15 83 16 88 17 84 18 87 19 89 20 85 21 86 22 14 23 15 24
REMARK SMILES IDX 16 25 17 26 18 28 19 29 20 30 81 31 21 32 80 33 22 34 23 35
REMARK SMILES IDX 24 36 74 37 25 38 79 39 73 40 75 41 26 42 78 43 72 44 71 45
REMARK SMILES IDX 27 47 59 48 39 49 58 50 40 51 43 52 57 53 76 54 41 55 42 56
REMARK SMILES IDX 56 58 77 59 44 60 28 61 29 62 37 63 30 64 36 65 38 66 35 67
REMARK SMILES IDX 31 68 32 69 33 70 34 71 60 72 61 73 69 74 62 75 68 76 70 77
REMARK SMILES IDX 67 78 63 79 64 80 65 81 66 82 45 83 46 84 54 85 47 86 53 87
REMARK SMILES IDX 55 88 52 89 48 90 49 91 50 92 51 93
REMARK H PARENT 9 8 16 27 75 46 43 57
REMARK Flexibility Score: inf
ROOT
ATOM      1  C   UNL A   1      35.426  22.275  24.036  1.00  0.00     0.002 C 
ENDROOT
BRANCH   1   2
ATOM      2  C   UNL A   1      35.082  23.749  23.806  1.00  0.00     0.002 C 
BRANCH   2   3
ATOM      3  C   UNL A   1      34.802  24.544  25.080  1.00  0.00     0.021 C 
BRANCH   3   4
ATOM      4  C   UNL A   1      34.017  25.825  24.839  1.00  0.00     0.116 C 
BRANCH   4   5
ATOM      5  N   UNL A   1      33.223  26.201  25.991  1.00  0.00    -0.355 N 
ATOM      6  C   UNL A   1      31.859  26.203  26.141  1.00  0.00     0.230 C 
ATOM      7  O   UNL A   1      31.402  26.567  27.226  1.00  0.00    -0.274 OA
ATOM      8  H   UNL A   1      33.734  26.498  26.778  1.00  0.00     0.163 HD
BRANCH   6   9
ATOM      9  C   UNL A   1      30.956  25.817  24.935  1.00  0.00     0.078 C 
ATOM     10  C   UNL A   1      31.467  28.360  24.416  1.00  0.00     0.009 C 
ATOM     11  C   UNL A   1      31.199  26.946  23.842  1.00  0.00     0.006 C 
ATOM     12  C   UNL A   1      29.904  27.044  23.031  1.00  0.00     0.005 C 
ATOM     13  C   UNL A   1      28.800  26.523  23.937  1.00  0.00     0.002 C 
ATOM     14  C   UNL A   1      29.453  26.029  25.232  1.00  0.00     0.022 C 
BRANCH   9  15
ATOM     15  C   UNL A   1      31.173  24.322  24.513  1.00  0.00    -0.013 A 
ATOM     16  C   UNL A   1      31.503  23.997  23.181  1.00  0.00     0.008 A 
ATOM     17  C   UNL A   1      31.118  23.224  25.416  1.00  0.00     0.046 A 
ATOM     18  C   UNL A   1      31.871  22.702  22.793  1.00  0.00     0.021 A 
ATOM     19  C   UNL A   1      31.552  21.942  25.042  1.00  0.00     0.041 A 
ATOM     20  Cl  UNL A   1      30.489  23.312  27.027  1.00  0.00    -0.084 Cl
ATOM     21  C   UNL A   1      31.940  21.690  23.736  1.00  0.00     0.042 A 
ATOM     22  Cl  UNL A   1      32.478  20.122  23.284  1.00  0.00    -0.084 Cl
ENDBRANCH   9  15
ENDBRANCH   6   9
ENDBRANCH   4   5
ENDBRANCH   3   4
ENDBRANCH   2   3
ENDBRANCH   1   2
BRANCH   1  23
ATOM     23  C   UNL A   1      36.911  21.985  24.277  1.00  0.00     0.021 C 
BRANCH  23  24
ATOM     24  C   UNL A   1      37.340  22.057  25.737  1.00  0.00     0.116 C 
BRANCH  24  25
ATOM     25  N   UNL A   1      38.384  21.094  26.042  1.00  0.00    -0.352 N 
ATOM     26  C   UNL A   1      39.666  21.325  26.466  1.00  0.00     0.251 C 
ATOM     27  H   UNL A   1      38.137  20.148  25.929  1.00  0.00     0.163 HD
ATOM     28  O   UNL A   1      40.488  20.412  26.468  1.00  0.00    -0.269 OA
BRANCH  26  29
ATOM     29  C   UNL A   1      40.048  22.686  26.893  1.00  0.00     0.039 A 
ATOM     30  C   UNL A   1      40.916  22.838  27.974  1.00  0.00     0.014 A 
ATOM     31  C   UNL A   1      39.564  23.804  26.207  1.00  0.00     0.014 A 
ATOM     32  C   UNL A   1      41.343  24.117  28.336  1.00  0.00     0.010 A 
ATOM     33  C   UNL A   1      40.053  25.068  26.518  1.00  0.00     0.010 A 
ATOM     34  C   UNL A   1      40.942  25.238  27.590  1.00  0.00    -0.014 A 
BRANCH  34  35
ATOM     35  C   UNL A   1      41.429  26.600  27.927  1.00  0.00     0.031 A 
ATOM     36  C   UNL A   1      42.841  26.996  27.593  1.00  0.00     0.074 A 
ATOM     37  C   UNL A   1      40.620  27.455  28.582  1.00  0.00     0.049 A 
ATOM     38  N   UNL A   1      43.479  28.103  27.870  1.00  0.00    -0.248 NA
ATOM     39  C   UNL A   1      43.651  25.997  26.879  1.00  0.00     0.031 C 
ATOM     40  C   UNL A   1      39.240  27.173  28.985  1.00  0.00     0.029 A 
ATOM     41  N   UNL A   1      40.839  28.734  29.027  1.00  0.00    -0.354 N 
ATOM     42  C   UNL A   1      44.767  27.932  27.372  1.00  0.00     0.074 A 
ATOM     43  C   UNL A   1      44.836  26.585  26.848  1.00  0.00     0.031 C 
ATOM     44  C   UNL A   1      38.728  28.257  29.586  1.00  0.00     0.029 A 
ATOM     45  C   UNL A   1      39.753  29.292  29.662  1.00  0.00     0.049 A 
ATOM     46  H   UNL A   1      41.693  29.208  28.903  1.00  0.00     0.167 HD
ATOM     47  C   UNL A   1      45.787  28.825  27.332  1.00  0.00     0.034 A 
ATOM     48  C   UNL A   1      39.608  30.496  30.251  1.00  0.00     0.034 A 
ATOM     49  C   UNL A   1      45.697  30.163  27.864  1.00  0.00     0.049 A 
ATOM     50  C   UNL A   1      40.773  31.453  30.245  1.00  0.00     0.074 A 
ATOM     51  C   UNL A   1      46.652  31.166  27.844  1.00  0.00     0.029 A 
ATOM     52  N   UNL A   1      44.589  30.687  28.519  1.00  0.00    -0.354 N 
ATOM     53  N   UNL A   1      41.972  31.293  29.735  1.00  0.00    -0.248 NA
ATOM     54  C   UNL A   1      40.560  32.756  30.885  1.00  0.00     0.031 C 
ATOM     55  C   UNL A   1      46.152  32.261  28.557  1.00  0.00     0.029 A 
ATOM     56  C   UNL A   1      44.850  31.983  28.940  1.00  0.00     0.049 A 
ATOM     57  H   UNL A   1      43.741  30.208  28.663  1.00  0.00     0.167 HD
ATOM     58  C   UNL A   1      42.645  32.492  29.962  1.00  0.00     0.074 A 
ATOM     59  C   UNL A   1      41.712  33.365  30.644  1.00  0.00     0.031 C 
ATOM     60  C   UNL A   1      43.914  32.840  29.631  1.00  0.00     0.034 A 
BRANCH  47  61
ATOM     61  C   UNL A   1      47.089  28.361  26.719  1.00  0.00     0.023 A 
ATOM     62  C   UNL A   1      47.284  28.346  25.326  1.00  0.00     0.031 A 
ATOM     63  C   UNL A   1      48.133  27.885  27.530  1.00  0.00     0.131 A 
ATOM     64  C   UNL A   1      48.447  27.780  24.785  1.00  0.00     0.055 A 
ATOM     65  C   UNL A   1      49.330  27.411  26.989  1.00  0.00     0.041 A 
ATOM     66  F   UNL A   1      48.002  27.850  28.866  1.00  0.00    -0.206 F 
ATOM     67  C   UNL A   1      49.485  27.339  25.608  1.00  0.00     0.022 A 
BRANCH  64  68
ATOM     68  S   UNL A   1      48.506  27.465  22.999  1.00  0.00     0.124 S 
ATOM     69  O   UNL A   1      48.412  26.008  22.955  1.00  0.00    -0.237 OA
ATOM     70  O   UNL A   1      47.341  28.196  22.514  1.00  0.00    -0.237 OA
ATOM     71  O   UNL A   1      49.800  28.012  22.597  1.00  0.00    -0.744 OA
ENDBRANCH  64  68
ENDBRANCH  47  61
BRANCH  48  72
ATOM     72  C   UNL A   1      38.316  30.869  30.897  1.00  0.00     0.023 A 
ATOM     73  C   UNL A   1      37.319  31.546  30.177  1.00  0.00     0.031 A 
ATOM     74  C   UNL A   1      38.073  30.586  32.253  1.00  0.00     0.131 A 
ATOM     75  C   UNL A   1      36.146  31.961  30.826  1.00  0.00     0.055 A 
ATOM     76  C   UNL A   1      36.879  30.949  32.879  1.00  0.00     0.041 A 
ATOM     77  F   UNL A   1      38.991  29.939  32.988  1.00  0.00    -0.206 F 
ATOM     78  C   UNL A   1      35.912  31.653  32.167  1.00  0.00     0.022 A 
BRANCH  75  79
ATOM     79  S   UNL A   1      34.965  32.989  29.911  1.00  0.00     0.124 S 
ATOM     80  O   UNL A   1      34.434  32.037  28.942  1.00  0.00    -0.237 OA
ATOM     81  O   UNL A   1      34.049  33.410  30.965  1.00  0.00    -0.237 OA
ATOM     82  O   UNL A   1      35.801  34.049  29.352  1.00  0.00    -0.744 OA
ENDBRANCH  75  79
ENDBRANCH  48  72
BRANCH  60  83
ATOM     83  C   UNL A   1      44.348  34.251  29.956  1.00  0.00     0.023 A 
ATOM     84  C   UNL A   1      44.138  35.318  29.067  1.00  0.00     0.031 A 
ATOM     85  C   UNL A   1      44.991  34.526  31.177  1.00  0.00     0.131 A 
ATOM     86  C   UNL A   1      44.618  36.598  29.386  1.00  0.00     0.055 A 
ATOM     87  C   UNL A   1      45.404  35.814  31.518  1.00  0.00     0.041 A 
ATOM     88  F   UNL A   1      45.223  33.543  32.064  1.00  0.00    -0.206 F 
ATOM     89  C   UNL A   1      45.231  36.857  30.614  1.00  0.00     0.022 A 
BRANCH  86  90
ATOM     90  S   UNL A   1      44.521  37.903  28.128  1.00  0.00     0.124 S 
ATOM     91  O   UNL A   1      43.097  37.913  27.812  1.00  0.00    -0.237 OA
ATOM     92  O   UNL A   1      45.021  39.068  28.850  1.00  0.00    -0.237 OA
ATOM     93  O   UNL A   1      45.391  37.415  27.059  1.00  0.00    -0.744 OA
ENDBRANCH  86  90
ENDBRANCH  60  83
ENDBRANCH  34  35
ENDBRANCH  26  29
ENDBRANCH  24  25
ENDBRANCH  23  24
ENDBRANCH   1  23
TORSDOF 17
ENDMDL
