MODEL 1
REMARK VINA RESULT:     -10.3      0.000      0.000
REMARK SMILES C#CC[C@@H](C(=O)NCCCCCCNC(=O)c1ccc(-c2c3nc(c(-c4cc(S(=O)(=O)[O-])ccc4F)c4ccc([nH]4)c(-c4cc(S(=O)(=O)[O-])ccc4F)c4nc(c(-c5cc(S(=O)(=O)[O-])ccc5F)c5ccc2[nH]5)C=C4)C=C3)cc1)[C@H]1CCS(=O)(=O)C1
REMARK SMILES IDX 11 1 10 2 9 3 8 4 7 5 5 6 6 7 4 9 3 10 2 11 1 12 80 13 81 14
REMARK SMILES IDX 86 15 82 16 83 17 84 18 85 19 12 20 13 21 14 22 15 23 16 25
REMARK SMILES IDX 17 26 18 27 79 28 19 29 78 30 20 31 21 32 22 33 72 34 23 35
REMARK SMILES IDX 77 36 71 37 73 38 24 39 76 40 70 41 69 42 25 44 57 45 37 46
REMARK SMILES IDX 56 47 38 48 41 49 55 50 74 51 39 52 40 53 54 55 75 56 42 57
REMARK SMILES IDX 26 58 27 59 35 60 28 61 34 62 36 63 33 64 29 65 30 66 31 67
REMARK SMILES IDX 32 68 58 69 59 70 67 71 60 72 66 73 68 74 65 75 61 76 62 77
REMARK SMILES IDX 63 78 64 79 43 80 44 81 52 82 45 83 51 84 53 85 50 86 46 87
REMARK SMILES IDX 47 88 48 89 49 90
REMARK H PARENT 7 8 14 24 73 43 41 54
REMARK Flexibility Score: inf
ROOT
ATOM      1  C   UNL A   1      35.532  20.340  25.012  1.00  0.00     0.002 C 
ENDROOT
BRANCH   1   2
ATOM      2  C   UNL A   1      34.216  20.521  24.247  1.00  0.00     0.002 C 
BRANCH   2   3
ATOM      3  C   UNL A   1      32.977  20.022  25.002  1.00  0.00     0.021 C 
BRANCH   3   4
ATOM      4  C   UNL A   1      31.931  21.118  25.237  1.00  0.00     0.116 C 
BRANCH   4   5
ATOM      5  N   UNL A   1      32.263  21.829  26.452  1.00  0.00    -0.356 N 
ATOM      6  C   UNL A   1      32.871  23.040  26.572  1.00  0.00     0.224 C 
ATOM      7  O   UNL A   1      33.562  23.223  27.576  1.00  0.00    -0.275 OA
ATOM      8  H   UNL A   1      32.020  21.382  27.295  1.00  0.00     0.163 HD
BRANCH   6   9
ATOM      9  C   UNL A   1      32.641  24.136  25.527  1.00  0.00     0.094 C 
BRANCH   9  10
ATOM     10  C   UNL A   1      33.819  24.210  24.526  1.00  0.00     0.103 C 
BRANCH  10  11
ATOM     11  C   UNL A   1      33.510  23.820  23.140  1.00  0.00    -0.106 C 
ATOM     12  C   UNL A   1      33.284  23.442  22.025  1.00  0.00     0.004 C 
ENDBRANCH  10  11
ENDBRANCH   9  10
BRANCH   9  13
ATOM     13  C   UNL A   1      32.513  25.544  26.201  1.00  0.00     0.018 C 
ATOM     14  C   UNL A   1      33.706  26.456  25.835  1.00  0.00     0.021 C 
ATOM     15  C   UNL A   1      31.288  26.412  25.871  1.00  0.00     0.141 C 
ATOM     16  C   UNL A   1      33.459  27.811  26.497  1.00  0.00     0.137 C 
ATOM     17  S   UNL A   1      31.688  28.020  26.541  1.00  0.00     0.150 S 
ATOM     18  O   UNL A   1      31.275  28.062  27.930  1.00  0.00    -0.229 OA
ATOM     19  O   UNL A   1      31.302  29.042  25.592  1.00  0.00    -0.229 OA
ENDBRANCH   9  13
ENDBRANCH   6   9
ENDBRANCH   4   5
ENDBRANCH   3   4
ENDBRANCH   2   3
ENDBRANCH   1   2
BRANCH   1  20
ATOM     20  C   UNL A   1      36.118  21.640  25.566  1.00  0.00     0.021 C 
BRANCH  20  21
ATOM     21  C   UNL A   1      37.571  21.870  25.171  1.00  0.00     0.116 C 
BRANCH  21  22
ATOM     22  N   UNL A   1      38.444  20.867  25.764  1.00  0.00    -0.352 N 
ATOM     23  C   UNL A   1      39.654  21.051  26.388  1.00  0.00     0.251 C 
ATOM     24  H   UNL A   1      38.126  19.937  25.712  1.00  0.00     0.163 HD
ATOM     25  O   UNL A   1      40.402  20.100  26.585  1.00  0.00    -0.269 OA
BRANCH  23  26
ATOM     26  C   UNL A   1      40.037  22.416  26.795  1.00  0.00     0.039 A 
ATOM     27  C   UNL A   1      41.006  22.597  27.784  1.00  0.00     0.014 A 
ATOM     28  C   UNL A   1      39.457  23.517  26.158  1.00  0.00     0.014 A 
ATOM     29  C   UNL A   1      41.441  23.888  28.089  1.00  0.00     0.010 A 
ATOM     30  C   UNL A   1      39.956  24.789  26.398  1.00  0.00     0.010 A 
ATOM     31  C   UNL A   1      40.947  24.990  27.373  1.00  0.00    -0.014 A 
BRANCH  31  32
ATOM     32  C   UNL A   1      41.411  26.376  27.635  1.00  0.00     0.031 A 
ATOM     33  C   UNL A   1      42.819  26.759  27.276  1.00  0.00     0.074 A 
ATOM     34  C   UNL A   1      40.615  27.248  28.282  1.00  0.00     0.049 A 
ATOM     35  N   UNL A   1      43.487  27.842  27.575  1.00  0.00    -0.248 NA
ATOM     36  C   UNL A   1      43.587  25.765  26.512  1.00  0.00     0.031 C 
ATOM     37  C   UNL A   1      39.236  26.986  28.697  1.00  0.00     0.029 A 
ATOM     38  N   UNL A   1      40.861  28.523  28.728  1.00  0.00    -0.354 N 
ATOM     39  C   UNL A   1      44.765  27.648  27.061  1.00  0.00     0.074 A 
ATOM     40  C   UNL A   1      44.790  26.315  26.495  1.00  0.00     0.031 C 
ATOM     41  C   UNL A   1      38.757  28.068  29.330  1.00  0.00     0.029 A 
ATOM     42  C   UNL A   1      39.811  29.075  29.427  1.00  0.00     0.049 A 
ATOM     43  H   UNL A   1      41.707  28.999  28.564  1.00  0.00     0.167 HD
ATOM     44  C   UNL A   1      45.812  28.510  27.047  1.00  0.00     0.034 A 
ATOM     45  C   UNL A   1      39.719  30.237  30.103  1.00  0.00     0.034 A 
ATOM     46  C   UNL A   1      45.759  29.830  27.624  1.00  0.00     0.049 A 
ATOM     47  C   UNL A   1      40.909  31.162  30.134  1.00  0.00     0.074 A 
ATOM     48  C   UNL A   1      46.738  30.807  27.625  1.00  0.00     0.029 A 
ATOM     49  N   UNL A   1      44.677  30.352  28.325  1.00  0.00    -0.354 N 
ATOM     50  N   UNL A   1      42.104  30.984  29.618  1.00  0.00    -0.248 NA
ATOM     51  C   UNL A   1      40.744  32.443  30.834  1.00  0.00     0.031 C 
ATOM     52  C   UNL A   1      46.291  31.872  28.412  1.00  0.00     0.029 A 
ATOM     53  C   UNL A   1      44.985  31.615  28.803  1.00  0.00     0.049 A 
ATOM     54  H   UNL A   1      43.819  29.890  28.462  1.00  0.00     0.167 HD
ATOM     55  C   UNL A   1      42.817  32.149  29.893  1.00  0.00     0.074 A 
ATOM     56  C   UNL A   1      41.923  33.017  30.633  1.00  0.00     0.031 C 
ATOM     57  C   UNL A   1      44.088  32.474  29.545  1.00  0.00     0.034 A 
BRANCH  44  58
ATOM     58  C   UNL A   1      47.104  28.017  26.437  1.00  0.00     0.023 A 
ATOM     59  C   UNL A   1      47.403  28.210  25.077  1.00  0.00     0.031 A 
ATOM     60  C   UNL A   1      48.020  27.279  27.209  1.00  0.00     0.131 A 
ATOM     61  C   UNL A   1      48.513  27.569  24.506  1.00  0.00     0.055 A 
ATOM     62  C   UNL A   1      49.185  26.742  26.658  1.00  0.00     0.041 A 
ATOM     63  F   UNL A   1      47.785  27.039  28.508  1.00  0.00    -0.206 F 
ATOM     64  C   UNL A   1      49.424  26.862  25.293  1.00  0.00     0.022 A 
BRANCH  61  65
ATOM     65  S   UNL A   1      48.618  27.487  22.697  1.00  0.00     0.124 S 
ATOM     66  O   UNL A   1      49.872  28.193  22.442  1.00  0.00    -0.237 OA
ATOM     67  O   UNL A   1      48.631  26.050  22.446  1.00  0.00    -0.237 OA
ATOM     68  O   UNL A   1      47.416  28.190  22.252  1.00  0.00    -0.744 OA
ENDBRANCH  61  65
ENDBRANCH  44  58
BRANCH  45  69
ATOM     69  C   UNL A   1      38.462  30.567  30.835  1.00  0.00     0.023 A 
ATOM     70  C   UNL A   1      37.451  31.341  30.246  1.00  0.00     0.031 A 
ATOM     71  C   UNL A   1      38.252  30.093  32.144  1.00  0.00     0.131 A 
ATOM     72  C   UNL A   1      36.286  31.636  30.971  1.00  0.00     0.055 A 
ATOM     73  C   UNL A   1      37.068  30.343  32.839  1.00  0.00     0.041 A 
ATOM     74  F   UNL A   1      39.186  29.348  32.756  1.00  0.00    -0.206 F 
ATOM     75  C   UNL A   1      36.079  31.126  32.255  1.00  0.00     0.022 A 
BRANCH  72  76
ATOM     76  S   UNL A   1      35.062  32.757  30.237  1.00  0.00     0.124 S 
ATOM     77  O   UNL A   1      34.498  31.926  29.179  1.00  0.00    -0.237 OA
ATOM     78  O   UNL A   1      34.188  33.037  31.371  1.00  0.00    -0.237 OA
ATOM     79  O   UNL A   1      35.869  33.887  29.780  1.00  0.00    -0.744 OA
ENDBRANCH  72  76
ENDBRANCH  45  69
BRANCH  57  80
ATOM     80  C   UNL A   1      44.582  33.861  29.884  1.00  0.00     0.023 A 
ATOM     81  C   UNL A   1      44.299  34.983  29.087  1.00  0.00     0.031 A 
ATOM     82  C   UNL A   1      45.303  34.062  31.076  1.00  0.00     0.131 A 
ATOM     83  C   UNL A   1      44.755  36.251  29.483  1.00  0.00     0.055 A 
ATOM     84  C   UNL A   1      45.697  35.332  31.496  1.00  0.00     0.041 A 
ATOM     85  F   UNL A   1      45.611  33.025  31.872  1.00  0.00    -0.206 F 
ATOM     86  C   UNL A   1      45.427  36.436  30.695  1.00  0.00     0.022 A 
BRANCH  83  87
ATOM     87  S   UNL A   1      44.515  37.659  28.364  1.00  0.00     0.124 S 
ATOM     88  O   UNL A   1      43.358  38.323  28.958  1.00  0.00    -0.237 OA
ATOM     89  O   UNL A   1      45.785  38.369  28.474  1.00  0.00    -0.237 OA
ATOM     90  O   UNL A   1      44.268  37.029  27.068  1.00  0.00    -0.744 OA
ENDBRANCH  83  87
ENDBRANCH  57  80
ENDBRANCH  31  32
ENDBRANCH  23  26
ENDBRANCH  21  22
ENDBRANCH  20  21
ENDBRANCH   1  20
TORSDOF 19
ENDMDL
MODEL 2
REMARK VINA RESULT:     -10.2      1.620      7.961
REMARK SMILES C#CC[C@@H](C(=O)NCCCCCCNC(=O)c1ccc(-c2c3nc(c(-c4cc(S(=O)(=O)[O-])ccc4F)c4ccc([nH]4)c(-c4cc(S(=O)(=O)[O-])ccc4F)c4nc(c(-c5cc(S(=O)(=O)[O-])ccc5F)c5ccc2[nH]5)C=C4)C=C3)cc1)[C@H]1CCS(=O)(=O)C1
REMARK SMILES IDX 11 1 10 2 9 3 8 4 7 5 5 6 6 7 4 9 3 10 2 11 1 12 80 13 81 14
REMARK SMILES IDX 86 15 82 16 83 17 84 18 85 19 12 20 13 21 14 22 15 23 16 25
REMARK SMILES IDX 17 26 18 27 79 28 19 29 78 30 20 31 21 32 22 33 72 34 23 35
REMARK SMILES IDX 77 36 71 37 73 38 24 39 76 40 70 41 69 42 25 44 57 45 37 46
REMARK SMILES IDX 56 47 38 48 41 49 55 50 74 51 39 52 40 53 54 55 75 56 42 57
REMARK SMILES IDX 26 58 27 59 35 60 28 61 34 62 36 63 33 64 29 65 30 66 31 67
REMARK SMILES IDX 32 68 58 69 59 70 67 71 60 72 66 73 68 74 65 75 61 76 62 77
REMARK SMILES IDX 63 78 64 79 43 80 44 81 52 82 45 83 51 84 53 85 50 86 46 87
REMARK SMILES IDX 47 88 48 89 49 90
REMARK H PARENT 7 8 14 24 73 43 41 54
REMARK Flexibility Score: inf
ROOT
ATOM      1  C   UNL A   1      34.390  22.333  25.429  1.00  0.00     0.002 C 
ENDROOT
BRANCH   1   2
ATOM      2  C   UNL A   1      33.899  23.008  24.144  1.00  0.00     0.002 C 
BRANCH   2   3
ATOM      3  C   UNL A   1      34.155  24.520  24.092  1.00  0.00     0.021 C 
BRANCH   3   4
ATOM      4  C   UNL A   1      33.684  25.168  22.785  1.00  0.00     0.116 C 
BRANCH   4   5
ATOM      5  N   UNL A   1      32.293  24.831  22.571  1.00  0.00    -0.356 N 
ATOM      6  C   UNL A   1      31.220  25.189  23.327  1.00  0.00     0.224 C 
ATOM      7  O   UNL A   1      30.270  24.406  23.357  1.00  0.00    -0.275 OA
ATOM      8  H   UNL A   1      32.099  24.273  21.783  1.00  0.00     0.163 HD
BRANCH   6   9
ATOM      9  C   UNL A   1      31.190  26.540  24.048  1.00  0.00     0.094 C 
BRANCH   9  10
ATOM     10  C   UNL A   1      30.581  26.405  25.464  1.00  0.00     0.103 C 
BRANCH  10  11
ATOM     11  C   UNL A   1      31.212  27.220  26.516  1.00  0.00    -0.106 C 
ATOM     12  C   UNL A   1      31.675  27.926  27.367  1.00  0.00     0.004 C 
ENDBRANCH  10  11
ENDBRANCH   9  10
BRANCH   9  13
ATOM     13  C   UNL A   1      30.320  27.581  23.264  1.00  0.00     0.018 C 
ATOM     14  C   UNL A   1      28.824  27.451  23.624  1.00  0.00     0.021 C 
ATOM     15  C   UNL A   1      30.606  29.078  23.461  1.00  0.00     0.141 C 
ATOM     16  C   UNL A   1      28.076  28.536  22.850  1.00  0.00     0.137 C 
ATOM     17  S   UNL A   1      29.216  29.901  22.694  1.00  0.00     0.150 S 
ATOM     18  O   UNL A   1      29.503  30.088  21.286  1.00  0.00    -0.229 OA
ATOM     19  O   UNL A   1      28.778  30.989  23.541  1.00  0.00    -0.229 OA
ENDBRANCH   9  13
ENDBRANCH   6   9
ENDBRANCH   4   5
ENDBRANCH   3   4
ENDBRANCH   2   3
ENDBRANCH   1   2
BRANCH   1  20
ATOM     20  C   UNL A   1      35.705  22.897  25.970  1.00  0.00     0.021 C 
BRANCH  20  21
ATOM     21  C   UNL A   1      36.893  22.670  25.043  1.00  0.00     0.116 C 
BRANCH  21  22
ATOM     22  N   UNL A   1      37.613  21.455  25.397  1.00  0.00    -0.352 N 
ATOM     23  C   UNL A   1      38.865  21.335  25.947  1.00  0.00     0.251 C 
ATOM     24  H   UNL A   1      37.140  20.610  25.219  1.00  0.00     0.163 HD
ATOM     25  O   UNL A   1      39.452  20.259  25.929  1.00  0.00    -0.269 OA
BRANCH  23  26
ATOM     26  C   UNL A   1      39.492  22.532  26.541  1.00  0.00     0.039 A 
ATOM     27  C   UNL A   1      40.472  22.384  27.524  1.00  0.00     0.014 A 
ATOM     28  C   UNL A   1      39.129  23.802  26.083  1.00  0.00     0.014 A 
ATOM     29  C   UNL A   1      41.137  23.514  28.004  1.00  0.00     0.010 A 
ATOM     30  C   UNL A   1      39.853  24.911  26.495  1.00  0.00     0.010 A 
ATOM     31  C   UNL A   1      40.859  24.781  27.467  1.00  0.00    -0.014 A 
BRANCH  31  32
ATOM     32  C   UNL A   1      41.570  26.005  27.918  1.00  0.00     0.031 A 
ATOM     33  C   UNL A   1      40.807  27.064  28.662  1.00  0.00     0.074 A 
ATOM     34  C   UNL A   1      42.855  26.210  27.574  1.00  0.00     0.049 A 
ATOM     35  N   UNL A   1      41.172  28.276  28.988  1.00  0.00    -0.248 NA
ATOM     36  C   UNL A   1      39.431  26.720  29.052  1.00  0.00     0.031 C 
ATOM     37  C   UNL A   1      43.694  25.264  26.837  1.00  0.00     0.029 A 
ATOM     38  N   UNL A   1      43.673  27.295  27.774  1.00  0.00    -0.354 N 
ATOM     39  C   UNL A   1      40.061  28.851  29.597  1.00  0.00     0.074 A 
ATOM     40  C   UNL A   1      38.995  27.875  29.527  1.00  0.00     0.031 C 
ATOM     41  C   UNL A   1      44.908  25.806  26.655  1.00  0.00     0.029 A 
ATOM     42  C   UNL A   1      44.916  27.162  27.198  1.00  0.00     0.049 A 
ATOM     43  H   UNL A   1      43.397  28.093  28.281  1.00  0.00     0.167 HD
ATOM     44  C   UNL A   1      39.950  30.073  30.174  1.00  0.00     0.034 A 
ATOM     45  C   UNL A   1      45.931  28.041  27.084  1.00  0.00     0.034 A 
ATOM     46  C   UNL A   1      41.029  31.028  30.222  1.00  0.00     0.049 A 
ATOM     47  C   UNL A   1      45.775  29.419  27.676  1.00  0.00     0.074 A 
ATOM     48  C   UNL A   1      41.049  32.274  30.824  1.00  0.00     0.029 A 
ATOM     49  N   UNL A   1      42.274  30.856  29.626  1.00  0.00    -0.354 N 
ATOM     50  N   UNL A   1      44.732  29.944  28.277  1.00  0.00    -0.248 NA
ATOM     51  C   UNL A   1      46.928  30.324  27.578  1.00  0.00     0.031 C 
ATOM     52  C   UNL A   1      42.259  32.894  30.504  1.00  0.00     0.029 A 
ATOM     53  C   UNL A   1      43.047  31.991  29.805  1.00  0.00     0.049 A 
ATOM     54  H   UNL A   1      42.563  30.046  29.147  1.00  0.00     0.167 HD
ATOM     55  C   UNL A   1      45.119  31.224  28.668  1.00  0.00     0.074 A 
ATOM     56  C   UNL A   1      46.487  31.397  28.221  1.00  0.00     0.031 C 
ATOM     57  C   UNL A   1      44.412  32.158  29.352  1.00  0.00     0.034 A 
BRANCH  44  58
ATOM     58  C   UNL A   1      38.600  30.449  30.741  1.00  0.00     0.023 A 
ATOM     59  C   UNL A   1      37.630  31.111  29.968  1.00  0.00     0.031 A 
ATOM     60  C   UNL A   1      38.304  30.209  32.094  1.00  0.00     0.131 A 
ATOM     61  C   UNL A   1      36.474  31.618  30.580  1.00  0.00     0.055 A 
ATOM     62  C   UNL A   1      37.098  30.615  32.670  1.00  0.00     0.041 A 
ATOM     63  F   UNL A   1      39.195  29.603  32.894  1.00  0.00    -0.206 F 
ATOM     64  C   UNL A   1      36.186  31.348  31.918  1.00  0.00     0.022 A 
BRANCH  61  65
ATOM     65  S   UNL A   1      35.474  32.821  29.659  1.00  0.00     0.124 S 
ATOM     66  O   UNL A   1      36.299  34.023  29.753  1.00  0.00    -0.237 OA
ATOM     67  O   UNL A   1      35.384  32.210  28.337  1.00  0.00    -0.237 OA
ATOM     68  O   UNL A   1      34.223  32.874  30.412  1.00  0.00    -0.744 OA
ENDBRANCH  61  65
ENDBRANCH  44  58
BRANCH  45  69
ATOM     69  C   UNL A   1      47.166  27.650  26.345  1.00  0.00     0.023 A 
ATOM     70  C   UNL A   1      47.285  27.842  24.960  1.00  0.00     0.031 A 
ATOM     71  C   UNL A   1      48.259  27.084  27.029  1.00  0.00     0.131 A 
ATOM     72  C   UNL A   1      48.461  27.453  24.300  1.00  0.00     0.055 A 
ATOM     73  C   UNL A   1      49.447  26.751  26.376  1.00  0.00     0.041 A 
ATOM     74  F   UNL A   1      48.199  26.878  28.354  1.00  0.00    -0.206 F 
ATOM     75  C   UNL A   1      49.549  26.928  25.001  1.00  0.00     0.022 A 
BRANCH  72  76
ATOM     76  S   UNL A   1      48.529  27.581  22.492  1.00  0.00     0.124 S 
ATOM     77  O   UNL A   1      47.287  28.288  22.199  1.00  0.00    -0.237 OA
ATOM     78  O   UNL A   1      49.762  28.332  22.286  1.00  0.00    -0.237 OA
ATOM     79  O   UNL A   1      48.570  26.186  22.055  1.00  0.00    -0.744 OA
ENDBRANCH  72  76
ENDBRANCH  45  69
BRANCH  57  80
ATOM     80  C   UNL A   1      45.117  33.437  29.741  1.00  0.00     0.023 A 
ATOM     81  C   UNL A   1      45.072  34.598  28.952  1.00  0.00     0.031 A 
ATOM     82  C   UNL A   1      45.800  33.499  30.971  1.00  0.00     0.131 A 
ATOM     83  C   UNL A   1      45.716  35.765  29.394  1.00  0.00     0.055 A 
ATOM     84  C   UNL A   1      46.382  34.679  31.434  1.00  0.00     0.041 A 
ATOM     85  F   UNL A   1      45.885  32.417  31.762  1.00  0.00    -0.206 F 
ATOM     86  C   UNL A   1      46.346  35.820  30.641  1.00  0.00     0.022 A 
BRANCH  83  87
ATOM     87  S   UNL A   1      45.777  37.204  28.290  1.00  0.00     0.124 S 
ATOM     88  O   UNL A   1      47.214  37.366  28.085  1.00  0.00    -0.237 OA
ATOM     89  O   UNL A   1      45.015  36.747  27.133  1.00  0.00    -0.237 OA
ATOM     90  O   UNL A   1      45.141  38.263  29.071  1.00  0.00    -0.744 OA
ENDBRANCH  83  87
ENDBRANCH  57  80
ENDBRANCH  31  32
ENDBRANCH  23  26
ENDBRANCH  21  22
ENDBRANCH  20  21
ENDBRANCH   1  20
TORSDOF 19
ENDMDL
MODEL 3
REMARK VINA RESULT:     -10.1      2.040      8.012
REMARK SMILES C#CC[C@@H](C(=O)NCCCCCCNC(=O)c1ccc(-c2c3nc(c(-c4cc(S(=O)(=O)[O-])ccc4F)c4ccc([nH]4)c(-c4cc(S(=O)(=O)[O-])ccc4F)c4nc(c(-c5cc(S(=O)(=O)[O-])ccc5F)c5ccc2[nH]5)C=C4)C=C3)cc1)[C@H]1CCS(=O)(=O)C1
REMARK SMILES IDX 11 1 10 2 9 3 8 4 7 5 5 6 6 7 4 9 3 10 2 11 1 12 80 13 81 14
REMARK SMILES IDX 86 15 82 16 83 17 84 18 85 19 12 20 13 21 14 22 15 23 16 25
REMARK SMILES IDX 17 26 18 27 79 28 19 29 78 30 20 31 21 32 22 33 72 34 23 35
REMARK SMILES IDX 77 36 71 37 73 38 24 39 76 40 70 41 69 42 25 44 57 45 37 46
REMARK SMILES IDX 56 47 38 48 41 49 55 50 74 51 39 52 40 53 54 55 75 56 42 57
REMARK SMILES IDX 26 58 27 59 35 60 28 61 34 62 36 63 33 64 29 65 30 66 31 67
REMARK SMILES IDX 32 68 58 69 59 70 67 71 60 72 66 73 68 74 65 75 61 76 62 77
REMARK SMILES IDX 63 78 64 79 43 80 44 81 52 82 45 83 51 84 53 85 50 86 46 87
REMARK SMILES IDX 47 88 48 89 49 90
REMARK H PARENT 7 8 14 24 73 43 41 54
REMARK Flexibility Score: inf
ROOT
ATOM      1  C   UNL A   1      33.704  22.777  26.724  1.00  0.00     0.002 C 
ENDROOT
BRANCH   1   2
ATOM      2  C   UNL A   1      32.888  22.386  25.488  1.00  0.00     0.002 C 
BRANCH   2   3
ATOM      3  C   UNL A   1      31.368  22.414  25.703  1.00  0.00     0.021 C 
BRANCH   3   4
ATOM      4  C   UNL A   1      30.647  23.407  24.785  1.00  0.00     0.116 C 
BRANCH   4   5
ATOM      5  N   UNL A   1      30.259  24.566  25.561  1.00  0.00    -0.356 N 
ATOM      6  C   UNL A   1      30.988  25.687  25.811  1.00  0.00     0.224 C 
ATOM      7  O   UNL A   1      30.778  26.265  26.878  1.00  0.00    -0.275 OA
ATOM      8  H   UNL A   1      29.358  24.538  25.958  1.00  0.00     0.163 HD
BRANCH   6   9
ATOM      9  C   UNL A   1      31.973  26.224  24.768  1.00  0.00     0.094 C 
BRANCH   9  10
ATOM     10  C   UNL A   1      33.386  26.405  25.374  1.00  0.00     0.103 C 
BRANCH  10  11
ATOM     11  C   UNL A   1      33.559  27.564  26.266  1.00  0.00    -0.106 C 
ATOM     12  C   UNL A   1      33.709  28.466  27.041  1.00  0.00     0.004 C 
ENDBRANCH  10  11
ENDBRANCH   9  10
BRANCH   9  13
ATOM     13  C   UNL A   1      31.517  27.622  24.227  1.00  0.00     0.018 C 
ATOM     14  C   UNL A   1      32.352  28.053  23.001  1.00  0.00     0.021 C 
ATOM     15  C   UNL A   1      30.066  27.788  23.744  1.00  0.00     0.141 C 
ATOM     16  C   UNL A   1      31.797  29.394  22.524  1.00  0.00     0.137 C 
ATOM     17  S   UNL A   1      30.054  29.367  22.906  1.00  0.00     0.150 S 
ATOM     18  O   UNL A   1      29.792  30.409  23.880  1.00  0.00    -0.229 OA
ATOM     19  O   UNL A   1      29.296  29.251  21.680  1.00  0.00    -0.229 OA
ENDBRANCH   9  13
ENDBRANCH   6   9
ENDBRANCH   4   5
ENDBRANCH   3   4
ENDBRANCH   2   3
ENDBRANCH   1   2
BRANCH   1  20
ATOM     20  C   UNL A   1      34.962  21.933  26.937  1.00  0.00     0.021 C 
BRANCH  20  21
ATOM     21  C   UNL A   1      36.111  22.307  26.009  1.00  0.00     0.116 C 
BRANCH  21  22
ATOM     22  N   UNL A   1      37.008  21.180  25.801  1.00  0.00    -0.352 N 
ATOM     23  C   UNL A   1      38.382  21.170  25.810  1.00  0.00     0.251 C 
ATOM     24  H   UNL A   1      36.575  20.312  25.632  1.00  0.00     0.163 HD
ATOM     25  O   UNL A   1      38.999  20.219  25.345  1.00  0.00    -0.269 OA
BRANCH  23  26
ATOM     26  C   UNL A   1      39.091  22.335  26.374  1.00  0.00     0.039 A 
ATOM     27  C   UNL A   1      40.146  22.137  27.266  1.00  0.00     0.014 A 
ATOM     28  C   UNL A   1      38.728  23.625  25.976  1.00  0.00     0.014 A 
ATOM     29  C   UNL A   1      40.882  23.237  27.712  1.00  0.00     0.010 A 
ATOM     30  C   UNL A   1      39.517  24.703  26.349  1.00  0.00     0.010 A 
ATOM     31  C   UNL A   1      40.597  24.523  27.228  1.00  0.00    -0.014 A 
BRANCH  31  32
ATOM     32  C   UNL A   1      41.379  25.715  27.643  1.00  0.00     0.031 A 
ATOM     33  C   UNL A   1      40.710  26.782  28.463  1.00  0.00     0.074 A 
ATOM     34  C   UNL A   1      42.639  25.889  27.201  1.00  0.00     0.049 A 
ATOM     35  N   UNL A   1      41.138  27.975  28.781  1.00  0.00    -0.248 NA
ATOM     36  C   UNL A   1      39.360  26.471  28.955  1.00  0.00     0.031 C 
ATOM     37  C   UNL A   1      43.387  24.934  26.384  1.00  0.00     0.029 A 
ATOM     38  N   UNL A   1      43.503  26.945  27.355  1.00  0.00    -0.354 N 
ATOM     39  C   UNL A   1      40.097  28.571  29.486  1.00  0.00     0.074 A 
ATOM     40  C   UNL A   1      38.998  27.628  29.484  1.00  0.00     0.031 C 
ATOM     41  C   UNL A   1      44.599  25.443  26.115  1.00  0.00     0.029 A 
ATOM     42  C   UNL A   1      44.692  26.787  26.680  1.00  0.00     0.049 A 
ATOM     43  H   UNL A   1      43.293  27.740  27.896  1.00  0.00     0.167 HD
ATOM     44  C   UNL A   1      40.070  29.784  30.092  1.00  0.00     0.034 A 
ATOM     45  C   UNL A   1      45.723  27.638  26.501  1.00  0.00     0.034 A 
ATOM     46  C   UNL A   1      41.179  30.705  30.071  1.00  0.00     0.049 A 
ATOM     47  C   UNL A   1      45.657  29.008  27.128  1.00  0.00     0.074 A 
ATOM     48  C   UNL A   1      41.285  31.937  30.691  1.00  0.00     0.029 A 
ATOM     49  N   UNL A   1      42.367  30.508  29.375  1.00  0.00    -0.354 N 
ATOM     50  N   UNL A   1      44.681  29.550  27.820  1.00  0.00    -0.248 NA
ATOM     51  C   UNL A   1      46.826  29.879  26.954  1.00  0.00     0.031 C 
ATOM     52  C   UNL A   1      42.485  32.527  30.288  1.00  0.00     0.029 A 
ATOM     53  C   UNL A   1      43.187  31.616  29.512  1.00  0.00     0.049 A 
ATOM     54  H   UNL A   1      42.591  29.700  28.860  1.00  0.00     0.167 HD
ATOM     55  C   UNL A   1      45.138  30.810  28.201  1.00  0.00     0.074 A 
ATOM     56  C   UNL A   1      46.471  30.952  27.650  1.00  0.00     0.031 C 
ATOM     57  C   UNL A   1      44.516  31.751  28.956  1.00  0.00     0.034 A 
BRANCH  44  58
ATOM     58  C   UNL A   1      38.782  30.188  30.771  1.00  0.00     0.023 A 
ATOM     59  C   UNL A   1      37.829  31.001  30.130  1.00  0.00     0.031 A 
ATOM     60  C   UNL A   1      38.532  29.818  32.105  1.00  0.00     0.131 A 
ATOM     61  C   UNL A   1      36.746  31.516  30.857  1.00  0.00     0.055 A 
ATOM     62  C   UNL A   1      37.390  30.241  32.787  1.00  0.00     0.041 A 
ATOM     63  F   UNL A   1      39.411  29.063  32.782  1.00  0.00    -0.206 F 
ATOM     64  C   UNL A   1      36.502  31.118  32.172  1.00  0.00     0.022 A 
BRANCH  61  65
ATOM     65  S   UNL A   1      35.799  32.883  30.130  1.00  0.00     0.124 S 
ATOM     66  O   UNL A   1      36.332  32.919  28.770  1.00  0.00    -0.237 OA
ATOM     67  O   UNL A   1      34.423  32.421  30.266  1.00  0.00    -0.237 OA
ATOM     68  O   UNL A   1      36.161  34.030  30.962  1.00  0.00    -0.744 OA
ENDBRANCH  61  65
ENDBRANCH  44  58
BRANCH  45  69
ATOM     69  C   UNL A   1      46.883  27.225  25.660  1.00  0.00     0.023 A 
ATOM     70  C   UNL A   1      47.041  27.694  24.347  1.00  0.00     0.031 A 
ATOM     71  C   UNL A   1      47.864  26.355  26.172  1.00  0.00     0.131 A 
ATOM     72  C   UNL A   1      48.142  27.276  23.584  1.00  0.00     0.055 A 
ATOM     73  C   UNL A   1      48.986  25.987  25.429  1.00  0.00     0.041 A 
ATOM     74  F   UNL A   1      47.762  25.876  27.423  1.00  0.00    -0.206 F 
ATOM     75  C   UNL A   1      49.126  26.442  24.123  1.00  0.00     0.022 A 
BRANCH  72  76
ATOM     76  S   UNL A   1      48.243  27.784  21.846  1.00  0.00     0.124 S 
ATOM     77  O   UNL A   1      46.955  28.440  21.655  1.00  0.00    -0.237 OA
ATOM     78  O   UNL A   1      49.414  28.653  21.850  1.00  0.00    -0.237 OA
ATOM     79  O   UNL A   1      48.411  26.519  21.132  1.00  0.00    -0.744 OA
ENDBRANCH  72  76
ENDBRANCH  45  69
BRANCH  57  80
ATOM     80  C   UNL A   1      45.290  33.000  29.310  1.00  0.00     0.023 A 
ATOM     81  C   UNL A   1      46.124  33.080  30.437  1.00  0.00     0.031 A 
ATOM     82  C   UNL A   1      45.230  34.114  28.451  1.00  0.00     0.131 A 
ATOM     83  C   UNL A   1      46.848  34.258  30.685  1.00  0.00     0.055 A 
ATOM     84  C   UNL A   1      45.999  35.256  28.667  1.00  0.00     0.041 A 
ATOM     85  F   UNL A   1      44.440  34.097  27.365  1.00  0.00    -0.206 F 
ATOM     86  C   UNL A   1      46.811  35.335  29.793  1.00  0.00     0.022 A 
BRANCH  83  87
ATOM     87  S   UNL A   1      47.796  34.398  32.225  1.00  0.00     0.124 S 
ATOM     88  O   UNL A   1      49.091  33.849  31.834  1.00  0.00    -0.237 OA
ATOM     89  O   UNL A   1      47.765  35.834  32.485  1.00  0.00    -0.237 OA
ATOM     90  O   UNL A   1      47.037  33.582  33.171  1.00  0.00    -0.744 OA
ENDBRANCH  83  87
ENDBRANCH  57  80
ENDBRANCH  31  32
ENDBRANCH  23  26
ENDBRANCH  21  22
ENDBRANCH  20  21
ENDBRANCH   1  20
TORSDOF 19
ENDMDL
