MODEL 1
REMARK VINA RESULT:     -11.7      0.000      0.000
REMARK SMILES CC[C@@H](C(=O)NCCCCCCNC(=O)c1ccc(-c2c3nc(c(-c4cc(S(=O)(=O)[O-])ccc4F)c4ccc([nH]4)c(-c4cc(S(=O)(=O)[O-])ccc4F)c4nc(c(-c5cc(S(=O)(=O)[O-])ccc5F)c5ccc2[nH]5)C=C4)C=C3)cc1)N1C(=O)/C(=C/c2ccccc2[N+](=O)[O-])SC1=S
REMARK SMILES IDX 9 1 8 2 7 3 6 4 4 5 5 6 3 8 2 9 1 10 79 11 80 12 94 13 81 14
REMARK SMILES IDX 82 15 93 16 95 17 83 18 84 19 85 20 89 21 86 22 88 23 87 24
REMARK SMILES IDX 90 25 91 26 92 27 10 28 11 29 12 30 13 31 14 32 15 34 16 35
REMARK SMILES IDX 17 36 78 37 18 38 77 39 19 40 20 41 21 42 71 43 22 44 76 45
REMARK SMILES IDX 70 46 72 47 23 48 75 49 69 50 68 51 24 53 56 54 36 55 55 56
REMARK SMILES IDX 37 57 40 58 54 59 73 60 38 61 39 62 53 64 74 65 41 66 25 67
REMARK SMILES IDX 26 68 34 69 27 70 33 71 35 72 32 73 28 74 29 75 30 76 31 77
REMARK SMILES IDX 57 78 58 79 66 80 59 81 65 82 67 83 64 84 60 85 61 86 62 87
REMARK SMILES IDX 63 88 42 89 43 90 51 91 44 92 50 93 52 94 49 95 45 96 46 97
REMARK SMILES IDX 47 98 48 99
REMARK H PARENT 6 7 13 33 72 52 40 63
REMARK Flexibility Score: inf
ROOT
ATOM      1  C   UNL A   1      37.247  22.433  24.896  1.00  0.00     0.002 C 
ENDROOT
BRANCH   1   2
ATOM      2  C   UNL A   1      36.592  23.284  25.985  1.00  0.00     0.021 C 
BRANCH   2   3
ATOM      3  C   UNL A   1      35.215  23.833  25.600  1.00  0.00     0.116 C 
BRANCH   3   4
ATOM      4  N   UNL A   1      35.089  23.861  24.155  1.00  0.00    -0.354 N 
ATOM      5  C   UNL A   1      34.128  23.335  23.340  1.00  0.00     0.243 C 
ATOM      6  O   UNL A   1      34.348  23.348  22.126  1.00  0.00    -0.273 OA
ATOM      7  H   UNL A   1      35.813  24.337  23.686  1.00  0.00     0.163 HD
BRANCH   5   8
ATOM      8  C   UNL A   1      32.795  22.804  23.925  1.00  0.00     0.181 C 
BRANCH   8   9
ATOM      9  C   UNL A   1      32.095  21.789  22.994  1.00  0.00     0.032 C 
ATOM     10  C   UNL A   1      32.358  20.314  23.209  1.00  0.00     0.006 C 
ENDBRANCH   8   9
BRANCH   8  11
ATOM     11  N   UNL A   1      31.963  24.027  24.189  1.00  0.00    -0.280 N 
ATOM     12  C   UNL A   1      31.665  24.927  23.176  1.00  0.00     0.266 C 
ATOM     13  C   UNL A   1      31.548  24.408  25.455  1.00  0.00     0.149 C 
ATOM     14  O   UNL A   1      31.943  24.848  21.992  1.00  0.00    -0.268 OA
ATOM     15  C   UNL A   1      30.876  26.070  23.696  1.00  0.00     0.081 C 
ATOM     16  S   UNL A   1      30.707  25.964  25.389  1.00  0.00    -0.054 SA
ATOM     17  S   UNL A   1      31.746  23.592  26.901  1.00  0.00    -0.052 S 
ATOM     18  C   UNL A   1      30.425  26.996  22.842  1.00  0.00     0.036 C 
BRANCH  18  19
ATOM     19  C   UNL A   1      29.754  28.261  23.151  1.00  0.00     0.054 A 
ATOM     20  C   UNL A   1      28.405  28.386  22.780  1.00  0.00     0.015 A 
ATOM     21  C   UNL A   1      30.396  29.384  23.699  1.00  0.00     0.276 A 
ATOM     22  C   UNL A   1      27.725  29.595  22.953  1.00  0.00     0.001 A 
ATOM     23  C   UNL A   1      29.715  30.596  23.884  1.00  0.00     0.086 A 
ATOM     24  C   UNL A   1      28.377  30.698  23.504  1.00  0.00     0.007 A 
BRANCH  21  25
ATOM     25  N   UNL A   1      31.817  29.361  24.039  1.00  0.00     0.063 N 
ATOM     26  O   UNL A   1      32.108  29.449  25.241  1.00  0.00    -0.258 OA
ATOM     27  O   UNL A   1      32.635  29.308  23.112  1.00  0.00    -0.258 OA
ENDBRANCH  21  25
ENDBRANCH  18  19
ENDBRANCH   8  11
ENDBRANCH   5   8
ENDBRANCH   3   4
ENDBRANCH   2   3
ENDBRANCH   1   2
BRANCH   1  28
ATOM     28  C   UNL A   1      36.844  20.956  24.914  1.00  0.00     0.002 C 
BRANCH  28  29
ATOM     29  C   UNL A   1      38.007  19.961  24.991  1.00  0.00     0.021 C 
BRANCH  29  30
ATOM     30  C   UNL A   1      39.228  20.456  25.765  1.00  0.00     0.116 C 
BRANCH  30  31
ATOM     31  N   UNL A   1      40.223  19.411  25.931  1.00  0.00    -0.352 N 
ATOM     32  C   UNL A   1      41.584  19.515  26.082  1.00  0.00     0.251 C 
ATOM     33  H   UNL A   1      39.870  18.492  25.936  1.00  0.00     0.163 HD
ATOM     34  O   UNL A   1      42.284  18.514  25.959  1.00  0.00    -0.269 OA
BRANCH  32  35
ATOM     35  C   UNL A   1      42.200  20.828  26.372  1.00  0.00     0.039 A 
ATOM     36  C   UNL A   1      42.541  21.663  25.305  1.00  0.00     0.014 A 
ATOM     37  C   UNL A   1      42.457  21.228  27.686  1.00  0.00     0.014 A 
ATOM     38  C   UNL A   1      43.086  22.923  25.561  1.00  0.00     0.010 A 
ATOM     39  C   UNL A   1      42.933  22.512  27.941  1.00  0.00     0.010 A 
ATOM     40  C   UNL A   1      43.254  23.374  26.882  1.00  0.00    -0.014 A 
BRANCH  40  41
ATOM     41  C   UNL A   1      43.751  24.747  27.161  1.00  0.00     0.031 A 
ATOM     42  C   UNL A   1      42.825  25.797  27.712  1.00  0.00     0.074 A 
ATOM     43  C   UNL A   1      45.031  25.057  26.874  1.00  0.00     0.049 A 
ATOM     44  N   UNL A   1      43.067  27.053  27.986  1.00  0.00    -0.248 NA
ATOM     45  C   UNL A   1      41.436  25.385  27.964  1.00  0.00     0.031 C 
ATOM     46  C   UNL A   1      46.013  24.134  26.297  1.00  0.00     0.029 A 
ATOM     47  N   UNL A   1      45.729  26.229  27.023  1.00  0.00    -0.354 N 
ATOM     48  C   UNL A   1      41.865  27.585  28.438  1.00  0.00     0.074 A 
ATOM     49  C   UNL A   1      40.879  26.528  28.337  1.00  0.00     0.031 C 
ATOM     50  C   UNL A   1      47.191  24.766  26.175  1.00  0.00     0.029 A 
ATOM     51  C   UNL A   1      47.041  26.149  26.615  1.00  0.00     0.049 A 
ATOM     52  H   UNL A   1      45.329  27.051  27.389  1.00  0.00     0.167 HD
ATOM     53  C   UNL A   1      41.611  28.829  28.915  1.00  0.00     0.034 A 
ATOM     54  C   UNL A   1      48.010  27.085  26.587  1.00  0.00     0.034 A 
ATOM     55  C   UNL A   1      42.608  29.868  29.011  1.00  0.00     0.049 A 
ATOM     56  C   UNL A   1      47.696  28.471  27.088  1.00  0.00     0.074 A 
ATOM     57  C   UNL A   1      42.473  31.147  29.525  1.00  0.00     0.029 A 
ATOM     58  N   UNL A   1      43.922  29.757  28.571  1.00  0.00    -0.354 N 
ATOM     59  N   UNL A   1      46.565  28.941  27.565  1.00  0.00    -0.248 NA
ATOM     60  C   UNL A   1      48.789  29.450  27.058  1.00  0.00     0.031 C 
ATOM     61  C   UNL A   1      43.678  31.830  29.326  1.00  0.00     0.029 A 
ATOM     62  C   UNL A   1      44.595  30.954  28.767  1.00  0.00     0.049 A 
ATOM     63  H   UNL A   1      44.318  28.946  28.178  1.00  0.00     0.167 HD
ATOM     64  C   UNL A   1      46.824  30.262  27.921  1.00  0.00     0.074 A 
ATOM     65  C   UNL A   1      48.220  30.506  27.621  1.00  0.00     0.031 C 
ATOM     66  C   UNL A   1      45.985  31.190  28.448  1.00  0.00     0.034 A 
BRANCH  53  67
ATOM     67  C   UNL A   1      40.195  29.136  29.344  1.00  0.00     0.023 A 
ATOM     68  C   UNL A   1      39.801  29.077  30.693  1.00  0.00     0.031 A 
ATOM     69  C   UNL A   1      39.218  29.474  28.391  1.00  0.00     0.131 A 
ATOM     70  C   UNL A   1      38.456  29.276  31.041  1.00  0.00     0.055 A 
ATOM     71  C   UNL A   1      37.898  29.756  28.753  1.00  0.00     0.041 A 
ATOM     72  F   UNL A   1      39.525  29.527  27.085  1.00  0.00    -0.206 F 
ATOM     73  C   UNL A   1      37.507  29.642  30.084  1.00  0.00     0.022 A 
BRANCH  70  74
ATOM     74  S   UNL A   1      37.937  28.904  32.738  1.00  0.00     0.124 S 
ATOM     75  O   UNL A   1      36.573  29.430  32.751  1.00  0.00    -0.237 OA
ATOM     76  O   UNL A   1      38.061  27.452  32.795  1.00  0.00    -0.237 OA
ATOM     77  O   UNL A   1      38.890  29.646  33.560  1.00  0.00    -0.744 OA
ENDBRANCH  70  74
ENDBRANCH  53  67
BRANCH  54  78
ATOM     78  C   UNL A   1      49.366  26.754  26.059  1.00  0.00     0.023 A 
ATOM     79  C   UNL A   1      49.778  27.195  24.792  1.00  0.00     0.031 A 
ATOM     80  C   UNL A   1      50.255  25.952  26.798  1.00  0.00     0.131 A 
ATOM     81  C   UNL A   1      51.021  26.791  24.280  1.00  0.00     0.055 A 
ATOM     82  C   UNL A   1      51.515  25.603  26.309  1.00  0.00     0.041 A 
ATOM     83  F   UNL A   1      49.913  25.505  28.017  1.00  0.00    -0.206 F 
ATOM     84  C   UNL A   1      51.899  26.011  25.036  1.00  0.00     0.022 A 
BRANCH  81  85
ATOM     85  S   UNL A   1      51.438  27.224  22.568  1.00  0.00     0.124 S 
ATOM     86  O   UNL A   1      50.228  26.823  21.859  1.00  0.00    -0.237 OA
ATOM     87  O   UNL A   1      51.678  28.659  22.669  1.00  0.00    -0.237 OA
ATOM     88  O   UNL A   1      52.622  26.413  22.292  1.00  0.00    -0.744 OA
ENDBRANCH  81  85
ENDBRANCH  54  78
BRANCH  66  89
ATOM     89  C   UNL A   1      46.575  32.543  28.768  1.00  0.00     0.023 A 
ATOM     90  C   UNL A   1      46.564  33.595  27.835  1.00  0.00     0.031 A 
ATOM     91  C   UNL A   1      47.175  32.778  30.019  1.00  0.00     0.131 A 
ATOM     92  C   UNL A   1      47.199  34.808  28.141  1.00  0.00     0.055 A 
ATOM     93  C   UNL A   1      47.743  34.009  30.343  1.00  0.00     0.041 A 
ATOM     94  F   UNL A   1      47.218  31.809  30.947  1.00  0.00    -0.206 F 
ATOM     95  C   UNL A   1      47.772  35.028  29.397  1.00  0.00     0.022 A 
BRANCH  92  96
ATOM     96  S   UNL A   1      47.362  36.058  26.837  1.00  0.00     0.124 S 
ATOM     97  O   UNL A   1      48.549  35.598  26.123  1.00  0.00    -0.237 OA
ATOM     98  O   UNL A   1      46.097  35.929  26.121  1.00  0.00    -0.237 OA
ATOM     99  O   UNL A   1      47.529  37.307  27.577  1.00  0.00    -0.744 OA
ENDBRANCH  92  96
ENDBRANCH  66  89
ENDBRANCH  40  41
ENDBRANCH  32  35
ENDBRANCH  30  31
ENDBRANCH  29  30
ENDBRANCH  28  29
ENDBRANCH   1  28
TORSDOF 20
ENDMDL
MODEL 2
REMARK VINA RESULT:     -10.7      2.309      7.696
REMARK SMILES CC[C@@H](C(=O)NCCCCCCNC(=O)c1ccc(-c2c3nc(c(-c4cc(S(=O)(=O)[O-])ccc4F)c4ccc([nH]4)c(-c4cc(S(=O)(=O)[O-])ccc4F)c4nc(c(-c5cc(S(=O)(=O)[O-])ccc5F)c5ccc2[nH]5)C=C4)C=C3)cc1)N1C(=O)/C(=C/c2ccccc2[N+](=O)[O-])SC1=S
REMARK SMILES IDX 9 1 8 2 7 3 6 4 4 5 5 6 3 8 2 9 1 10 79 11 80 12 94 13 81 14
REMARK SMILES IDX 82 15 93 16 95 17 83 18 84 19 85 20 89 21 86 22 88 23 87 24
REMARK SMILES IDX 90 25 91 26 92 27 10 28 11 29 12 30 13 31 14 32 15 34 16 35
REMARK SMILES IDX 17 36 78 37 18 38 77 39 19 40 20 41 21 42 71 43 22 44 76 45
REMARK SMILES IDX 70 46 72 47 23 48 75 49 69 50 68 51 24 53 56 54 36 55 55 56
REMARK SMILES IDX 37 57 40 58 54 59 73 60 38 61 39 62 53 64 74 65 41 66 25 67
REMARK SMILES IDX 26 68 34 69 27 70 33 71 35 72 32 73 28 74 29 75 30 76 31 77
REMARK SMILES IDX 57 78 58 79 66 80 59 81 65 82 67 83 64 84 60 85 61 86 62 87
REMARK SMILES IDX 63 88 42 89 43 90 51 91 44 92 50 93 52 94 49 95 45 96 46 97
REMARK SMILES IDX 47 98 48 99
REMARK H PARENT 6 7 13 33 72 52 40 63
REMARK Flexibility Score: inf
ROOT
ATOM      1  C   UNL A   1      38.954  22.346  26.124  1.00  0.00     0.002 C 
ENDROOT
BRANCH   1   2
ATOM      2  C   UNL A   1      38.105  23.617  26.145  1.00  0.00     0.021 C 
BRANCH   2   3
ATOM      3  C   UNL A   1      36.618  23.377  25.865  1.00  0.00     0.116 C 
BRANCH   3   4
ATOM      4  N   UNL A   1      36.360  23.525  24.445  1.00  0.00    -0.354 N 
ATOM      5  C   UNL A   1      35.325  23.067  23.682  1.00  0.00     0.243 C 
ATOM      6  O   UNL A   1      35.433  23.182  22.458  1.00  0.00    -0.273 OA
ATOM      7  H   UNL A   1      37.041  24.039  23.953  1.00  0.00     0.163 HD
BRANCH   5   8
ATOM      8  C   UNL A   1      34.048  22.489  24.340  1.00  0.00     0.181 C 
BRANCH   8   9
ATOM      9  C   UNL A   1      33.397  21.367  23.502  1.00  0.00     0.032 C 
ATOM     10  C   UNL A   1      32.484  20.382  24.200  1.00  0.00     0.006 C 
ENDBRANCH   8   9
BRANCH   8  11
ATOM     11  N   UNL A   1      33.139  23.668  24.547  1.00  0.00    -0.280 N 
ATOM     12  C   UNL A   1      32.768  24.484  23.488  1.00  0.00     0.266 C 
ATOM     13  C   UNL A   1      32.716  24.095  25.795  1.00  0.00     0.149 C 
ATOM     14  O   UNL A   1      33.035  24.353  22.306  1.00  0.00    -0.268 OA
ATOM     15  C   UNL A   1      31.911  25.601  23.954  1.00  0.00     0.081 C 
ATOM     16  S   UNL A   1      31.772  25.586  25.652  1.00  0.00    -0.054 SA
ATOM     17  S   UNL A   1      32.988  23.382  27.283  1.00  0.00    -0.052 S 
ATOM     18  C   UNL A   1      31.387  26.443  23.055  1.00  0.00     0.036 C 
BRANCH  18  19
ATOM     19  C   UNL A   1      30.637  27.677  23.301  1.00  0.00     0.054 A 
ATOM     20  C   UNL A   1      29.261  27.663  23.025  1.00  0.00     0.015 A 
ATOM     21  C   UNL A   1      31.222  28.893  23.695  1.00  0.00     0.276 A 
ATOM     22  C   UNL A   1      28.497  28.829  23.142  1.00  0.00     0.001 A 
ATOM     23  C   UNL A   1      30.457  30.061  23.823  1.00  0.00     0.086 A 
ATOM     24  C   UNL A   1      29.092  30.025  23.541  1.00  0.00     0.007 A 
BRANCH  21  25
ATOM     25  N   UNL A   1      32.659  29.010  23.926  1.00  0.00     0.063 N 
ATOM     26  O   UNL A   1      33.387  29.056  22.924  1.00  0.00    -0.258 OA
ATOM     27  O   UNL A   1      33.062  29.001  25.096  1.00  0.00    -0.258 OA
ENDBRANCH  21  25
ENDBRANCH  18  19
ENDBRANCH   8  11
ENDBRANCH   5   8
ENDBRANCH   3   4
ENDBRANCH   2   3
ENDBRANCH   1   2
BRANCH   1  28
ATOM     28  C   UNL A   1      38.307  21.160  25.405  1.00  0.00     0.002 C 
BRANCH  28  29
ATOM     29  C   UNL A   1      39.049  19.827  25.543  1.00  0.00     0.021 C 
BRANCH  29  30
ATOM     30  C   UNL A   1      40.128  19.798  26.625  1.00  0.00     0.116 C 
BRANCH  30  31
ATOM     31  N   UNL A   1      41.404  19.344  26.103  1.00  0.00    -0.352 N 
ATOM     32  C   UNL A   1      42.524  20.068  25.776  1.00  0.00     0.251 C 
ATOM     33  H   UNL A   1      41.478  18.372  25.962  1.00  0.00     0.163 HD
ATOM     34  O   UNL A   1      43.416  19.540  25.119  1.00  0.00    -0.269 OA
BRANCH  32  35
ATOM     35  C   UNL A   1      42.643  21.480  26.201  1.00  0.00     0.039 A 
ATOM     36  C   UNL A   1      42.764  21.766  27.563  1.00  0.00     0.014 A 
ATOM     37  C   UNL A   1      42.617  22.518  25.265  1.00  0.00     0.014 A 
ATOM     38  C   UNL A   1      42.918  23.090  27.980  1.00  0.00     0.010 A 
ATOM     39  C   UNL A   1      42.843  23.830  25.677  1.00  0.00     0.010 A 
ATOM     40  C   UNL A   1      42.995  24.131  27.038  1.00  0.00    -0.014 A 
BRANCH  40  41
ATOM     41  C   UNL A   1      43.246  25.532  27.469  1.00  0.00     0.031 A 
ATOM     42  C   UNL A   1      44.630  26.118  27.390  1.00  0.00     0.074 A 
ATOM     43  C   UNL A   1      42.231  26.260  27.975  1.00  0.00     0.049 A 
ATOM     44  N   UNL A   1      45.048  27.304  27.750  1.00  0.00    -0.248 NA
ATOM     45  C   UNL A   1      45.687  25.245  26.860  1.00  0.00     0.031 C 
ATOM     46  C   UNL A   1      40.854  25.785  28.140  1.00  0.00     0.029 A 
ATOM     47  N   UNL A   1      42.193  27.549  28.444  1.00  0.00    -0.354 N 
ATOM     48  C   UNL A   1      46.415  27.321  27.495  1.00  0.00     0.074 A 
ATOM     49  C   UNL A   1      46.765  26.002  27.012  1.00  0.00     0.031 C 
ATOM     50  C   UNL A   1      40.104  26.779  28.639  1.00  0.00     0.029 A 
ATOM     51  C   UNL A   1      40.949  27.944  28.878  1.00  0.00     0.049 A 
ATOM     52  H   UNL A   1      42.983  28.136  28.467  1.00  0.00     0.167 HD
ATOM     53  C   UNL A   1      47.291  28.348  27.628  1.00  0.00     0.034 A 
ATOM     54  C   UNL A   1      40.537  29.108  29.419  1.00  0.00     0.034 A 
ATOM     55  C   UNL A   1      46.924  29.658  28.109  1.00  0.00     0.049 A 
ATOM     56  C   UNL A   1      41.537  30.224  29.591  1.00  0.00     0.074 A 
ATOM     57  C   UNL A   1      47.719  30.784  28.236  1.00  0.00     0.029 A 
ATOM     58  N   UNL A   1      45.657  30.018  28.557  1.00  0.00    -0.354 N 
ATOM     59  N   UNL A   1      42.816  30.240  29.291  1.00  0.00    -0.248 NA
ATOM     60  C   UNL A   1      41.036  31.479  30.163  1.00  0.00     0.031 C 
ATOM     61  C   UNL A   1      46.956  31.796  28.829  1.00  0.00     0.029 A 
ATOM     62  C   UNL A   1      45.661  31.334  28.995  1.00  0.00     0.049 A 
ATOM     63  H   UNL A   1      44.872  29.424  28.563  1.00  0.00     0.167 HD
ATOM     64  C   UNL A   1      43.263  31.519  29.611  1.00  0.00     0.074 A 
ATOM     65  C   UNL A   1      42.113  32.248  30.107  1.00  0.00     0.031 C 
ATOM     66  C   UNL A   1      44.510  32.045  29.504  1.00  0.00     0.034 A 
BRANCH  53  67
ATOM     67  C   UNL A   1      48.736  28.082  27.272  1.00  0.00     0.023 A 
ATOM     68  C   UNL A   1      49.203  28.184  25.949  1.00  0.00     0.031 A 
ATOM     69  C   UNL A   1      49.658  27.702  28.264  1.00  0.00     0.131 A 
ATOM     70  C   UNL A   1      50.527  27.837  25.644  1.00  0.00     0.055 A 
ATOM     71  C   UNL A   1      50.997  27.441  27.966  1.00  0.00     0.041 A 
ATOM     72  F   UNL A   1      49.270  27.566  29.542  1.00  0.00    -0.206 F 
ATOM     73  C   UNL A   1      51.436  27.493  26.646  1.00  0.00     0.022 A 
BRANCH  70  74
ATOM     74  S   UNL A   1      51.006  27.699  23.899  1.00  0.00     0.124 S 
ATOM     75  O   UNL A   1      52.234  26.912  23.993  1.00  0.00    -0.237 OA
ATOM     76  O   UNL A   1      49.857  27.023  23.309  1.00  0.00    -0.237 OA
ATOM     77  O   UNL A   1      51.196  29.088  23.484  1.00  0.00    -0.744 OA
ENDBRANCH  70  74
ENDBRANCH  53  67
BRANCH  54  78
ATOM     78  C   UNL A   1      39.118  29.284  29.846  1.00  0.00     0.023 A 
ATOM     79  C   UNL A   1      38.204  29.992  29.050  1.00  0.00     0.031 A 
ATOM     80  C   UNL A   1      38.665  28.783  31.080  1.00  0.00     0.131 A 
ATOM     81  C   UNL A   1      36.901  30.224  29.519  1.00  0.00     0.055 A 
ATOM     82  C   UNL A   1      37.352  28.964  31.514  1.00  0.00     0.041 A 
ATOM     83  F   UNL A   1      39.497  28.095  31.880  1.00  0.00    -0.206 F 
ATOM     84  C   UNL A   1      36.464  29.702  30.738  1.00  0.00     0.022 A 
BRANCH  81  85
ATOM     85  S   UNL A   1      35.809  31.302  28.550  1.00  0.00     0.124 S 
ATOM     86  O   UNL A   1      34.850  31.736  29.560  1.00  0.00    -0.237 OA
ATOM     87  O   UNL A   1      36.739  32.319  28.068  1.00  0.00    -0.237 OA
ATOM     88  O   UNL A   1      35.275  30.410  27.523  1.00  0.00    -0.744 OA
ENDBRANCH  81  85
ENDBRANCH  54  78
BRANCH  66  89
ATOM     89  C   UNL A   1      44.678  33.494  29.897  1.00  0.00     0.023 A 
ATOM     90  C   UNL A   1      45.032  33.870  31.205  1.00  0.00     0.031 A 
ATOM     91  C   UNL A   1      44.462  34.515  28.954  1.00  0.00     0.131 A 
ATOM     92  C   UNL A   1      45.093  35.228  31.551  1.00  0.00     0.055 A 
ATOM     93  C   UNL A   1      44.593  35.863  29.286  1.00  0.00     0.041 A 
ATOM     94  F   UNL A   1      44.119  34.216  27.691  1.00  0.00    -0.206 F 
ATOM     95  C   UNL A   1      44.895  36.227  30.595  1.00  0.00     0.022 A 
BRANCH  92  96
ATOM     96  S   UNL A   1      45.329  35.673  33.293  1.00  0.00     0.124 S 
ATOM     97  O   UNL A   1      45.837  37.038  33.191  1.00  0.00    -0.237 OA
ATOM     98  O   UNL A   1      43.982  35.534  33.836  1.00  0.00    -0.237 OA
ATOM     99  O   UNL A   1      46.294  34.686  33.773  1.00  0.00    -0.744 OA
ENDBRANCH  92  96
ENDBRANCH  66  89
ENDBRANCH  40  41
ENDBRANCH  32  35
ENDBRANCH  30  31
ENDBRANCH  29  30
ENDBRANCH  28  29
ENDBRANCH   1  28
TORSDOF 20
ENDMDL
MODEL 3
REMARK VINA RESULT:     -10.7      5.616     11.599
REMARK SMILES CC[C@@H](C(=O)NCCCCCCNC(=O)c1ccc(-c2c3nc(c(-c4cc(S(=O)(=O)[O-])ccc4F)c4ccc([nH]4)c(-c4cc(S(=O)(=O)[O-])ccc4F)c4nc(c(-c5cc(S(=O)(=O)[O-])ccc5F)c5ccc2[nH]5)C=C4)C=C3)cc1)N1C(=O)/C(=C/c2ccccc2[N+](=O)[O-])SC1=S
REMARK SMILES IDX 9 1 8 2 7 3 6 4 4 5 5 6 3 8 2 9 1 10 79 11 80 12 94 13 81 14
REMARK SMILES IDX 82 15 93 16 95 17 83 18 84 19 85 20 89 21 86 22 88 23 87 24
REMARK SMILES IDX 90 25 91 26 92 27 10 28 11 29 12 30 13 31 14 32 15 34 16 35
REMARK SMILES IDX 17 36 78 37 18 38 77 39 19 40 20 41 21 42 71 43 22 44 76 45
REMARK SMILES IDX 70 46 72 47 23 48 75 49 69 50 68 51 24 53 56 54 36 55 55 56
REMARK SMILES IDX 37 57 40 58 54 59 73 60 38 61 39 62 53 64 74 65 41 66 25 67
REMARK SMILES IDX 26 68 34 69 27 70 33 71 35 72 32 73 28 74 29 75 30 76 31 77
REMARK SMILES IDX 57 78 58 79 66 80 59 81 65 82 67 83 64 84 60 85 61 86 62 87
REMARK SMILES IDX 63 88 42 89 43 90 51 91 44 92 50 93 52 94 49 95 45 96 46 97
REMARK SMILES IDX 47 98 48 99
REMARK H PARENT 6 7 13 33 72 52 40 63
REMARK Flexibility Score: inf
ROOT
ATOM      1  C   UNL A   1      33.312  29.111  26.943  1.00  0.00     0.002 C 
ENDROOT
BRANCH   1   2
ATOM      2  C   UNL A   1      31.806  29.283  26.745  1.00  0.00     0.021 C 
BRANCH   2   3
ATOM      3  C   UNL A   1      31.377  29.360  25.277  1.00  0.00     0.116 C 
BRANCH   3   4
ATOM      4  N   UNL A   1      30.780  28.100  24.877  1.00  0.00    -0.354 N 
ATOM      5  C   UNL A   1      31.286  27.080  24.124  1.00  0.00     0.243 C 
ATOM      6  O   UNL A   1      30.504  26.188  23.782  1.00  0.00    -0.273 OA
ATOM      7  H   UNL A   1      29.861  27.956  25.203  1.00  0.00     0.163 HD
BRANCH   5   8
ATOM      8  C   UNL A   1      32.794  27.026  23.772  1.00  0.00     0.181 C 
BRANCH   8   9
ATOM      9  C   UNL A   1      33.143  27.837  22.504  1.00  0.00     0.032 C 
ATOM     10  C   UNL A   1      34.465  28.574  22.461  1.00  0.00     0.006 C 
ENDBRANCH   8   9
BRANCH   8  11
ATOM     11  N   UNL A   1      33.118  25.565  23.640  1.00  0.00    -0.280 N 
ATOM     12  C   UNL A   1      33.552  24.824  24.730  1.00  0.00     0.266 C 
ATOM     13  C   UNL A   1      33.132  24.893  22.428  1.00  0.00     0.149 C 
ATOM     14  O   UNL A   1      33.666  25.183  25.889  1.00  0.00    -0.268 OA
ATOM     15  C   UNL A   1      33.853  23.426  24.335  1.00  0.00     0.081 C 
ATOM     16  S   UNL A   1      33.689  23.227  22.650  1.00  0.00    -0.054 SA
ATOM     17  S   UNL A   1      32.698  25.467  20.919  1.00  0.00    -0.052 S 
ATOM     18  C   UNL A   1      34.205  22.541  25.276  1.00  0.00     0.036 C 
BRANCH  18  19
ATOM     19  C   UNL A   1      34.671  21.165  25.094  1.00  0.00     0.054 A 
ATOM     20  C   UNL A   1      36.048  20.924  25.232  1.00  0.00     0.015 A 
ATOM     21  C   UNL A   1      33.849  20.097  24.695  1.00  0.00     0.276 A 
ATOM     22  C   UNL A   1      36.581  19.657  24.978  1.00  0.00     0.001 A 
ATOM     23  C   UNL A   1      34.379  18.822  24.450  1.00  0.00     0.086 A 
ATOM     24  C   UNL A   1      35.750  18.608  24.589  1.00  0.00     0.007 A 
BRANCH  21  25
ATOM     25  N   UNL A   1      32.421  20.282  24.455  1.00  0.00     0.063 N 
ATOM     26  O   UNL A   1      32.042  20.261  23.275  1.00  0.00    -0.258 OA
ATOM     27  O   UNL A   1      31.691  20.500  25.431  1.00  0.00    -0.258 OA
ENDBRANCH  21  25
ENDBRANCH  18  19
ENDBRANCH   8  11
ENDBRANCH   5   8
ENDBRANCH   3   4
ENDBRANCH   2   3
ENDBRANCH   1   2
BRANCH   1  28
ATOM     28  C   UNL A   1      34.060  30.401  27.290  1.00  0.00     0.002 C 
BRANCH  28  29
ATOM     29  C   UNL A   1      33.173  31.586  27.684  1.00  0.00     0.021 C 
BRANCH  29  30
ATOM     30  C   UNL A   1      33.703  32.956  27.260  1.00  0.00     0.116 C 
BRANCH  30  31
ATOM     31  N   UNL A   1      33.141  34.026  28.065  1.00  0.00    -0.352 N 
ATOM     32  C   UNL A   1      33.419  34.386  29.360  1.00  0.00     0.251 C 
ATOM     33  H   UNL A   1      32.457  34.574  27.615  1.00  0.00     0.163 HD
ATOM     34  O   UNL A   1      32.667  35.157  29.949  1.00  0.00    -0.269 OA
BRANCH  32  35
ATOM     35  C   UNL A   1      34.609  33.834  30.044  1.00  0.00     0.039 A 
ATOM     36  C   UNL A   1      34.444  32.760  30.921  1.00  0.00     0.014 A 
ATOM     37  C   UNL A   1      35.878  34.382  29.836  1.00  0.00     0.014 A 
ATOM     38  C   UNL A   1      35.561  32.199  31.544  1.00  0.00     0.010 A 
ATOM     39  C   UNL A   1      36.998  33.775  30.402  1.00  0.00     0.010 A 
ATOM     40  C   UNL A   1      36.852  32.678  31.263  1.00  0.00    -0.014 A 
BRANCH  40  41
ATOM     41  C   UNL A   1      38.051  32.029  31.855  1.00  0.00     0.031 A 
ATOM     42  C   UNL A   1      38.777  30.942  31.109  1.00  0.00     0.074 A 
ATOM     43  C   UNL A   1      38.459  32.393  33.087  1.00  0.00     0.049 A 
ATOM     44  N   UNL A   1      39.817  30.238  31.477  1.00  0.00    -0.248 NA
ATOM     45  C   UNL A   1      38.245  30.581  29.787  1.00  0.00     0.031 C 
ATOM     46  C   UNL A   1      37.811  33.406  33.924  1.00  0.00     0.029 A 
ATOM     47  N   UNL A   1      39.510  31.956  33.854  1.00  0.00    -0.354 N 
ATOM     48  C   UNL A   1      40.064  29.349  30.437  1.00  0.00     0.074 A 
ATOM     49  C   UNL A   1      39.022  29.560  29.453  1.00  0.00     0.031 C 
ATOM     50  C   UNL A   1      38.498  33.535  35.069  1.00  0.00     0.029 A 
ATOM     51  C   UNL A   1      39.604  32.584  35.074  1.00  0.00     0.049 A 
ATOM     52  H   UNL A   1      40.139  31.259  33.557  1.00  0.00     0.167 HD
ATOM     53  C   UNL A   1      41.078  28.458  30.303  1.00  0.00     0.034 A 
ATOM     54  C   UNL A   1      40.475  32.406  36.088  1.00  0.00     0.034 A 
ATOM     55  C   UNL A   1      42.110  28.264  31.294  1.00  0.00     0.049 A 
ATOM     56  C   UNL A   1      41.572  31.384  35.932  1.00  0.00     0.074 A 
ATOM     57  C   UNL A   1      43.211  27.427  31.239  1.00  0.00     0.029 A 
ATOM     58  N   UNL A   1      42.163  28.905  32.527  1.00  0.00    -0.354 N 
ATOM     59  N   UNL A   1      41.824  30.590  34.915  1.00  0.00    -0.248 NA
ATOM     60  C   UNL A   1      42.508  31.241  37.053  1.00  0.00     0.031 C 
ATOM     61  C   UNL A   1      43.883  27.503  32.464  1.00  0.00     0.029 A 
ATOM     62  C   UNL A   1      43.255  28.453  33.254  1.00  0.00     0.049 A 
ATOM     63  H   UNL A   1      41.520  29.581  32.839  1.00  0.00     0.167 HD
ATOM     64  C   UNL A   1      42.968  29.877  35.267  1.00  0.00     0.074 A 
ATOM     65  C   UNL A   1      43.364  30.350  36.577  1.00  0.00     0.031 C 
ATOM     66  C   UNL A   1      43.630  28.920  34.568  1.00  0.00     0.034 A 
BRANCH  53  67
ATOM     67  C   UNL A   1      41.101  27.611  29.052  1.00  0.00     0.023 A 
ATOM     68  C   UNL A   1      42.079  27.788  28.056  1.00  0.00     0.031 A 
ATOM     69  C   UNL A   1      40.122  26.624  28.840  1.00  0.00     0.131 A 
ATOM     70  C   UNL A   1      42.011  27.048  26.867  1.00  0.00     0.055 A 
ATOM     71  C   UNL A   1      40.110  25.830  27.690  1.00  0.00     0.041 A 
ATOM     72  F   UNL A   1      39.149  26.420  29.742  1.00  0.00    -0.206 F 
ATOM     73  C   UNL A   1      41.050  26.051  26.687  1.00  0.00     0.022 A 
BRANCH  70  74
ATOM     74  S   UNL A   1      43.105  27.510  25.496  1.00  0.00     0.124 S 
ATOM     75  O   UNL A   1      42.185  28.222  24.612  1.00  0.00    -0.237 OA
ATOM     76  O   UNL A   1      44.114  28.327  26.159  1.00  0.00    -0.237 OA
ATOM     77  O   UNL A   1      43.578  26.225  24.985  1.00  0.00    -0.744 OA
ENDBRANCH  70  74
ENDBRANCH  53  67
BRANCH  54  78
ATOM     78  C   UNL A   1      40.346  33.200  37.344  1.00  0.00     0.023 A 
ATOM     79  C   UNL A   1      39.589  32.726  38.428  1.00  0.00     0.031 A 
ATOM     80  C   UNL A   1      40.942  34.469  37.464  1.00  0.00     0.131 A 
ATOM     81  C   UNL A   1      39.405  33.535  39.560  1.00  0.00     0.055 A 
ATOM     82  C   UNL A   1      40.806  35.244  38.616  1.00  0.00     0.041 A 
ATOM     83  F   UNL A   1      41.679  34.970  36.459  1.00  0.00    -0.206 F 
ATOM     84  C   UNL A   1      40.021  34.783  39.669  1.00  0.00     0.022 A 
BRANCH  81  85
ATOM     85  S   UNL A   1      38.269  32.968  40.856  1.00  0.00     0.124 S 
ATOM     86  O   UNL A   1      38.539  33.924  41.925  1.00  0.00    -0.237 OA
ATOM     87  O   UNL A   1      36.973  33.092  40.197  1.00  0.00    -0.237 OA
ATOM     88  O   UNL A   1      38.706  31.598  41.116  1.00  0.00    -0.744 OA
ENDBRANCH  81  85
ENDBRANCH  54  78
BRANCH  66  89
ATOM     89  C   UNL A   1      44.879  28.352  35.202  1.00  0.00     0.023 A 
ATOM     90  C   UNL A   1      44.843  27.196  36.002  1.00  0.00     0.031 A 
ATOM     91  C   UNL A   1      46.120  28.988  35.019  1.00  0.00     0.131 A 
ATOM     92  C   UNL A   1      46.010  26.752  36.642  1.00  0.00     0.055 A 
ATOM     93  C   UNL A   1      47.290  28.501  35.601  1.00  0.00     0.041 A 
ATOM     94  F   UNL A   1      46.214  30.098  34.268  1.00  0.00    -0.206 F 
ATOM     95  C   UNL A   1      47.237  27.386  36.431  1.00  0.00     0.022 A 
BRANCH  92  96
ATOM     96  S   UNL A   1      45.883  25.397  37.841  1.00  0.00     0.124 S 
ATOM     97  O   UNL A   1      45.808  26.119  39.107  1.00  0.00    -0.237 OA
ATOM     98  O   UNL A   1      44.660  24.721  37.420  1.00  0.00    -0.237 OA
ATOM     99  O   UNL A   1      47.113  24.636  37.632  1.00  0.00    -0.744 OA
ENDBRANCH  92  96
ENDBRANCH  66  89
ENDBRANCH  40  41
ENDBRANCH  32  35
ENDBRANCH  30  31
ENDBRANCH  29  30
ENDBRANCH  28  29
ENDBRANCH   1  28
TORSDOF 20
ENDMDL
