MODEL 1
REMARK VINA RESULT:     -12.0      0.000      0.000
REMARK SMILES Cc1nc(N[C@@H](C(=O)NCCCCCCNC(=O)c2ccc(-c3c4nc(c(-c5cc(S(=O)(=O)[O-])ccc5F)c5ccc([nH]5)c(-c5cc(S(=O)(=O)[O-])ccc5F)c5nc(c(-c6cc(S(=O)(=O)[O-])ccc6F)c6ccc3[nH]6)C=C5)C=C4)cc2)C(C)C)c2c3c(sc2n1)CCCC3
REMARK SMILES IDX 13 1 12 2 11 3 10 4 9 5 7 6 8 7 6 9 5 10 4 12 1 13 2 14 3 15
REMARK SMILES IDX 90 16 89 17 85 18 88 19 86 20 87 21 94 22 91 23 93 24 92 25
REMARK SMILES IDX 82 26 83 27 84 28 14 29 15 30 16 31 17 32 18 34 19 35 20 36
REMARK SMILES IDX 81 37 21 38 80 39 22 40 23 41 24 42 74 43 25 44 79 45 73 46
REMARK SMILES IDX 75 47 26 48 78 49 72 50 71 51 27 53 59 54 39 55 58 56 40 57
REMARK SMILES IDX 43 58 57 59 76 60 41 61 42 62 56 64 77 65 44 66 28 67 29 68
REMARK SMILES IDX 37 69 30 70 36 71 38 72 35 73 31 74 32 75 33 76 34 77 60 78
REMARK SMILES IDX 61 79 69 80 62 81 68 82 70 83 67 84 63 85 64 86 65 87 66 88
REMARK SMILES IDX 45 89 46 90 54 91 47 92 53 93 55 94 52 95 48 96 49 97 50 98
REMARK SMILES IDX 51 99
REMARK H PARENT 9 8 5 11 16 33 75 52 43 63
REMARK Flexibility Score: inf
ROOT
ATOM      1  C   UNL A   1      31.718  29.446  25.354  1.00  0.00     0.002 C 
ENDROOT
BRANCH   1   2
ATOM      2  C   UNL A   1      31.716  28.074  24.670  1.00  0.00     0.002 C 
BRANCH   2   3
ATOM      3  C   UNL A   1      32.880  27.856  23.697  1.00  0.00     0.021 C 
BRANCH   3   4
ATOM      4  C   UNL A   1      33.746  26.652  24.071  1.00  0.00     0.116 C 
BRANCH   4   5
ATOM      5  N   UNL A   1      33.350  25.477  23.312  1.00  0.00    -0.354 N 
ATOM      6  C   UNL A   1      32.898  24.262  23.764  1.00  0.00     0.242 C 
ATOM      7  O   UNL A   1      32.790  23.350  22.942  1.00  0.00    -0.273 OA
ATOM      8  H   UNL A   1      33.417  25.564  22.334  1.00  0.00     0.163 HD
BRANCH   6   9
ATOM      9  C   UNL A   1      32.434  24.125  25.240  1.00  0.00     0.172 C 
BRANCH   9  10
ATOM     10  N   UNL A   1      33.212  23.136  25.954  1.00  0.00    -0.358 N 
ATOM     11  H   UNL A   1      32.793  22.817  26.786  1.00  0.00     0.162 HD
BRANCH  10  12
ATOM     12  C   UNL A   1      34.429  22.562  25.680  1.00  0.00     0.139 A 
ATOM     13  C   UNL A   1      37.749  24.084  26.289  1.00  0.00     0.090 C 
ATOM     14  C   UNL A   1      36.716  23.083  25.869  1.00  0.00     0.129 A 
ATOM     15  N   UNL A   1      35.428  23.435  25.971  1.00  0.00    -0.216 NA
ATOM     16  N   UNL A   1      37.152  21.886  25.499  1.00  0.00    -0.222 NA
ATOM     17  C   UNL A   1      36.170  21.024  25.207  1.00  0.00     0.129 A 
ATOM     18  C   UNL A   1      34.791  21.246  25.240  1.00  0.00     0.057 A 
ATOM     19  S   UNL A   1      36.622  19.443  24.775  1.00  0.00    -0.120 S 
ATOM     20  C   UNL A   1      34.114  19.999  24.832  1.00  0.00    -0.021 A 
ATOM     21  C   UNL A   1      35.012  18.961  24.626  1.00  0.00     0.011 A 
ATOM     22  C   UNL A   1      32.647  19.708  24.680  1.00  0.00     0.037 C 
ATOM     23  C   UNL A   1      34.665  17.545  24.269  1.00  0.00     0.047 C 
ATOM     24  C   UNL A   1      32.319  18.378  23.996  1.00  0.00     0.005 C 
ATOM     25  C   UNL A   1      33.187  17.258  24.557  1.00  0.00     0.006 C 
ENDBRANCH  10  12
ENDBRANCH   9  10
BRANCH   9  26
ATOM     26  C   UNL A   1      30.914  23.835  25.362  1.00  0.00     0.015 C 
ATOM     27  C   UNL A   1      30.593  22.551  26.139  1.00  0.00     0.010 C 
ATOM     28  C   UNL A   1      30.201  25.011  26.050  1.00  0.00     0.010 C 
ENDBRANCH   9  26
ENDBRANCH   6   9
ENDBRANCH   4   5
ENDBRANCH   3   4
ENDBRANCH   2   3
ENDBRANCH   1   2
BRANCH   1  29
ATOM     29  C   UNL A   1      32.174  29.454  26.825  1.00  0.00     0.021 C 
BRANCH  29  30
ATOM     30  C   UNL A   1      33.694  29.353  27.043  1.00  0.00     0.116 C 
BRANCH  30  31
ATOM     31  N   UNL A   1      34.300  30.663  26.893  1.00  0.00    -0.352 N 
ATOM     32  C   UNL A   1      35.220  31.330  27.650  1.00  0.00     0.251 C 
ATOM     33  H   UNL A   1      33.991  31.162  26.104  1.00  0.00     0.163 HD
ATOM     34  O   UNL A   1      35.210  32.561  27.589  1.00  0.00    -0.269 OA
BRANCH  32  35
ATOM     35  C   UNL A   1      36.244  30.652  28.478  1.00  0.00     0.039 A 
ATOM     36  C   UNL A   1      37.388  30.186  27.814  1.00  0.00     0.014 A 
ATOM     37  C   UNL A   1      36.033  30.294  29.813  1.00  0.00     0.014 A 
ATOM     38  C   UNL A   1      38.309  29.372  28.471  1.00  0.00     0.010 A 
ATOM     39  C   UNL A   1      36.963  29.478  30.473  1.00  0.00     0.010 A 
ATOM     40  C   UNL A   1      38.107  29.011  29.808  1.00  0.00    -0.014 A 
BRANCH  40  41
ATOM     41  C   UNL A   1      39.187  28.251  30.474  1.00  0.00     0.031 A 
ATOM     42  C   UNL A   1      39.915  27.281  29.596  1.00  0.00     0.074 A 
ATOM     43  C   UNL A   1      39.825  28.721  31.569  1.00  0.00     0.049 A 
ATOM     44  N   UNL A   1      40.839  27.647  28.754  1.00  0.00    -0.248 NA
ATOM     45  C   UNL A   1      39.472  25.900  29.415  1.00  0.00     0.031 C 
ATOM     46  C   UNL A   1      40.148  30.141  31.769  1.00  0.00     0.029 A 
ATOM     47  N   UNL A   1      40.523  28.075  32.565  1.00  0.00    -0.354 N 
ATOM     48  C   UNL A   1      41.099  26.569  27.926  1.00  0.00     0.074 A 
ATOM     49  C   UNL A   1      40.218  25.509  28.369  1.00  0.00     0.031 C 
ATOM     50  C   UNL A   1      41.120  30.236  32.702  1.00  0.00     0.029 A 
ATOM     51  C   UNL A   1      41.388  28.915  33.268  1.00  0.00     0.049 A 
ATOM     52  H   UNL A   1      40.423  27.115  32.762  1.00  0.00     0.167 HD
ATOM     53  C   UNL A   1      42.030  26.610  26.936  1.00  0.00     0.034 A 
ATOM     54  C   UNL A   1      42.585  28.524  33.791  1.00  0.00     0.034 A 
ATOM     55  C   UNL A   1      42.773  27.832  26.846  1.00  0.00     0.049 A 
ATOM     56  C   UNL A   1      43.412  28.397  32.532  1.00  0.00     0.074 A 
ATOM     57  C   UNL A   1      42.729  29.003  26.122  1.00  0.00     0.029 A 
ATOM     58  N   UNL A   1      43.833  28.005  27.707  1.00  0.00    -0.354 N 
ATOM     59  N   UNL A   1      43.925  29.380  31.841  1.00  0.00    -0.248 NA
ATOM     60  C   UNL A   1      43.332  27.123  31.815  1.00  0.00     0.031 C 
ATOM     61  C   UNL A   1      43.430  29.966  26.916  1.00  0.00     0.029 A 
ATOM     62  C   UNL A   1      43.820  29.321  28.089  1.00  0.00     0.049 A 
ATOM     63  H   UNL A   1      44.475  27.316  27.993  1.00  0.00     0.167 HD
ATOM     64  C   UNL A   1      43.977  28.923  30.523  1.00  0.00     0.074 A 
ATOM     65  C   UNL A   1      43.612  27.520  30.581  1.00  0.00     0.031 C 
ATOM     66  C   UNL A   1      44.134  29.737  29.438  1.00  0.00     0.034 A 
BRANCH  53  67
ATOM     67  C   UNL A   1      42.441  25.469  26.089  1.00  0.00     0.023 A 
ATOM     68  C   UNL A   1      41.874  24.218  26.375  1.00  0.00     0.031 A 
ATOM     69  C   UNL A   1      43.527  25.522  25.210  1.00  0.00     0.131 A 
ATOM     70  C   UNL A   1      42.431  23.052  25.845  1.00  0.00     0.055 A 
ATOM     71  C   UNL A   1      44.067  24.353  24.657  1.00  0.00     0.041 A 
ATOM     72  F   UNL A   1      44.120  26.691  24.922  1.00  0.00    -0.206 F 
ATOM     73  C   UNL A   1      43.531  23.107  24.990  1.00  0.00     0.022 A 
BRANCH  70  74
ATOM     74  S   UNL A   1      41.743  21.469  26.392  1.00  0.00     0.124 S 
ATOM     75  O   UNL A   1      40.328  21.633  26.092  1.00  0.00    -0.237 OA
ATOM     76  O   UNL A   1      42.473  20.525  25.553  1.00  0.00    -0.237 OA
ATOM     77  O   UNL A   1      42.081  21.429  27.816  1.00  0.00    -0.744 OA
ENDBRANCH  70  74
ENDBRANCH  53  67
BRANCH  54  78
ATOM     78  C   UNL A   1      42.544  27.462  34.850  1.00  0.00     0.023 A 
ATOM     79  C   UNL A   1      43.284  26.281  34.630  1.00  0.00     0.031 A 
ATOM     80  C   UNL A   1      41.815  27.526  36.049  1.00  0.00     0.131 A 
ATOM     81  C   UNL A   1      43.384  25.291  35.621  1.00  0.00     0.055 A 
ATOM     82  C   UNL A   1      41.938  26.554  37.051  1.00  0.00     0.041 A 
ATOM     83  F   UNL A   1      40.976  28.541  36.302  1.00  0.00    -0.206 F 
ATOM     84  C   UNL A   1      42.744  25.439  36.850  1.00  0.00     0.022 A 
BRANCH  81  85
ATOM     85  S   UNL A   1      44.426  23.841  35.306  1.00  0.00     0.124 S 
ATOM     86  O   UNL A   1      45.236  24.286  34.178  1.00  0.00    -0.237 OA
ATOM     87  O   UNL A   1      45.131  23.678  36.574  1.00  0.00    -0.237 OA
ATOM     88  O   UNL A   1      43.460  22.787  35.004  1.00  0.00    -0.744 OA
ENDBRANCH  81  85
ENDBRANCH  54  78
BRANCH  66  89
ATOM     89  C   UNL A   1      44.430  31.174  29.721  1.00  0.00     0.023 A 
ATOM     90  C   UNL A   1      43.378  32.088  29.879  1.00  0.00     0.031 A 
ATOM     91  C   UNL A   1      45.746  31.635  29.903  1.00  0.00     0.131 A 
ATOM     92  C   UNL A   1      43.651  33.413  30.241  1.00  0.00     0.055 A 
ATOM     93  C   UNL A   1      46.013  32.949  30.293  1.00  0.00     0.041 A 
ATOM     94  F   UNL A   1      46.799  30.817  29.734  1.00  0.00    -0.206 F 
ATOM     95  C   UNL A   1      44.961  33.842  30.473  1.00  0.00     0.022 A 
BRANCH  92  96
ATOM     96  S   UNL A   1      42.268  34.562  30.467  1.00  0.00     0.124 S 
ATOM     97  O   UNL A   1      42.293  35.333  29.228  1.00  0.00    -0.237 OA
ATOM     98  O   UNL A   1      41.130  33.667  30.642  1.00  0.00    -0.237 OA
ATOM     99  O   UNL A   1      42.644  35.312  31.666  1.00  0.00    -0.744 OA
ENDBRANCH  92  96
ENDBRANCH  66  89
ENDBRANCH  40  41
ENDBRANCH  32  35
ENDBRANCH  30  31
ENDBRANCH  29  30
ENDBRANCH   1  29
TORSDOF 19
ENDMDL
MODEL 2
REMARK VINA RESULT:     -11.6      2.991      7.012
REMARK SMILES Cc1nc(N[C@@H](C(=O)NCCCCCCNC(=O)c2ccc(-c3c4nc(c(-c5cc(S(=O)(=O)[O-])ccc5F)c5ccc([nH]5)c(-c5cc(S(=O)(=O)[O-])ccc5F)c5nc(c(-c6cc(S(=O)(=O)[O-])ccc6F)c6ccc3[nH]6)C=C5)C=C4)cc2)C(C)C)c2c3c(sc2n1)CCCC3
REMARK SMILES IDX 13 1 12 2 11 3 10 4 9 5 7 6 8 7 6 9 5 10 4 12 1 13 2 14 3 15
REMARK SMILES IDX 90 16 89 17 85 18 88 19 86 20 87 21 94 22 91 23 93 24 92 25
REMARK SMILES IDX 82 26 83 27 84 28 14 29 15 30 16 31 17 32 18 34 19 35 20 36
REMARK SMILES IDX 81 37 21 38 80 39 22 40 23 41 24 42 74 43 25 44 79 45 73 46
REMARK SMILES IDX 75 47 26 48 78 49 72 50 71 51 27 53 59 54 39 55 58 56 40 57
REMARK SMILES IDX 43 58 57 59 76 60 41 61 42 62 56 64 77 65 44 66 28 67 29 68
REMARK SMILES IDX 37 69 30 70 36 71 38 72 35 73 31 74 32 75 33 76 34 77 60 78
REMARK SMILES IDX 61 79 69 80 62 81 68 82 70 83 67 84 63 85 64 86 65 87 66 88
REMARK SMILES IDX 45 89 46 90 54 91 47 92 53 93 55 94 52 95 48 96 49 97 50 98
REMARK SMILES IDX 51 99
REMARK H PARENT 9 8 5 11 16 33 75 52 43 63
REMARK Flexibility Score: inf
ROOT
ATOM      1  C   UNL A   1      33.247  28.544  27.450  1.00  0.00     0.002 C 
ENDROOT
BRANCH   1   2
ATOM      2  C   UNL A   1      31.723  28.666  27.327  1.00  0.00     0.002 C 
BRANCH   2   3
ATOM      3  C   UNL A   1      31.060  27.515  26.562  1.00  0.00     0.021 C 
BRANCH   3   4
ATOM      4  C   UNL A   1      32.038  26.385  26.232  1.00  0.00     0.116 C 
BRANCH   4   5
ATOM      5  N   UNL A   1      31.757  25.209  27.037  1.00  0.00    -0.354 N 
ATOM      6  C   UNL A   1      31.957  23.884  26.739  1.00  0.00     0.242 C 
ATOM      7  O   UNL A   1      31.478  23.046  27.506  1.00  0.00    -0.273 OA
ATOM      8  H   UNL A   1      31.366  25.387  27.923  1.00  0.00     0.163 HD
BRANCH   6   9
ATOM      9  C   UNL A   1      32.864  23.503  25.537  1.00  0.00     0.172 C 
BRANCH   9  10
ATOM     10  N   UNL A   1      34.246  23.853  25.780  1.00  0.00    -0.358 N 
ATOM     11  H   UNL A   1      34.378  24.770  26.116  1.00  0.00     0.162 HD
BRANCH  10  12
ATOM     12  C   UNL A   1      35.408  23.138  25.626  1.00  0.00     0.139 A 
ATOM     13  C   UNL A   1      38.824  24.324  26.425  1.00  0.00     0.090 C 
ATOM     14  C   UNL A   1      37.720  23.419  25.970  1.00  0.00     0.129 A 
ATOM     15  N   UNL A   1      36.474  23.913  25.956  1.00  0.00    -0.216 NA
ATOM     16  N   UNL A   1      38.046  22.165  25.686  1.00  0.00    -0.222 NA
ATOM     17  C   UNL A   1      36.997  21.400  25.355  1.00  0.00     0.129 A 
ATOM     18  C   UNL A   1      35.653  21.771  25.272  1.00  0.00     0.057 A 
ATOM     19  S   UNL A   1      37.301  19.760  25.026  1.00  0.00    -0.120 S 
ATOM     20  C   UNL A   1      34.873  20.585  24.865  1.00  0.00    -0.021 A 
ATOM     21  C   UNL A   1      35.663  19.447  24.774  1.00  0.00     0.011 A 
ATOM     22  C   UNL A   1      33.397  20.445  24.612  1.00  0.00     0.037 C 
ATOM     23  C   UNL A   1      35.187  18.060  24.450  1.00  0.00     0.047 C 
ATOM     24  C   UNL A   1      32.974  19.127  23.961  1.00  0.00     0.005 C 
ATOM     25  C   UNL A   1      33.670  17.949  24.635  1.00  0.00     0.006 C 
ENDBRANCH  10  12
ENDBRANCH   9  10
BRANCH   9  26
ATOM     26  C   UNL A   1      32.362  24.103  24.197  1.00  0.00     0.015 C 
ATOM     27  C   UNL A   1      33.359  23.945  23.040  1.00  0.00     0.010 C 
ATOM     28  C   UNL A   1      31.031  23.452  23.785  1.00  0.00     0.010 C 
ENDBRANCH   9  26
ENDBRANCH   6   9
ENDBRANCH   4   5
ENDBRANCH   3   4
ENDBRANCH   2   3
ENDBRANCH   1   2
BRANCH   1  29
ATOM     29  C   UNL A   1      34.014  29.876  27.547  1.00  0.00     0.021 C 
BRANCH  29  30
ATOM     30  C   UNL A   1      35.534  29.747  27.745  1.00  0.00     0.116 C 
BRANCH  30  31
ATOM     31  N   UNL A   1      35.868  29.961  29.140  1.00  0.00    -0.352 N 
ATOM     32  C   UNL A   1      36.799  29.378  29.952  1.00  0.00     0.251 C 
ATOM     33  H   UNL A   1      35.325  30.651  29.583  1.00  0.00     0.163 HD
ATOM     34  O   UNL A   1      36.571  29.386  31.162  1.00  0.00    -0.269 OA
BRANCH  32  35
ATOM     35  C   UNL A   1      38.071  28.802  29.455  1.00  0.00     0.039 A 
ATOM     36  C   UNL A   1      38.639  29.405  28.324  1.00  0.00     0.014 A 
ATOM     37  C   UNL A   1      38.602  27.600  29.933  1.00  0.00     0.014 A 
ATOM     38  C   UNL A   1      39.723  28.816  27.675  1.00  0.00     0.010 A 
ATOM     39  C   UNL A   1      39.697  27.013  29.281  1.00  0.00     0.010 A 
ATOM     40  C   UNL A   1      40.265  27.615  28.149  1.00  0.00    -0.014 A 
BRANCH  40  41
ATOM     41  C   UNL A   1      41.490  27.117  27.486  1.00  0.00     0.031 A 
ATOM     42  C   UNL A   1      42.447  28.179  27.040  1.00  0.00     0.074 A 
ATOM     43  C   UNL A   1      41.978  25.878  27.717  1.00  0.00     0.049 A 
ATOM     44  N   UNL A   1      43.263  28.782  27.856  1.00  0.00    -0.248 NA
ATOM     45  C   UNL A   1      42.360  28.812  25.725  1.00  0.00     0.031 C 
ATOM     46  C   UNL A   1      41.938  25.226  29.033  1.00  0.00     0.029 A 
ATOM     47  N   UNL A   1      42.800  25.068  26.966  1.00  0.00    -0.354 N 
ATOM     48  C   UNL A   1      43.791  29.873  27.188  1.00  0.00     0.074 A 
ATOM     49  C   UNL A   1      43.193  29.856  25.870  1.00  0.00     0.031 C 
ATOM     50  C   UNL A   1      42.843  24.225  29.048  1.00  0.00     0.029 A 
ATOM     51  C   UNL A   1      43.421  24.066  27.714  1.00  0.00     0.049 A 
ATOM     52  H   UNL A   1      42.936  25.183  25.998  1.00  0.00     0.167 HD
ATOM     53  C   UNL A   1      44.697  30.714  27.754  1.00  0.00     0.034 A 
ATOM     54  C   UNL A   1      44.670  23.581  27.463  1.00  0.00     0.034 A 
ATOM     55  C   UNL A   1      45.117  30.360  29.077  1.00  0.00     0.049 A 
ATOM     56  C   UNL A   1      45.520  24.738  27.937  1.00  0.00     0.074 A 
ATOM     57  C   UNL A   1      44.795  30.692  30.375  1.00  0.00     0.029 A 
ATOM     58  N   UNL A   1      46.089  29.394  29.206  1.00  0.00    -0.354 N 
ATOM     59  N   UNL A   1      45.784  25.048  29.178  1.00  0.00    -0.248 NA
ATOM     60  C   UNL A   1      45.767  25.814  26.975  1.00  0.00     0.031 C 
ATOM     61  C   UNL A   1      45.226  29.582  31.169  1.00  0.00     0.029 A 
ATOM     62  C   UNL A   1      45.748  28.632  30.292  1.00  0.00     0.049 A 
ATOM     63  H   UNL A   1      46.877  29.275  28.629  1.00  0.00     0.167 HD
ATOM     64  C   UNL A   1      45.965  26.432  29.189  1.00  0.00     0.074 A 
ATOM     65  C   UNL A   1      45.956  26.837  27.796  1.00  0.00     0.031 C 
ATOM     66  C   UNL A   1      45.931  27.197  30.319  1.00  0.00     0.034 A 
BRANCH  53  67
ATOM     67  C   UNL A   1      45.388  31.828  27.068  1.00  0.00     0.023 A 
ATOM     68  C   UNL A   1      46.788  31.772  26.997  1.00  0.00     0.031 A 
ATOM     69  C   UNL A   1      44.752  33.025  26.724  1.00  0.00     0.131 A 
ATOM     70  C   UNL A   1      47.524  32.909  26.656  1.00  0.00     0.055 A 
ATOM     71  C   UNL A   1      45.491  34.156  26.356  1.00  0.00     0.041 A 
ATOM     72  F   UNL A   1      43.416  33.138  26.798  1.00  0.00    -0.206 F 
ATOM     73  C   UNL A   1      46.887  34.107  26.340  1.00  0.00     0.022 A 
BRANCH  70  74
ATOM     74  S   UNL A   1      49.329  32.797  26.747  1.00  0.00     0.124 S 
ATOM     75  O   UNL A   1      49.744  33.840  25.819  1.00  0.00    -0.237 OA
ATOM     76  O   UNL A   1      49.569  33.061  28.161  1.00  0.00    -0.237 OA
ATOM     77  O   UNL A   1      49.604  31.427  26.312  1.00  0.00    -0.744 OA
ENDBRANCH  70  74
ENDBRANCH  53  67
BRANCH  54  78
ATOM     78  C   UNL A   1      44.879  22.905  26.140  1.00  0.00     0.023 A 
ATOM     79  C   UNL A   1      45.237  21.541  26.144  1.00  0.00     0.031 A 
ATOM     80  C   UNL A   1      44.765  23.515  24.880  1.00  0.00     0.131 A 
ATOM     81  C   UNL A   1      45.341  20.813  24.948  1.00  0.00     0.055 A 
ATOM     82  C   UNL A   1      44.838  22.785  23.686  1.00  0.00     0.041 A 
ATOM     83  F   UNL A   1      44.559  24.835  24.760  1.00  0.00    -0.206 F 
ATOM     84  C   UNL A   1      45.104  21.420  23.716  1.00  0.00     0.022 A 
BRANCH  81  85
ATOM     85  S   UNL A   1      45.714  19.040  25.032  1.00  0.00     0.124 S 
ATOM     86  O   UNL A   1      46.999  19.032  25.722  1.00  0.00    -0.237 OA
ATOM     87  O   UNL A   1      44.580  18.515  25.787  1.00  0.00    -0.237 OA
ATOM     88  O   UNL A   1      45.756  18.635  23.628  1.00  0.00    -0.744 OA
ENDBRANCH  81  85
ENDBRANCH  54  78
BRANCH  66  89
ATOM     89  C   UNL A   1      45.860  26.464  31.619  1.00  0.00     0.023 A 
ATOM     90  C   UNL A   1      44.722  26.587  32.430  1.00  0.00     0.031 A 
ATOM     91  C   UNL A   1      46.881  25.590  32.031  1.00  0.00     0.131 A 
ATOM     92  C   UNL A   1      44.612  25.824  33.600  1.00  0.00     0.055 A 
ATOM     93  C   UNL A   1      46.755  24.810  33.181  1.00  0.00     0.041 A 
ATOM     94  F   UNL A   1      48.010  25.454  31.314  1.00  0.00    -0.206 F 
ATOM     95  C   UNL A   1      45.611  24.919  33.966  1.00  0.00     0.022 A 
BRANCH  92  96
ATOM     96  S   UNL A   1      43.117  25.982  34.611  1.00  0.00     0.124 S 
ATOM     97  O   UNL A   1      43.643  26.486  35.876  1.00  0.00    -0.237 OA
ATOM     98  O   UNL A   1      42.302  26.914  33.839  1.00  0.00    -0.237 OA
ATOM     99  O   UNL A   1      42.597  24.615  34.662  1.00  0.00    -0.744 OA
ENDBRANCH  92  96
ENDBRANCH  66  89
ENDBRANCH  40  41
ENDBRANCH  32  35
ENDBRANCH  30  31
ENDBRANCH  29  30
ENDBRANCH   1  29
TORSDOF 19
ENDMDL
MODEL 3
REMARK VINA RESULT:     -11.5      2.532      7.603
REMARK SMILES Cc1nc(N[C@@H](C(=O)NCCCCCCNC(=O)c2ccc(-c3c4nc(c(-c5cc(S(=O)(=O)[O-])ccc5F)c5ccc([nH]5)c(-c5cc(S(=O)(=O)[O-])ccc5F)c5nc(c(-c6cc(S(=O)(=O)[O-])ccc6F)c6ccc3[nH]6)C=C5)C=C4)cc2)C(C)C)c2c3c(sc2n1)CCCC3
REMARK SMILES IDX 13 1 12 2 11 3 10 4 9 5 7 6 8 7 6 9 5 10 4 12 1 13 2 14 3 15
REMARK SMILES IDX 90 16 89 17 85 18 88 19 86 20 87 21 94 22 91 23 93 24 92 25
REMARK SMILES IDX 82 26 83 27 84 28 14 29 15 30 16 31 17 32 18 34 19 35 20 36
REMARK SMILES IDX 81 37 21 38 80 39 22 40 23 41 24 42 74 43 25 44 79 45 73 46
REMARK SMILES IDX 75 47 26 48 78 49 72 50 71 51 27 53 59 54 39 55 58 56 40 57
REMARK SMILES IDX 43 58 57 59 76 60 41 61 42 62 56 64 77 65 44 66 28 67 29 68
REMARK SMILES IDX 37 69 30 70 36 71 38 72 35 73 31 74 32 75 33 76 34 77 60 78
REMARK SMILES IDX 61 79 69 80 62 81 68 82 70 83 67 84 63 85 64 86 65 87 66 88
REMARK SMILES IDX 45 89 46 90 54 91 47 92 53 93 55 94 52 95 48 96 49 97 50 98
REMARK SMILES IDX 51 99
REMARK H PARENT 9 8 5 11 16 33 75 52 43 63
REMARK Flexibility Score: inf
ROOT
ATOM      1  C   UNL A   1      33.378  28.816  27.286  1.00  0.00     0.002 C 
ENDROOT
BRANCH   1   2
ATOM      2  C   UNL A   1      31.995  29.044  26.665  1.00  0.00     0.002 C 
BRANCH   2   3
ATOM      3  C   UNL A   1      31.422  27.820  25.940  1.00  0.00     0.021 C 
BRANCH   3   4
ATOM      4  C   UNL A   1      32.342  26.601  26.022  1.00  0.00     0.116 C 
BRANCH   4   5
ATOM      5  N   UNL A   1      31.733  25.548  26.816  1.00  0.00    -0.354 N 
ATOM      6  C   UNL A   1      31.434  24.255  26.463  1.00  0.00     0.242 C 
ATOM      7  O   UNL A   1      30.755  23.590  27.247  1.00  0.00    -0.273 OA
ATOM      8  H   UNL A   1      31.499  25.797  27.739  1.00  0.00     0.163 HD
BRANCH   6   9
ATOM      9  C   UNL A   1      32.055  23.657  25.171  1.00  0.00     0.172 C 
BRANCH   9  10
ATOM     10  N   UNL A   1      33.459  23.358  25.343  1.00  0.00    -0.358 N 
ATOM     11  H   UNL A   1      34.014  24.139  25.573  1.00  0.00     0.162 HD
BRANCH  10  12
ATOM     12  C   UNL A   1      34.160  22.181  25.243  1.00  0.00     0.139 A 
ATOM     13  C   UNL A   1      32.834  18.949  24.016  1.00  0.00     0.090 C 
ATOM     14  C   UNL A   1      33.800  19.958  24.559  1.00  0.00     0.129 A 
ATOM     15  N   UNL A   1      33.336  21.189  24.817  1.00  0.00    -0.216 NA
ATOM     16  N   UNL A   1      35.066  19.581  24.672  1.00  0.00    -0.222 NA
ATOM     17  C   UNL A   1      35.880  20.557  25.097  1.00  0.00     0.129 A 
ATOM     18  C   UNL A   1      35.548  21.873  25.428  1.00  0.00     0.057 A 
ATOM     19  S   UNL A   1      37.536  20.192  25.223  1.00  0.00    -0.120 S 
ATOM     20  C   UNL A   1      36.781  22.567  25.846  1.00  0.00    -0.021 A 
ATOM     21  C   UNL A   1      37.905  21.765  25.706  1.00  0.00     0.011 A 
ATOM     22  C   UNL A   1      36.975  23.981  26.319  1.00  0.00     0.037 C 
ATOM     23  C   UNL A   1      39.325  22.172  25.975  1.00  0.00     0.047 C 
ATOM     24  C   UNL A   1      38.355  24.284  26.907  1.00  0.00     0.005 C 
ATOM     25  C   UNL A   1      39.452  23.698  26.027  1.00  0.00     0.006 C 
ENDBRANCH  10  12
ENDBRANCH   9  10
BRANCH   9  26
ATOM     26  C   UNL A   1      31.823  24.555  23.927  1.00  0.00     0.015 C 
ATOM     27  C   UNL A   1      32.908  24.408  22.851  1.00  0.00     0.010 C 
ATOM     28  C   UNL A   1      30.460  24.240  23.288  1.00  0.00     0.010 C 
ENDBRANCH   9  26
ENDBRANCH   6   9
ENDBRANCH   4   5
ENDBRANCH   3   4
ENDBRANCH   2   3
ENDBRANCH   1   2
BRANCH   1  29
ATOM     29  C   UNL A   1      34.152  30.091  27.669  1.00  0.00     0.021 C 
BRANCH  29  30
ATOM     30  C   UNL A   1      35.660  29.900  27.904  1.00  0.00     0.116 C 
BRANCH  30  31
ATOM     31  N   UNL A   1      35.959  30.041  29.317  1.00  0.00    -0.352 N 
ATOM     32  C   UNL A   1      36.835  29.381  30.130  1.00  0.00     0.251 C 
ATOM     33  H   UNL A   1      35.434  30.736  29.773  1.00  0.00     0.163 HD
ATOM     34  O   UNL A   1      36.569  29.349  31.332  1.00  0.00    -0.269 OA
BRANCH  32  35
ATOM     35  C   UNL A   1      38.094  28.766  29.647  1.00  0.00     0.039 A 
ATOM     36  C   UNL A   1      38.903  29.551  28.812  1.00  0.00     0.014 A 
ATOM     37  C   UNL A   1      38.400  27.413  29.823  1.00  0.00     0.014 A 
ATOM     38  C   UNL A   1      40.000  28.994  28.159  1.00  0.00     0.010 A 
ATOM     39  C   UNL A   1      39.508  26.857  29.168  1.00  0.00     0.010 A 
ATOM     40  C   UNL A   1      40.316  27.641  28.332  1.00  0.00    -0.014 A 
BRANCH  40  41
ATOM     41  C   UNL A   1      41.565  27.153  27.708  1.00  0.00     0.031 A 
ATOM     42  C   UNL A   1      42.589  28.209  27.426  1.00  0.00     0.074 A 
ATOM     43  C   UNL A   1      41.990  25.878  27.856  1.00  0.00     0.049 A 
ATOM     44  N   UNL A   1      43.368  28.700  28.346  1.00  0.00    -0.248 NA
ATOM     45  C   UNL A   1      42.617  28.960  26.172  1.00  0.00     0.031 C 
ATOM     46  C   UNL A   1      41.835  25.113  29.101  1.00  0.00     0.029 A 
ATOM     47  N   UNL A   1      42.832  25.104  27.089  1.00  0.00    -0.354 N 
ATOM     48  C   UNL A   1      43.981  29.823  27.817  1.00  0.00     0.074 A 
ATOM     49  C   UNL A   1      43.476  29.949  26.467  1.00  0.00     0.031 C 
ATOM     50  C   UNL A   1      42.700  24.077  29.083  1.00  0.00     0.029 A 
ATOM     51  C   UNL A   1      43.362  24.014  27.781  1.00  0.00     0.049 A 
ATOM     52  H   UNL A   1      43.039  25.299  26.147  1.00  0.00     0.167 HD
ATOM     53  C   UNL A   1      44.876  30.570  28.517  1.00  0.00     0.034 A 
ATOM     54  C   UNL A   1      44.607  23.500  27.569  1.00  0.00     0.034 A 
ATOM     55  C   UNL A   1      45.190  30.081  29.827  1.00  0.00     0.049 A 
ATOM     56  C   UNL A   1      45.464  24.572  28.202  1.00  0.00     0.074 A 
ATOM     57  C   UNL A   1      44.791  30.310  31.126  1.00  0.00     0.029 A 
ATOM     58  N   UNL A   1      46.115  29.067  29.930  1.00  0.00    -0.354 N 
ATOM     59  N   UNL A   1      45.652  24.758  29.481  1.00  0.00    -0.248 NA
ATOM     60  C   UNL A   1      45.816  25.718  27.361  1.00  0.00     0.031 C 
ATOM     61  C   UNL A   1      45.125  29.116  31.840  1.00  0.00     0.029 A 
ATOM     62  C   UNL A   1      45.671  28.226  30.916  1.00  0.00     0.049 A 
ATOM     63  H   UNL A   1      46.936  28.966  29.397  1.00  0.00     0.167 HD
ATOM     64  C   UNL A   1      45.883  26.126  29.631  1.00  0.00     0.074 A 
ATOM     65  C   UNL A   1      45.986  26.654  28.284  1.00  0.00     0.031 C 
ATOM     66  C   UNL A   1      45.799  26.788  30.823  1.00  0.00     0.034 A 
BRANCH  53  67
ATOM     67  C   UNL A   1      45.653  31.710  27.983  1.00  0.00     0.023 A 
ATOM     68  C   UNL A   1      44.998  32.947  27.887  1.00  0.00     0.031 A 
ATOM     69  C   UNL A   1      46.890  31.561  27.348  1.00  0.00     0.131 A 
ATOM     70  C   UNL A   1      45.543  33.977  27.116  1.00  0.00     0.055 A 
ATOM     71  C   UNL A   1      47.448  32.605  26.599  1.00  0.00     0.041 A 
ATOM     72  F   UNL A   1      47.546  30.391  27.390  1.00  0.00    -0.206 F 
ATOM     73  C   UNL A   1      46.764  33.815  26.463  1.00  0.00     0.022 A 
BRANCH  70  74
ATOM     74  S   UNL A   1      44.557  35.482  26.910  1.00  0.00     0.124 S 
ATOM     75  O   UNL A   1      45.564  36.449  26.498  1.00  0.00    -0.237 OA
ATOM     76  O   UNL A   1      43.604  35.070  25.885  1.00  0.00    -0.237 OA
ATOM     77  O   UNL A   1      43.989  35.697  28.241  1.00  0.00    -0.744 OA
ENDBRANCH  70  74
ENDBRANCH  53  67
BRANCH  54  78
ATOM     78  C   UNL A   1      44.882  22.936  26.206  1.00  0.00     0.023 A 
ATOM     79  C   UNL A   1      45.239  21.575  26.113  1.00  0.00     0.031 A 
ATOM     80  C   UNL A   1      44.832  23.651  24.997  1.00  0.00     0.131 A 
ATOM     81  C   UNL A   1      45.402  20.950  24.866  1.00  0.00     0.055 A 
ATOM     82  C   UNL A   1      44.966  23.024  23.752  1.00  0.00     0.041 A 
ATOM     83  F   UNL A   1      44.633  24.977  24.979  1.00  0.00    -0.206 F 
ATOM     84  C   UNL A   1      45.229  21.660  23.680  1.00  0.00     0.022 A 
BRANCH  81  85
ATOM     85  S   UNL A   1      45.771  19.175  24.819  1.00  0.00     0.124 S 
ATOM     86  O   UNL A   1      47.145  19.135  25.306  1.00  0.00    -0.237 OA
ATOM     87  O   UNL A   1      44.759  18.620  25.714  1.00  0.00    -0.237 OA
ATOM     88  O   UNL A   1      45.597  18.829  23.410  1.00  0.00    -0.744 OA
ENDBRANCH  81  85
ENDBRANCH  54  78
BRANCH  66  89
ATOM     89  C   UNL A   1      45.611  25.946  32.042  1.00  0.00     0.023 A 
ATOM     90  C   UNL A   1      46.725  25.400  32.695  1.00  0.00     0.031 A 
ATOM     91  C   UNL A   1      44.339  25.734  32.604  1.00  0.00     0.131 A 
ATOM     92  C   UNL A   1      46.558  24.693  33.892  1.00  0.00     0.055 A 
ATOM     93  C   UNL A   1      44.179  25.055  33.813  1.00  0.00     0.041 A 
ATOM     94  F   UNL A   1      43.229  26.203  32.009  1.00  0.00    -0.206 F 
ATOM     95  C   UNL A   1      45.294  24.539  34.467  1.00  0.00     0.022 A 
BRANCH  92  96
ATOM     96  S   UNL A   1      48.020  24.026  34.728  1.00  0.00     0.124 S 
ATOM     97  O   UNL A   1      47.759  22.590  34.723  1.00  0.00    -0.237 OA
ATOM     98  O   UNL A   1      49.114  24.481  33.876  1.00  0.00    -0.237 OA
ATOM     99  O   UNL A   1      47.973  24.656  36.048  1.00  0.00    -0.744 OA
ENDBRANCH  92  96
ENDBRANCH  66  89
ENDBRANCH  40  41
ENDBRANCH  32  35
ENDBRANCH  30  31
ENDBRANCH  29  30
ENDBRANCH   1  29
TORSDOF 19
ENDMDL
