MODEL 1
REMARK VINA RESULT:     -12.3      0.000      0.000
REMARK SMILES Cc1cc(F)ccc1OC1(C(=O)NCCCCCCNC(=O)c2ccc(-c3c4nc(c(-c5cc(S(=O)(=O)[O-])ccc5F)c5ccc([nH]5)c(-c5cc(S(=O)(=O)[O-])ccc5F)c5nc(c(-c6cc(S(=O)(=O)[O-])ccc6F)c6ccc3[nH]6)C=C5)C=C4)cc2)CCN(C(=O)[C@H]2CCOC2)CC1
REMARK SMILES IDX 17 1 16 2 15 3 14 4 13 5 11 6 12 7 10 9 86 10 97 11 87 12
REMARK SMILES IDX 96 13 88 14 89 15 90 16 9 17 8 18 1 19 2 20 3 21 4 22 7 23
REMARK SMILES IDX 5 24 6 25 91 26 92 27 95 28 93 29 94 30 18 31 19 32 20 33
REMARK SMILES IDX 21 34 22 36 23 37 24 38 85 39 25 40 84 41 26 42 27 43 28 44
REMARK SMILES IDX 78 45 29 46 83 47 77 48 79 49 30 50 82 51 76 52 75 53 31 55
REMARK SMILES IDX 63 56 43 57 62 58 44 59 47 60 61 61 80 62 45 63 46 64 60 66
REMARK SMILES IDX 81 67 48 68 32 69 33 70 41 71 34 72 40 73 42 74 39 75 35 76
REMARK SMILES IDX 36 77 37 78 38 79 64 80 65 81 73 82 66 83 72 84 74 85 71 86
REMARK SMILES IDX 67 87 68 88 69 89 70 90 49 91 50 92 58 93 51 94 57 95 59 96
REMARK SMILES IDX 56 97 52 98 53 99 54 100 55 101
REMARK H PARENT 13 8 20 35 79 54 47 65
REMARK Flexibility Score: inf
ROOT
ATOM      1  C   UNL A   1      36.786  20.696  24.867  1.00  0.00     0.002 C 
ENDROOT
BRANCH   1   2
ATOM      2  C   UNL A   1      37.209  22.163  24.745  1.00  0.00     0.002 C 
BRANCH   2   3
ATOM      3  C   UNL A   1      36.640  23.088  25.824  1.00  0.00     0.021 C 
BRANCH   3   4
ATOM      4  C   UNL A   1      35.569  24.050  25.316  1.00  0.00     0.116 C 
BRANCH   4   5
ATOM      5  N   UNL A   1      35.248  23.813  23.923  1.00  0.00    -0.353 N 
ATOM      6  C   UNL A   1      34.089  23.966  23.214  1.00  0.00     0.264 C 
ATOM      7  O   UNL A   1      34.173  23.682  22.013  1.00  0.00    -0.270 OA
ATOM      8  H   UNL A   1      36.005  23.479  23.389  1.00  0.00     0.163 HD
BRANCH   6   9
ATOM      9  C   UNL A   1      32.749  24.486  23.876  1.00  0.00     0.190 C 
ATOM     10  C   UNL A   1      33.111  25.652  24.782  1.00  0.00     0.080 C 
ATOM     11  C   UNL A   1      31.754  24.694  22.733  1.00  0.00     0.080 C 
ATOM     12  C   UNL A   1      32.586  27.023  24.389  1.00  0.00     0.124 C 
ATOM     13  C   UNL A   1      30.925  25.964  22.765  1.00  0.00     0.124 C 
ATOM     14  N   UNL A   1      31.541  27.139  23.372  1.00  0.00    -0.342 N 
ATOM     15  C   UNL A   1      31.078  28.445  23.170  1.00  0.00     0.228 C 
ATOM     16  O   UNL A   1      31.671  29.399  23.680  1.00  0.00    -0.274 OA
BRANCH   9  17
ATOM     17  O   UNL A   1      32.379  23.322  24.647  1.00  0.00    -0.477 OA
BRANCH  17  18
ATOM     18  C   UNL A   1      32.603  21.990  24.552  1.00  0.00     0.124 A 
ATOM     19  C   UNL A   1      31.855  21.276  22.164  1.00  0.00     0.048 C 
ATOM     20  C   UNL A   1      32.430  21.054  23.522  1.00  0.00    -0.006 A 
ATOM     21  C   UNL A   1      32.751  19.695  23.769  1.00  0.00     0.046 A 
ATOM     22  C   UNL A   1      33.234  19.274  24.997  1.00  0.00     0.123 A 
ATOM     23  C   UNL A   1      33.095  21.520  25.792  1.00  0.00     0.050 A 
ATOM     24  F   UNL A   1      33.519  17.980  25.187  1.00  0.00    -0.207 F 
ATOM     25  C   UNL A   1      33.407  20.179  26.021  1.00  0.00     0.043 A 
ENDBRANCH  17  18
ENDBRANCH   9  17
BRANCH  15  26
ATOM     26  C   UNL A   1      29.785  28.657  22.398  1.00  0.00     0.107 C 
ATOM     27  C   UNL A   1      28.574  28.380  23.270  1.00  0.00     0.044 C 
ATOM     28  C   UNL A   1      29.580  30.113  22.021  1.00  0.00     0.173 C 
ATOM     29  C   UNL A   1      27.516  29.329  22.748  1.00  0.00     0.161 C 
ATOM     30  O   UNL A   1      28.165  30.325  21.960  1.00  0.00    -0.381 OA
ENDBRANCH  15  26
ENDBRANCH   6   9
ENDBRANCH   4   5
ENDBRANCH   3   4
ENDBRANCH   2   3
ENDBRANCH   1   2
BRANCH   1  31
ATOM     31  C   UNL A   1      37.941  19.702  25.014  1.00  0.00     0.021 C 
BRANCH  31  32
ATOM     32  C   UNL A   1      39.141  20.245  25.779  1.00  0.00     0.116 C 
BRANCH  32  33
ATOM     33  N   UNL A   1      40.171  19.231  25.948  1.00  0.00    -0.352 N 
ATOM     34  C   UNL A   1      41.525  19.400  26.112  1.00  0.00     0.251 C 
ATOM     35  H   UNL A   1      39.855  18.299  25.945  1.00  0.00     0.163 HD
ATOM     36  O   UNL A   1      42.281  18.444  25.994  1.00  0.00    -0.269 OA
BRANCH  34  37
ATOM     37  C   UNL A   1      42.052  20.749  26.411  1.00  0.00     0.039 A 
ATOM     38  C   UNL A   1      42.277  21.642  25.362  1.00  0.00     0.014 A 
ATOM     39  C   UNL A   1      42.312  21.127  27.731  1.00  0.00     0.014 A 
ATOM     40  C   UNL A   1      42.714  22.939  25.645  1.00  0.00     0.010 A 
ATOM     41  C   UNL A   1      42.667  22.441  28.015  1.00  0.00     0.010 A 
ATOM     42  C   UNL A   1      42.884  23.357  26.975  1.00  0.00    -0.014 A 
BRANCH  42  43
ATOM     43  C   UNL A   1      43.323  24.737  27.309  1.00  0.00     0.031 A 
ATOM     44  C   UNL A   1      42.357  25.683  27.968  1.00  0.00     0.074 A 
ATOM     45  C   UNL A   1      44.554  25.158  26.958  1.00  0.00     0.049 A 
ATOM     46  N   UNL A   1      42.490  26.958  28.230  1.00  0.00    -0.248 NA
ATOM     47  C   UNL A   1      41.052  25.123  28.351  1.00  0.00     0.031 C 
ATOM     48  C   UNL A   1      45.570  24.341  26.293  1.00  0.00     0.029 A 
ATOM     49  N   UNL A   1      45.154  26.385  27.097  1.00  0.00    -0.354 N 
ATOM     50  C   UNL A   1      41.280  27.356  28.789  1.00  0.00     0.074 A 
ATOM     51  C   UNL A   1      40.407  26.202  28.761  1.00  0.00     0.031 C 
ATOM     52  C   UNL A   1      46.672  25.083  26.097  1.00  0.00     0.029 A 
ATOM     53  C   UNL A   1      46.424  26.442  26.570  1.00  0.00     0.049 A 
ATOM     54  H   UNL A   1      44.717  27.152  27.532  1.00  0.00     0.167 HD
ATOM     55  C   UNL A   1      40.938  28.565  29.300  1.00  0.00     0.034 A 
ATOM     56  C   UNL A   1      47.282  27.476  26.459  1.00  0.00     0.034 A 
ATOM     57  C   UNL A   1      41.827  29.701  29.320  1.00  0.00     0.049 A 
ATOM     58  C   UNL A   1      46.867  28.826  26.990  1.00  0.00     0.074 A 
ATOM     59  C   UNL A   1      41.605  30.961  29.848  1.00  0.00     0.029 A 
ATOM     60  N   UNL A   1      43.106  29.721  28.775  1.00  0.00    -0.354 N 
ATOM     61  N   UNL A   1      45.733  29.181  27.551  1.00  0.00    -0.248 NA
ATOM     62  C   UNL A   1      47.851  29.911  26.883  1.00  0.00     0.031 C 
ATOM     63  C   UNL A   1      42.713  31.762  29.553  1.00  0.00     0.029 A 
ATOM     64  C   UNL A   1      43.669  30.980  28.926  1.00  0.00     0.049 A 
ATOM     65  H   UNL A   1      43.548  28.954  28.345  1.00  0.00     0.167 HD
ATOM     66  C   UNL A   1      45.884  30.521  27.897  1.00  0.00     0.074 A 
ATOM     67  C   UNL A   1      47.219  30.906  27.487  1.00  0.00     0.031 C 
ATOM     68  C   UNL A   1      45.002  31.355  28.508  1.00  0.00     0.034 A 
BRANCH  55  69
ATOM     69  C   UNL A   1      39.536  28.716  29.842  1.00  0.00     0.023 A 
ATOM     70  C   UNL A   1      38.481  29.192  29.042  1.00  0.00     0.031 A 
ATOM     71  C   UNL A   1      39.255  28.428  31.190  1.00  0.00     0.131 A 
ATOM     72  C   UNL A   1      37.229  29.461  29.617  1.00  0.00     0.055 A 
ATOM     73  C   UNL A   1      37.980  28.604  31.732  1.00  0.00     0.041 A 
ATOM     74  F   UNL A   1      40.222  27.991  32.012  1.00  0.00    -0.206 F 
ATOM     75  C   UNL A   1      36.963  29.143  30.950  1.00  0.00     0.022 A 
BRANCH  72  76
ATOM     76  S   UNL A   1      36.018  30.399  28.646  1.00  0.00     0.124 S 
ATOM     77  O   UNL A   1      36.877  31.067  27.671  1.00  0.00    -0.237 OA
ATOM     78  O   UNL A   1      35.152  29.350  28.123  1.00  0.00    -0.237 OA
ATOM     79  O   UNL A   1      35.402  31.285  29.631  1.00  0.00    -0.744 OA
ENDBRANCH  72  76
ENDBRANCH  55  69
BRANCH  56  80
ATOM     80  C   UNL A   1      48.608  27.285  25.804  1.00  0.00     0.023 A 
ATOM     81  C   UNL A   1      48.771  27.479  24.423  1.00  0.00     0.031 A 
ATOM     82  C   UNL A   1      49.731  26.880  26.549  1.00  0.00     0.131 A 
ATOM     83  C   UNL A   1      50.014  27.227  23.823  1.00  0.00     0.055 A 
ATOM     84  C   UNL A   1      50.980  26.685  25.956  1.00  0.00     0.041 A 
ATOM     85  F   UNL A   1      49.633  26.686  27.874  1.00  0.00    -0.206 F 
ATOM     86  C   UNL A   1      51.123  26.847  24.582  1.00  0.00     0.022 A 
BRANCH  83  87
ATOM     87  S   UNL A   1      50.144  27.327  22.016  1.00  0.00     0.124 S 
ATOM     88  O   UNL A   1      51.499  26.836  21.790  1.00  0.00    -0.237 OA
ATOM     89  O   UNL A   1      49.062  26.448  21.585  1.00  0.00    -0.237 OA
ATOM     90  O   UNL A   1      49.939  28.747  21.738  1.00  0.00    -0.744 OA
ENDBRANCH  83  87
ENDBRANCH  56  80
BRANCH  68  91
ATOM     91  C   UNL A   1      45.478  32.752  28.831  1.00  0.00     0.023 A 
ATOM     92  C   UNL A   1      45.215  33.846  27.988  1.00  0.00     0.031 A 
ATOM     93  C   UNL A   1      46.205  32.988  30.012  1.00  0.00     0.131 A 
ATOM     94  C   UNL A   1      45.719  35.115  28.313  1.00  0.00     0.055 A 
ATOM     95  C   UNL A   1      46.645  34.264  30.363  1.00  0.00     0.041 A 
ATOM     96  F   UNL A   1      46.491  31.980  30.852  1.00  0.00    -0.206 F 
ATOM     97  C   UNL A   1      46.414  35.335  29.505  1.00  0.00     0.022 A 
BRANCH  94  98
ATOM     98  S   UNL A   1      45.538  36.462  27.112  1.00  0.00     0.124 S 
ATOM     99  O   UNL A   1      45.998  37.616  27.878  1.00  0.00    -0.237 OA
ATOM    100  O   UNL A   1      46.410  36.029  26.024  1.00  0.00    -0.237 OA
ATOM    101  O   UNL A   1      44.110  36.455  26.800  1.00  0.00    -0.744 OA
ENDBRANCH  94  98
ENDBRANCH  68  91
ENDBRANCH  42  43
ENDBRANCH  34  37
ENDBRANCH  32  33
ENDBRANCH  31  32
ENDBRANCH   1  31
TORSDOF 19
ENDMDL
MODEL 2
REMARK VINA RESULT:     -12.1      6.140     10.939
REMARK SMILES Cc1cc(F)ccc1OC1(C(=O)NCCCCCCNC(=O)c2ccc(-c3c4nc(c(-c5cc(S(=O)(=O)[O-])ccc5F)c5ccc([nH]5)c(-c5cc(S(=O)(=O)[O-])ccc5F)c5nc(c(-c6cc(S(=O)(=O)[O-])ccc6F)c6ccc3[nH]6)C=C5)C=C4)cc2)CCN(C(=O)[C@H]2CCOC2)CC1
REMARK SMILES IDX 17 1 16 2 15 3 14 4 13 5 11 6 12 7 10 9 86 10 97 11 87 12
REMARK SMILES IDX 96 13 88 14 89 15 90 16 9 17 8 18 1 19 2 20 3 21 4 22 7 23
REMARK SMILES IDX 5 24 6 25 91 26 92 27 95 28 93 29 94 30 18 31 19 32 20 33
REMARK SMILES IDX 21 34 22 36 23 37 24 38 85 39 25 40 84 41 26 42 27 43 28 44
REMARK SMILES IDX 78 45 29 46 83 47 77 48 79 49 30 50 82 51 76 52 75 53 31 55
REMARK SMILES IDX 63 56 43 57 62 58 44 59 47 60 61 61 80 62 45 63 46 64 60 66
REMARK SMILES IDX 81 67 48 68 32 69 33 70 41 71 34 72 40 73 42 74 39 75 35 76
REMARK SMILES IDX 36 77 37 78 38 79 64 80 65 81 73 82 66 83 72 84 74 85 71 86
REMARK SMILES IDX 67 87 68 88 69 89 70 90 49 91 50 92 58 93 51 94 57 95 59 96
REMARK SMILES IDX 56 97 52 98 53 99 54 100 55 101
REMARK H PARENT 13 8 20 35 79 54 47 65
REMARK Flexibility Score: inf
ROOT
ATOM      1  C   UNL A   1      35.153  31.057  27.858  1.00  0.00     0.002 C 
ENDROOT
BRANCH   1   2
ATOM      2  C   UNL A   1      35.031  29.567  27.523  1.00  0.00     0.002 C 
BRANCH   2   3
ATOM      3  C   UNL A   1      33.601  29.080  27.274  1.00  0.00     0.021 C 
BRANCH   3   4
ATOM      4  C   UNL A   1      33.511  27.862  26.358  1.00  0.00     0.116 C 
BRANCH   4   5
ATOM      5  N   UNL A   1      32.381  27.019  26.692  1.00  0.00    -0.353 N 
ATOM      6  C   UNL A   1      31.346  26.538  25.939  1.00  0.00     0.264 C 
ATOM      7  O   UNL A   1      30.548  25.818  26.551  1.00  0.00    -0.270 OA
ATOM      8  H   UNL A   1      32.353  26.742  27.636  1.00  0.00     0.163 HD
BRANCH   6   9
ATOM      9  C   UNL A   1      31.192  26.864  24.398  1.00  0.00     0.190 C 
ATOM     10  C   UNL A   1      29.811  26.396  23.969  1.00  0.00     0.080 C 
ATOM     11  C   UNL A   1      31.583  28.333  24.225  1.00  0.00     0.080 C 
ATOM     12  C   UNL A   1      28.819  27.466  23.543  1.00  0.00     0.124 C 
ATOM     13  C   UNL A   1      30.699  29.180  23.329  1.00  0.00     0.124 C 
ATOM     14  N   UNL A   1      29.284  28.826  23.274  1.00  0.00    -0.342 N 
ATOM     15  C   UNL A   1      28.290  29.690  22.798  1.00  0.00     0.228 C 
ATOM     16  O   UNL A   1      27.106  29.345  22.818  1.00  0.00    -0.274 OA
BRANCH   9  17
ATOM     17  O   UNL A   1      32.224  26.011  23.854  1.00  0.00    -0.477 OA
BRANCH  17  18
ATOM     18  C   UNL A   1      32.550  24.702  23.963  1.00  0.00     0.124 A 
ATOM     19  C   UNL A   1      34.716  24.589  25.400  1.00  0.00     0.048 C 
ATOM     20  C   UNL A   1      33.579  24.015  24.623  1.00  0.00    -0.006 A 
ATOM     21  C   UNL A   1      33.644  22.604  24.511  1.00  0.00     0.046 A 
ATOM     22  C   UNL A   1      32.717  21.890  23.770  1.00  0.00     0.123 A 
ATOM     23  C   UNL A   1      31.624  23.938  23.214  1.00  0.00     0.050 A 
ATOM     24  F   UNL A   1      32.820  20.558  23.687  1.00  0.00    -0.207 F 
ATOM     25  C   UNL A   1      31.701  22.548  23.111  1.00  0.00     0.043 A 
ENDBRANCH  17  18
ENDBRANCH   9  17
BRANCH  15  26
ATOM     26  C   UNL A   1      28.703  31.014  22.173  1.00  0.00     0.107 C 
ATOM     27  C   UNL A   1      28.014  31.228  20.838  1.00  0.00     0.044 C 
ATOM     28  C   UNL A   1      28.210  32.202  22.980  1.00  0.00     0.173 C 
ATOM     29  C   UNL A   1      27.840  32.730  20.747  1.00  0.00     0.161 C 
ATOM     30  O   UNL A   1      28.018  33.276  22.052  1.00  0.00    -0.381 OA
ENDBRANCH  15  26
ENDBRANCH   6   9
ENDBRANCH   4   5
ENDBRANCH   3   4
ENDBRANCH   2   3
ENDBRANCH   1   2
BRANCH   1  31
ATOM     31  C   UNL A   1      33.834  31.834  27.834  1.00  0.00     0.021 C 
BRANCH  31  32
ATOM     32  C   UNL A   1      33.952  33.250  27.283  1.00  0.00     0.116 C 
BRANCH  32  33
ATOM     33  N   UNL A   1      33.235  34.206  28.111  1.00  0.00    -0.352 N 
ATOM     34  C   UNL A   1      33.400  34.481  29.448  1.00  0.00     0.251 C 
ATOM     35  H   UNL A   1      32.539  34.729  27.652  1.00  0.00     0.163 HD
ATOM     36  O   UNL A   1      32.556  35.133  30.049  1.00  0.00    -0.269 OA
BRANCH  34  37
ATOM     37  C   UNL A   1      34.594  33.961  30.148  1.00  0.00     0.039 A 
ATOM     38  C   UNL A   1      34.437  32.993  31.141  1.00  0.00     0.014 A 
ATOM     39  C   UNL A   1      35.867  34.429  29.811  1.00  0.00     0.014 A 
ATOM     40  C   UNL A   1      35.567  32.452  31.760  1.00  0.00     0.010 A 
ATOM     41  C   UNL A   1      36.992  33.832  30.369  1.00  0.00     0.010 A 
ATOM     42  C   UNL A   1      36.854  32.846  31.359  1.00  0.00    -0.014 A 
BRANCH  42  43
ATOM     43  C   UNL A   1      38.075  32.272  31.980  1.00  0.00     0.031 A 
ATOM     44  C   UNL A   1      38.838  31.195  31.258  1.00  0.00     0.074 A 
ATOM     45  C   UNL A   1      38.454  32.662  33.212  1.00  0.00     0.049 A 
ATOM     46  N   UNL A   1      39.848  30.473  31.669  1.00  0.00    -0.248 NA
ATOM     47  C   UNL A   1      38.374  30.863  29.902  1.00  0.00     0.031 C 
ATOM     48  C   UNL A   1      37.781  33.680  34.021  1.00  0.00     0.029 A 
ATOM     49  N   UNL A   1      39.489  32.237  34.008  1.00  0.00    -0.354 N 
ATOM     50  C   UNL A   1      40.128  29.590  30.632  1.00  0.00     0.074 A 
ATOM     51  C   UNL A   1      39.135  29.822  29.605  1.00  0.00     0.031 C 
ATOM     52  C   UNL A   1      38.429  33.811  35.190  1.00  0.00     0.029 A 
ATOM     53  C   UNL A   1      39.528  32.852  35.239  1.00  0.00     0.049 A 
ATOM     54  H   UNL A   1      40.140  31.556  33.725  1.00  0.00     0.167 HD
ATOM     55  C   UNL A   1      41.135  28.686  30.535  1.00  0.00     0.034 A 
ATOM     56  C   UNL A   1      40.342  32.649  36.294  1.00  0.00     0.034 A 
ATOM     57  C   UNL A   1      42.116  28.473  31.571  1.00  0.00     0.049 A 
ATOM     58  C   UNL A   1      41.428  31.606  36.187  1.00  0.00     0.074 A 
ATOM     59  C   UNL A   1      43.204  27.616  31.567  1.00  0.00     0.029 A 
ATOM     60  N   UNL A   1      42.124  29.114  32.805  1.00  0.00    -0.354 N 
ATOM     61  N   UNL A   1      41.706  30.802  35.185  1.00  0.00    -0.248 NA
ATOM     62  C   UNL A   1      42.314  31.451  37.347  1.00  0.00     0.031 C 
ATOM     63  C   UNL A   1      43.817  27.680  32.822  1.00  0.00     0.029 A 
ATOM     64  C   UNL A   1      43.175  28.646  33.580  1.00  0.00     0.049 A 
ATOM     65  H   UNL A   1      41.476  29.800  33.089  1.00  0.00     0.167 HD
ATOM     66  C   UNL A   1      42.823  30.074  35.583  1.00  0.00     0.074 A 
ATOM     67  C   UNL A   1      43.169  30.538  36.911  1.00  0.00     0.031 C 
ATOM     68  C   UNL A   1      43.508  29.114  34.907  1.00  0.00     0.034 A 
BRANCH  55  69
ATOM     69  C   UNL A   1      41.192  27.845  29.281  1.00  0.00     0.023 A 
ATOM     70  C   UNL A   1      42.192  28.035  28.309  1.00  0.00     0.031 A 
ATOM     71  C   UNL A   1      40.208  26.874  29.025  1.00  0.00     0.131 A 
ATOM     72  C   UNL A   1      42.128  27.341  27.090  1.00  0.00     0.055 A 
ATOM     73  C   UNL A   1      40.206  26.116  27.852  1.00  0.00     0.041 A 
ATOM     74  F   UNL A   1      39.214  26.659  29.901  1.00  0.00    -0.206 F 
ATOM     75  C   UNL A   1      41.158  26.362  26.867  1.00  0.00     0.022 A 
BRANCH  72  76
ATOM     76  S   UNL A   1      43.216  27.869  25.739  1.00  0.00     0.124 S 
ATOM     77  O   UNL A   1      42.297  27.866  24.604  1.00  0.00    -0.237 OA
ATOM     78  O   UNL A   1      43.670  29.178  26.191  1.00  0.00    -0.237 OA
ATOM     79  O   UNL A   1      44.243  26.830  25.701  1.00  0.00    -0.744 OA
ENDBRANCH  72  76
ENDBRANCH  55  69
BRANCH  56  80
ATOM     80  C   UNL A   1      40.155  33.433  37.549  1.00  0.00     0.023 A 
ATOM     81  C   UNL A   1      39.357  32.946  38.597  1.00  0.00     0.031 A 
ATOM     82  C   UNL A   1      40.753  34.697  37.708  1.00  0.00     0.131 A 
ATOM     83  C   UNL A   1      39.144  33.735  39.738  1.00  0.00     0.055 A 
ATOM     84  C   UNL A   1      40.583  35.453  38.870  1.00  0.00     0.041 A 
ATOM     85  F   UNL A   1      41.531  35.207  36.741  1.00  0.00    -0.206 F 
ATOM     86  C   UNL A   1      39.764  34.978  39.888  1.00  0.00     0.022 A 
BRANCH  83  87
ATOM     87  S   UNL A   1      37.976  33.147  40.996  1.00  0.00     0.124 S 
ATOM     88  O   UNL A   1      38.041  34.219  41.983  1.00  0.00    -0.237 OA
ATOM     89  O   UNL A   1      36.735  33.049  40.235  1.00  0.00    -0.237 OA
ATOM     90  O   UNL A   1      38.547  31.871  41.420  1.00  0.00    -0.744 OA
ENDBRANCH  83  87
ENDBRANCH  56  80
BRANCH  68  91
ATOM     91  C   UNL A   1      44.743  28.548  35.567  1.00  0.00     0.023 A 
ATOM     92  C   UNL A   1      44.698  27.404  36.383  1.00  0.00     0.031 A 
ATOM     93  C   UNL A   1      45.990  29.168  35.367  1.00  0.00     0.131 A 
ATOM     94  C   UNL A   1      45.868  26.946  37.009  1.00  0.00     0.055 A 
ATOM     95  C   UNL A   1      47.161  28.668  35.937  1.00  0.00     0.041 A 
ATOM     96  F   UNL A   1      46.093  30.267  34.603  1.00  0.00    -0.206 F 
ATOM     97  C   UNL A   1      47.102  27.558  36.774  1.00  0.00     0.022 A 
BRANCH  94  98
ATOM     98  S   UNL A   1      45.744  25.594  38.212  1.00  0.00     0.124 S 
ATOM     99  O   UNL A   1      45.591  24.430  37.345  1.00  0.00    -0.237 OA
ATOM    100  O   UNL A   1      47.013  25.694  38.926  1.00  0.00    -0.237 OA
ATOM    101  O   UNL A   1      44.562  25.941  38.998  1.00  0.00    -0.744 OA
ENDBRANCH  94  98
ENDBRANCH  68  91
ENDBRANCH  42  43
ENDBRANCH  34  37
ENDBRANCH  32  33
ENDBRANCH  31  32
ENDBRANCH   1  31
TORSDOF 19
ENDMDL
MODEL 3
REMARK VINA RESULT:     -12.1      5.465      9.046
REMARK SMILES Cc1cc(F)ccc1OC1(C(=O)NCCCCCCNC(=O)c2ccc(-c3c4nc(c(-c5cc(S(=O)(=O)[O-])ccc5F)c5ccc([nH]5)c(-c5cc(S(=O)(=O)[O-])ccc5F)c5nc(c(-c6cc(S(=O)(=O)[O-])ccc6F)c6ccc3[nH]6)C=C5)C=C4)cc2)CCN(C(=O)[C@H]2CCOC2)CC1
REMARK SMILES IDX 17 1 16 2 15 3 14 4 13 5 11 6 12 7 10 9 86 10 97 11 87 12
REMARK SMILES IDX 96 13 88 14 89 15 90 16 9 17 8 18 1 19 2 20 3 21 4 22 7 23
REMARK SMILES IDX 5 24 6 25 91 26 92 27 95 28 93 29 94 30 18 31 19 32 20 33
REMARK SMILES IDX 21 34 22 36 23 37 24 38 85 39 25 40 84 41 26 42 27 43 28 44
REMARK SMILES IDX 78 45 29 46 83 47 77 48 79 49 30 50 82 51 76 52 75 53 31 55
REMARK SMILES IDX 63 56 43 57 62 58 44 59 47 60 61 61 80 62 45 63 46 64 60 66
REMARK SMILES IDX 81 67 48 68 32 69 33 70 41 71 34 72 40 73 42 74 39 75 35 76
REMARK SMILES IDX 36 77 37 78 38 79 64 80 65 81 73 82 66 83 72 84 74 85 71 86
REMARK SMILES IDX 67 87 68 88 69 89 70 90 49 91 50 92 58 93 51 94 57 95 59 96
REMARK SMILES IDX 56 97 52 98 53 99 54 100 55 101
REMARK H PARENT 13 8 20 35 79 54 47 65
REMARK Flexibility Score: inf
ROOT
ATOM      1  C   UNL A   1      35.353  30.950  27.921  1.00  0.00     0.002 C 
ENDROOT
BRANCH   1   2
ATOM      2  C   UNL A   1      35.104  29.469  27.622  1.00  0.00     0.002 C 
BRANCH   2   3
ATOM      3  C   UNL A   1      33.682  29.136  27.166  1.00  0.00     0.021 C 
BRANCH   3   4
ATOM      4  C   UNL A   1      33.584  27.879  26.304  1.00  0.00     0.116 C 
BRANCH   4   5
ATOM      5  N   UNL A   1      32.435  27.070  26.659  1.00  0.00    -0.353 N 
ATOM      6  C   UNL A   1      31.380  26.609  25.922  1.00  0.00     0.264 C 
ATOM      7  O   UNL A   1      30.570  25.917  26.550  1.00  0.00    -0.270 OA
ATOM      8  H   UNL A   1      32.409  26.805  27.607  1.00  0.00     0.163 HD
BRANCH   6   9
ATOM      9  C   UNL A   1      31.220  26.921  24.379  1.00  0.00     0.190 C 
ATOM     10  C   UNL A   1      29.840  26.442  23.958  1.00  0.00     0.080 C 
ATOM     11  C   UNL A   1      31.602  28.391  24.193  1.00  0.00     0.080 C 
ATOM     12  C   UNL A   1      28.840  27.503  23.527  1.00  0.00     0.124 C 
ATOM     13  C   UNL A   1      30.710  29.225  23.293  1.00  0.00     0.124 C 
ATOM     14  N   UNL A   1      29.297  28.863  23.245  1.00  0.00    -0.342 N 
ATOM     15  C   UNL A   1      28.297  29.718  22.766  1.00  0.00     0.228 C 
ATOM     16  O   UNL A   1      27.115  29.366  22.792  1.00  0.00    -0.274 OA
BRANCH   9  17
ATOM     17  O   UNL A   1      32.255  26.070  23.839  1.00  0.00    -0.477 OA
BRANCH  17  18
ATOM     18  C   UNL A   1      32.583  24.762  23.949  1.00  0.00     0.124 A 
ATOM     19  C   UNL A   1      34.760  24.655  25.371  1.00  0.00     0.048 C 
ATOM     20  C   UNL A   1      33.618  24.078  24.604  1.00  0.00    -0.006 A 
ATOM     21  C   UNL A   1      33.684  22.666  24.496  1.00  0.00     0.046 A 
ATOM     22  C   UNL A   1      32.752  21.949  23.764  1.00  0.00     0.123 A 
ATOM     23  C   UNL A   1      31.653  23.994  23.210  1.00  0.00     0.050 A 
ATOM     24  F   UNL A   1      32.856  20.617  23.685  1.00  0.00    -0.207 F 
ATOM     25  C   UNL A   1      31.731  22.604  23.111  1.00  0.00     0.043 A 
ENDBRANCH  17  18
ENDBRANCH   9  17
BRANCH  15  26
ATOM     26  C   UNL A   1      28.700  31.039  22.128  1.00  0.00     0.107 C 
ATOM     27  C   UNL A   1      28.002  31.240  20.796  1.00  0.00     0.044 C 
ATOM     28  C   UNL A   1      28.206  32.231  22.930  1.00  0.00     0.173 C 
ATOM     29  C   UNL A   1      27.821  32.740  20.695  1.00  0.00     0.161 C 
ATOM     30  O   UNL A   1      28.004  33.296  21.996  1.00  0.00    -0.381 OA
ENDBRANCH  15  26
ENDBRANCH   6   9
ENDBRANCH   4   5
ENDBRANCH   3   4
ENDBRANCH   2   3
ENDBRANCH   1   2
BRANCH   1  31
ATOM     31  C   UNL A   1      34.089  31.804  28.049  1.00  0.00     0.021 C 
BRANCH  31  32
ATOM     32  C   UNL A   1      34.324  33.300  27.885  1.00  0.00     0.116 C 
BRANCH  32  33
ATOM     33  N   UNL A   1      33.802  34.050  29.016  1.00  0.00    -0.352 N 
ATOM     34  C   UNL A   1      34.155  33.965  30.343  1.00  0.00     0.251 C 
ATOM     35  H   UNL A   1      33.102  34.709  28.804  1.00  0.00     0.163 HD
ATOM     36  O   UNL A   1      33.452  34.486  31.199  1.00  0.00    -0.269 OA
BRANCH  34  37
ATOM     37  C   UNL A   1      35.377  33.221  30.716  1.00  0.00     0.039 A 
ATOM     38  C   UNL A   1      35.263  32.063  31.488  1.00  0.00     0.014 A 
ATOM     39  C   UNL A   1      36.631  33.667  30.291  1.00  0.00     0.014 A 
ATOM     40  C   UNL A   1      36.409  31.322  31.789  1.00  0.00     0.010 A 
ATOM     41  C   UNL A   1      37.757  32.885  30.522  1.00  0.00     0.010 A 
ATOM     42  C   UNL A   1      37.660  31.710  31.284  1.00  0.00    -0.014 A 
BRANCH  42  43
ATOM     43  C   UNL A   1      38.892  30.930  31.565  1.00  0.00     0.031 A 
ATOM     44  C   UNL A   1      39.732  31.276  32.764  1.00  0.00     0.074 A 
ATOM     45  C   UNL A   1      39.292  29.967  30.711  1.00  0.00     0.049 A 
ATOM     46  N   UNL A   1      40.902  30.813  33.122  1.00  0.00    -0.248 NA
ATOM     47  C   UNL A   1      39.196  32.312  33.660  1.00  0.00     0.031 C 
ATOM     48  C   UNL A   1      38.575  29.558  29.503  1.00  0.00     0.029 A 
ATOM     49  N   UNL A   1      40.409  29.169  30.721  1.00  0.00    -0.354 N 
ATOM     50  C   UNL A   1      41.250  31.513  34.272  1.00  0.00     0.074 A 
ATOM     51  C   UNL A   1      40.198  32.480  34.507  1.00  0.00     0.031 C 
ATOM     52  C   UNL A   1      39.261  28.575  28.897  1.00  0.00     0.029 A 
ATOM     53  C   UNL A   1      40.491  28.321  29.640  1.00  0.00     0.049 A 
ATOM     54  H   UNL A   1      41.087  29.200  31.433  1.00  0.00     0.167 HD
ATOM     55  C   UNL A   1      42.333  31.348  35.072  1.00  0.00     0.034 A 
ATOM     56  C   UNL A   1      41.459  27.456  29.276  1.00  0.00     0.034 A 
ATOM     57  C   UNL A   1      43.368  30.375  34.819  1.00  0.00     0.049 A 
ATOM     58  C   UNL A   1      42.680  27.319  30.152  1.00  0.00     0.074 A 
ATOM     59  C   UNL A   1      44.488  30.090  35.581  1.00  0.00     0.029 A 
ATOM     60  N   UNL A   1      43.418  29.535  33.713  1.00  0.00    -0.354 N 
ATOM     61  N   UNL A   1      42.980  27.962  31.259  1.00  0.00    -0.248 NA
ATOM     62  C   UNL A   1      43.687  26.335  29.736  1.00  0.00     0.031 C 
ATOM     63  C   UNL A   1      45.253  29.139  34.897  1.00  0.00     0.029 A 
ATOM     64  C   UNL A   1      44.566  28.757  33.756  1.00  0.00     0.049 A 
ATOM     65  H   UNL A   1      42.738  29.497  33.002  1.00  0.00     0.167 HD
ATOM     66  C   UNL A   1      44.193  27.429  31.689  1.00  0.00     0.074 A 
ATOM     67  C   UNL A   1      44.563  26.412  30.727  1.00  0.00     0.031 C 
ATOM     68  C   UNL A   1      44.928  27.747  32.786  1.00  0.00     0.034 A 
BRANCH  55  69
ATOM     69  C   UNL A   1      42.459  32.266  36.266  1.00  0.00     0.023 A 
ATOM     70  C   UNL A   1      41.686  32.079  37.427  1.00  0.00     0.031 A 
ATOM     71  C   UNL A   1      43.324  33.374  36.228  1.00  0.00     0.131 A 
ATOM     72  C   UNL A   1      41.719  33.035  38.454  1.00  0.00     0.055 A 
ATOM     73  C   UNL A   1      43.426  34.268  37.296  1.00  0.00     0.041 A 
ATOM     74  F   UNL A   1      44.072  33.622  35.141  1.00  0.00    -0.206 F 
ATOM     75  C   UNL A   1      42.605  34.112  38.410  1.00  0.00     0.022 A 
BRANCH  72  76
ATOM     76  S   UNL A   1      40.460  32.944  39.756  1.00  0.00     0.124 S 
ATOM     77  O   UNL A   1      40.329  34.349  40.136  1.00  0.00    -0.237 OA
ATOM     78  O   UNL A   1      39.322  32.363  39.056  1.00  0.00    -0.237 OA
ATOM     79  O   UNL A   1      41.076  32.089  40.769  1.00  0.00    -0.744 OA
ENDBRANCH  72  76
ENDBRANCH  55  69
BRANCH  56  80
ATOM     80  C   UNL A   1      41.326  26.664  28.019  1.00  0.00     0.023 A 
ATOM     81  C   UNL A   1      40.942  25.314  28.048  1.00  0.00     0.031 A 
ATOM     82  C   UNL A   1      41.608  27.242  26.768  1.00  0.00     0.131 A 
ATOM     83  C   UNL A   1      40.890  24.576  26.856  1.00  0.00     0.055 A 
ATOM     84  C   UNL A   1      41.501  26.518  25.579  1.00  0.00     0.041 A 
ATOM     85  F   UNL A   1      41.974  28.531  26.681  1.00  0.00    -0.206 F 
ATOM     86  C   UNL A   1      41.151  25.172  25.620  1.00  0.00     0.022 A 
BRANCH  83  87
ATOM     87  S   UNL A   1      40.552  22.796  26.950  1.00  0.00     0.124 S 
ATOM     88  O   UNL A   1      41.475  22.267  25.951  1.00  0.00    -0.237 OA
ATOM     89  O   UNL A   1      40.872  22.499  28.342  1.00  0.00    -0.237 OA
ATOM     90  O   UNL A   1      39.136  22.700  26.604  1.00  0.00    -0.744 OA
ENDBRANCH  83  87
ENDBRANCH  56  80
BRANCH  68  91
ATOM     91  C   UNL A   1      46.178  26.937  33.042  1.00  0.00     0.023 A 
ATOM     92  C   UNL A   1      46.146  25.703  33.714  1.00  0.00     0.031 A 
ATOM     93  C   UNL A   1      47.424  27.416  32.597  1.00  0.00     0.131 A 
ATOM     94  C   UNL A   1      47.343  25.013  33.964  1.00  0.00     0.055 A 
ATOM     95  C   UNL A   1      48.602  26.693  32.790  1.00  0.00     0.041 A 
ATOM     96  F   UNL A   1      47.517  28.591  31.955  1.00  0.00    -0.206 F 
ATOM     97  C   UNL A   1      48.567  25.490  33.489  1.00  0.00     0.022 A 
BRANCH  94  98
ATOM     98  S   UNL A   1      47.295  23.529  35.005  1.00  0.00     0.124 S 
ATOM     99  O   UNL A   1      47.440  24.092  36.344  1.00  0.00    -0.237 OA
ATOM    100  O   UNL A   1      45.985  22.967  34.688  1.00  0.00    -0.237 OA
ATOM    101  O   UNL A   1      48.435  22.743  34.537  1.00  0.00    -0.744 OA
ENDBRANCH  94  98
ENDBRANCH  68  91
ENDBRANCH  42  43
ENDBRANCH  34  37
ENDBRANCH  32  33
ENDBRANCH  31  32
ENDBRANCH   1  31
TORSDOF 19
ENDMDL
