MODEL 1
REMARK VINA RESULT:     -12.4      0.000      0.000
REMARK SMILES O=C(NCCCCCCNC(=O)c1nccnc1C(=O)Nc1ccc2c(c1)OCO2)c1ccc(-c2c3nc(c(-c4cc(S(=O)(=O)[O-])ccc4F)c4ccc([nH]4)c(-c4cc(S(=O)(=O)[O-])ccc4F)c4nc(c(-c5cc(S(=O)(=O)[O-])ccc5F)c5ccc2[nH]5)C=C4)C=C3)cc1
REMARK SMILES IDX 6 1 5 2 4 3 3 4 1 5 2 6 31 8 32 9 93 10 33 11 92 12 34 13
REMARK SMILES IDX 35 14 36 15 86 16 37 17 91 18 85 19 87 20 38 21 90 22 84 23
REMARK SMILES IDX 83 24 39 26 71 27 51 28 70 29 52 30 55 31 69 32 88 33 53 34
REMARK SMILES IDX 54 35 68 37 89 38 56 39 40 40 41 41 49 42 42 43 48 44 50 45
REMARK SMILES IDX 47 46 43 47 44 48 45 49 46 50 72 51 73 52 81 53 74 54 80 55
REMARK SMILES IDX 82 56 79 57 75 58 76 59 77 60 78 61 57 62 58 63 66 64 59 65
REMARK SMILES IDX 65 66 67 67 64 68 60 69 61 70 62 71 63 72 7 73 8 74 9 75
REMARK SMILES IDX 10 76 11 77 12 79 13 80 14 81 18 82 15 83 17 84 16 85 19 86
REMARK SMILES IDX 20 87 21 88 22 90 23 91 27 92 24 93 26 94 25 95 28 96 30 97
REMARK SMILES IDX 29 98
REMARK H PARENT 3 7 87 25 55 36 10 78 21 89
REMARK Flexibility Score: inf
ROOT
ATOM      1  C   UNL A   1      34.876  23.260  23.600  1.00  0.00     0.002 C 
ENDROOT
BRANCH   1   2
ATOM      2  C   UNL A   1      36.319  23.178  24.084  1.00  0.00     0.021 C 
BRANCH   2   3
ATOM      3  C   UNL A   1      36.483  22.538  25.449  1.00  0.00     0.116 C 
BRANCH   3   4
ATOM      4  N   UNL A   1      37.318  21.343  25.440  1.00  0.00    -0.352 N 
ATOM      5  O   UNL A   1      39.276  20.219  25.710  1.00  0.00    -0.269 OA
ATOM      6  C   UNL A   1      38.630  21.252  25.857  1.00  0.00     0.251 C 
ATOM      7  H   UNL A   1      36.903  20.516  25.103  1.00  0.00     0.163 HD
BRANCH   6   8
ATOM      8  C   UNL A   1      39.247  22.456  26.454  1.00  0.00     0.039 A 
ATOM      9  C   UNL A   1      38.846  23.714  26.004  1.00  0.00     0.014 A 
ATOM     10  C   UNL A   1      40.301  22.326  27.360  1.00  0.00     0.014 A 
ATOM     11  C   UNL A   1      39.612  24.824  26.322  1.00  0.00     0.010 A 
ATOM     12  C   UNL A   1      40.998  23.468  27.771  1.00  0.00     0.010 A 
ATOM     13  C   UNL A   1      40.681  24.723  27.230  1.00  0.00    -0.014 A 
BRANCH  13  14
ATOM     14  C   UNL A   1      41.378  25.973  27.634  1.00  0.00     0.031 A 
ATOM     15  C   UNL A   1      42.768  26.298  27.157  1.00  0.00     0.074 A 
ATOM     16  C   UNL A   1      40.693  26.855  28.389  1.00  0.00     0.049 A 
ATOM     17  N   UNL A   1      43.481  27.373  27.381  1.00  0.00    -0.248 NA
ATOM     18  C   UNL A   1      43.449  25.290  26.333  1.00  0.00     0.031 C 
ATOM     19  C   UNL A   1      39.342  26.630  28.917  1.00  0.00     0.029 A 
ATOM     20  N   UNL A   1      41.005  28.120  28.812  1.00  0.00    -0.354 N 
ATOM     21  C   UNL A   1      44.696  27.172  26.738  1.00  0.00     0.074 A 
ATOM     22  C   UNL A   1      44.635  25.852  26.143  1.00  0.00     0.031 C 
ATOM     23  C   UNL A   1      38.916  27.744  29.525  1.00  0.00     0.029 A 
ATOM     24  C   UNL A   1      39.991  28.727  29.517  1.00  0.00     0.049 A 
ATOM     25  H   UNL A   1      41.870  28.552  28.630  1.00  0.00     0.167 HD
ATOM     26  C   UNL A   1      45.757  28.014  26.649  1.00  0.00     0.034 A 
ATOM     27  C   UNL A   1      39.935  29.930  30.116  1.00  0.00     0.034 A 
ATOM     28  C   UNL A   1      45.797  29.326  27.257  1.00  0.00     0.049 A 
ATOM     29  C   UNL A   1      41.134  30.832  30.017  1.00  0.00     0.074 A 
ATOM     30  C   UNL A   1      46.822  30.259  27.233  1.00  0.00     0.029 A 
ATOM     31  N   UNL A   1      44.769  29.894  28.000  1.00  0.00    -0.354 N 
ATOM     32  N   UNL A   1      42.277  30.619  29.405  1.00  0.00    -0.248 NA
ATOM     33  C   UNL A   1      41.034  32.134  30.682  1.00  0.00     0.031 C 
ATOM     34  C   UNL A   1      46.437  31.359  28.009  1.00  0.00     0.029 A 
ATOM     35  C   UNL A   1      45.142  31.151  28.456  1.00  0.00     0.049 A 
ATOM     36  H   UNL A   1      43.900  29.466  28.179  1.00  0.00     0.167 HD
ATOM     37  C   UNL A   1      43.032  31.768  29.612  1.00  0.00     0.074 A 
ATOM     38  C   UNL A   1      42.195  32.683  30.361  1.00  0.00     0.031 C 
ATOM     39  C   UNL A   1      44.306  32.039  29.229  1.00  0.00     0.034 A 
BRANCH  26  40
ATOM     40  C   UNL A   1      46.977  27.530  25.898  1.00  0.00     0.023 A 
ATOM     41  C   UNL A   1      47.199  27.867  24.551  1.00  0.00     0.031 A 
ATOM     42  C   UNL A   1      47.936  26.724  26.538  1.00  0.00     0.131 A 
ATOM     43  C   UNL A   1      48.320  27.358  23.875  1.00  0.00     0.055 A 
ATOM     44  C   UNL A   1      49.085  26.280  25.882  1.00  0.00     0.041 A 
ATOM     45  F   UNL A   1      47.771  26.353  27.818  1.00  0.00    -0.206 F 
ATOM     46  C   UNL A   1      49.278  26.587  24.538  1.00  0.00     0.022 A 
BRANCH  43  47
ATOM     47  S   UNL A   1      48.449  27.623  22.086  1.00  0.00     0.124 S 
ATOM     48  O   UNL A   1      47.149  28.215  21.779  1.00  0.00    -0.237 OA
ATOM     49  O   UNL A   1      49.597  28.517  21.980  1.00  0.00    -0.237 OA
ATOM     50  O   UNL A   1      48.655  26.278  21.552  1.00  0.00    -0.744 OA
ENDBRANCH  43  47
ENDBRANCH  26  40
BRANCH  27  51
ATOM     51  C   UNL A   1      38.730  30.324  30.899  1.00  0.00     0.023 A 
ATOM     52  C   UNL A   1      37.674  31.032  30.308  1.00  0.00     0.031 A 
ATOM     53  C   UNL A   1      38.634  30.019  32.270  1.00  0.00     0.131 A 
ATOM     54  C   UNL A   1      36.590  31.453  31.095  1.00  0.00     0.055 A 
ATOM     55  C   UNL A   1      37.524  30.380  33.032  1.00  0.00     0.041 A 
ATOM     56  F   UNL A   1      39.615  29.339  32.886  1.00  0.00    -0.206 F 
ATOM     57  C   UNL A   1      36.499  31.117  32.447  1.00  0.00     0.022 A 
BRANCH  54  58
ATOM     58  S   UNL A   1      35.345  32.536  30.345  1.00  0.00     0.124 S 
ATOM     59  O   UNL A   1      36.145  33.699  29.975  1.00  0.00    -0.237 OA
ATOM     60  O   UNL A   1      34.856  31.716  29.241  1.00  0.00    -0.237 OA
ATOM     61  O   UNL A   1      34.388  32.755  31.429  1.00  0.00    -0.744 OA
ENDBRANCH  54  58
ENDBRANCH  27  51
BRANCH  39  62
ATOM     62  C   UNL A   1      44.844  33.396  29.612  1.00  0.00     0.023 A 
ATOM     63  C   UNL A   1      44.692  34.509  28.765  1.00  0.00     0.031 A 
ATOM     64  C   UNL A   1      45.569  33.564  30.803  1.00  0.00     0.131 A 
ATOM     65  C   UNL A   1      45.327  35.719  29.082  1.00  0.00     0.055 A 
ATOM     66  C   UNL A   1      46.141  34.791  31.147  1.00  0.00     0.041 A 
ATOM     67  F   UNL A   1      45.748  32.535  31.646  1.00  0.00    -0.206 F 
ATOM     68  C   UNL A   1      46.038  35.871  30.275  1.00  0.00     0.022 A 
BRANCH  65  69
ATOM     69  S   UNL A   1      45.322  37.049  27.849  1.00  0.00     0.124 S 
ATOM     70  O   UNL A   1      46.733  37.418  27.795  1.00  0.00    -0.237 OA
ATOM     71  O   UNL A   1      44.793  36.375  26.668  1.00  0.00    -0.237 OA
ATOM     72  O   UNL A   1      44.439  38.056  28.436  1.00  0.00    -0.744 OA
ENDBRANCH  65  69
ENDBRANCH  39  62
ENDBRANCH  13  14
ENDBRANCH   6   8
ENDBRANCH   3   4
ENDBRANCH   2   3
ENDBRANCH   1   2
BRANCH   1  73
ATOM     73  C   UNL A   1      34.281  24.669  23.516  1.00  0.00     0.002 C 
BRANCH  73  74
ATOM     74  C   UNL A   1      33.285  24.964  22.393  1.00  0.00     0.021 C 
BRANCH  74  75
ATOM     75  C   UNL A   1      33.144  26.408  21.911  1.00  0.00     0.116 C 
BRANCH  75  76
ATOM     76  N   UNL A   1      31.785  26.861  21.664  1.00  0.00    -0.351 N 
ATOM     77  C   UNL A   1      31.044  27.764  22.392  1.00  0.00     0.272 C 
ATOM     78  H   UNL A   1      31.339  26.472  20.877  1.00  0.00     0.163 HD
ATOM     79  O   UNL A   1      30.172  28.440  21.853  1.00  0.00    -0.267 OA
BRANCH  77  80
ATOM     80  C   UNL A   1      31.347  27.977  23.808  1.00  0.00     0.159 A 
ATOM     81  N   UNL A   1      32.163  29.069  23.997  1.00  0.00    -0.247 NA
ATOM     82  C   UNL A   1      30.882  27.181  24.846  1.00  0.00     0.159 A 
ATOM     83  C   UNL A   1      32.505  29.346  25.267  1.00  0.00     0.132 A 
ATOM     84  N   UNL A   1      31.263  27.493  26.134  1.00  0.00    -0.247 NA
ATOM     85  C   UNL A   1      32.065  28.569  26.314  1.00  0.00     0.132 A 
BRANCH  82  86
ATOM     86  C   UNL A   1      29.948  25.981  24.821  1.00  0.00     0.276 C 
ATOM     87  O   UNL A   1      28.727  26.169  24.812  1.00  0.00    -0.267 OA
ATOM     88  N   UNL A   1      30.395  24.728  24.465  1.00  0.00    -0.320 N 
ATOM     89  H   UNL A   1      30.178  24.444  23.549  1.00  0.00     0.170 HD
BRANCH  88  90
ATOM     90  C   UNL A   1      31.119  23.799  25.229  1.00  0.00     0.045 A 
ATOM     91  C   UNL A   1      31.941  24.169  26.309  1.00  0.00     0.030 A 
ATOM     92  C   UNL A   1      31.028  22.459  24.831  1.00  0.00     0.076 A 
ATOM     93  C   UNL A   1      32.757  23.212  26.929  1.00  0.00     0.053 A 
ATOM     94  C   UNL A   1      31.915  21.568  25.396  1.00  0.00     0.167 A 
ATOM     95  C   UNL A   1      32.770  21.940  26.405  1.00  0.00     0.165 A 
ATOM     96  O   UNL A   1      32.115  20.282  24.997  1.00  0.00    -0.454 OA
ATOM     97  O   UNL A   1      33.619  20.937  26.756  1.00  0.00    -0.454 OA
ATOM     98  C   UNL A   1      33.335  19.986  25.708  1.00  0.00     0.468 C 
ENDBRANCH  88  90
ENDBRANCH  82  86
ENDBRANCH  77  80
ENDBRANCH  75  76
ENDBRANCH  74  75
ENDBRANCH  73  74
ENDBRANCH   1  73
TORSDOF 18
ENDMDL
MODEL 2
REMARK VINA RESULT:     -12.2      4.848     10.038
REMARK SMILES O=C(NCCCCCCNC(=O)c1nccnc1C(=O)Nc1ccc2c(c1)OCO2)c1ccc(-c2c3nc(c(-c4cc(S(=O)(=O)[O-])ccc4F)c4ccc([nH]4)c(-c4cc(S(=O)(=O)[O-])ccc4F)c4nc(c(-c5cc(S(=O)(=O)[O-])ccc5F)c5ccc2[nH]5)C=C4)C=C3)cc1
REMARK SMILES IDX 6 1 5 2 4 3 3 4 1 5 2 6 31 8 32 9 93 10 33 11 92 12 34 13
REMARK SMILES IDX 35 14 36 15 86 16 37 17 91 18 85 19 87 20 38 21 90 22 84 23
REMARK SMILES IDX 83 24 39 26 71 27 51 28 70 29 52 30 55 31 69 32 88 33 53 34
REMARK SMILES IDX 54 35 68 37 89 38 56 39 40 40 41 41 49 42 42 43 48 44 50 45
REMARK SMILES IDX 47 46 43 47 44 48 45 49 46 50 72 51 73 52 81 53 74 54 80 55
REMARK SMILES IDX 82 56 79 57 75 58 76 59 77 60 78 61 57 62 58 63 66 64 59 65
REMARK SMILES IDX 65 66 67 67 64 68 60 69 61 70 62 71 63 72 7 73 8 74 9 75
REMARK SMILES IDX 10 76 11 77 12 79 13 80 14 81 18 82 15 83 17 84 16 85 19 86
REMARK SMILES IDX 20 87 21 88 22 90 23 91 27 92 24 93 26 94 25 95 28 96 30 97
REMARK SMILES IDX 29 98
REMARK H PARENT 3 7 87 25 55 36 10 78 21 89
REMARK Flexibility Score: inf
ROOT
ATOM      1  C   UNL A   1      31.516  28.388  27.074  1.00  0.00     0.002 C 
ENDROOT
BRANCH   1   2
ATOM      2  C   UNL A   1      31.654  29.355  25.904  1.00  0.00     0.021 C 
BRANCH   2   3
ATOM      3  C   UNL A   1      32.804  30.335  26.037  1.00  0.00     0.116 C 
BRANCH   3   4
ATOM      4  N   UNL A   1      32.390  31.676  26.429  1.00  0.00    -0.352 N 
ATOM      5  O   UNL A   1      32.562  33.594  27.638  1.00  0.00    -0.269 OA
ATOM      6  C   UNL A   1      33.051  32.523  27.294  1.00  0.00     0.251 C 
ATOM      7  H   UNL A   1      31.552  32.013  26.035  1.00  0.00     0.163 HD
BRANCH   6   8
ATOM      8  C   UNL A   1      34.357  32.079  27.826  1.00  0.00     0.039 A 
ATOM      9  C   UNL A   1      34.480  30.779  28.319  1.00  0.00     0.014 A 
ATOM     10  C   UNL A   1      35.410  32.988  27.945  1.00  0.00     0.014 A 
ATOM     11  C   UNL A   1      35.584  30.446  29.087  1.00  0.00     0.010 A 
ATOM     12  C   UNL A   1      36.575  32.606  28.622  1.00  0.00     0.010 A 
ATOM     13  C   UNL A   1      36.658  31.342  29.227  1.00  0.00    -0.014 A 
BRANCH  13  14
ATOM     14  C   UNL A   1      37.872  30.876  29.950  1.00  0.00     0.031 A 
ATOM     15  C   UNL A   1      38.140  31.255  31.381  1.00  0.00     0.074 A 
ATOM     16  C   UNL A   1      38.698  30.029  29.303  1.00  0.00     0.049 A 
ATOM     17  N   UNL A   1      39.125  30.880  32.158  1.00  0.00    -0.248 NA
ATOM     18  C   UNL A   1      37.191  32.176  32.022  1.00  0.00     0.031 C 
ATOM     19  C   UNL A   1      38.536  29.608  27.906  1.00  0.00     0.029 A 
ATOM     20  N   UNL A   1      39.804  29.343  29.727  1.00  0.00    -0.354 N 
ATOM     21  C   UNL A   1      38.925  31.524  33.373  1.00  0.00     0.074 A 
ATOM     22  C   UNL A   1      37.740  32.342  33.218  1.00  0.00     0.031 C 
ATOM     23  C   UNL A   1      39.459  28.683  27.615  1.00  0.00     0.029 A 
ATOM     24  C   UNL A   1      40.335  28.513  28.766  1.00  0.00     0.049 A 
ATOM     25  H   UNL A   1      40.183  29.433  30.631  1.00  0.00     0.167 HD
ATOM     26  C   UNL A   1      39.660  31.432  34.511  1.00  0.00     0.034 A 
ATOM     27  C   UNL A   1      41.423  27.721  28.792  1.00  0.00     0.034 A 
ATOM     28  C   UNL A   1      40.844  30.611  34.641  1.00  0.00     0.049 A 
ATOM     29  C   UNL A   1      42.227  27.656  30.060  1.00  0.00     0.074 A 
ATOM     30  C   UNL A   1      41.665  30.447  35.745  1.00  0.00     0.029 A 
ATOM     31  N   UNL A   1      41.379  29.816  33.635  1.00  0.00    -0.354 N 
ATOM     32  N   UNL A   1      42.022  28.278  31.199  1.00  0.00    -0.248 NA
ATOM     33  C   UNL A   1      43.404  26.782  30.049  1.00  0.00     0.031 C 
ATOM     34  C   UNL A   1      42.724  29.604  35.388  1.00  0.00     0.029 A 
ATOM     35  C   UNL A   1      42.528  29.178  34.085  1.00  0.00     0.049 A 
ATOM     36  H   UNL A   1      40.999  29.719  32.732  1.00  0.00     0.167 HD
ATOM     37  C   UNL A   1      43.047  27.864  32.042  1.00  0.00     0.074 A 
ATOM     38  C   UNL A   1      43.836  26.907  31.294  1.00  0.00     0.031 C 
ATOM     39  C   UNL A   1      43.320  28.249  33.315  1.00  0.00     0.034 A 
BRANCH  26  40
ATOM     40  C   UNL A   1      39.227  32.267  35.695  1.00  0.00     0.023 A 
ATOM     41  C   UNL A   1      39.671  33.589  35.870  1.00  0.00     0.031 A 
ATOM     42  C   UNL A   1      38.352  31.737  36.661  1.00  0.00     0.131 A 
ATOM     43  C   UNL A   1      39.284  34.316  37.008  1.00  0.00     0.055 A 
ATOM     44  C   UNL A   1      37.914  32.488  37.753  1.00  0.00     0.041 A 
ATOM     45  F   UNL A   1      37.909  30.473  36.560  1.00  0.00    -0.206 F 
ATOM     46  C   UNL A   1      38.388  33.783  37.938  1.00  0.00     0.022 A 
BRANCH  43  47
ATOM     47  S   UNL A   1      40.058  35.927  37.314  1.00  0.00     0.124 S 
ATOM     48  O   UNL A   1      39.361  36.367  38.521  1.00  0.00    -0.237 OA
ATOM     49  O   UNL A   1      41.464  35.577  37.482  1.00  0.00    -0.237 OA
ATOM     50  O   UNL A   1      39.745  36.694  36.109  1.00  0.00    -0.744 OA
ENDBRANCH  43  47
ENDBRANCH  26  40
BRANCH  27  51
ATOM     51  C   UNL A   1      41.836  26.974  27.571  1.00  0.00     0.023 A 
ATOM     52  C   UNL A   1      41.642  25.590  27.460  1.00  0.00     0.031 A 
ATOM     53  C   UNL A   1      42.465  27.640  26.501  1.00  0.00     0.131 A 
ATOM     54  C   UNL A   1      42.115  24.909  26.327  1.00  0.00     0.055 A 
ATOM     55  C   UNL A   1      42.872  26.969  25.349  1.00  0.00     0.041 A 
ATOM     56  F   UNL A   1      42.672  28.966  26.553  1.00  0.00    -0.206 F 
ATOM     57  C   UNL A   1      42.712  25.590  25.264  1.00  0.00     0.022 A 
BRANCH  54  58
ATOM     58  S   UNL A   1      42.028  23.097  26.307  1.00  0.00     0.124 S 
ATOM     59  O   UNL A   1      42.593  22.786  24.998  1.00  0.00    -0.237 OA
ATOM     60  O   UNL A   1      42.849  22.743  27.460  1.00  0.00    -0.237 OA
ATOM     61  O   UNL A   1      40.599  22.825  26.452  1.00  0.00    -0.744 OA
ENDBRANCH  54  58
ENDBRANCH  27  51
BRANCH  39  62
ATOM     62  C   UNL A   1      44.521  27.604  33.964  1.00  0.00     0.023 A 
ATOM     63  C   UNL A   1      44.406  26.398  34.680  1.00  0.00     0.031 A 
ATOM     64  C   UNL A   1      45.777  28.232  33.921  1.00  0.00     0.131 A 
ATOM     65  C   UNL A   1      45.507  25.902  35.392  1.00  0.00     0.055 A 
ATOM     66  C   UNL A   1      46.888  27.695  34.574  1.00  0.00     0.041 A 
ATOM     67  F   UNL A   1      45.942  29.386  33.255  1.00  0.00    -0.206 F 
ATOM     68  C   UNL A   1      46.752  26.535  35.331  1.00  0.00     0.022 A 
BRANCH  65  69
ATOM     69  S   UNL A   1      45.256  24.492  36.504  1.00  0.00     0.124 S 
ATOM     70  O   UNL A   1      44.630  23.515  35.619  1.00  0.00    -0.237 OA
ATOM     71  O   UNL A   1      46.617  24.186  36.930  1.00  0.00    -0.237 OA
ATOM     72  O   UNL A   1      44.385  25.030  37.548  1.00  0.00    -0.744 OA
ENDBRANCH  65  69
ENDBRANCH  39  62
ENDBRANCH  13  14
ENDBRANCH   6   8
ENDBRANCH   3   4
ENDBRANCH   2   3
ENDBRANCH   1   2
BRANCH   1  73
ATOM     73  C   UNL A   1      32.063  26.977  26.841  1.00  0.00     0.002 C 
BRANCH  73  74
ATOM     74  C   UNL A   1      33.462  26.837  26.236  1.00  0.00     0.021 C 
BRANCH  74  75
ATOM     75  C   UNL A   1      33.685  25.770  25.165  1.00  0.00     0.116 C 
BRANCH  75  76
ATOM     76  N   UNL A   1      34.963  25.081  25.217  1.00  0.00    -0.351 N 
ATOM     77  C   UNL A   1      35.252  23.794  24.829  1.00  0.00     0.272 C 
ATOM     78  H   UNL A   1      35.718  25.603  25.576  1.00  0.00     0.163 HD
ATOM     79  O   UNL A   1      36.376  23.492  24.436  1.00  0.00    -0.267 OA
BRANCH  77  80
ATOM     80  C   UNL A   1      34.191  22.786  24.811  1.00  0.00     0.159 A 
ATOM     81  N   UNL A   1      34.239  21.973  25.920  1.00  0.00    -0.247 NA
ATOM     82  C   UNL A   1      33.246  22.649  23.803  1.00  0.00     0.159 A 
ATOM     83  C   UNL A   1      33.307  21.008  25.995  1.00  0.00     0.132 A 
ATOM     84  N   UNL A   1      32.312  21.640  23.912  1.00  0.00    -0.247 NA
ATOM     85  C   UNL A   1      32.363  20.844  25.006  1.00  0.00     0.132 A 
BRANCH  82  86
ATOM     86  C   UNL A   1      33.020  23.478  22.548  1.00  0.00     0.276 C 
ATOM     87  O   UNL A   1      33.847  23.420  21.633  1.00  0.00    -0.267 OA
ATOM     88  N   UNL A   1      31.786  24.011  22.250  1.00  0.00    -0.320 N 
ATOM     89  H   UNL A   1      31.266  23.524  21.570  1.00  0.00     0.170 HD
BRANCH  88  90
ATOM     90  C   UNL A   1      31.165  25.153  22.781  1.00  0.00     0.045 A 
ATOM     91  C   UNL A   1      30.277  25.105  23.871  1.00  0.00     0.030 A 
ATOM     92  C   UNL A   1      31.432  26.365  22.133  1.00  0.00     0.076 A 
ATOM     93  C   UNL A   1      29.572  26.256  24.251  1.00  0.00     0.053 A 
ATOM     94  C   UNL A   1      30.650  27.450  22.469  1.00  0.00     0.167 A 
ATOM     95  C   UNL A   1      29.731  27.390  23.488  1.00  0.00     0.165 A 
ATOM     96  O   UNL A   1      30.621  28.644  21.817  1.00  0.00    -0.454 OA
ATOM     97  O   UNL A   1      29.005  28.536  23.594  1.00  0.00    -0.454 OA
ATOM     98  C   UNL A   1      29.431  29.218  22.396  1.00  0.00     0.468 C 
ENDBRANCH  88  90
ENDBRANCH  82  86
ENDBRANCH  77  80
ENDBRANCH  75  76
ENDBRANCH  74  75
ENDBRANCH  73  74
ENDBRANCH   1  73
TORSDOF 18
ENDMDL
MODEL 3
REMARK VINA RESULT:     -12.1      4.947      9.934
REMARK SMILES O=C(NCCCCCCNC(=O)c1nccnc1C(=O)Nc1ccc2c(c1)OCO2)c1ccc(-c2c3nc(c(-c4cc(S(=O)(=O)[O-])ccc4F)c4ccc([nH]4)c(-c4cc(S(=O)(=O)[O-])ccc4F)c4nc(c(-c5cc(S(=O)(=O)[O-])ccc5F)c5ccc2[nH]5)C=C4)C=C3)cc1
REMARK SMILES IDX 6 1 5 2 4 3 3 4 1 5 2 6 31 8 32 9 93 10 33 11 92 12 34 13
REMARK SMILES IDX 35 14 36 15 86 16 37 17 91 18 85 19 87 20 38 21 90 22 84 23
REMARK SMILES IDX 83 24 39 26 71 27 51 28 70 29 52 30 55 31 69 32 88 33 53 34
REMARK SMILES IDX 54 35 68 37 89 38 56 39 40 40 41 41 49 42 42 43 48 44 50 45
REMARK SMILES IDX 47 46 43 47 44 48 45 49 46 50 72 51 73 52 81 53 74 54 80 55
REMARK SMILES IDX 82 56 79 57 75 58 76 59 77 60 78 61 57 62 58 63 66 64 59 65
REMARK SMILES IDX 65 66 67 67 64 68 60 69 61 70 62 71 63 72 7 73 8 74 9 75
REMARK SMILES IDX 10 76 11 77 12 79 13 80 14 81 18 82 15 83 17 84 16 85 19 86
REMARK SMILES IDX 20 87 21 88 22 90 23 91 27 92 24 93 26 94 25 95 28 96 30 97
REMARK SMILES IDX 29 98
REMARK H PARENT 3 7 87 25 55 36 10 78 21 89
REMARK Flexibility Score: inf
ROOT
ATOM      1  C   UNL A   1      31.564  27.734  26.451  1.00  0.00     0.002 C 
ENDROOT
BRANCH   1   2
ATOM      2  C   UNL A   1      31.798  28.867  25.459  1.00  0.00     0.021 C 
BRANCH   2   3
ATOM      3  C   UNL A   1      32.883  29.843  25.871  1.00  0.00     0.116 C 
BRANCH   3   4
ATOM      4  N   UNL A   1      32.374  31.139  26.302  1.00  0.00    -0.352 N 
ATOM      5  O   UNL A   1      32.403  33.022  27.575  1.00  0.00    -0.269 OA
ATOM      6  C   UNL A   1      32.968  31.999  27.201  1.00  0.00     0.251 C 
ATOM      7  H   UNL A   1      31.518  31.430  25.911  1.00  0.00     0.163 HD
BRANCH   6   8
ATOM      8  C   UNL A   1      34.298  31.629  27.731  1.00  0.00     0.039 A 
ATOM      9  C   UNL A   1      34.512  30.321  28.167  1.00  0.00     0.014 A 
ATOM     10  C   UNL A   1      35.279  32.607  27.907  1.00  0.00     0.014 A 
ATOM     11  C   UNL A   1      35.628  30.035  28.935  1.00  0.00     0.010 A 
ATOM     12  C   UNL A   1      36.461  32.281  28.583  1.00  0.00     0.010 A 
ATOM     13  C   UNL A   1      36.631  31.001  29.132  1.00  0.00    -0.014 A 
BRANCH  13  14
ATOM     14  C   UNL A   1      37.867  30.592  29.851  1.00  0.00     0.031 A 
ATOM     15  C   UNL A   1      38.130  30.998  31.275  1.00  0.00     0.074 A 
ATOM     16  C   UNL A   1      38.723  29.772  29.207  1.00  0.00     0.049 A 
ATOM     17  N   UNL A   1      39.135  30.672  32.049  1.00  0.00    -0.248 NA
ATOM     18  C   UNL A   1      37.149  31.887  31.913  1.00  0.00     0.031 C 
ATOM     19  C   UNL A   1      38.568  29.329  27.816  1.00  0.00     0.029 A 
ATOM     20  N   UNL A   1      39.859  29.136  29.630  1.00  0.00    -0.354 N 
ATOM     21  C   UNL A   1      38.918  31.322  33.259  1.00  0.00     0.074 A 
ATOM     22  C   UNL A   1      37.699  32.089  33.103  1.00  0.00     0.031 C 
ATOM     23  C   UNL A   1      39.526  28.438  27.528  1.00  0.00     0.029 A 
ATOM     24  C   UNL A   1      40.417  28.318  28.675  1.00  0.00     0.049 A 
ATOM     25  H   UNL A   1      40.240  29.252  30.530  1.00  0.00     0.167 HD
ATOM     26  C   UNL A   1      39.664  31.273  34.392  1.00  0.00     0.034 A 
ATOM     27  C   UNL A   1      41.536  27.571  28.701  1.00  0.00     0.034 A 
ATOM     28  C   UNL A   1      40.881  30.502  34.522  1.00  0.00     0.049 A 
ATOM     29  C   UNL A   1      42.351  27.553  29.964  1.00  0.00     0.074 A 
ATOM     30  C   UNL A   1      41.716  30.384  35.622  1.00  0.00     0.029 A 
ATOM     31  N   UNL A   1      41.441  29.718  33.520  1.00  0.00    -0.354 N 
ATOM     32  N   UNL A   1      42.129  28.180  31.097  1.00  0.00    -0.248 NA
ATOM     33  C   UNL A   1      43.562  26.728  29.953  1.00  0.00     0.031 C 
ATOM     34  C   UNL A   1      42.806  29.581  35.266  1.00  0.00     0.029 A 
ATOM     35  C   UNL A   1      42.618  29.132  33.969  1.00  0.00     0.049 A 
ATOM     36  H   UNL A   1      41.059  29.595  32.621  1.00  0.00     0.167 HD
ATOM     37  C   UNL A   1      43.175  27.817  31.937  1.00  0.00     0.074 A 
ATOM     38  C   UNL A   1      43.997  26.884  31.193  1.00  0.00     0.031 C 
ATOM     39  C   UNL A   1      43.442  28.227  33.203  1.00  0.00     0.034 A 
BRANCH  26  40
ATOM     40  C   UNL A   1      39.206  32.103  35.570  1.00  0.00     0.023 A 
ATOM     41  C   UNL A   1      38.524  31.530  36.658  1.00  0.00     0.031 A 
ATOM     42  C   UNL A   1      39.460  33.486  35.610  1.00  0.00     0.131 A 
ATOM     43  C   UNL A   1      38.074  32.343  37.711  1.00  0.00     0.055 A 
ATOM     44  C   UNL A   1      39.072  34.277  36.693  1.00  0.00     0.041 A 
ATOM     45  F   UNL A   1      40.090  34.094  34.592  1.00  0.00    -0.206 F 
ATOM     46  C   UNL A   1      38.365  33.709  37.748  1.00  0.00     0.022 A 
BRANCH  43  47
ATOM     47  S   UNL A   1      37.002  31.610  38.977  1.00  0.00     0.124 S 
ATOM     48  O   UNL A   1      36.794  30.264  38.446  1.00  0.00    -0.237 OA
ATOM     49  O   UNL A   1      37.823  31.701  40.179  1.00  0.00    -0.237 OA
ATOM     50  O   UNL A   1      35.817  32.466  38.963  1.00  0.00    -0.744 OA
ENDBRANCH  43  47
ENDBRANCH  26  40
BRANCH  27  51
ATOM     51  C   UNL A   1      41.971  26.827  27.485  1.00  0.00     0.023 A 
ATOM     52  C   UNL A   1      41.777  25.444  27.366  1.00  0.00     0.031 A 
ATOM     53  C   UNL A   1      42.619  27.496  26.430  1.00  0.00     0.131 A 
ATOM     54  C   UNL A   1      42.270  24.766  26.240  1.00  0.00     0.055 A 
ATOM     55  C   UNL A   1      43.047  26.828  25.283  1.00  0.00     0.041 A 
ATOM     56  F   UNL A   1      42.827  28.822  26.489  1.00  0.00    -0.206 F 
ATOM     57  C   UNL A   1      42.886  25.450  25.190  1.00  0.00     0.022 A 
BRANCH  54  58
ATOM     58  S   UNL A   1      42.182  22.955  26.213  1.00  0.00     0.124 S 
ATOM     59  O   UNL A   1      40.756  22.722  26.417  1.00  0.00    -0.237 OA
ATOM     60  O   UNL A   1      42.697  22.647  24.883  1.00  0.00    -0.237 OA
ATOM     61  O   UNL A   1      43.046  22.556  27.323  1.00  0.00    -0.744 OA
ENDBRANCH  54  58
ENDBRANCH  27  51
BRANCH  39  62
ATOM     62  C   UNL A   1      44.673  27.639  33.851  1.00  0.00     0.023 A 
ATOM     63  C   UNL A   1      44.604  26.461  34.616  1.00  0.00     0.031 A 
ATOM     64  C   UNL A   1      45.911  28.296  33.755  1.00  0.00     0.131 A 
ATOM     65  C   UNL A   1      45.733  26.021  35.322  1.00  0.00     0.055 A 
ATOM     66  C   UNL A   1      47.049  27.814  34.403  1.00  0.00     0.041 A 
ATOM     67  F   UNL A   1      46.032  29.426  33.041  1.00  0.00    -0.206 F 
ATOM     68  C   UNL A   1      46.959  26.681  35.209  1.00  0.00     0.022 A 
BRANCH  65  69
ATOM     69  S   UNL A   1      45.542  24.650  36.494  1.00  0.00     0.124 S 
ATOM     70  O   UNL A   1      46.834  24.648  37.172  1.00  0.00    -0.237 OA
ATOM     71  O   UNL A   1      44.402  25.083  37.295  1.00  0.00    -0.237 OA
ATOM     72  O   UNL A   1      45.291  23.496  35.633  1.00  0.00    -0.744 OA
ENDBRANCH  65  69
ENDBRANCH  39  62
ENDBRANCH  13  14
ENDBRANCH   6   8
ENDBRANCH   3   4
ENDBRANCH   2   3
ENDBRANCH   1   2
BRANCH   1  73
ATOM     73  C   UNL A   1      30.872  26.489  25.889  1.00  0.00     0.002 C 
BRANCH  73  74
ATOM     74  C   UNL A   1      31.145  26.108  24.432  1.00  0.00     0.021 C 
BRANCH  74  75
ATOM     75  C   UNL A   1      30.928  24.654  24.011  1.00  0.00     0.116 C 
BRANCH  75  76
ATOM     76  N   UNL A   1      31.685  24.215  22.851  1.00  0.00    -0.351 N 
ATOM     77  C   UNL A   1      32.752  23.348  22.811  1.00  0.00     0.272 C 
ATOM     78  H   UNL A   1      31.397  24.584  21.985  1.00  0.00     0.163 HD
ATOM     79  O   UNL A   1      32.973  22.667  21.813  1.00  0.00    -0.267 OA
BRANCH  77  80
ATOM     80  C   UNL A   1      33.592  23.176  23.998  1.00  0.00     0.159 A 
ATOM     81  N   UNL A   1      34.652  24.055  24.005  1.00  0.00    -0.247 NA
ATOM     82  C   UNL A   1      33.366  22.243  25.000  1.00  0.00     0.159 A 
ATOM     83  C   UNL A   1      35.489  23.973  25.053  1.00  0.00     0.132 A 
ATOM     84  N   UNL A   1      34.253  22.184  26.054  1.00  0.00    -0.247 NA
ATOM     85  C   UNL A   1      35.294  23.052  26.057  1.00  0.00     0.132 A 
BRANCH  82  86
ATOM     86  C   UNL A   1      32.235  21.241  25.173  1.00  0.00     0.276 C 
ATOM     87  O   UNL A   1      31.169  21.618  25.669  1.00  0.00    -0.267 OA
ATOM     88  N   UNL A   1      32.228  20.040  24.497  1.00  0.00    -0.320 N 
ATOM     89  H   UNL A   1      31.641  20.001  23.708  1.00  0.00     0.170 HD
BRANCH  88  90
ATOM     90  C   UNL A   1      32.942  18.864  24.778  1.00  0.00     0.045 A 
ATOM     91  C   UNL A   1      34.270  18.657  24.365  1.00  0.00     0.030 A 
ATOM     92  C   UNL A   1      32.243  17.859  25.459  1.00  0.00     0.076 A 
ATOM     93  C   UNL A   1      34.871  17.403  24.540  1.00  0.00     0.053 A 
ATOM     94  C   UNL A   1      32.828  16.613  25.525  1.00  0.00     0.167 A 
ATOM     95  C   UNL A   1      34.101  16.387  25.060  1.00  0.00     0.165 A 
ATOM     96  O   UNL A   1      32.228  15.473  25.961  1.00  0.00    -0.454 OA
ATOM     97  O   UNL A   1      34.452  15.075  25.137  1.00  0.00    -0.454 OA
ATOM     98  C   UNL A   1      33.181  14.494  25.498  1.00  0.00     0.468 C 
ENDBRANCH  88  90
ENDBRANCH  82  86
ENDBRANCH  77  80
ENDBRANCH  75  76
ENDBRANCH  74  75
ENDBRANCH  73  74
ENDBRANCH   1  73
TORSDOF 18
ENDMDL
