MODEL 1
REMARK VINA RESULT:     -12.7      0.000      0.000
REMARK SMILES Cc1nn(Cc2ccc(C(=O)NCCCCCCNC(=O)c3ccc(-c4c5nc(c(-c6cc(S(=O)(=O)[O-])ccc6F)c6ccc([nH]6)c(-c6cc(S(=O)(=O)[O-])ccc6F)c6nc(c(-c7cc(S(=O)(=O)[O-])ccc7F)c7ccc4[nH]7)C=C6)C=C5)cc3)o2)c(C)c1C
REMARK SMILES IDX 16 1 15 2 14 3 13 4 12 5 10 6 11 7 9 9 6 10 7 11 85 12 8 13
REMARK SMILES IDX 5 14 4 15 1 16 2 17 3 18 88 19 86 20 89 21 87 22 17 23 18 24
REMARK SMILES IDX 19 25 20 26 21 28 22 29 23 30 84 31 24 32 83 33 25 34 26 35
REMARK SMILES IDX 27 36 77 37 28 38 82 39 76 40 78 41 29 42 81 43 75 44 74 45
REMARK SMILES IDX 30 47 62 48 42 49 61 50 43 51 46 52 60 53 79 54 44 55 45 56
REMARK SMILES IDX 59 58 80 59 47 60 31 61 32 62 40 63 33 64 39 65 41 66 38 67
REMARK SMILES IDX 34 68 35 69 36 70 37 71 63 72 64 73 72 74 65 75 71 76 73 77
REMARK SMILES IDX 70 78 66 79 67 80 68 81 69 82 48 83 49 84 57 85 50 86 56 87
REMARK SMILES IDX 58 88 55 89 51 90 52 91 53 92 54 93
REMARK H PARENT 12 8 19 27 78 46 46 57
REMARK Flexibility Score: inf
ROOT
ATOM      1  C   UNL A   1      33.265  29.042  27.347  1.00  0.00     0.002 C 
ENDROOT
BRANCH   1   2
ATOM      2  C   UNL A   1      32.591  30.379  27.003  1.00  0.00     0.002 C 
BRANCH   2   3
ATOM      3  C   UNL A   1      31.643  30.377  25.797  1.00  0.00     0.021 C 
BRANCH   3   4
ATOM      4  C   UNL A   1      31.995  29.386  24.688  1.00  0.00     0.116 C 
BRANCH   4   5
ATOM      5  N   UNL A   1      31.129  29.530  23.533  1.00  0.00    -0.349 N 
ATOM      6  C   UNL A   1      30.590  28.614  22.661  1.00  0.00     0.286 C 
ATOM      7  O   UNL A   1      29.871  29.083  21.773  1.00  0.00    -0.266 OA
ATOM      8  H   UNL A   1      30.878  30.461  23.337  1.00  0.00     0.163 HD
BRANCH   6   9
ATOM      9  C   UNL A   1      30.825  27.186  22.775  1.00  0.00     0.191 A 
ATOM     10  C   UNL A   1      31.766  25.220  22.400  1.00  0.00     0.126 A 
ATOM     11  C   UNL A   1      30.782  25.005  23.340  1.00  0.00     0.048 A 
ATOM     12  O   UNL A   1      31.804  26.544  22.068  1.00  0.00    -0.454 OA
ATOM     13  C   UNL A   1      30.181  26.262  23.581  1.00  0.00     0.056 A 
BRANCH  10  14
ATOM     14  C   UNL A   1      32.781  24.342  21.760  1.00  0.00     0.219 C 
BRANCH  14  15
ATOM     15  N   UNL A   1      33.595  23.624  22.737  1.00  0.00    -0.262 N 
ATOM     16  C   UNL A   1      36.602  23.523  24.603  1.00  0.00     0.069 C 
ATOM     17  C   UNL A   1      35.301  23.238  23.946  1.00  0.00     0.063 A 
ATOM     18  N   UNL A   1      34.796  24.134  23.090  1.00  0.00    -0.177 NA
ATOM     19  C   UNL A   1      34.461  22.099  24.076  1.00  0.00    -0.007 A 
ATOM     20  C   UNL A   1      33.370  22.375  23.265  1.00  0.00     0.039 A 
ATOM     21  C   UNL A   1      34.683  20.873  24.885  1.00  0.00     0.048 C 
ATOM     22  C   UNL A   1      32.163  21.559  22.971  1.00  0.00     0.066 C 
ENDBRANCH  14  15
ENDBRANCH  10  14
ENDBRANCH   6   9
ENDBRANCH   4   5
ENDBRANCH   3   4
ENDBRANCH   2   3
ENDBRANCH   1   2
BRANCH   1  23
ATOM     23  C   UNL A   1      34.779  28.947  27.116  1.00  0.00     0.021 C 
BRANCH  23  24
ATOM     24  C   UNL A   1      35.572  30.152  27.604  1.00  0.00     0.116 C 
BRANCH  24  25
ATOM     25  N   UNL A   1      35.574  30.280  29.062  1.00  0.00    -0.352 N 
ATOM     26  C   UNL A   1      36.378  29.621  29.972  1.00  0.00     0.251 C 
ATOM     27  H   UNL A   1      34.923  30.914  29.440  1.00  0.00     0.163 HD
ATOM     28  O   UNL A   1      36.021  29.506  31.144  1.00  0.00    -0.269 OA
BRANCH  26  29
ATOM     29  C   UNL A   1      37.661  29.060  29.515  1.00  0.00     0.039 A 
ATOM     30  C   UNL A   1      38.240  29.427  28.296  1.00  0.00     0.014 A 
ATOM     31  C   UNL A   1      38.301  28.158  30.360  1.00  0.00     0.014 A 
ATOM     32  C   UNL A   1      39.510  28.943  27.979  1.00  0.00     0.010 A 
ATOM     33  C   UNL A   1      39.607  27.816  30.125  1.00  0.00     0.010 A 
ATOM     34  C   UNL A   1      40.196  28.150  28.910  1.00  0.00    -0.014 A 
BRANCH  34  35
ATOM     35  C   UNL A   1      41.577  27.729  28.694  1.00  0.00     0.031 A 
ATOM     36  C   UNL A   1      41.735  26.482  27.899  1.00  0.00     0.074 A 
ATOM     37  C   UNL A   1      42.626  28.548  28.929  1.00  0.00     0.049 A 
ATOM     38  N   UNL A   1      42.153  25.330  28.305  1.00  0.00    -0.248 NA
ATOM     39  C   UNL A   1      41.222  26.469  26.521  1.00  0.00     0.031 C 
ATOM     40  C   UNL A   1      42.591  29.942  29.390  1.00  0.00     0.029 A 
ATOM     41  N   UNL A   1      43.945  28.357  28.662  1.00  0.00    -0.354 N 
ATOM     42  C   UNL A   1      42.205  24.518  27.174  1.00  0.00     0.074 A 
ATOM     43  C   UNL A   1      41.403  25.189  26.189  1.00  0.00     0.031 C 
ATOM     44  C   UNL A   1      43.775  30.535  29.130  1.00  0.00     0.029 A 
ATOM     45  C   UNL A   1      44.704  29.524  28.657  1.00  0.00     0.049 A 
ATOM     46  H   UNL A   1      44.331  27.468  28.488  1.00  0.00     0.167 HD
ATOM     47  C   UNL A   1      43.120  23.510  27.072  1.00  0.00     0.034 A 
ATOM     48  C   UNL A   1      45.996  29.668  28.263  1.00  0.00     0.034 A 
ATOM     49  C   UNL A   1      43.742  23.261  28.360  1.00  0.00     0.049 A 
ATOM     50  C   UNL A   1      46.613  28.320  28.341  1.00  0.00     0.074 A 
ATOM     51  C   UNL A   1      43.273  22.921  29.615  1.00  0.00     0.029 A 
ATOM     52  N   UNL A   1      45.017  23.747  28.566  1.00  0.00    -0.354 N 
ATOM     53  N   UNL A   1      46.756  27.666  29.464  1.00  0.00    -0.248 NA
ATOM     54  C   UNL A   1      46.613  27.492  27.144  1.00  0.00     0.031 C 
ATOM     55  C   UNL A   1      44.064  23.689  30.521  1.00  0.00     0.029 A 
ATOM     56  C   UNL A   1      45.031  24.377  29.784  1.00  0.00     0.049 A 
ATOM     57  H   UNL A   1      45.780  23.657  27.949  1.00  0.00     0.167 HD
ATOM     58  C   UNL A   1      46.416  26.355  29.161  1.00  0.00     0.074 A 
ATOM     59  C   UNL A   1      46.450  26.287  27.700  1.00  0.00     0.031 C 
ATOM     60  C   UNL A   1      45.855  25.531  30.097  1.00  0.00     0.034 A 
BRANCH  47  61
ATOM     61  C   UNL A   1      43.771  23.024  25.784  1.00  0.00     0.023 A 
ATOM     62  C   UNL A   1      43.744  21.632  25.563  1.00  0.00     0.031 A 
ATOM     63  C   UNL A   1      44.646  23.749  24.947  1.00  0.00     0.131 A 
ATOM     64  C   UNL A   1      44.678  21.011  24.718  1.00  0.00     0.055 A 
ATOM     65  C   UNL A   1      45.524  23.131  24.049  1.00  0.00     0.041 A 
ATOM     66  F   UNL A   1      44.760  25.080  24.984  1.00  0.00    -0.206 F 
ATOM     67  C   UNL A   1      45.581  21.752  23.966  1.00  0.00     0.022 A 
BRANCH  64  68
ATOM     68  S   UNL A   1      44.832  19.210  24.810  1.00  0.00     0.124 S 
ATOM     69  O   UNL A   1      46.026  19.070  25.637  1.00  0.00    -0.237 OA
ATOM     70  O   UNL A   1      43.566  18.835  25.432  1.00  0.00    -0.237 OA
ATOM     71  O   UNL A   1      44.985  18.814  23.414  1.00  0.00    -0.744 OA
ENDBRANCH  64  68
ENDBRANCH  47  61
BRANCH  48  72
ATOM     72  C   UNL A   1      46.582  30.835  27.545  1.00  0.00     0.023 A 
ATOM     73  C   UNL A   1      45.808  31.846  26.936  1.00  0.00     0.031 A 
ATOM     74  C   UNL A   1      47.974  31.076  27.636  1.00  0.00     0.131 A 
ATOM     75  C   UNL A   1      46.430  33.023  26.448  1.00  0.00     0.055 A 
ATOM     76  C   UNL A   1      48.582  32.234  27.146  1.00  0.00     0.041 A 
ATOM     77  F   UNL A   1      48.785  30.221  28.281  1.00  0.00    -0.206 F 
ATOM     78  C   UNL A   1      47.809  33.218  26.555  1.00  0.00     0.022 A 
BRANCH  75  79
ATOM     79  S   UNL A   1      45.432  34.368  25.725  1.00  0.00     0.124 S 
ATOM     80  O   UNL A   1      44.820  33.720  24.572  1.00  0.00    -0.237 OA
ATOM     81  O   UNL A   1      44.540  34.717  26.825  1.00  0.00    -0.237 OA
ATOM     82  O   UNL A   1      46.425  35.392  25.397  1.00  0.00    -0.744 OA
ENDBRANCH  75  79
ENDBRANCH  48  72
BRANCH  60  83
ATOM     83  C   UNL A   1      45.899  25.941  31.554  1.00  0.00     0.023 A 
ATOM     84  C   UNL A   1      44.782  26.349  32.316  1.00  0.00     0.031 A 
ATOM     85  C   UNL A   1      47.116  25.741  32.231  1.00  0.00     0.131 A 
ATOM     86  C   UNL A   1      44.913  26.539  33.707  1.00  0.00     0.055 A 
ATOM     87  C   UNL A   1      47.236  25.909  33.608  1.00  0.00     0.041 A 
ATOM     88  F   UNL A   1      48.204  25.321  31.564  1.00  0.00    -0.206 F 
ATOM     89  C   UNL A   1      46.134  26.311  34.353  1.00  0.00     0.022 A 
BRANCH  86  90
ATOM     90  S   UNL A   1      43.491  27.081  34.712  1.00  0.00     0.124 S 
ATOM     91  O   UNL A   1      42.716  25.860  34.890  1.00  0.00    -0.237 OA
ATOM     92  O   UNL A   1      44.134  27.614  35.911  1.00  0.00    -0.237 OA
ATOM     93  O   UNL A   1      42.847  28.093  33.872  1.00  0.00    -0.744 OA
ENDBRANCH  86  90
ENDBRANCH  60  83
ENDBRANCH  34  35
ENDBRANCH  26  29
ENDBRANCH  24  25
ENDBRANCH  23  24
ENDBRANCH   1  23
TORSDOF 18
ENDMDL
MODEL 2
REMARK VINA RESULT:     -12.3      3.342      7.930
REMARK SMILES Cc1nn(Cc2ccc(C(=O)NCCCCCCNC(=O)c3ccc(-c4c5nc(c(-c6cc(S(=O)(=O)[O-])ccc6F)c6ccc([nH]6)c(-c6cc(S(=O)(=O)[O-])ccc6F)c6nc(c(-c7cc(S(=O)(=O)[O-])ccc7F)c7ccc4[nH]7)C=C6)C=C5)cc3)o2)c(C)c1C
REMARK SMILES IDX 16 1 15 2 14 3 13 4 12 5 10 6 11 7 9 9 6 10 7 11 85 12 8 13
REMARK SMILES IDX 5 14 4 15 1 16 2 17 3 18 88 19 86 20 89 21 87 22 17 23 18 24
REMARK SMILES IDX 19 25 20 26 21 28 22 29 23 30 84 31 24 32 83 33 25 34 26 35
REMARK SMILES IDX 27 36 77 37 28 38 82 39 76 40 78 41 29 42 81 43 75 44 74 45
REMARK SMILES IDX 30 47 62 48 42 49 61 50 43 51 46 52 60 53 79 54 44 55 45 56
REMARK SMILES IDX 59 58 80 59 47 60 31 61 32 62 40 63 33 64 39 65 41 66 38 67
REMARK SMILES IDX 34 68 35 69 36 70 37 71 63 72 64 73 72 74 65 75 71 76 73 77
REMARK SMILES IDX 70 78 66 79 67 80 68 81 69 82 48 83 49 84 57 85 50 86 56 87
REMARK SMILES IDX 58 88 55 89 51 90 52 91 53 92 54 93
REMARK H PARENT 12 8 19 27 78 46 46 57
REMARK Flexibility Score: inf
ROOT
ATOM      1  C   UNL A   1      41.596  20.724  26.951  1.00  0.00     0.002 C 
ENDROOT
BRANCH   1   2
ATOM      2  C   UNL A   1      40.466  21.667  26.514  1.00  0.00     0.002 C 
BRANCH   2   3
ATOM      3  C   UNL A   1      39.282  21.024  25.781  1.00  0.00     0.021 C 
BRANCH   3   4
ATOM      4  C   UNL A   1      38.012  21.872  25.717  1.00  0.00     0.116 C 
BRANCH   4   5
ATOM      5  N   UNL A   1      37.736  22.342  24.372  1.00  0.00    -0.349 N 
ATOM      6  C   UNL A   1      36.619  22.896  23.796  1.00  0.00     0.286 C 
ATOM      7  O   UNL A   1      36.728  23.198  22.603  1.00  0.00    -0.266 OA
ATOM      8  H   UNL A   1      38.497  22.246  23.754  1.00  0.00     0.163 HD
BRANCH   6   9
ATOM      9  C   UNL A   1      35.390  23.135  24.532  1.00  0.00     0.191 A 
ATOM     10  C   UNL A   1      33.330  22.793  25.261  1.00  0.00     0.126 A 
ATOM     11  C   UNL A   1      33.775  23.943  25.880  1.00  0.00     0.048 A 
ATOM     12  O   UNL A   1      34.314  22.294  24.457  1.00  0.00    -0.454 OA
ATOM     13  C   UNL A   1      35.092  24.160  25.414  1.00  0.00     0.056 A 
BRANCH  10  14
ATOM     14  C   UNL A   1      32.074  22.004  25.350  1.00  0.00     0.219 C 
BRANCH  14  15
ATOM     15  N   UNL A   1      32.226  20.648  24.830  1.00  0.00    -0.262 N 
ATOM     16  C   UNL A   1      32.930  17.252  25.538  1.00  0.00     0.069 C 
ATOM     17  C   UNL A   1      32.656  18.568  24.906  1.00  0.00     0.063 A 
ATOM     18  N   UNL A   1      32.548  19.651  25.683  1.00  0.00    -0.177 NA
ATOM     19  C   UNL A   1      32.492  18.885  23.531  1.00  0.00    -0.007 A 
ATOM     20  C   UNL A   1      32.230  20.246  23.515  1.00  0.00     0.039 A 
ATOM     21  C   UNL A   1      32.584  17.980  22.355  1.00  0.00     0.048 C 
ATOM     22  C   UNL A   1      31.987  21.163  22.371  1.00  0.00     0.066 C 
ENDBRANCH  14  15
ENDBRANCH  10  14
ENDBRANCH   6   9
ENDBRANCH   4   5
ENDBRANCH   3   4
ENDBRANCH   2   3
ENDBRANCH   1   2
BRANCH   1  23
ATOM     23  C   UNL A   1      41.934  19.560  26.010  1.00  0.00     0.021 C 
BRANCH  23  24
ATOM     24  C   UNL A   1      43.347  19.013  26.159  1.00  0.00     0.116 C 
BRANCH  24  25
ATOM     25  N   UNL A   1      44.118  19.083  24.916  1.00  0.00    -0.352 N 
ATOM     26  C   UNL A   1      44.484  20.210  24.206  1.00  0.00     0.251 C 
ATOM     27  H   UNL A   1      44.412  18.222  24.543  1.00  0.00     0.163 HD
ATOM     28  O   UNL A   1      44.762  20.125  23.010  1.00  0.00    -0.269 OA
BRANCH  26  29
ATOM     29  C   UNL A   1      44.532  21.508  24.900  1.00  0.00     0.039 A 
ATOM     30  C   UNL A   1      43.633  22.539  24.609  1.00  0.00     0.014 A 
ATOM     31  C   UNL A   1      45.498  21.669  25.889  1.00  0.00     0.014 A 
ATOM     32  C   UNL A   1      43.663  23.699  25.384  1.00  0.00     0.010 A 
ATOM     33  C   UNL A   1      45.421  22.733  26.749  1.00  0.00     0.010 A 
ATOM     34  C   UNL A   1      44.550  23.781  26.466  1.00  0.00    -0.014 A 
BRANCH  34  35
ATOM     35  C   UNL A   1      44.534  24.908  27.393  1.00  0.00     0.031 A 
ATOM     36  C   UNL A   1      45.705  25.819  27.294  1.00  0.00     0.074 A 
ATOM     37  C   UNL A   1      43.420  25.269  28.069  1.00  0.00     0.049 A 
ATOM     38  N   UNL A   1      46.652  25.991  28.155  1.00  0.00    -0.248 NA
ATOM     39  C   UNL A   1      45.938  26.512  26.019  1.00  0.00     0.031 C 
ATOM     40  C   UNL A   1      42.086  24.660  27.993  1.00  0.00     0.029 A 
ATOM     41  N   UNL A   1      43.206  26.354  28.859  1.00  0.00    -0.354 N 
ATOM     42  C   UNL A   1      47.458  27.006  27.644  1.00  0.00     0.074 A 
ATOM     43  C   UNL A   1      47.114  27.100  26.253  1.00  0.00     0.031 C 
ATOM     44  C   UNL A   1      41.169  25.515  28.492  1.00  0.00     0.029 A 
ATOM     45  C   UNL A   1      41.863  26.645  29.083  1.00  0.00     0.049 A 
ATOM     46  H   UNL A   1      43.939  26.890  29.242  1.00  0.00     0.167 HD
ATOM     47  C   UNL A   1      48.138  27.851  28.475  1.00  0.00     0.034 A 
ATOM     48  C   UNL A   1      41.344  27.748  29.684  1.00  0.00     0.034 A 
ATOM     49  C   UNL A   1      48.123  27.341  29.834  1.00  0.00     0.049 A 
ATOM     50  C   UNL A   1      42.431  28.326  30.514  1.00  0.00     0.074 A 
ATOM     51  C   UNL A   1      48.534  26.166  30.435  1.00  0.00     0.029 A 
ATOM     52  N   UNL A   1      47.259  27.928  30.735  1.00  0.00    -0.354 N 
ATOM     53  N   UNL A   1      42.958  27.700  31.534  1.00  0.00    -0.248 NA
ATOM     54  C   UNL A   1      43.272  29.359  29.927  1.00  0.00     0.031 C 
ATOM     55  C   UNL A   1      47.520  25.871  31.394  1.00  0.00     0.029 A 
ATOM     56  C   UNL A   1      46.600  26.923  31.396  1.00  0.00     0.049 A 
ATOM     57  H   UNL A   1      47.135  28.895  30.878  1.00  0.00     0.167 HD
ATOM     58  C   UNL A   1      44.322  27.934  31.433  1.00  0.00     0.074 A 
ATOM     59  C   UNL A   1      44.442  29.052  30.497  1.00  0.00     0.031 C 
ATOM     60  C   UNL A   1      45.236  27.022  31.882  1.00  0.00     0.034 A 
BRANCH  47  61
ATOM     61  C   UNL A   1      48.456  29.312  28.192  1.00  0.00     0.023 A 
ATOM     62  C   UNL A   1      47.350  30.153  27.953  1.00  0.00     0.031 A 
ATOM     63  C   UNL A   1      49.711  29.858  27.849  1.00  0.00     0.131 A 
ATOM     64  C   UNL A   1      47.488  31.349  27.232  1.00  0.00     0.055 A 
ATOM     65  C   UNL A   1      49.852  31.089  27.197  1.00  0.00     0.041 A 
ATOM     66  F   UNL A   1      50.868  29.222  28.055  1.00  0.00    -0.206 F 
ATOM     67  C   UNL A   1      48.734  31.820  26.839  1.00  0.00     0.022 A 
BRANCH  64  68
ATOM     68  S   UNL A   1      45.980  32.146  26.624  1.00  0.00     0.124 S 
ATOM     69  O   UNL A   1      45.194  32.235  27.851  1.00  0.00    -0.237 OA
ATOM     70  O   UNL A   1      46.500  33.403  26.096  1.00  0.00    -0.237 OA
ATOM     71  O   UNL A   1      45.482  31.206  25.626  1.00  0.00    -0.744 OA
ENDBRANCH  64  68
ENDBRANCH  47  61
BRANCH  48  72
ATOM     72  C   UNL A   1      40.087  28.456  29.310  1.00  0.00     0.023 A 
ATOM     73  C   UNL A   1      39.171  28.969  30.252  1.00  0.00     0.031 A 
ATOM     74  C   UNL A   1      39.876  28.825  27.959  1.00  0.00     0.131 A 
ATOM     75  C   UNL A   1      38.104  29.802  29.828  1.00  0.00     0.055 A 
ATOM     76  C   UNL A   1      38.819  29.639  27.547  1.00  0.00     0.041 A 
ATOM     77  F   UNL A   1      40.745  28.467  26.999  1.00  0.00    -0.206 F 
ATOM     78  C   UNL A   1      37.930  30.137  28.483  1.00  0.00     0.022 A 
BRANCH  75  79
ATOM     79  S   UNL A   1      36.957  30.531  31.044  1.00  0.00     0.124 S 
ATOM     80  O   UNL A   1      35.859  30.992  30.202  1.00  0.00    -0.237 OA
ATOM     81  O   UNL A   1      36.674  29.400  31.920  1.00  0.00    -0.237 OA
ATOM     82  O   UNL A   1      37.745  31.599  31.661  1.00  0.00    -0.744 OA
ENDBRANCH  75  79
ENDBRANCH  48  72
BRANCH  60  83
ATOM     83  C   UNL A   1      44.767  25.897  32.781  1.00  0.00     0.023 A 
ATOM     84  C   UNL A   1      44.383  26.046  34.133  1.00  0.00     0.031 A 
ATOM     85  C   UNL A   1      44.546  24.649  32.172  1.00  0.00     0.131 A 
ATOM     86  C   UNL A   1      43.799  24.963  34.820  1.00  0.00     0.055 A 
ATOM     87  C   UNL A   1      43.949  23.588  32.848  1.00  0.00     0.041 A 
ATOM     88  F   UNL A   1      44.861  24.458  30.880  1.00  0.00    -0.206 F 
ATOM     89  C   UNL A   1      43.575  23.740  34.177  1.00  0.00     0.022 A 
BRANCH  86  90
ATOM     90  S   UNL A   1      43.309  25.123  36.569  1.00  0.00     0.124 S 
ATOM     91  O   UNL A   1      44.406  24.486  37.288  1.00  0.00    -0.237 OA
ATOM     92  O   UNL A   1      43.188  26.568  36.734  1.00  0.00    -0.237 OA
ATOM     93  O   UNL A   1      42.038  24.398  36.634  1.00  0.00    -0.744 OA
ENDBRANCH  86  90
ENDBRANCH  60  83
ENDBRANCH  34  35
ENDBRANCH  26  29
ENDBRANCH  24  25
ENDBRANCH  23  24
ENDBRANCH   1  23
TORSDOF 18
ENDMDL
MODEL 3
REMARK VINA RESULT:     -12.3      4.096      7.043
REMARK SMILES Cc1nn(Cc2ccc(C(=O)NCCCCCCNC(=O)c3ccc(-c4c5nc(c(-c6cc(S(=O)(=O)[O-])ccc6F)c6ccc([nH]6)c(-c6cc(S(=O)(=O)[O-])ccc6F)c6nc(c(-c7cc(S(=O)(=O)[O-])ccc7F)c7ccc4[nH]7)C=C6)C=C5)cc3)o2)c(C)c1C
REMARK SMILES IDX 16 1 15 2 14 3 13 4 12 5 10 6 11 7 9 9 6 10 7 11 85 12 8 13
REMARK SMILES IDX 5 14 4 15 1 16 2 17 3 18 88 19 86 20 89 21 87 22 17 23 18 24
REMARK SMILES IDX 19 25 20 26 21 28 22 29 23 30 84 31 24 32 83 33 25 34 26 35
REMARK SMILES IDX 27 36 77 37 28 38 82 39 76 40 78 41 29 42 81 43 75 44 74 45
REMARK SMILES IDX 30 47 62 48 42 49 61 50 43 51 46 52 60 53 79 54 44 55 45 56
REMARK SMILES IDX 59 58 80 59 47 60 31 61 32 62 40 63 33 64 39 65 41 66 38 67
REMARK SMILES IDX 34 68 35 69 36 70 37 71 63 72 64 73 72 74 65 75 71 76 73 77
REMARK SMILES IDX 70 78 66 79 67 80 68 81 69 82 48 83 49 84 57 85 50 86 56 87
REMARK SMILES IDX 58 88 55 89 51 90 52 91 53 92 54 93
REMARK H PARENT 12 8 19 27 78 46 46 57
REMARK Flexibility Score: inf
ROOT
ATOM      1  C   UNL A   1      39.561  31.266  30.813  1.00  0.00     0.002 C 
ENDROOT
BRANCH   1   2
ATOM      2  C   UNL A   1      40.545  32.410  30.524  1.00  0.00     0.002 C 
BRANCH   2   3
ATOM      3  C   UNL A   1      40.824  33.380  31.678  1.00  0.00     0.021 C 
BRANCH   3   4
ATOM      4  C   UNL A   1      39.762  34.457  31.902  1.00  0.00     0.116 C 
BRANCH   4   5
ATOM      5  N   UNL A   1      39.707  34.890  33.285  1.00  0.00    -0.349 N 
ATOM      6  C   UNL A   1      38.727  34.801  34.244  1.00  0.00     0.286 C 
ATOM      7  O   UNL A   1      39.017  35.274  35.348  1.00  0.00    -0.266 OA
ATOM      8  H   UNL A   1      40.530  35.332  33.596  1.00  0.00     0.163 HD
BRANCH   6   9
ATOM      9  C   UNL A   1      37.439  34.178  33.999  1.00  0.00     0.191 A 
ATOM     10  C   UNL A   1      35.281  34.028  33.538  1.00  0.00     0.126 A 
ATOM     11  C   UNL A   1      35.739  32.734  33.673  1.00  0.00     0.048 A 
ATOM     12  O   UNL A   1      36.314  34.902  33.719  1.00  0.00    -0.454 OA
ATOM     13  C   UNL A   1      37.118  32.830  33.966  1.00  0.00     0.056 A 
BRANCH  10  14
ATOM     14  C   UNL A   1      33.961  34.615  33.188  1.00  0.00     0.219 C 
BRANCH  14  15
ATOM     15  N   UNL A   1      33.816  34.855  31.755  1.00  0.00    -0.262 N 
ATOM     16  C   UNL A   1      33.993  33.518  28.482  1.00  0.00     0.069 C 
ATOM     17  C   UNL A   1      33.884  34.385  29.683  1.00  0.00     0.063 A 
ATOM     18  N   UNL A   1      34.053  33.841  30.894  1.00  0.00    -0.177 NA
ATOM     19  C   UNL A   1      33.623  35.779  29.761  1.00  0.00    -0.007 A 
ATOM     20  C   UNL A   1      33.602  36.055  31.120  1.00  0.00     0.039 A 
ATOM     21  C   UNL A   1      33.424  36.747  28.651  1.00  0.00     0.048 C 
ATOM     22  C   UNL A   1      33.395  37.342  31.835  1.00  0.00     0.066 C 
ENDBRANCH  14  15
ENDBRANCH  10  14
ENDBRANCH   6   9
ENDBRANCH   4   5
ENDBRANCH   3   4
ENDBRANCH   2   3
ENDBRANCH   1   2
BRANCH   1  23
ATOM     23  C   UNL A   1      38.076  31.638  30.921  1.00  0.00     0.021 C 
BRANCH  23  24
ATOM     24  C   UNL A   1      37.387  31.891  29.587  1.00  0.00     0.116 C 
BRANCH  24  25
ATOM     25  N   UNL A   1      36.333  30.917  29.298  1.00  0.00    -0.352 N 
ATOM     26  C   UNL A   1      36.423  29.767  28.539  1.00  0.00     0.251 C 
ATOM     27  H   UNL A   1      35.452  31.106  29.695  1.00  0.00     0.163 HD
ATOM     28  O   UNL A   1      35.411  29.268  28.047  1.00  0.00    -0.269 OA
BRANCH  26  29
ATOM     29  C   UNL A   1      37.745  29.152  28.328  1.00  0.00     0.039 A 
ATOM     30  C   UNL A   1      38.563  29.504  27.250  1.00  0.00     0.014 A 
ATOM     31  C   UNL A   1      38.172  28.216  29.266  1.00  0.00     0.014 A 
ATOM     32  C   UNL A   1      39.849  28.967  27.175  1.00  0.00     0.010 A 
ATOM     33  C   UNL A   1      39.483  27.818  29.280  1.00  0.00     0.010 A 
ATOM     34  C   UNL A   1      40.309  28.136  28.207  1.00  0.00    -0.014 A 
BRANCH  34  35
ATOM     35  C   UNL A   1      41.686  27.656  28.253  1.00  0.00     0.031 A 
ATOM     36  C   UNL A   1      41.951  26.433  27.450  1.00  0.00     0.074 A 
ATOM     37  C   UNL A   1      42.698  28.413  28.732  1.00  0.00     0.049 A 
ATOM     38  N   UNL A   1      42.231  25.247  27.877  1.00  0.00    -0.248 NA
ATOM     39  C   UNL A   1      41.729  26.496  25.998  1.00  0.00     0.031 C 
ATOM     40  C   UNL A   1      42.627  29.789  29.241  1.00  0.00     0.029 A 
ATOM     41  N   UNL A   1      44.035  28.168  28.726  1.00  0.00    -0.354 N 
ATOM     42  C   UNL A   1      42.479  24.477  26.743  1.00  0.00     0.074 A 
ATOM     43  C   UNL A   1      41.920  25.222  25.649  1.00  0.00     0.031 C 
ATOM     44  C   UNL A   1      43.863  30.332  29.251  1.00  0.00     0.029 A 
ATOM     45  C   UNL A   1      44.826  29.295  28.928  1.00  0.00     0.049 A 
ATOM     46  H   UNL A   1      44.412  27.268  28.592  1.00  0.00     0.167 HD
ATOM     47  C   UNL A   1      43.354  23.429  26.781  1.00  0.00     0.034 A 
ATOM     48  C   UNL A   1      46.177  29.390  28.809  1.00  0.00     0.034 A 
ATOM     49  C   UNL A   1      43.690  23.102  28.155  1.00  0.00     0.049 A 
ATOM     50  C   UNL A   1      46.710  28.011  28.947  1.00  0.00     0.074 A 
ATOM     51  C   UNL A   1      42.964  22.740  29.273  1.00  0.00     0.029 A 
ATOM     52  N   UNL A   1      44.917  23.517  28.635  1.00  0.00    -0.354 N 
ATOM     53  N   UNL A   1      46.595  27.309  30.044  1.00  0.00    -0.248 NA
ATOM     54  C   UNL A   1      46.918  27.229  27.737  1.00  0.00     0.031 C 
ATOM     55  C   UNL A   1      43.585  23.433  30.354  1.00  0.00     0.029 A 
ATOM     56  C   UNL A   1      44.708  24.100  29.858  1.00  0.00     0.049 A 
ATOM     57  H   UNL A   1      45.784  23.413  28.181  1.00  0.00     0.167 HD
ATOM     58  C   UNL A   1      46.270  26.029  29.619  1.00  0.00     0.074 A 
ATOM     59  C   UNL A   1      46.597  26.013  28.193  1.00  0.00     0.031 C 
ATOM     60  C   UNL A   1      45.498  25.200  30.384  1.00  0.00     0.034 A 
BRANCH  47  61
ATOM     61  C   UNL A   1      44.231  22.960  25.629  1.00  0.00     0.023 A 
ATOM     62  C   UNL A   1      44.220  21.575  25.365  1.00  0.00     0.031 A 
ATOM     63  C   UNL A   1      45.266  23.683  24.999  1.00  0.00     0.131 A 
ATOM     64  C   UNL A   1      45.287  20.952  24.698  1.00  0.00     0.055 A 
ATOM     65  C   UNL A   1      46.289  23.067  24.269  1.00  0.00     0.041 A 
ATOM     66  F   UNL A   1      45.397  25.009  25.096  1.00  0.00    -0.206 F 
ATOM     67  C   UNL A   1      46.333  21.689  24.157  1.00  0.00     0.022 A 
BRANCH  64  68
ATOM     68  S   UNL A   1      45.384  19.146  24.765  1.00  0.00     0.124 S 
ATOM     69  O   UNL A   1      45.805  18.835  23.402  1.00  0.00    -0.237 OA
ATOM     70  O   UNL A   1      46.379  18.939  25.812  1.00  0.00    -0.237 OA
ATOM     71  O   UNL A   1      44.022  18.749  25.107  1.00  0.00    -0.744 OA
ENDBRANCH  64  68
ENDBRANCH  47  61
BRANCH  48  72
ATOM     72  C   UNL A   1      46.943  30.553  28.277  1.00  0.00     0.023 A 
ATOM     73  C   UNL A   1      46.387  31.530  27.424  1.00  0.00     0.031 A 
ATOM     74  C   UNL A   1      48.231  30.829  28.797  1.00  0.00     0.131 A 
ATOM     75  C   UNL A   1      47.115  32.709  27.122  1.00  0.00     0.055 A 
ATOM     76  C   UNL A   1      48.945  31.988  28.490  1.00  0.00     0.041 A 
ATOM     77  F   UNL A   1      48.807  30.009  29.692  1.00  0.00    -0.206 F 
ATOM     78  C   UNL A   1      48.386  32.938  27.654  1.00  0.00     0.022 A 
BRANCH  75  79
ATOM     79  S   UNL A   1      46.378  34.012  26.080  1.00  0.00     0.124 S 
ATOM     80  O   UNL A   1      45.857  34.948  27.070  1.00  0.00    -0.237 OA
ATOM     81  O   UNL A   1      47.521  34.464  25.295  1.00  0.00    -0.237 OA
ATOM     82  O   UNL A   1      45.355  33.299  25.313  1.00  0.00    -0.744 OA
ENDBRANCH  75  79
ENDBRANCH  48  72
BRANCH  60  83
ATOM     83  C   UNL A   1      45.263  25.553  31.838  1.00  0.00     0.023 A 
ATOM     84  C   UNL A   1      46.156  25.269  32.895  1.00  0.00     0.031 A 
ATOM     85  C   UNL A   1      44.149  26.364  32.120  1.00  0.00     0.131 A 
ATOM     86  C   UNL A   1      45.913  25.799  34.179  1.00  0.00     0.055 A 
ATOM     87  C   UNL A   1      43.925  26.903  33.384  1.00  0.00     0.041 A 
ATOM     88  F   UNL A   1      43.284  26.693  31.146  1.00  0.00    -0.206 F 
ATOM     89  C   UNL A   1      44.805  26.620  34.421  1.00  0.00     0.022 A 
BRANCH  86  90
ATOM     90  S   UNL A   1      47.039  25.437  35.566  1.00  0.00     0.124 S 
ATOM     91  O   UNL A   1      48.128  26.386  35.375  1.00  0.00    -0.237 OA
ATOM     92  O   UNL A   1      46.190  25.660  36.733  1.00  0.00    -0.237 OA
ATOM     93  O   UNL A   1      47.409  24.037  35.347  1.00  0.00    -0.744 OA
ENDBRANCH  86  90
ENDBRANCH  60  83
ENDBRANCH  34  35
ENDBRANCH  26  29
ENDBRANCH  24  25
ENDBRANCH  23  24
ENDBRANCH   1  23
TORSDOF 18
ENDMDL
