MODEL 1
REMARK VINA RESULT:     -10.6      0.000      0.000
REMARK SMILES O=C(C[N@@H+](Cc1nc(-c2ccco2)no1)CC(F)(F)F)NCCCCCCNC(=O)c1ccc(-c2c3nc(c(-c4cc(S(=O)(=O)[O-])ccc4F)c4ccc([nH]4)c(-c4cc(S(=O)(=O)[O-])ccc4F)c4nc(c(-c5cc(S(=O)(=O)[O-])ccc5F)c5ccc2[nH]5)C=C4)C=C3)cc1
REMARK SMILES IDX 24 1 23 2 22 3 21 4 1 5 2 6 3 8 4 9 5 11 6 12 7 13 15 14
REMARK SMILES IDX 8 15 14 16 9 17 10 18 13 19 11 20 12 21 16 22 17 23 18 24
REMARK SMILES IDX 19 25 20 26 25 27 26 28 27 29 28 30 29 31 30 33 31 34 32 35
REMARK SMILES IDX 93 36 33 37 92 38 34 39 35 40 36 41 86 42 37 43 91 44 85 45
REMARK SMILES IDX 87 46 38 47 90 48 84 49 83 50 39 52 71 53 51 54 70 55 52 56
REMARK SMILES IDX 55 57 69 58 88 59 53 60 54 61 68 63 89 64 56 65 40 66 41 67
REMARK SMILES IDX 49 68 42 69 48 70 50 71 47 72 43 73 44 74 45 75 46 76 72 77
REMARK SMILES IDX 73 78 81 79 74 80 80 81 82 82 79 83 75 84 76 85 77 86 78 87
REMARK SMILES IDX 57 88 58 89 66 90 59 91 65 92 67 93 64 94 60 95 61 96 62 97
REMARK SMILES IDX 63 98
REMARK H PARENT 21 7 4 10 28 32 87 51 55 62
REMARK Flexibility Score: inf
ROOT
ATOM      1  C   UNL A   1      36.132  21.898  24.147  1.00  0.00     0.002 C 
ENDROOT
BRANCH   1   2
ATOM      2  C   UNL A   1      36.532  23.366  24.334  1.00  0.00     0.021 C 
BRANCH   2   3
ATOM      3  C   UNL A   1      36.181  23.934  25.707  1.00  0.00     0.116 C 
BRANCH   3   4
ATOM      4  N   UNL A   1      34.751  23.910  25.930  1.00  0.00    -0.351 N 
ATOM      5  O   UNL A   1      34.352  25.964  24.996  1.00  0.00    -0.269 OA
ATOM      6  C   UNL A   1      33.946  24.969  25.589  1.00  0.00     0.275 C 
ATOM      7  H   UNL A   1      34.344  23.111  26.337  1.00  0.00     0.163 HD
BRANCH   6   8
ATOM      8  C   UNL A   1      32.496  24.847  26.050  1.00  0.00     0.364 C 
BRANCH   8   9
ATOM      9  N   UNL A   1      31.569  24.359  25.002  1.00  0.00    -0.312 N 
ATOM     10  H   UNL A   1      32.134  24.255  24.160  1.00  0.00     0.349 HD
BRANCH   9  11
ATOM     11  C   UNL A   1      31.033  23.006  25.322  1.00  0.00     0.364 C 
BRANCH  11  12
ATOM     12  C   UNL A   1      31.983  21.846  25.385  1.00  0.00     0.282 A 
ATOM     13  N   UNL A   1      32.103  20.810  24.581  1.00  0.00    -0.183 NA
ATOM     14  O   UNL A   1      32.806  21.770  26.468  1.00  0.00    -0.333 OA
ATOM     15  C   UNL A   1      32.916  19.973  25.319  1.00  0.00     0.238 A 
ATOM     16  N   UNL A   1      33.381  20.511  26.452  1.00  0.00    -0.053 NA
BRANCH  15  17
ATOM     17  C   UNL A   1      33.185  18.557  24.954  1.00  0.00     0.174 A 
ATOM     18  C   UNL A   1      34.329  18.068  24.353  1.00  0.00     0.054 A 
ATOM     19  O   UNL A   1      32.297  17.531  25.138  1.00  0.00    -0.461 OA
ATOM     20  C   UNL A   1      34.118  16.682  24.143  1.00  0.00     0.043 A 
ATOM     21  C   UNL A   1      32.848  16.417  24.596  1.00  0.00     0.196 A 
ENDBRANCH  15  17
ENDBRANCH  11  12
ENDBRANCH   9  11
BRANCH   9  22
ATOM     22  C   UNL A   1      30.524  25.342  24.588  1.00  0.00     0.380 C 
BRANCH  22  23
ATOM     23  C   UNL A   1      30.687  26.323  23.403  1.00  0.00     0.438 C 
ATOM     24  F   UNL A   1      29.540  26.957  23.099  1.00  0.00    -0.165 F 
ATOM     25  F   UNL A   1      31.615  27.263  23.699  1.00  0.00    -0.165 F 
ATOM     26  F   UNL A   1      31.122  25.675  22.300  1.00  0.00    -0.165 F 
ENDBRANCH  22  23
ENDBRANCH   9  22
ENDBRANCH   8   9
ENDBRANCH   6   8
ENDBRANCH   3   4
ENDBRANCH   2   3
ENDBRANCH   1   2
BRANCH   1  27
ATOM     27  C   UNL A   1      36.586  20.957  25.267  1.00  0.00     0.002 C 
BRANCH  27  28
ATOM     28  C   UNL A   1      37.891  20.206  24.989  1.00  0.00     0.021 C 
BRANCH  28  29
ATOM     29  C   UNL A   1      39.090  20.698  25.794  1.00  0.00     0.116 C 
BRANCH  29  30
ATOM     30  N   UNL A   1      40.110  19.672  25.936  1.00  0.00    -0.352 N 
ATOM     31  C   UNL A   1      41.463  19.816  26.112  1.00  0.00     0.251 C 
ATOM     32  H   UNL A   1      39.784  18.744  25.899  1.00  0.00     0.163 HD
ATOM     33  O   UNL A   1      42.195  18.832  26.004  1.00  0.00    -0.269 OA
BRANCH  31  34
ATOM     34  C   UNL A   1      42.036  21.147  26.408  1.00  0.00     0.039 A 
ATOM     35  C   UNL A   1      42.350  22.000  25.348  1.00  0.00     0.014 A 
ATOM     36  C   UNL A   1      42.278  21.551  27.725  1.00  0.00     0.014 A 
ATOM     37  C   UNL A   1      42.864  23.273  25.611  1.00  0.00     0.010 A 
ATOM     38  C   UNL A   1      42.714  22.847  27.987  1.00  0.00     0.010 A 
ATOM     39  C   UNL A   1      43.027  23.719  26.932  1.00  0.00    -0.014 A 
BRANCH  39  40
ATOM     40  C   UNL A   1      43.565  25.074  27.229  1.00  0.00     0.031 A 
ATOM     41  C   UNL A   1      42.656  26.129  27.806  1.00  0.00     0.074 A 
ATOM     42  C   UNL A   1      44.851  25.368  26.952  1.00  0.00     0.049 A 
ATOM     43  N   UNL A   1      42.905  27.389  28.060  1.00  0.00    -0.248 NA
ATOM     44  C   UNL A   1      41.276  25.719  28.111  1.00  0.00     0.031 C 
ATOM     45  C   UNL A   1      45.823  24.441  26.368  1.00  0.00     0.029 A 
ATOM     46  N   UNL A   1      45.564  26.530  27.119  1.00  0.00    -0.354 N 
ATOM     47  C   UNL A   1      41.718  27.918  28.557  1.00  0.00     0.074 A 
ATOM     48  C   UNL A   1      40.729  26.863  28.491  1.00  0.00     0.031 C 
ATOM     49  C   UNL A   1      47.007  25.063  26.245  1.00  0.00     0.029 A 
ATOM     50  C   UNL A   1      46.872  26.445  26.694  1.00  0.00     0.049 A 
ATOM     51  H   UNL A   1      45.177  27.347  27.508  1.00  0.00     0.167 HD
ATOM     52  C   UNL A   1      41.481  29.157  29.054  1.00  0.00     0.034 A 
ATOM     53  C   UNL A   1      47.844  27.380  26.653  1.00  0.00     0.034 A 
ATOM     54  C   UNL A   1      42.475  30.199  29.118  1.00  0.00     0.049 A 
ATOM     55  C   UNL A   1      47.540  28.767  27.172  1.00  0.00     0.074 A 
ATOM     56  C   UNL A   1      42.342  31.488  29.606  1.00  0.00     0.029 A 
ATOM     57  N   UNL A   1      43.789  30.072  28.687  1.00  0.00    -0.354 N 
ATOM     58  N   UNL A   1      46.415  29.240  27.659  1.00  0.00    -0.248 NA
ATOM     59  C   UNL A   1      48.642  29.737  27.156  1.00  0.00     0.031 C 
ATOM     60  C   UNL A   1      43.555  32.158  29.414  1.00  0.00     0.029 A 
ATOM     61  C   UNL A   1      44.472  31.262  28.888  1.00  0.00     0.049 A 
ATOM     62  H   UNL A   1      44.179  29.257  28.297  1.00  0.00     0.167 HD
ATOM     63  C   UNL A   1      46.694  30.549  28.052  1.00  0.00     0.074 A 
ATOM     64  C   UNL A   1      48.092  30.780  27.760  1.00  0.00     0.031 C 
ATOM     65  C   UNL A   1      45.871  31.474  28.607  1.00  0.00     0.034 A 
BRANCH  52  66
ATOM     66  C   UNL A   1      40.089  29.448  29.561  1.00  0.00     0.023 A 
ATOM     67  C   UNL A   1      39.808  29.505  30.938  1.00  0.00     0.031 A 
ATOM     68  C   UNL A   1      39.028  29.669  28.665  1.00  0.00     0.131 A 
ATOM     69  C   UNL A   1      38.493  29.712  31.378  1.00  0.00     0.055 A 
ATOM     70  C   UNL A   1      37.737  29.958  29.110  1.00  0.00     0.041 A 
ATOM     71  F   UNL A   1      39.229  29.604  27.339  1.00  0.00    -0.206 F 
ATOM     72  C   UNL A   1      37.460  29.968  30.474  1.00  0.00     0.022 A 
BRANCH  69  73
ATOM     73  S   UNL A   1      38.130  29.517  33.144  1.00  0.00     0.124 S 
ATOM     74  O   UNL A   1      37.244  28.355  33.134  1.00  0.00    -0.237 OA
ATOM     75  O   UNL A   1      39.453  29.307  33.719  1.00  0.00    -0.237 OA
ATOM     76  O   UNL A   1      37.486  30.779  33.503  1.00  0.00    -0.744 OA
ENDBRANCH  69  73
ENDBRANCH  52  66
BRANCH  53  77
ATOM     77  C   UNL A   1      49.190  27.063  26.089  1.00  0.00     0.023 A 
ATOM     78  C   UNL A   1      49.552  27.477  24.796  1.00  0.00     0.031 A 
ATOM     79  C   UNL A   1      50.103  26.263  26.799  1.00  0.00     0.131 A 
ATOM     80  C   UNL A   1      50.750  27.021  24.223  1.00  0.00     0.055 A 
ATOM     81  C   UNL A   1      51.327  25.874  26.253  1.00  0.00     0.041 A 
ATOM     82  F   UNL A   1      49.814  25.839  28.040  1.00  0.00    -0.206 F 
ATOM     83  C   UNL A   1      51.647  26.235  24.949  1.00  0.00     0.022 A 
BRANCH  80  84
ATOM     84  S   UNL A   1      51.049  27.350  22.464  1.00  0.00     0.124 S 
ATOM     85  O   UNL A   1      51.145  28.805  22.449  1.00  0.00    -0.237 OA
ATOM     86  O   UNL A   1      52.291  26.622  22.228  1.00  0.00    -0.237 OA
ATOM     87  O   UNL A   1      49.867  26.794  21.809  1.00  0.00    -0.744 OA
ENDBRANCH  80  84
ENDBRANCH  53  77
BRANCH  65  88
ATOM     88  C   UNL A   1      46.487  32.793  29.013  1.00  0.00     0.023 A 
ATOM     89  C   UNL A   1      46.594  33.876  28.124  1.00  0.00     0.031 A 
ATOM     90  C   UNL A   1      46.994  32.957  30.316  1.00  0.00     0.131 A 
ATOM     91  C   UNL A   1      47.254  35.048  28.524  1.00  0.00     0.055 A 
ATOM     92  C   UNL A   1      47.586  34.151  30.731  1.00  0.00     0.041 A 
ATOM     93  F   UNL A   1      46.922  31.956  31.209  1.00  0.00    -0.206 F 
ATOM     94  C   UNL A   1      47.734  35.198  29.828  1.00  0.00     0.022 A 
BRANCH  91  95
ATOM     95  S   UNL A   1      47.581  36.330  27.284  1.00  0.00     0.124 S 
ATOM     96  O   UNL A   1      46.822  37.460  27.808  1.00  0.00    -0.237 OA
ATOM     97  O   UNL A   1      49.034  36.457  27.343  1.00  0.00    -0.237 OA
ATOM     98  O   UNL A   1      47.059  35.752  26.047  1.00  0.00    -0.744 OA
ENDBRANCH  91  95
ENDBRANCH  65  88
ENDBRANCH  39  40
ENDBRANCH  31  34
ENDBRANCH  29  30
ENDBRANCH  28  29
ENDBRANCH  27  28
ENDBRANCH   1  27
TORSDOF 22
ENDMDL
MODEL 2
REMARK VINA RESULT:     -10.4      2.455      7.568
REMARK SMILES O=C(C[N@@H+](Cc1nc(-c2ccco2)no1)CC(F)(F)F)NCCCCCCNC(=O)c1ccc(-c2c3nc(c(-c4cc(S(=O)(=O)[O-])ccc4F)c4ccc([nH]4)c(-c4cc(S(=O)(=O)[O-])ccc4F)c4nc(c(-c5cc(S(=O)(=O)[O-])ccc5F)c5ccc2[nH]5)C=C4)C=C3)cc1
REMARK SMILES IDX 24 1 23 2 22 3 21 4 1 5 2 6 3 8 4 9 5 11 6 12 7 13 15 14
REMARK SMILES IDX 8 15 14 16 9 17 10 18 13 19 11 20 12 21 16 22 17 23 18 24
REMARK SMILES IDX 19 25 20 26 25 27 26 28 27 29 28 30 29 31 30 33 31 34 32 35
REMARK SMILES IDX 93 36 33 37 92 38 34 39 35 40 36 41 86 42 37 43 91 44 85 45
REMARK SMILES IDX 87 46 38 47 90 48 84 49 83 50 39 52 71 53 51 54 70 55 52 56
REMARK SMILES IDX 55 57 69 58 88 59 53 60 54 61 68 63 89 64 56 65 40 66 41 67
REMARK SMILES IDX 49 68 42 69 48 70 50 71 47 72 43 73 44 74 45 75 46 76 72 77
REMARK SMILES IDX 73 78 81 79 74 80 80 81 82 82 79 83 75 84 76 85 77 86 78 87
REMARK SMILES IDX 57 88 58 89 66 90 59 91 65 92 67 93 64 94 60 95 61 96 62 97
REMARK SMILES IDX 63 98
REMARK H PARENT 21 7 4 10 28 32 87 51 55 62
REMARK Flexibility Score: inf
ROOT
ATOM      1  C   UNL A   1      36.920  21.395  24.338  1.00  0.00     0.002 C 
ENDROOT
BRANCH   1   2
ATOM      2  C   UNL A   1      35.574  22.123  24.252  1.00  0.00     0.021 C 
BRANCH   2   3
ATOM      3  C   UNL A   1      35.584  23.338  23.327  1.00  0.00     0.116 C 
BRANCH   3   4
ATOM      4  N   UNL A   1      34.347  24.082  23.432  1.00  0.00    -0.351 N 
ATOM      5  O   UNL A   1      34.894  25.139  25.390  1.00  0.00    -0.269 OA
ATOM      6  C   UNL A   1      34.082  24.902  24.500  1.00  0.00     0.275 C 
ATOM      7  H   UNL A   1      33.676  23.997  22.715  1.00  0.00     0.163 HD
BRANCH   6   8
ATOM      8  C   UNL A   1      32.667  25.472  24.536  1.00  0.00     0.364 C 
BRANCH   8   9
ATOM      9  N   UNL A   1      31.621  24.518  24.100  1.00  0.00    -0.312 N 
ATOM     10  H   UNL A   1      31.959  24.118  23.225  1.00  0.00     0.349 HD
BRANCH   9  11
ATOM     11  C   UNL A   1      31.473  23.383  25.055  1.00  0.00     0.364 C 
BRANCH  11  12
ATOM     12  C   UNL A   1      31.766  21.991  24.577  1.00  0.00     0.282 A 
ATOM     13  N   UNL A   1      31.800  20.859  25.249  1.00  0.00    -0.183 NA
ATOM     14  O   UNL A   1      32.141  21.843  23.276  1.00  0.00    -0.333 OA
ATOM     15  C   UNL A   1      32.407  20.011  24.343  1.00  0.00     0.238 A 
ATOM     16  N   UNL A   1      32.614  20.549  23.136  1.00  0.00    -0.053 NA
BRANCH  15  17
ATOM     17  C   UNL A   1      32.887  18.647  24.688  1.00  0.00     0.174 A 
ATOM     18  C   UNL A   1      33.757  17.872  23.946  1.00  0.00     0.054 A 
ATOM     19  O   UNL A   1      32.492  17.948  25.797  1.00  0.00    -0.461 OA
ATOM     20  C   UNL A   1      33.881  16.635  24.625  1.00  0.00     0.043 A 
ATOM     21  C   UNL A   1      33.054  16.717  25.721  1.00  0.00     0.196 A 
ENDBRANCH  15  17
ENDBRANCH  11  12
ENDBRANCH   9  11
BRANCH   9  22
ATOM     22  C   UNL A   1      30.326  25.149  23.706  1.00  0.00     0.380 C 
BRANCH  22  23
ATOM     23  C   UNL A   1      29.599  26.220  24.553  1.00  0.00     0.438 C 
ATOM     24  F   UNL A   1      28.295  26.324  24.239  1.00  0.00    -0.165 F 
ATOM     25  F   UNL A   1      29.685  25.912  25.868  1.00  0.00    -0.165 F 
ATOM     26  F   UNL A   1      30.175  27.431  24.395  1.00  0.00    -0.165 F 
ENDBRANCH  22  23
ENDBRANCH   9  22
ENDBRANCH   8   9
ENDBRANCH   6   8
ENDBRANCH   3   4
ENDBRANCH   2   3
ENDBRANCH   1   2
BRANCH   1  27
ATOM     27  C   UNL A   1      36.851  19.972  24.901  1.00  0.00     0.002 C 
BRANCH  27  28
ATOM     28  C   UNL A   1      38.201  19.264  25.037  1.00  0.00     0.021 C 
BRANCH  28  29
ATOM     29  C   UNL A   1      39.211  19.989  25.921  1.00  0.00     0.116 C 
BRANCH  29  30
ATOM     30  N   UNL A   1      40.416  19.204  26.129  1.00  0.00    -0.352 N 
ATOM     31  C   UNL A   1      41.699  19.632  26.363  1.00  0.00     0.251 C 
ATOM     32  H   UNL A   1      40.296  18.227  26.096  1.00  0.00     0.163 HD
ATOM     33  O   UNL A   1      42.627  18.825  26.306  1.00  0.00    -0.269 OA
BRANCH  31  34
ATOM     34  C   UNL A   1      41.963  21.058  26.657  1.00  0.00     0.039 A 
ATOM     35  C   UNL A   1      42.218  21.442  27.976  1.00  0.00     0.014 A 
ATOM     36  C   UNL A   1      41.947  22.018  25.641  1.00  0.00     0.014 A 
ATOM     37  C   UNL A   1      42.500  22.779  28.266  1.00  0.00     0.010 A 
ATOM     38  C   UNL A   1      42.307  23.334  25.920  1.00  0.00     0.010 A 
ATOM     39  C   UNL A   1      42.573  23.734  27.239  1.00  0.00    -0.014 A 
BRANCH  39  40
ATOM     40  C   UNL A   1      42.880  25.160  27.531  1.00  0.00     0.031 A 
ATOM     41  C   UNL A   1      44.265  25.695  27.271  1.00  0.00     0.074 A 
ATOM     42  C   UNL A   1      41.933  25.963  28.056  1.00  0.00     0.049 A 
ATOM     43  N   UNL A   1      44.759  26.879  27.530  1.00  0.00    -0.248 NA
ATOM     44  C   UNL A   1      45.230  24.764  26.664  1.00  0.00     0.031 C 
ATOM     45  C   UNL A   1      40.563  25.557  28.378  1.00  0.00     0.029 A 
ATOM     46  N   UNL A   1      41.977  27.287  28.419  1.00  0.00    -0.354 N 
ATOM     47  C   UNL A   1      46.086  26.836  27.116  1.00  0.00     0.074 A 
ATOM     48  C   UNL A   1      46.341  25.485  26.665  1.00  0.00     0.031 C 
ATOM     49  C   UNL A   1      39.894  26.613  28.869  1.00  0.00     0.029 A 
ATOM     50  C   UNL A   1      40.794  27.758  28.945  1.00  0.00     0.049 A 
ATOM     51  H   UNL A   1      42.779  27.847  28.311  1.00  0.00     0.167 HD
ATOM     52  C   UNL A   1      47.000  27.837  27.082  1.00  0.00     0.034 A 
ATOM     53  C   UNL A   1      40.479  28.969  29.449  1.00  0.00     0.034 A 
ATOM     54  C   UNL A   1      46.734  29.181  27.531  1.00  0.00     0.049 A 
ATOM     55  C   UNL A   1      41.530  30.056  29.442  1.00  0.00     0.074 A 
ATOM     56  C   UNL A   1      47.586  30.272  27.538  1.00  0.00     0.029 A 
ATOM     57  N   UNL A   1      45.523  29.621  28.048  1.00  0.00    -0.354 N 
ATOM     58  N   UNL A   1      42.775  30.000  29.024  1.00  0.00    -0.248 NA
ATOM     59  C   UNL A   1      41.128  31.373  29.951  1.00  0.00     0.031 C 
ATOM     60  C   UNL A   1      46.912  31.354  28.114  1.00  0.00     0.029 A 
ATOM     61  C   UNL A   1      45.611  30.963  28.387  1.00  0.00     0.049 A 
ATOM     62  H   UNL A   1      44.720  29.064  28.158  1.00  0.00     0.167 HD
ATOM     63  C   UNL A   1      43.283  31.289  29.177  1.00  0.00     0.074 A 
ATOM     64  C   UNL A   1      42.208  32.099  29.708  1.00  0.00     0.031 C 
ATOM     65  C   UNL A   1      44.525  31.763  28.901  1.00  0.00     0.034 A 
BRANCH  52  66
ATOM     66  C   UNL A   1      48.372  27.508  26.545  1.00  0.00     0.023 A 
ATOM     67  C   UNL A   1      49.434  27.175  27.406  1.00  0.00     0.031 A 
ATOM     68  C   UNL A   1      48.629  27.529  25.163  1.00  0.00     0.131 A 
ATOM     69  C   UNL A   1      50.714  26.939  26.883  1.00  0.00     0.055 A 
ATOM     70  C   UNL A   1      49.885  27.212  24.642  1.00  0.00     0.041 A 
ATOM     71  F   UNL A   1      47.662  27.864  24.293  1.00  0.00    -0.206 F 
ATOM     72  C   UNL A   1      50.940  26.927  25.504  1.00  0.00     0.022 A 
BRANCH  69  73
ATOM     73  S   UNL A   1      52.103  26.774  28.035  1.00  0.00     0.124 S 
ATOM     74  O   UNL A   1      51.444  26.202  29.208  1.00  0.00    -0.237 OA
ATOM     75  O   UNL A   1      53.009  25.886  27.315  1.00  0.00    -0.237 OA
ATOM     76  O   UNL A   1      52.575  28.147  28.202  1.00  0.00    -0.744 OA
ENDBRANCH  69  73
ENDBRANCH  52  66
BRANCH  53  77
ATOM     77  C   UNL A   1      39.126  29.233  30.024  1.00  0.00     0.023 A 
ATOM     78  C   UNL A   1      38.139  29.901  29.281  1.00  0.00     0.031 A 
ATOM     79  C   UNL A   1      38.829  28.902  31.358  1.00  0.00     0.131 A 
ATOM     80  C   UNL A   1      36.939  30.292  29.898  1.00  0.00     0.055 A 
ATOM     81  C   UNL A   1      37.604  29.225  31.946  1.00  0.00     0.041 A 
ATOM     82  F   UNL A   1      39.732  28.260  32.117  1.00  0.00    -0.206 F 
ATOM     83  C   UNL A   1      36.659  29.944  31.221  1.00  0.00     0.022 A 
BRANCH  80  84
ATOM     84  S   UNL A   1      35.813  31.386  28.990  1.00  0.00     0.124 S 
ATOM     85  O   UNL A   1      34.992  31.924  30.070  1.00  0.00    -0.237 OA
ATOM     86  O   UNL A   1      36.742  32.322  28.364  1.00  0.00    -0.237 OA
ATOM     87  O   UNL A   1      35.127  30.481  28.072  1.00  0.00    -0.744 OA
ENDBRANCH  80  84
ENDBRANCH  53  77
BRANCH  65  88
ATOM     88  C   UNL A   1      44.758  33.244  29.088  1.00  0.00     0.023 A 
ATOM     89  C   UNL A   1      45.215  33.783  30.302  1.00  0.00     0.031 A 
ATOM     90  C   UNL A   1      44.496  34.134  28.029  1.00  0.00     0.131 A 
ATOM     91  C   UNL A   1      45.331  35.174  30.451  1.00  0.00     0.055 A 
ATOM     92  C   UNL A   1      44.681  35.510  28.160  1.00  0.00     0.041 A 
ATOM     93  F   UNL A   1      44.055  33.677  26.845  1.00  0.00    -0.206 F 
ATOM     94  C   UNL A   1      45.085  36.039  29.382  1.00  0.00     0.022 A 
BRANCH  91  95
ATOM     95  S   UNL A   1      45.696  35.846  32.096  1.00  0.00     0.124 S 
ATOM     96  O   UNL A   1      44.520  35.439  32.858  1.00  0.00    -0.237 OA
ATOM     97  O   UNL A   1      46.942  35.169  32.439  1.00  0.00    -0.237 OA
ATOM     98  O   UNL A   1      45.816  37.284  31.860  1.00  0.00    -0.744 OA
ENDBRANCH  91  95
ENDBRANCH  65  88
ENDBRANCH  39  40
ENDBRANCH  31  34
ENDBRANCH  29  30
ENDBRANCH  28  29
ENDBRANCH  27  28
ENDBRANCH   1  27
TORSDOF 22
ENDMDL
MODEL 3
REMARK VINA RESULT:     -10.4      1.921      2.315
REMARK SMILES O=C(C[N@@H+](Cc1nc(-c2ccco2)no1)CC(F)(F)F)NCCCCCCNC(=O)c1ccc(-c2c3nc(c(-c4cc(S(=O)(=O)[O-])ccc4F)c4ccc([nH]4)c(-c4cc(S(=O)(=O)[O-])ccc4F)c4nc(c(-c5cc(S(=O)(=O)[O-])ccc5F)c5ccc2[nH]5)C=C4)C=C3)cc1
REMARK SMILES IDX 24 1 23 2 22 3 21 4 1 5 2 6 3 8 4 9 5 11 6 12 7 13 15 14
REMARK SMILES IDX 8 15 14 16 9 17 10 18 13 19 11 20 12 21 16 22 17 23 18 24
REMARK SMILES IDX 19 25 20 26 25 27 26 28 27 29 28 30 29 31 30 33 31 34 32 35
REMARK SMILES IDX 93 36 33 37 92 38 34 39 35 40 36 41 86 42 37 43 91 44 85 45
REMARK SMILES IDX 87 46 38 47 90 48 84 49 83 50 39 52 71 53 51 54 70 55 52 56
REMARK SMILES IDX 55 57 69 58 88 59 53 60 54 61 68 63 89 64 56 65 40 66 41 67
REMARK SMILES IDX 49 68 42 69 48 70 50 71 47 72 43 73 44 74 45 75 46 76 72 77
REMARK SMILES IDX 73 78 81 79 74 80 80 81 82 82 79 83 75 84 76 85 77 86 78 87
REMARK SMILES IDX 57 88 58 89 66 90 59 91 65 92 67 93 64 94 60 95 61 96 62 97
REMARK SMILES IDX 63 98
REMARK H PARENT 21 7 4 10 28 32 87 51 55 62
REMARK Flexibility Score: inf
ROOT
ATOM      1  C   UNL A   1      37.406  21.935  24.438  1.00  0.00     0.002 C 
ENDROOT
BRANCH   1   2
ATOM      2  C   UNL A   1      36.238  22.900  24.198  1.00  0.00     0.021 C 
BRANCH   2   3
ATOM      3  C   UNL A   1      36.170  24.051  25.199  1.00  0.00     0.116 C 
BRANCH   3   4
ATOM      4  N   UNL A   1      34.857  24.659  25.203  1.00  0.00    -0.351 N 
ATOM      5  O   UNL A   1      34.069  23.457  26.989  1.00  0.00    -0.269 OA
ATOM      6  C   UNL A   1      33.882  24.270  26.088  1.00  0.00     0.275 C 
ATOM      7  H   UNL A   1      34.657  25.372  24.553  1.00  0.00     0.163 HD
BRANCH   6   8
ATOM      8  C   UNL A   1      32.508  24.890  25.842  1.00  0.00     0.364 C 
BRANCH   8   9
ATOM      9  N   UNL A   1      31.679  24.150  24.863  1.00  0.00    -0.312 N 
ATOM     10  H   UNL A   1      32.298  23.938  24.080  1.00  0.00     0.349 HD
BRANCH   9  11
ATOM     11  C   UNL A   1      31.218  22.840  25.404  1.00  0.00     0.364 C 
BRANCH  11  12
ATOM     12  C   UNL A   1      31.801  21.577  24.841  1.00  0.00     0.282 A 
ATOM     13  N   UNL A   1      31.830  20.362  25.349  1.00  0.00    -0.183 NA
ATOM     14  O   UNL A   1      32.488  21.675  23.668  1.00  0.00    -0.333 OA
ATOM     15  C   UNL A   1      32.742  19.733  24.523  1.00  0.00     0.238 A 
ATOM     16  N   UNL A   1      33.152  20.473  23.487  1.00  0.00    -0.053 NA
BRANCH  15  17
ATOM     17  C   UNL A   1      33.308  18.387  24.800  1.00  0.00     0.174 A 
ATOM     18  C   UNL A   1      34.497  17.881  24.311  1.00  0.00     0.054 A 
ATOM     19  O   UNL A   1      32.693  17.435  25.568  1.00  0.00    -0.461 OA
ATOM     20  C   UNL A   1      34.600  16.550  24.787  1.00  0.00     0.043 A 
ATOM     21  C   UNL A   1      33.453  16.314  25.508  1.00  0.00     0.196 A 
ENDBRANCH  15  17
ENDBRANCH  11  12
ENDBRANCH   9  11
BRANCH   9  22
ATOM     22  C   UNL A   1      30.596  24.957  24.227  1.00  0.00     0.380 C 
BRANCH  22  23
ATOM     23  C   UNL A   1      29.779  26.038  24.973  1.00  0.00     0.438 C 
ATOM     24  F   UNL A   1      30.475  27.174  25.155  1.00  0.00    -0.165 F 
ATOM     25  F   UNL A   1      28.661  26.344  24.274  1.00  0.00    -0.165 F 
ATOM     26  F   UNL A   1      29.375  25.586  26.181  1.00  0.00    -0.165 F 
ENDBRANCH  22  23
ENDBRANCH   9  22
ENDBRANCH   8   9
ENDBRANCH   6   8
ENDBRANCH   3   4
ENDBRANCH   2   3
ENDBRANCH   1   2
BRANCH   1  27
ATOM     27  C   UNL A   1      36.998  20.503  24.796  1.00  0.00     0.002 C 
BRANCH  27  28
ATOM     28  C   UNL A   1      38.161  19.523  24.963  1.00  0.00     0.021 C 
BRANCH  28  29
ATOM     29  C   UNL A   1      39.173  19.915  26.034  1.00  0.00     0.116 C 
BRANCH  29  30
ATOM     30  N   UNL A   1      40.344  19.056  26.021  1.00  0.00    -0.352 N 
ATOM     31  C   UNL A   1      41.672  19.400  26.067  1.00  0.00     0.251 C 
ATOM     32  H   UNL A   1      40.160  18.090  25.970  1.00  0.00     0.163 HD
ATOM     33  O   UNL A   1      42.528  18.545  25.835  1.00  0.00    -0.269 OA
BRANCH  31  34
ATOM     34  C   UNL A   1      42.067  20.793  26.370  1.00  0.00     0.039 A 
ATOM     35  C   UNL A   1      42.332  21.150  27.694  1.00  0.00     0.014 A 
ATOM     36  C   UNL A   1      42.164  21.751  25.356  1.00  0.00     0.014 A 
ATOM     37  C   UNL A   1      42.736  22.453  27.993  1.00  0.00     0.010 A 
ATOM     38  C   UNL A   1      42.644  23.026  25.645  1.00  0.00     0.010 A 
ATOM     39  C   UNL A   1      42.922  23.397  26.970  1.00  0.00    -0.014 A 
BRANCH  39  40
ATOM     40  C   UNL A   1      43.360  24.787  27.271  1.00  0.00     0.031 A 
ATOM     41  C   UNL A   1      42.394  25.755  27.904  1.00  0.00     0.074 A 
ATOM     42  C   UNL A   1      44.606  25.189  26.948  1.00  0.00     0.049 A 
ATOM     43  N   UNL A   1      42.549  27.026  28.173  1.00  0.00    -0.248 NA
ATOM     44  C   UNL A   1      41.065  25.228  28.257  1.00  0.00     0.031 C 
ATOM     45  C   UNL A   1      45.624  24.354  26.308  1.00  0.00     0.029 A 
ATOM     46  N   UNL A   1      45.228  26.403  27.109  1.00  0.00    -0.354 N 
ATOM     47  C   UNL A   1      41.345  27.448  28.726  1.00  0.00     0.074 A 
ATOM     48  C   UNL A   1      40.443  26.317  28.680  1.00  0.00     0.031 C 
ATOM     49  C   UNL A   1      46.748  25.074  26.150  1.00  0.00     0.029 A 
ATOM     50  C   UNL A   1      46.519  26.432  26.630  1.00  0.00     0.049 A 
ATOM     51  H   UNL A   1      44.792  27.179  27.529  1.00  0.00     0.167 HD
ATOM     52  C   UNL A   1      41.029  28.655  29.257  1.00  0.00     0.034 A 
ATOM     53  C   UNL A   1      47.409  27.444  26.568  1.00  0.00     0.034 A 
ATOM     54  C   UNL A   1      41.936  29.774  29.301  1.00  0.00     0.049 A 
ATOM     55  C   UNL A   1      47.016  28.793  27.125  1.00  0.00     0.074 A 
ATOM     56  C   UNL A   1      41.720  31.040  29.818  1.00  0.00     0.029 A 
ATOM     57  N   UNL A   1      43.238  29.762  28.815  1.00  0.00    -0.354 N 
ATOM     58  N   UNL A   1      45.877  29.165  27.666  1.00  0.00    -0.248 NA
ATOM     59  C   UNL A   1      48.033  29.851  27.084  1.00  0.00     0.031 C 
ATOM     60  C   UNL A   1      42.865  31.810  29.591  1.00  0.00     0.029 A 
ATOM     61  C   UNL A   1      43.829  31.001  29.011  1.00  0.00     0.049 A 
ATOM     62  H   UNL A   1      43.676  28.989  28.394  1.00  0.00     0.167 HD
ATOM     63  C   UNL A   1      46.065  30.486  28.072  1.00  0.00     0.074 A 
ATOM     64  C   UNL A   1      47.426  30.836  27.729  1.00  0.00     0.031 C 
ATOM     65  C   UNL A   1      45.194  31.332  28.678  1.00  0.00     0.034 A 
BRANCH  52  66
ATOM     66  C   UNL A   1      39.640  28.823  29.825  1.00  0.00     0.023 A 
ATOM     67  C   UNL A   1      38.585  29.326  29.042  1.00  0.00     0.031 A 
ATOM     68  C   UNL A   1      39.362  28.482  31.160  1.00  0.00     0.131 A 
ATOM     69  C   UNL A   1      37.322  29.533  29.616  1.00  0.00     0.055 A 
ATOM     70  C   UNL A   1      38.082  28.612  31.703  1.00  0.00     0.041 A 
ATOM     71  F   UNL A   1      40.334  28.020  31.964  1.00  0.00    -0.206 F 
ATOM     72  C   UNL A   1      37.056  29.152  30.933  1.00  0.00     0.022 A 
BRANCH  69  73
ATOM     73  S   UNL A   1      36.070  30.423  28.654  1.00  0.00     0.124 S 
ATOM     74  O   UNL A   1      35.482  31.292  29.672  1.00  0.00    -0.237 OA
ATOM     75  O   UNL A   1      36.868  31.087  27.630  1.00  0.00    -0.237 OA
ATOM     76  O   UNL A   1      35.191  29.360  28.170  1.00  0.00    -0.744 OA
ENDBRANCH  69  73
ENDBRANCH  52  66
BRANCH  53  77
ATOM     77  C   UNL A   1      48.752  27.248  25.944  1.00  0.00     0.023 A 
ATOM     78  C   UNL A   1      49.873  26.916  26.722  1.00  0.00     0.031 A 
ATOM     79  C   UNL A   1      48.954  27.481  24.571  1.00  0.00     0.131 A 
ATOM     80  C   UNL A   1      51.153  26.908  26.142  1.00  0.00     0.055 A 
ATOM     81  C   UNL A   1      50.217  27.398  23.984  1.00  0.00     0.041 A 
ATOM     82  F   UNL A   1      47.919  27.799  23.776  1.00  0.00    -0.206 F 
ATOM     83  C   UNL A   1      51.330  27.132  24.775  1.00  0.00     0.022 A 
BRANCH  80  84
ATOM     84  S   UNL A   1      52.596  26.747  27.230  1.00  0.00     0.124 S 
ATOM     85  O   UNL A   1      52.005  26.991  28.541  1.00  0.00    -0.237 OA
ATOM     86  O   UNL A   1      53.022  25.377  26.964  1.00  0.00    -0.237 OA
ATOM     87  O   UNL A   1      53.502  27.787  26.748  1.00  0.00    -0.744 OA
ENDBRANCH  80  84
ENDBRANCH  53  77
BRANCH  65  88
ATOM     88  C   UNL A   1      45.717  32.690  29.084  1.00  0.00     0.023 A 
ATOM     89  C   UNL A   1      45.692  33.793  28.214  1.00  0.00     0.031 A 
ATOM     90  C   UNL A   1      46.268  32.873  30.366  1.00  0.00     0.131 A 
ATOM     91  C   UNL A   1      46.272  35.009  28.610  1.00  0.00     0.055 A 
ATOM     92  C   UNL A   1      46.778  34.104  30.780  1.00  0.00     0.041 A 
ATOM     93  F   UNL A   1      46.321  31.854  31.240  1.00  0.00    -0.206 F 
ATOM     94  C   UNL A   1      46.797  35.176  29.894  1.00  0.00     0.022 A 
BRANCH  91  95
ATOM     95  S   UNL A   1      46.433  36.336  27.384  1.00  0.00     0.124 S 
ATOM     96  O   UNL A   1      47.787  36.818  27.635  1.00  0.00    -0.237 OA
ATOM     97  O   UNL A   1      46.235  35.623  26.126  1.00  0.00    -0.237 OA
ATOM     98  O   UNL A   1      45.366  37.267  27.744  1.00  0.00    -0.744 OA
ENDBRANCH  91  95
ENDBRANCH  65  88
ENDBRANCH  39  40
ENDBRANCH  31  34
ENDBRANCH  29  30
ENDBRANCH  28  29
ENDBRANCH  27  28
ENDBRANCH   1  27
TORSDOF 22
ENDMDL
