MODEL 1
REMARK VINA RESULT:      -9.9      0.000      0.000
REMARK SMILES C[C@@H](CC(=O)NCCCCCCNC(=O)c1ccc(-c2c3nc(c(-c4cc(S(=O)(=O)[O-])ccc4F)c4ccc([nH]4)c(-c4cc(S(=O)(=O)[O-])ccc4F)c4nc(c(-c5cc(S(=O)(=O)[O-])ccc5F)c5ccc2[nH]5)C=C4)C=C3)cc1)NC(=O)CCCN1C(=O)CN(C)C1=O
REMARK SMILES IDX 8 1 7 2 6 3 4 4 5 5 3 7 2 8 1 9 79 10 80 11 81 13 82 14
REMARK SMILES IDX 83 15 84 16 85 17 86 18 91 19 87 20 88 21 89 22 92 23 90 24
REMARK SMILES IDX 9 25 10 26 11 27 12 28 13 29 14 30 15 32 16 33 17 34 78 35
REMARK SMILES IDX 18 36 77 37 19 38 20 39 21 40 71 41 22 42 76 43 70 44 72 45
REMARK SMILES IDX 23 46 75 47 69 48 68 49 24 51 56 52 36 53 55 54 37 55 40 56
REMARK SMILES IDX 54 57 73 58 38 59 39 60 53 62 74 63 41 64 25 65 26 66 34 67
REMARK SMILES IDX 27 68 33 69 35 70 32 71 28 72 29 73 30 74 31 75 57 76 58 77
REMARK SMILES IDX 66 78 59 79 65 80 67 81 64 82 60 83 61 84 62 85 63 86 42 87
REMARK SMILES IDX 43 88 51 89 44 90 50 91 52 92 49 93 45 94 46 95 47 96 48 97
REMARK H PARENT 6 6 79 12 13 31 72 50 40 61
REMARK Flexibility Score: inf
ROOT
ATOM      1  C   UNL A   1      39.324  23.375  26.960  1.00  0.00     0.021 C 
ENDROOT
BRANCH   1   2
ATOM      2  C   UNL A   1      38.089  24.105  26.433  1.00  0.00     0.116 C 
BRANCH   2   3
ATOM      3  N   UNL A   1      37.768  23.621  25.104  1.00  0.00    -0.356 N 
ATOM      4  C   UNL A   1      36.585  23.174  24.600  1.00  0.00     0.222 C 
ATOM      5  O   UNL A   1      36.585  22.603  23.509  1.00  0.00    -0.275 OA
ATOM      6  H   UNL A   1      38.520  23.615  24.468  1.00  0.00     0.163 HD
BRANCH   4   7
ATOM      7  C   UNL A   1      35.296  23.454  25.333  1.00  0.00     0.124 C 
BRANCH   7   8
ATOM      8  C   UNL A   1      34.427  22.268  25.744  1.00  0.00     0.088 C 
ATOM      9  C   UNL A   1      34.303  21.981  27.231  1.00  0.00     0.031 C 
BRANCH   8  10
ATOM     10  N   UNL A   1      34.702  21.016  25.085  1.00  0.00    -0.353 N 
ATOM     11  C   UNL A   1      33.730  20.183  24.596  1.00  0.00     0.220 C 
ATOM     12  H   UNL A   1      35.641  20.743  24.981  1.00  0.00     0.163 HD
ATOM     13  O   UNL A   1      33.950  18.971  24.589  1.00  0.00    -0.275 OA
BRANCH  11  14
ATOM     14  C   UNL A   1      32.484  20.767  23.931  1.00  0.00     0.102 C 
BRANCH  14  15
ATOM     15  C   UNL A   1      32.498  21.625  22.657  1.00  0.00     0.032 C 
BRANCH  15  16
ATOM     16  C   UNL A   1      33.075  23.051  22.507  1.00  0.00     0.131 C 
BRANCH  16  17
ATOM     17  N   UNL A   1      32.410  24.279  22.937  1.00  0.00    -0.263 N 
ATOM     18  C   UNL A   1      31.328  24.488  23.742  1.00  0.00     0.250 C 
ATOM     19  C   UNL A   1      32.879  25.496  22.487  1.00  0.00     0.326 C 
ATOM     20  O   UNL A   1      30.707  23.669  24.403  1.00  0.00    -0.272 OA
ATOM     21  C   UNL A   1      30.915  25.947  23.657  1.00  0.00     0.221 C 
ATOM     22  N   UNL A   1      32.037  26.488  22.950  1.00  0.00    -0.318 N 
ATOM     23  O   UNL A   1      33.856  25.676  21.782  1.00  0.00    -0.248 OA
ATOM     24  C   UNL A   1      32.179  27.901  22.687  1.00  0.00     0.149 C 
ENDBRANCH  16  17
ENDBRANCH  15  16
ENDBRANCH  14  15
ENDBRANCH  11  14
ENDBRANCH   8  10
ENDBRANCH   7   8
ENDBRANCH   4   7
ENDBRANCH   2   3
ENDBRANCH   1   2
BRANCH   1  25
ATOM     25  C   UNL A   1      39.575  22.026  26.292  1.00  0.00     0.002 C 
BRANCH  25  26
ATOM     26  C   UNL A   1      40.744  21.246  26.890  1.00  0.00     0.002 C 
BRANCH  26  27
ATOM     27  C   UNL A   1      41.087  19.951  26.150  1.00  0.00     0.021 C 
BRANCH  27  28
ATOM     28  C   UNL A   1      42.368  19.270  26.628  1.00  0.00     0.116 C 
BRANCH  28  29
ATOM     29  N   UNL A   1      43.290  19.043  25.528  1.00  0.00    -0.352 N 
ATOM     30  C   UNL A   1      43.987  19.959  24.784  1.00  0.00     0.251 C 
ATOM     31  H   UNL A   1      43.433  18.100  25.282  1.00  0.00     0.163 HD
ATOM     32  O   UNL A   1      44.478  19.629  23.709  1.00  0.00    -0.269 OA
BRANCH  30  33
ATOM     33  C   UNL A   1      44.127  21.341  25.285  1.00  0.00     0.039 A 
ATOM     34  C   UNL A   1      44.863  21.570  26.448  1.00  0.00     0.014 A 
ATOM     35  C   UNL A   1      43.528  22.405  24.603  1.00  0.00     0.014 A 
ATOM     36  C   UNL A   1      45.041  22.878  26.899  1.00  0.00     0.010 A 
ATOM     37  C   UNL A   1      43.773  23.712  25.010  1.00  0.00     0.010 A 
ATOM     38  C   UNL A   1      44.527  23.962  26.166  1.00  0.00    -0.014 A 
BRANCH  38  39
ATOM     39  C   UNL A   1      44.779  25.360  26.600  1.00  0.00     0.031 A 
ATOM     40  C   UNL A   1      46.145  25.969  26.438  1.00  0.00     0.074 A 
ATOM     41  C   UNL A   1      43.783  26.063  27.172  1.00  0.00     0.049 A 
ATOM     42  N   UNL A   1      46.563  27.162  26.776  1.00  0.00    -0.248 NA
ATOM     43  C   UNL A   1      47.184  25.116  25.842  1.00  0.00     0.031 C 
ATOM     44  C   UNL A   1      42.429  25.560  27.418  1.00  0.00     0.029 A 
ATOM     45  N   UNL A   1      43.748  27.349  27.649  1.00  0.00    -0.354 N 
ATOM     46  C   UNL A   1      47.910  27.202  26.436  1.00  0.00     0.074 A 
ATOM     47  C   UNL A   1      48.254  25.890  25.931  1.00  0.00     0.031 C 
ATOM     48  C   UNL A   1      41.689  26.537  27.962  1.00  0.00     0.029 A 
ATOM     49  C   UNL A   1      42.523  27.718  28.157  1.00  0.00     0.049 A 
ATOM     50  H   UNL A   1      44.527  27.951  27.630  1.00  0.00     0.167 HD
ATOM     51  C   UNL A   1      48.773  28.245  26.516  1.00  0.00     0.034 A 
ATOM     52  C   UNL A   1      42.121  28.873  28.722  1.00  0.00     0.034 A 
ATOM     53  C   UNL A   1      48.410  29.546  27.023  1.00  0.00     0.049 A 
ATOM     54  C   UNL A   1      43.111  30.005  28.838  1.00  0.00     0.074 A 
ATOM     55  C   UNL A   1      49.188  30.688  27.103  1.00  0.00     0.029 A 
ATOM     56  N   UNL A   1      47.167  29.878  27.549  1.00  0.00    -0.354 N 
ATOM     57  N   UNL A   1      44.368  30.045  28.459  1.00  0.00    -0.248 NA
ATOM     58  C   UNL A   1      42.625  31.248  29.447  1.00  0.00     0.031 C 
ATOM     59  C   UNL A   1      48.446  31.681  27.751  1.00  0.00     0.029 A 
ATOM     60  C   UNL A   1      47.172  31.193  27.992  1.00  0.00     0.049 A 
ATOM     61  H   UNL A   1      46.395  29.268  27.599  1.00  0.00     0.167 HD
ATOM     62  C   UNL A   1      44.813  31.331  28.757  1.00  0.00     0.074 A 
ATOM     63  C   UNL A   1      43.682  32.036  29.326  1.00  0.00     0.031 C 
ATOM     64  C   UNL A   1      46.041  31.879  28.574  1.00  0.00     0.034 A 
BRANCH  51  65
ATOM     65  C   UNL A   1      50.198  28.008  26.068  1.00  0.00     0.023 A 
ATOM     66  C   UNL A   1      50.615  28.276  24.753  1.00  0.00     0.031 A 
ATOM     67  C   UNL A   1      51.150  27.490  26.965  1.00  0.00     0.131 A 
ATOM     68  C   UNL A   1      51.921  27.953  24.351  1.00  0.00     0.055 A 
ATOM     69  C   UNL A   1      52.472  27.254  26.582  1.00  0.00     0.041 A 
ATOM     70  F   UNL A   1      50.808  27.192  28.228  1.00  0.00    -0.206 F 
ATOM     71  C   UNL A   1      52.860  27.472  25.263  1.00  0.00     0.022 A 
BRANCH  68  72
ATOM     72  S   UNL A   1      52.326  28.033  22.584  1.00  0.00     0.124 S 
ATOM     73  O   UNL A   1      51.567  29.207  22.161  1.00  0.00    -0.237 OA
ATOM     74  O   UNL A   1      53.776  28.181  22.599  1.00  0.00    -0.237 OA
ATOM     75  O   UNL A   1      51.832  26.761  22.063  1.00  0.00    -0.744 OA
ENDBRANCH  68  72
ENDBRANCH  51  65
BRANCH  52  76
ATOM     76  C   UNL A   1      40.728  29.021  29.234  1.00  0.00     0.023 A 
ATOM     77  C   UNL A   1      40.454  28.990  30.611  1.00  0.00     0.031 A 
ATOM     78  C   UNL A   1      39.641  29.151  28.350  1.00  0.00     0.131 A 
ATOM     79  C   UNL A   1      39.125  29.034  31.061  1.00  0.00     0.055 A 
ATOM     80  C   UNL A   1      38.327  29.256  28.805  1.00  0.00     0.041 A 
ATOM     81  F   UNL A   1      39.846  29.188  27.024  1.00  0.00    -0.206 F 
ATOM     82  C   UNL A   1      38.061  29.183  30.168  1.00  0.00     0.022 A 
BRANCH  79  83
ATOM     83  S   UNL A   1      38.799  28.791  32.829  1.00  0.00     0.124 S 
ATOM     84  O   UNL A   1      38.953  30.145  33.347  1.00  0.00    -0.237 OA
ATOM     85  O   UNL A   1      37.440  28.260  32.816  1.00  0.00    -0.237 OA
ATOM     86  O   UNL A   1      39.834  27.844  33.237  1.00  0.00    -0.744 OA
ENDBRANCH  79  83
ENDBRANCH  52  76
BRANCH  64  87
ATOM     87  C   UNL A   1      46.208  33.331  28.962  1.00  0.00     0.023 A 
ATOM     88  C   UNL A   1      45.963  34.374  28.052  1.00  0.00     0.031 A 
ATOM     89  C   UNL A   1      46.638  33.673  30.256  1.00  0.00     0.131 A 
ATOM     90  C   UNL A   1      46.213  35.702  28.426  1.00  0.00     0.055 A 
ATOM     91  C   UNL A   1      46.815  35.001  30.646  1.00  0.00     0.041 A 
ATOM     92  F   UNL A   1      46.894  32.720  31.167  1.00  0.00    -0.206 F 
ATOM     93  C   UNL A   1      46.617  36.024  29.724  1.00  0.00     0.022 A 
BRANCH  90  94
ATOM     94  S   UNL A   1      46.112  36.997  27.160  1.00  0.00     0.124 S 
ATOM     95  O   UNL A   1      46.735  36.346  26.012  1.00  0.00    -0.237 OA
ATOM     96  O   UNL A   1      44.674  37.225  27.059  1.00  0.00    -0.237 OA
ATOM     97  O   UNL A   1      46.876  38.101  27.737  1.00  0.00    -0.744 OA
ENDBRANCH  90  94
ENDBRANCH  64  87
ENDBRANCH  38  39
ENDBRANCH  30  33
ENDBRANCH  28  29
ENDBRANCH  27  28
ENDBRANCH  26  27
ENDBRANCH  25  26
ENDBRANCH   1  25
TORSDOF 22
ENDMDL
MODEL 2
REMARK VINA RESULT:      -9.7      1.761      2.177
REMARK SMILES C[C@@H](CC(=O)NCCCCCCNC(=O)c1ccc(-c2c3nc(c(-c4cc(S(=O)(=O)[O-])ccc4F)c4ccc([nH]4)c(-c4cc(S(=O)(=O)[O-])ccc4F)c4nc(c(-c5cc(S(=O)(=O)[O-])ccc5F)c5ccc2[nH]5)C=C4)C=C3)cc1)NC(=O)CCCN1C(=O)CN(C)C1=O
REMARK SMILES IDX 8 1 7 2 6 3 4 4 5 5 3 7 2 8 1 9 79 10 80 11 81 13 82 14
REMARK SMILES IDX 83 15 84 16 85 17 86 18 91 19 87 20 88 21 89 22 92 23 90 24
REMARK SMILES IDX 9 25 10 26 11 27 12 28 13 29 14 30 15 32 16 33 17 34 78 35
REMARK SMILES IDX 18 36 77 37 19 38 20 39 21 40 71 41 22 42 76 43 70 44 72 45
REMARK SMILES IDX 23 46 75 47 69 48 68 49 24 51 56 52 36 53 55 54 37 55 40 56
REMARK SMILES IDX 54 57 73 58 38 59 39 60 53 62 74 63 41 64 25 65 26 66 34 67
REMARK SMILES IDX 27 68 33 69 35 70 32 71 28 72 29 73 30 74 31 75 57 76 58 77
REMARK SMILES IDX 66 78 59 79 65 80 67 81 64 82 60 83 61 84 62 85 63 86 42 87
REMARK SMILES IDX 43 88 51 89 44 90 50 91 52 92 49 93 45 94 46 95 47 96 48 97
REMARK H PARENT 6 6 79 12 13 31 72 50 40 61
REMARK Flexibility Score: inf
ROOT
ATOM      1  C   UNL A   1      39.396  23.618  26.456  1.00  0.00     0.021 C 
ENDROOT
BRANCH   1   2
ATOM      2  C   UNL A   1      37.884  23.693  26.241  1.00  0.00     0.116 C 
BRANCH   2   3
ATOM      3  N   UNL A   1      37.598  23.771  24.821  1.00  0.00    -0.356 N 
ATOM      4  C   UNL A   1      36.634  23.147  24.091  1.00  0.00     0.222 C 
ATOM      5  O   UNL A   1      36.707  23.185  22.862  1.00  0.00    -0.275 OA
ATOM      6  H   UNL A   1      38.190  24.366  24.308  1.00  0.00     0.163 HD
BRANCH   4   7
ATOM      7  C   UNL A   1      35.460  22.499  24.781  1.00  0.00     0.124 C 
BRANCH   7   8
ATOM      8  C   UNL A   1      34.135  23.255  24.816  1.00  0.00     0.088 C 
ATOM      9  C   UNL A   1      34.118  24.594  25.535  1.00  0.00     0.031 C 
BRANCH   8  10
ATOM     10  N   UNL A   1      32.986  22.511  25.267  1.00  0.00    -0.353 N 
ATOM     11  C   UNL A   1      31.700  22.782  24.878  1.00  0.00     0.220 C 
ATOM     12  H   UNL A   1      33.133  21.764  25.891  1.00  0.00     0.163 HD
ATOM     13  O   UNL A   1      30.788  22.544  25.670  1.00  0.00    -0.275 OA
BRANCH  11  14
ATOM     14  C   UNL A   1      31.410  23.213  23.441  1.00  0.00     0.102 C 
BRANCH  14  15
ATOM     15  C   UNL A   1      31.267  24.673  22.982  1.00  0.00     0.032 C 
BRANCH  15  16
ATOM     16  C   UNL A   1      30.499  25.801  23.707  1.00  0.00     0.131 C 
BRANCH  16  17
ATOM     17  N   UNL A   1      31.052  26.661  24.750  1.00  0.00    -0.263 N 
ATOM     18  C   UNL A   1      31.046  26.552  26.111  1.00  0.00     0.250 C 
ATOM     19  C   UNL A   1      31.704  27.823  24.394  1.00  0.00     0.326 C 
ATOM     20  O   UNL A   1      30.655  25.618  26.794  1.00  0.00    -0.272 OA
ATOM     21  C   UNL A   1      31.553  27.849  26.719  1.00  0.00     0.221 C 
ATOM     22  N   UNL A   1      32.050  28.503  25.546  1.00  0.00    -0.318 N 
ATOM     23  O   UNL A   1      31.924  28.208  23.259  1.00  0.00    -0.248 OA
ATOM     24  C   UNL A   1      32.736  29.772  25.600  1.00  0.00     0.149 C 
ENDBRANCH  16  17
ENDBRANCH  15  16
ENDBRANCH  14  15
ENDBRANCH  11  14
ENDBRANCH   8  10
ENDBRANCH   7   8
ENDBRANCH   4   7
ENDBRANCH   2   3
ENDBRANCH   1   2
BRANCH   1  25
ATOM     25  C   UNL A   1      39.901  22.221  26.804  1.00  0.00     0.002 C 
BRANCH  25  26
ATOM     26  C   UNL A   1      39.562  21.160  25.759  1.00  0.00     0.002 C 
BRANCH  26  27
ATOM     27  C   UNL A   1      40.008  19.742  26.126  1.00  0.00     0.021 C 
BRANCH  27  28
ATOM     28  C   UNL A   1      41.339  19.670  26.872  1.00  0.00     0.116 C 
BRANCH  28  29
ATOM     29  N   UNL A   1      42.424  19.291  25.984  1.00  0.00    -0.352 N 
ATOM     30  C   UNL A   1      43.320  20.093  25.325  1.00  0.00     0.251 C 
ATOM     31  H   UNL A   1      42.531  18.324  25.833  1.00  0.00     0.163 HD
ATOM     32  O   UNL A   1      43.971  19.643  24.387  1.00  0.00    -0.269 OA
BRANCH  30  33
ATOM     33  C   UNL A   1      43.480  21.498  25.750  1.00  0.00     0.039 A 
ATOM     34  C   UNL A   1      43.862  21.770  27.064  1.00  0.00     0.014 A 
ATOM     35  C   UNL A   1      43.251  22.542  24.848  1.00  0.00     0.014 A 
ATOM     36  C   UNL A   1      44.064  23.093  27.459  1.00  0.00     0.010 A 
ATOM     37  C   UNL A   1      43.530  23.852  25.221  1.00  0.00     0.010 A 
ATOM     38  C   UNL A   1      43.933  24.142  26.532  1.00  0.00    -0.014 A 
BRANCH  38  39
ATOM     39  C   UNL A   1      44.222  25.544  26.926  1.00  0.00     0.031 A 
ATOM     40  C   UNL A   1      45.607  26.107  26.763  1.00  0.00     0.074 A 
ATOM     41  C   UNL A   1      43.240  26.294  27.463  1.00  0.00     0.049 A 
ATOM     42  N   UNL A   1      46.057  27.297  27.070  1.00  0.00    -0.248 NA
ATOM     43  C   UNL A   1      46.627  25.206  26.207  1.00  0.00     0.031 C 
ATOM     44  C   UNL A   1      41.869  25.839  27.707  1.00  0.00     0.029 A 
ATOM     45  N   UNL A   1      43.239  27.594  27.901  1.00  0.00    -0.354 N 
ATOM     46  C   UNL A   1      47.409  27.287  26.747  1.00  0.00     0.074 A 
ATOM     47  C   UNL A   1      47.719  25.950  26.287  1.00  0.00     0.031 C 
ATOM     48  C   UNL A   1      41.152  26.854  28.212  1.00  0.00     0.029 A 
ATOM     49  C   UNL A   1      42.019  28.015  28.381  1.00  0.00     0.049 A 
ATOM     50  H   UNL A   1      44.035  28.172  27.874  1.00  0.00     0.167 HD
ATOM     51  C   UNL A   1      48.302  28.306  26.806  1.00  0.00     0.034 A 
ATOM     52  C   UNL A   1      41.646  29.199  28.906  1.00  0.00     0.034 A 
ATOM     53  C   UNL A   1      47.972  29.632  27.269  1.00  0.00     0.049 A 
ATOM     54  C   UNL A   1      42.667  30.303  29.000  1.00  0.00     0.074 A 
ATOM     55  C   UNL A   1      48.783  30.752  27.325  1.00  0.00     0.029 A 
ATOM     56  N   UNL A   1      46.733  30.017  27.768  1.00  0.00    -0.354 N 
ATOM     57  N   UNL A   1      43.930  30.295  28.636  1.00  0.00    -0.248 NA
ATOM     58  C   UNL A   1      42.212  31.579  29.565  1.00  0.00     0.031 C 
ATOM     59  C   UNL A   1      48.063  31.786  27.932  1.00  0.00     0.029 A 
ATOM     60  C   UNL A   1      46.772  31.344  28.172  1.00  0.00     0.049 A 
ATOM     61  H   UNL A   1      45.943  29.432  27.827  1.00  0.00     0.167 HD
ATOM     62  C   UNL A   1      44.409  31.575  28.901  1.00  0.00     0.074 A 
ATOM     63  C   UNL A   1      43.294  32.331  29.433  1.00  0.00     0.031 C 
ATOM     64  C   UNL A   1      45.656  32.081  28.718  1.00  0.00     0.034 A 
BRANCH  51  65
ATOM     65  C   UNL A   1      49.724  28.012  26.385  1.00  0.00     0.023 A 
ATOM     66  C   UNL A   1      50.125  28.074  25.039  1.00  0.00     0.031 A 
ATOM     67  C   UNL A   1      50.690  27.650  27.341  1.00  0.00     0.131 A 
ATOM     68  C   UNL A   1      51.429  27.703  24.677  1.00  0.00     0.055 A 
ATOM     69  C   UNL A   1      52.010  27.367  26.983  1.00  0.00     0.041 A 
ATOM     70  F   UNL A   1      50.365  27.551  28.639  1.00  0.00    -0.206 F 
ATOM     71  C   UNL A   1      52.383  27.378  25.643  1.00  0.00     0.022 A 
BRANCH  68  72
ATOM     72  S   UNL A   1      51.815  27.507  22.915  1.00  0.00     0.124 S 
ATOM     73  O   UNL A   1      52.882  26.510  22.956  1.00  0.00    -0.237 OA
ATOM     74  O   UNL A   1      50.544  27.061  22.360  1.00  0.00    -0.237 OA
ATOM     75  O   UNL A   1      52.241  28.845  22.508  1.00  0.00    -0.744 OA
ENDBRANCH  68  72
ENDBRANCH  51  65
BRANCH  52  76
ATOM     76  C   UNL A   1      40.251  29.404  29.395  1.00  0.00     0.023 A 
ATOM     77  C   UNL A   1      39.960  29.424  30.768  1.00  0.00     0.031 A 
ATOM     78  C   UNL A   1      39.180  29.538  28.493  1.00  0.00     0.131 A 
ATOM     79  C   UNL A   1      38.627  29.521  31.200  1.00  0.00     0.055 A 
ATOM     80  C   UNL A   1      37.863  29.697  28.928  1.00  0.00     0.041 A 
ATOM     81  F   UNL A   1      39.401  29.528  27.169  1.00  0.00    -0.206 F 
ATOM     82  C   UNL A   1      37.579  29.674  30.289  1.00  0.00     0.022 A 
BRANCH  79  83
ATOM     83  S   UNL A   1      38.273  29.343  32.970  1.00  0.00     0.124 S 
ATOM     84  O   UNL A   1      39.609  29.157  33.522  1.00  0.00    -0.237 OA
ATOM     85  O   UNL A   1      37.620  30.611  33.277  1.00  0.00    -0.237 OA
ATOM     86  O   UNL A   1      37.405  28.168  33.024  1.00  0.00    -0.744 OA
ENDBRANCH  79  83
ENDBRANCH  52  76
BRANCH  64  87
ATOM     87  C   UNL A   1      45.862  33.538  29.063  1.00  0.00     0.023 A 
ATOM     88  C   UNL A   1      46.330  33.942  30.325  1.00  0.00     0.031 A 
ATOM     89  C   UNL A   1      45.565  34.538  28.120  1.00  0.00     0.131 A 
ATOM     90  C   UNL A   1      46.426  35.307  30.633  1.00  0.00     0.055 A 
ATOM     91  C   UNL A   1      45.731  35.894  28.407  1.00  0.00     0.041 A 
ATOM     92  F   UNL A   1      45.108  34.214  26.900  1.00  0.00    -0.206 F 
ATOM     93  C   UNL A   1      46.149  36.285  29.675  1.00  0.00     0.022 A 
BRANCH  90  94
ATOM     94  S   UNL A   1      46.806  35.789  32.340  1.00  0.00     0.124 S 
ATOM     95  O   UNL A   1      48.170  36.294  32.215  1.00  0.00    -0.237 OA
ATOM     96  O   UNL A   1      45.780  36.789  32.618  1.00  0.00    -0.237 OA
ATOM     97  O   UNL A   1      46.674  34.540  33.086  1.00  0.00    -0.744 OA
ENDBRANCH  90  94
ENDBRANCH  64  87
ENDBRANCH  38  39
ENDBRANCH  30  33
ENDBRANCH  28  29
ENDBRANCH  27  28
ENDBRANCH  26  27
ENDBRANCH  25  26
ENDBRANCH   1  25
TORSDOF 22
ENDMDL
MODEL 3
REMARK VINA RESULT:      -9.7      6.208     12.097
REMARK SMILES C[C@@H](CC(=O)NCCCCCCNC(=O)c1ccc(-c2c3nc(c(-c4cc(S(=O)(=O)[O-])ccc4F)c4ccc([nH]4)c(-c4cc(S(=O)(=O)[O-])ccc4F)c4nc(c(-c5cc(S(=O)(=O)[O-])ccc5F)c5ccc2[nH]5)C=C4)C=C3)cc1)NC(=O)CCCN1C(=O)CN(C)C1=O
REMARK SMILES IDX 8 1 7 2 6 3 4 4 5 5 3 7 2 8 1 9 79 10 80 11 81 13 82 14
REMARK SMILES IDX 83 15 84 16 85 17 86 18 91 19 87 20 88 21 89 22 92 23 90 24
REMARK SMILES IDX 9 25 10 26 11 27 12 28 13 29 14 30 15 32 16 33 17 34 78 35
REMARK SMILES IDX 18 36 77 37 19 38 20 39 21 40 71 41 22 42 76 43 70 44 72 45
REMARK SMILES IDX 23 46 75 47 69 48 68 49 24 51 56 52 36 53 55 54 37 55 40 56
REMARK SMILES IDX 54 57 73 58 38 59 39 60 53 62 74 63 41 64 25 65 26 66 34 67
REMARK SMILES IDX 27 68 33 69 35 70 32 71 28 72 29 73 30 74 31 75 57 76 58 77
REMARK SMILES IDX 66 78 59 79 65 80 67 81 64 82 60 83 61 84 62 85 63 86 42 87
REMARK SMILES IDX 43 88 51 89 44 90 50 91 52 92 49 93 45 94 46 95 47 96 48 97
REMARK H PARENT 6 6 79 12 13 31 72 50 40 61
REMARK Flexibility Score: inf
ROOT
ATOM      1  C   UNL A   1      34.854  31.576  28.767  1.00  0.00     0.021 C 
ENDROOT
BRANCH   1   2
ATOM      2  C   UNL A   1      34.349  30.899  27.493  1.00  0.00     0.116 C 
BRANCH   2   3
ATOM      3  N   UNL A   1      32.955  31.242  27.281  1.00  0.00    -0.356 N 
ATOM      4  C   UNL A   1      32.106  30.862  26.287  1.00  0.00     0.222 C 
ATOM      5  O   UNL A   1      31.027  31.445  26.177  1.00  0.00    -0.275 OA
ATOM      6  H   UNL A   1      32.563  31.838  27.958  1.00  0.00     0.163 HD
BRANCH   4   7
ATOM      7  C   UNL A   1      32.454  29.694  25.398  1.00  0.00     0.124 C 
BRANCH   7   8
ATOM      8  C   UNL A   1      31.535  28.475  25.413  1.00  0.00     0.088 C 
ATOM      9  C   UNL A   1      32.141  27.154  25.856  1.00  0.00     0.031 C 
BRANCH   8  10
ATOM     10  N   UNL A   1      30.788  28.223  24.206  1.00  0.00    -0.353 N 
ATOM     11  C   UNL A   1      31.249  28.517  22.950  1.00  0.00     0.220 C 
ATOM     12  H   UNL A   1      29.896  27.816  24.289  1.00  0.00     0.163 HD
ATOM     13  O   UNL A   1      30.426  28.820  22.083  1.00  0.00    -0.275 OA
BRANCH  11  14
ATOM     14  C   UNL A   1      32.723  28.312  22.606  1.00  0.00     0.102 C 
BRANCH  14  15
ATOM     15  C   UNL A   1      33.302  27.033  21.983  1.00  0.00     0.032 C 
BRANCH  15  16
ATOM     16  C   UNL A   1      32.525  25.749  21.612  1.00  0.00     0.131 C 
BRANCH  16  17
ATOM     17  N   UNL A   1      32.151  24.691  22.547  1.00  0.00    -0.263 N 
ATOM     18  C   UNL A   1      31.101  24.575  23.410  1.00  0.00     0.250 C 
ATOM     19  C   UNL A   1      32.951  23.572  22.658  1.00  0.00     0.326 C 
ATOM     20  O   UNL A   1      30.133  25.312  23.528  1.00  0.00    -0.272 OA
ATOM     21  C   UNL A   1      31.329  23.380  24.320  1.00  0.00     0.221 C 
ATOM     22  N   UNL A   1      32.445  22.769  23.661  1.00  0.00    -0.318 N 
ATOM     23  O   UNL A   1      33.950  23.332  22.002  1.00  0.00    -0.248 OA
ATOM     24  C   UNL A   1      33.005  21.511  24.094  1.00  0.00     0.149 C 
ENDBRANCH  16  17
ENDBRANCH  15  16
ENDBRANCH  14  15
ENDBRANCH  11  14
ENDBRANCH   8  10
ENDBRANCH   7   8
ENDBRANCH   4   7
ENDBRANCH   2   3
ENDBRANCH   1   2
BRANCH   1  25
ATOM     25  C   UNL A   1      35.786  32.756  28.510  1.00  0.00     0.002 C 
BRANCH  25  26
ATOM     26  C   UNL A   1      35.180  33.845  27.627  1.00  0.00     0.002 C 
BRANCH  26  27
ATOM     27  C   UNL A   1      34.454  34.953  28.393  1.00  0.00     0.021 C 
BRANCH  27  28
ATOM     28  C   UNL A   1      33.158  34.510  29.070  1.00  0.00     0.116 C 
BRANCH  28  29
ATOM     29  N   UNL A   1      32.862  35.326  30.235  1.00  0.00    -0.352 N 
ATOM     30  C   UNL A   1      33.345  35.211  31.513  1.00  0.00     0.251 C 
ATOM     31  H   UNL A   1      32.227  36.063  30.087  1.00  0.00     0.163 HD
ATOM     32  O   UNL A   1      32.771  35.778  32.438  1.00  0.00    -0.269 OA
BRANCH  30  33
ATOM     33  C   UNL A   1      34.547  34.391  31.761  1.00  0.00     0.039 A 
ATOM     34  C   UNL A   1      35.807  34.950  31.543  1.00  0.00     0.014 A 
ATOM     35  C   UNL A   1      34.425  33.070  32.206  1.00  0.00     0.014 A 
ATOM     36  C   UNL A   1      36.948  34.198  31.822  1.00  0.00     0.010 A 
ATOM     37  C   UNL A   1      35.563  32.352  32.558  1.00  0.00     0.010 A 
ATOM     38  C   UNL A   1      36.836  32.906  32.364  1.00  0.00    -0.014 A 
BRANCH  38  39
ATOM     39  C   UNL A   1      38.047  32.130  32.735  1.00  0.00     0.031 A 
ATOM     40  C   UNL A   1      38.758  32.409  34.031  1.00  0.00     0.074 A 
ATOM     41  C   UNL A   1      38.521  31.200  31.885  1.00  0.00     0.049 A 
ATOM     42  N   UNL A   1      39.839  31.855  34.516  1.00  0.00    -0.248 NA
ATOM     43  C   UNL A   1      38.195  33.470  34.880  1.00  0.00     0.031 C 
ATOM     44  C   UNL A   1      37.937  30.874  30.581  1.00  0.00     0.029 A 
ATOM     45  N   UNL A   1      39.599  30.357  31.984  1.00  0.00    -0.354 N 
ATOM     46  C   UNL A   1      40.086  32.498  35.724  1.00  0.00     0.074 A 
ATOM     47  C   UNL A   1      39.082  33.532  35.860  1.00  0.00     0.031 C 
ATOM     48  C   UNL A   1      38.639  29.876  30.022  1.00  0.00     0.029 A 
ATOM     49  C   UNL A   1      39.754  29.527  30.896  1.00  0.00     0.049 A 
ATOM     50  H   UNL A   1      40.205  30.346  32.759  1.00  0.00     0.167 HD
ATOM     51  C   UNL A   1      41.048  32.234  36.643  1.00  0.00     0.034 A 
ATOM     52  C   UNL A   1      40.693  28.597  30.630  1.00  0.00     0.034 A 
ATOM     53  C   UNL A   1      42.040  31.198  36.487  1.00  0.00     0.049 A 
ATOM     54  C   UNL A   1      41.775  28.351  31.650  1.00  0.00     0.074 A 
ATOM     55  C   UNL A   1      43.029  30.811  37.375  1.00  0.00     0.029 A 
ATOM     56  N   UNL A   1      42.181  30.392  35.364  1.00  0.00    -0.354 N 
ATOM     57  N   UNL A   1      41.962  28.930  32.814  1.00  0.00    -0.248 NA
ATOM     58  C   UNL A   1      42.768  27.319  31.324  1.00  0.00     0.031 C 
ATOM     59  C   UNL A   1      43.815  29.833  36.758  1.00  0.00     0.029 A 
ATOM     60  C   UNL A   1      43.264  29.540  35.521  1.00  0.00     0.049 A 
ATOM     61  H   UNL A   1      41.596  30.422  34.572  1.00  0.00     0.167 HD
ATOM     62  C   UNL A   1      43.076  28.308  33.372  1.00  0.00     0.074 A 
ATOM     63  C   UNL A   1      43.502  27.298  32.425  1.00  0.00     0.031 C 
ATOM     64  C   UNL A   1      43.689  28.547  34.560  1.00  0.00     0.034 A 
BRANCH  51  65
ATOM     65  C   UNL A   1      41.083  33.099  37.883  1.00  0.00     0.023 A 
ATOM     66  C   UNL A   1      40.312  32.796  39.019  1.00  0.00     0.031 A 
ATOM     67  C   UNL A   1      41.887  34.252  37.925  1.00  0.00     0.131 A 
ATOM     68  C   UNL A   1      40.300  33.674  40.114  1.00  0.00     0.055 A 
ATOM     69  C   UNL A   1      41.938  35.074  39.053  1.00  0.00     0.041 A 
ATOM     70  F   UNL A   1      42.629  34.608  36.865  1.00  0.00    -0.206 F 
ATOM     71  C   UNL A   1      41.130  34.796  40.151  1.00  0.00     0.022 A 
BRANCH  68  72
ATOM     72  S   UNL A   1      39.073  33.407  41.424  1.00  0.00     0.124 S 
ATOM     73  O   UNL A   1      37.822  33.478  40.674  1.00  0.00    -0.237 OA
ATOM     74  O   UNL A   1      39.438  32.092  41.935  1.00  0.00    -0.237 OA
ATOM     75  O   UNL A   1      39.305  34.521  42.341  1.00  0.00    -0.744 OA
ENDBRANCH  68  72
ENDBRANCH  51  65
BRANCH  52  76
ATOM     76  C   UNL A   1      40.664  27.838  29.346  1.00  0.00     0.023 A 
ATOM     77  C   UNL A   1      41.558  28.139  28.306  1.00  0.00     0.031 A 
ATOM     78  C   UNL A   1      39.711  26.828  29.122  1.00  0.00     0.131 A 
ATOM     79  C   UNL A   1      41.447  27.476  27.073  1.00  0.00     0.055 A 
ATOM     80  C   UNL A   1      39.644  26.129  27.917  1.00  0.00     0.041 A 
ATOM     81  F   UNL A   1      38.833  26.498  30.083  1.00  0.00    -0.206 F 
ATOM     82  C   UNL A   1      40.506  26.462  26.878  1.00  0.00     0.022 A 
BRANCH  79  83
ATOM     83  S   UNL A   1      42.485  28.030  25.693  1.00  0.00     0.124 S 
ATOM     84  O   UNL A   1      41.898  29.328  25.384  1.00  0.00    -0.237 OA
ATOM     85  O   UNL A   1      43.811  28.051  26.301  1.00  0.00    -0.237 OA
ATOM     86  O   UNL A   1      42.282  26.995  24.681  1.00  0.00    -0.744 OA
ENDBRANCH  79  83
ENDBRANCH  52  76
BRANCH  64  87
ATOM     87  C   UNL A   1      44.866  27.668  34.913  1.00  0.00     0.023 A 
ATOM     88  C   UNL A   1      44.706  26.463  35.619  1.00  0.00     0.031 A 
ATOM     89  C   UNL A   1      46.170  28.053  34.555  1.00  0.00     0.131 A 
ATOM     90  C   UNL A   1      45.833  25.720  36.001  1.00  0.00     0.055 A 
ATOM     91  C   UNL A   1      47.283  27.273  34.875  1.00  0.00     0.041 A 
ATOM     92  F   UNL A   1      46.387  29.197  33.886  1.00  0.00    -0.206 F 
ATOM     93  C   UNL A   1      47.118  26.107  35.615  1.00  0.00     0.022 A 
BRANCH  90  94
ATOM     94  S   UNL A   1      45.605  24.301  37.108  1.00  0.00     0.124 S 
ATOM     95  O   UNL A   1      45.176  23.259  36.181  1.00  0.00    -0.237 OA
ATOM     96  O   UNL A   1      46.937  24.135  37.681  1.00  0.00    -0.237 OA
ATOM     97  O   UNL A   1      44.580  24.759  38.044  1.00  0.00    -0.744 OA
ENDBRANCH  90  94
ENDBRANCH  64  87
ENDBRANCH  38  39
ENDBRANCH  30  33
ENDBRANCH  28  29
ENDBRANCH  27  28
ENDBRANCH  26  27
ENDBRANCH  25  26
ENDBRANCH   1  25
TORSDOF 22
ENDMDL
