MODEL 1
REMARK VINA RESULT:     -10.0      0.000      0.000
REMARK SMILES CCCCCCNC(=O)Oc1cccc(-c2ccc([C@@H](C)C(=O)NCCCCCCNC(=O)c3ccc(-c4c5nc(c(-c6cc(S(=O)(=O)[O-])ccc6F)c6ccc([nH]6)c(-c6cc(S(=O)(=O)[O-])ccc6F)c6nc(c(-c7cc(S(=O)(=O)[O-])ccc7F)c7ccc4[nH]7)C=C6)C=C5)cc3)cc2F)c1
REMARK SMILES IDX 22 1 23 2 24 3 20 5 21 6 19 7 16 8 17 9 98 10 18 11 97 12
REMARK SMILES IDX 99 13 15 14 11 15 12 16 100 17 13 18 14 19 10 20 8 21 7 22
REMARK SMILES IDX 9 24 6 25 5 26 4 27 3 28 2 29 1 30 25 31 26 32 27 33 28 34
REMARK SMILES IDX 29 35 30 36 31 37 32 38 33 40 34 41 35 42 96 43 36 44 95 45
REMARK SMILES IDX 37 46 38 47 39 48 89 49 40 50 94 51 88 52 90 53 41 54 93 55
REMARK SMILES IDX 87 56 86 57 42 59 74 60 54 61 73 62 55 63 58 64 72 65 91 66
REMARK SMILES IDX 56 67 57 68 71 70 92 71 59 72 43 73 44 74 52 75 45 76 51 77
REMARK SMILES IDX 53 78 50 79 46 80 47 81 48 82 49 83 75 84 76 85 84 86 77 87
REMARK SMILES IDX 83 88 85 89 82 90 78 91 79 92 80 93 81 94 60 95 61 96 69 97
REMARK SMILES IDX 62 98 68 99 70 100 67 101 63 102 64 103 65 104 66 105
REMARK H PARENT 24 4 7 23 31 39 90 58 58 69
REMARK Flexibility Score: inf
ROOT
ATOM      1  C   UNL A   1      36.246  31.286  29.506  1.00  0.00     0.227 C 
ATOM      2  O   UNL A   1      35.701  31.823  30.480  1.00  0.00    -0.274 OA
ATOM      3  N   UNL A   1      37.270  30.434  29.781  1.00  0.00    -0.356 N 
ATOM      4  H   UNL A   1      37.421  30.282  30.742  1.00  0.00     0.163 HD
ENDROOT
BRANCH   1   5
ATOM      5  C   UNL A   1      35.738  31.584  28.087  1.00  0.00     0.105 C 
ATOM      6  C   UNL A   1      35.289  33.030  27.880  1.00  0.00     0.023 C 
BRANCH   5   7
ATOM      7  C   UNL A   1      34.806  30.519  27.531  1.00  0.00    -0.033 A 
ATOM      8  C   UNL A   1      33.024  28.596  26.368  1.00  0.00     0.018 A 
ATOM      9  C   UNL A   1      34.354  28.278  26.690  1.00  0.00     0.012 A 
ATOM     10  C   UNL A   1      32.609  29.902  26.670  1.00  0.00     0.131 A 
ATOM     11  C   UNL A   1      35.209  29.203  27.297  1.00  0.00     0.005 A 
ATOM     12  C   UNL A   1      33.480  30.851  27.217  1.00  0.00     0.044 A 
ATOM     13  F   UNL A   1      31.340  30.285  26.453  1.00  0.00    -0.206 F 
BRANCH   8  14
ATOM     14  C   UNL A   1      32.144  27.583  25.744  1.00  0.00    -0.012 A 
ATOM     15  C   UNL A   1      31.535  26.127  23.895  1.00  0.00     0.133 A 
ATOM     16  C   UNL A   1      30.462  25.603  24.607  1.00  0.00     0.047 A 
ATOM     17  C   UNL A   1      32.369  27.104  24.444  1.00  0.00     0.056 A 
ATOM     18  C   UNL A   1      30.220  26.060  25.895  1.00  0.00     0.004 A 
ATOM     19  C   UNL A   1      31.043  27.046  26.448  1.00  0.00     0.009 A 
BRANCH  15  20
ATOM     20  O   UNL A   1      31.644  25.732  22.552  1.00  0.00    -0.410 OA
BRANCH  20  21
ATOM     21  C   UNL A   1      32.891  25.459  22.016  1.00  0.00     0.412 C 
ATOM     22  N   UNL A   1      33.229  24.138  22.128  1.00  0.00    -0.321 N 
ATOM     23  H   UNL A   1      34.121  23.878  21.801  1.00  0.00     0.167 HD
ATOM     24  O   UNL A   1      33.652  26.265  21.496  1.00  0.00    -0.224 OA
BRANCH  22  25
ATOM     25  C   UNL A   1      32.402  23.084  22.680  1.00  0.00     0.119 C 
BRANCH  25  26
ATOM     26  C   UNL A   1      33.239  22.024  23.395  1.00  0.00     0.021 C 
BRANCH  26  27
ATOM     27  C   UNL A   1      34.437  22.577  24.176  1.00  0.00     0.002 C 
BRANCH  27  28
ATOM     28  C   UNL A   1      34.283  22.575  25.700  1.00  0.00    -0.000 C 
BRANCH  28  29
ATOM     29  C   UNL A   1      33.594  23.807  26.291  1.00  0.00    -0.003 C 
ATOM     30  C   UNL A   1      32.336  23.472  27.077  1.00  0.00     0.004 C 
ENDBRANCH  28  29
ENDBRANCH  27  28
ENDBRANCH  26  27
ENDBRANCH  25  26
ENDBRANCH  22  25
ENDBRANCH  20  21
ENDBRANCH  15  20
ENDBRANCH   8  14
ENDBRANCH   5   7
ENDBRANCH   1   5
BRANCH   3  31
ATOM     31  C   UNL A   1      38.178  29.709  28.917  1.00  0.00     0.116 C 
BRANCH  31  32
ATOM     32  C   UNL A   1      38.350  28.257  29.366  1.00  0.00     0.021 C 
BRANCH  32  33
ATOM     33  C   UNL A   1      39.415  27.490  28.575  1.00  0.00     0.002 C 
BRANCH  33  34
ATOM     34  C   UNL A   1      39.441  25.976  28.827  1.00  0.00     0.002 C 
BRANCH  34  35
ATOM     35  C   UNL A   1      40.456  25.189  27.991  1.00  0.00     0.021 C 
BRANCH  35  36
ATOM     36  C   UNL A   1      40.330  25.394  26.483  1.00  0.00     0.116 C 
BRANCH  36  37
ATOM     37  N   UNL A   1      41.599  25.178  25.807  1.00  0.00    -0.352 N 
ATOM     38  C   UNL A   1      42.660  26.034  25.645  1.00  0.00     0.251 C 
ATOM     39  H   UNL A   1      41.714  24.287  25.407  1.00  0.00     0.163 HD
ATOM     40  O   UNL A   1      43.528  25.774  24.816  1.00  0.00    -0.269 OA
BRANCH  38  41
ATOM     41  C   UNL A   1      42.750  27.265  26.460  1.00  0.00     0.039 A 
ATOM     42  C   UNL A   1      43.516  27.253  27.628  1.00  0.00     0.014 A 
ATOM     43  C   UNL A   1      42.056  28.421  26.087  1.00  0.00     0.014 A 
ATOM     44  C   UNL A   1      43.630  28.416  28.393  1.00  0.00     0.010 A 
ATOM     45  C   UNL A   1      42.230  29.598  26.811  1.00  0.00     0.010 A 
ATOM     46  C   UNL A   1      43.015  29.608  27.974  1.00  0.00    -0.014 A 
BRANCH  46  47
ATOM     47  C   UNL A   1      43.171  30.869  28.745  1.00  0.00     0.031 A 
ATOM     48  C   UNL A   1      44.247  31.852  28.374  1.00  0.00     0.074 A 
ATOM     49  C   UNL A   1      42.379  31.100  29.812  1.00  0.00     0.049 A 
ATOM     50  N   UNL A   1      44.592  32.966  28.967  1.00  0.00    -0.248 NA
ATOM     51  C   UNL A   1      45.063  31.521  27.195  1.00  0.00     0.031 C 
ATOM     52  C   UNL A   1      41.321  30.207  30.287  1.00  0.00     0.029 A 
ATOM     53  N   UNL A   1      42.344  32.151  30.693  1.00  0.00    -0.354 N 
ATOM     54  C   UNL A   1      45.668  33.467  28.239  1.00  0.00     0.074 A 
ATOM     55  C   UNL A   1      45.958  32.496  27.204  1.00  0.00     0.031 C 
ATOM     56  C   UNL A   1      40.724  30.761  31.354  1.00  0.00     0.029 A 
ATOM     57  C   UNL A   1      41.386  32.021  31.672  1.00  0.00     0.049 A 
ATOM     58  H   UNL A   1      42.948  32.926  30.630  1.00  0.00     0.167 HD
ATOM     59  C   UNL A   1      46.334  34.637  28.403  1.00  0.00     0.034 A 
ATOM     60  C   UNL A   1      41.085  32.820  32.715  1.00  0.00     0.034 A 
ATOM     61  C   UNL A   1      46.027  35.594  29.438  1.00  0.00     0.049 A 
ATOM     62  C   UNL A   1      41.869  34.096  32.904  1.00  0.00     0.074 A 
ATOM     63  C   UNL A   1      46.608  36.828  29.672  1.00  0.00     0.029 A 
ATOM     64  N   UNL A   1      45.058  35.423  30.419  1.00  0.00    -0.354 N 
ATOM     65  N   UNL A   1      42.855  34.574  32.181  1.00  0.00    -0.248 NA
ATOM     66  C   UNL A   1      41.491  34.942  34.042  1.00  0.00     0.031 C 
ATOM     67  C   UNL A   1      46.042  37.370  30.831  1.00  0.00     0.029 A 
ATOM     68  C   UNL A   1      45.048  36.513  31.276  1.00  0.00     0.049 A 
ATOM     69  H   UNL A   1      44.464  34.642  30.494  1.00  0.00     0.167 HD
ATOM     70  C   UNL A   1      43.189  35.796  32.759  1.00  0.00     0.074 A 
ATOM     71  C   UNL A   1      42.290  35.986  33.878  1.00  0.00     0.031 C 
ATOM     72  C   UNL A   1      44.151  36.684  32.395  1.00  0.00     0.034 A 
BRANCH  59  73
ATOM     73  C   UNL A   1      47.474  34.927  27.455  1.00  0.00     0.023 A 
ATOM     74  C   UNL A   1      48.798  34.561  27.760  1.00  0.00     0.031 A 
ATOM     75  C   UNL A   1      47.244  35.599  26.243  1.00  0.00     0.131 A 
ATOM     76  C   UNL A   1      49.846  34.938  26.907  1.00  0.00     0.055 A 
ATOM     77  C   UNL A   1      48.281  35.896  25.354  1.00  0.00     0.041 A 
ATOM     78  F   UNL A   1      46.006  35.993  25.903  1.00  0.00    -0.206 F 
ATOM     79  C   UNL A   1      49.593  35.581  25.692  1.00  0.00     0.022 A 
BRANCH  76  80
ATOM     80  S   UNL A   1      51.552  34.713  27.479  1.00  0.00     0.124 S 
ATOM     81  O   UNL A   1      51.776  35.946  28.229  1.00  0.00    -0.237 OA
ATOM     82  O   UNL A   1      51.461  33.491  28.270  1.00  0.00    -0.237 OA
ATOM     83  O   UNL A   1      52.317  34.599  26.239  1.00  0.00    -0.744 OA
ENDBRANCH  76  80
ENDBRANCH  59  73
BRANCH  60  84
ATOM     84  C   UNL A   1      40.003  32.445  33.672  1.00  0.00     0.023 A 
ATOM     85  C   UNL A   1      38.725  33.016  33.574  1.00  0.00     0.031 A 
ATOM     86  C   UNL A   1      40.245  31.549  34.728  1.00  0.00     0.131 A 
ATOM     87  C   UNL A   1      37.754  32.729  34.546  1.00  0.00     0.055 A 
ATOM     88  C   UNL A   1      39.257  31.221  35.659  1.00  0.00     0.041 A 
ATOM     89  F   UNL A   1      41.448  30.970  34.867  1.00  0.00    -0.206 F 
ATOM     90  C   UNL A   1      38.006  31.824  35.579  1.00  0.00     0.022 A 
BRANCH  87  91
ATOM     91  S   UNL A   1      36.183  33.636  34.497  1.00  0.00     0.124 S 
ATOM     92  O   UNL A   1      35.339  32.727  33.730  1.00  0.00    -0.237 OA
ATOM     93  O   UNL A   1      35.865  33.765  35.915  1.00  0.00    -0.237 OA
ATOM     94  O   UNL A   1      36.533  34.884  33.823  1.00  0.00    -0.744 OA
ENDBRANCH  87  91
ENDBRANCH  60  84
BRANCH  72  95
ATOM     95  C   UNL A   1      44.238  37.964  33.192  1.00  0.00     0.023 A 
ATOM     96  C   UNL A   1      43.449  39.086  32.884  1.00  0.00     0.031 A 
ATOM     97  C   UNL A   1      45.137  38.063  34.270  1.00  0.00     0.131 A 
ATOM     98  C   UNL A   1      43.616  40.277  33.607  1.00  0.00     0.055 A 
ATOM     99  C   UNL A   1      45.252  39.230  35.026  1.00  0.00     0.041 A 
ATOM    100  F   UNL A   1      45.917  37.024  34.607  1.00  0.00    -0.206 F 
ATOM    101  C   UNL A   1      44.498  40.351  34.687  1.00  0.00     0.022 A 
BRANCH  98 102
ATOM    102  S   UNL A   1      42.731  41.761  33.054  1.00  0.00     0.124 S 
ATOM    103  O   UNL A   1      43.827  42.630  32.639  1.00  0.00    -0.237 OA
ATOM    104  O   UNL A   1      41.889  41.241  31.982  1.00  0.00    -0.237 OA
ATOM    105  O   UNL A   1      42.012  42.197  34.250  1.00  0.00    -0.744 OA
ENDBRANCH  98 102
ENDBRANCH  72  95
ENDBRANCH  46  47
ENDBRANCH  38  41
ENDBRANCH  36  37
ENDBRANCH  35  36
ENDBRANCH  34  35
ENDBRANCH  33  34
ENDBRANCH  32  33
ENDBRANCH  31  32
ENDBRANCH   3  31
TORSDOF 25
ENDMDL
MODEL 2
REMARK VINA RESULT:      -9.7      0.754      7.383
REMARK SMILES CCCCCCNC(=O)Oc1cccc(-c2ccc([C@@H](C)C(=O)NCCCCCCNC(=O)c3ccc(-c4c5nc(c(-c6cc(S(=O)(=O)[O-])ccc6F)c6ccc([nH]6)c(-c6cc(S(=O)(=O)[O-])ccc6F)c6nc(c(-c7cc(S(=O)(=O)[O-])ccc7F)c7ccc4[nH]7)C=C6)C=C5)cc3)cc2F)c1
REMARK SMILES IDX 22 1 23 2 24 3 20 5 21 6 19 7 16 8 17 9 98 10 18 11 97 12
REMARK SMILES IDX 99 13 15 14 11 15 12 16 100 17 13 18 14 19 10 20 8 21 7 22
REMARK SMILES IDX 9 24 6 25 5 26 4 27 3 28 2 29 1 30 25 31 26 32 27 33 28 34
REMARK SMILES IDX 29 35 30 36 31 37 32 38 33 40 34 41 35 42 96 43 36 44 95 45
REMARK SMILES IDX 37 46 38 47 39 48 89 49 40 50 94 51 88 52 90 53 41 54 93 55
REMARK SMILES IDX 87 56 86 57 42 59 74 60 54 61 73 62 55 63 58 64 72 65 91 66
REMARK SMILES IDX 56 67 57 68 71 70 92 71 59 72 43 73 44 74 52 75 45 76 51 77
REMARK SMILES IDX 53 78 50 79 46 80 47 81 48 82 49 83 75 84 76 85 84 86 77 87
REMARK SMILES IDX 83 88 85 89 82 90 78 91 79 92 80 93 81 94 60 95 61 96 69 97
REMARK SMILES IDX 62 98 68 99 70 100 67 101 63 102 64 103 65 104 66 105
REMARK H PARENT 24 4 7 23 31 39 90 58 58 69
REMARK Flexibility Score: inf
ROOT
ATOM      1  C   UNL A   1      35.858  31.556  29.547  1.00  0.00     0.227 C 
ATOM      2  O   UNL A   1      35.208  32.062  30.471  1.00  0.00    -0.274 OA
ATOM      3  N   UNL A   1      36.938  30.810  29.905  1.00  0.00    -0.356 N 
ATOM      4  H   UNL A   1      37.043  30.695  30.878  1.00  0.00     0.163 HD
ENDROOT
BRANCH   1   5
ATOM      5  C   UNL A   1      35.412  31.771  28.092  1.00  0.00     0.105 C 
ATOM      6  C   UNL A   1      34.925  33.190  27.797  1.00  0.00     0.023 C 
BRANCH   5   7
ATOM      7  C   UNL A   1      34.547  30.650  27.540  1.00  0.00    -0.033 A 
ATOM      8  C   UNL A   1      32.895  28.612  26.381  1.00  0.00     0.018 A 
ATOM      9  C   UNL A   1      34.217  28.359  26.781  1.00  0.00     0.012 A 
ATOM     10  C   UNL A   1      32.419  29.914  26.604  1.00  0.00     0.131 A 
ATOM     11  C   UNL A   1      35.009  29.341  27.386  1.00  0.00     0.005 A 
ATOM     12  C   UNL A   1      33.228  30.918  27.148  1.00  0.00     0.044 A 
ATOM     13  F   UNL A   1      31.150  30.239  26.309  1.00  0.00    -0.206 F 
BRANCH   8  14
ATOM     14  C   UNL A   1      32.083  27.541  25.762  1.00  0.00    -0.012 A 
ATOM     15  C   UNL A   1      31.571  26.040  23.920  1.00  0.00     0.133 A 
ATOM     16  C   UNL A   1      30.535  25.450  24.635  1.00  0.00     0.047 A 
ATOM     17  C   UNL A   1      32.339  27.071  24.464  1.00  0.00     0.056 A 
ATOM     18  C   UNL A   1      30.263  25.895  25.921  1.00  0.00     0.004 A 
ATOM     19  C   UNL A   1      31.020  26.935  26.469  1.00  0.00     0.009 A 
BRANCH  15  20
ATOM     20  O   UNL A   1      31.705  25.647  22.578  1.00  0.00    -0.410 OA
BRANCH  20  21
ATOM     21  C   UNL A   1      32.962  25.368  22.067  1.00  0.00     0.412 C 
ATOM     22  N   UNL A   1      33.308  24.053  22.220  1.00  0.00    -0.321 N 
ATOM     23  H   UNL A   1      34.205  23.791  21.912  1.00  0.00     0.167 HD
ATOM     24  O   UNL A   1      33.725  26.166  21.537  1.00  0.00    -0.224 OA
BRANCH  22  25
ATOM     25  C   UNL A   1      32.480  23.009  22.788  1.00  0.00     0.119 C 
BRANCH  25  26
ATOM     26  C   UNL A   1      32.967  22.594  24.176  1.00  0.00     0.021 C 
BRANCH  26  27
ATOM     27  C   UNL A   1      33.352  21.116  24.301  1.00  0.00     0.002 C 
BRANCH  27  28
ATOM     28  C   UNL A   1      32.429  20.133  23.573  1.00  0.00    -0.000 C 
BRANCH  28  29
ATOM     29  C   UNL A   1      32.562  18.670  24.001  1.00  0.00    -0.003 C 
ATOM     30  C   UNL A   1      32.750  18.498  25.500  1.00  0.00     0.004 C 
ENDBRANCH  28  29
ENDBRANCH  27  28
ENDBRANCH  26  27
ENDBRANCH  25  26
ENDBRANCH  22  25
ENDBRANCH  20  21
ENDBRANCH  15  20
ENDBRANCH   8  14
ENDBRANCH   5   7
ENDBRANCH   1   5
BRANCH   3  31
ATOM     31  C   UNL A   1      37.960  30.154  29.117  1.00  0.00     0.116 C 
BRANCH  31  32
ATOM     32  C   UNL A   1      38.025  28.653  29.409  1.00  0.00     0.021 C 
BRANCH  32  33
ATOM     33  C   UNL A   1      39.171  27.935  28.690  1.00  0.00     0.002 C 
BRANCH  33  34
ATOM     34  C   UNL A   1      39.457  26.513  29.190  1.00  0.00     0.002 C 
BRANCH  34  35
ATOM     35  C   UNL A   1      40.338  25.659  28.272  1.00  0.00     0.021 C 
BRANCH  35  36
ATOM     36  C   UNL A   1      40.030  25.804  26.783  1.00  0.00     0.116 C 
BRANCH  36  37
ATOM     37  N   UNL A   1      41.178  25.450  25.964  1.00  0.00    -0.352 N 
ATOM     38  C   UNL A   1      42.280  26.199  25.633  1.00  0.00     0.251 C 
ATOM     39  H   UNL A   1      41.163  24.540  25.592  1.00  0.00     0.163 HD
ATOM     40  O   UNL A   1      43.008  25.835  24.714  1.00  0.00    -0.269 OA
BRANCH  38  41
ATOM     41  C   UNL A   1      42.581  27.443  26.376  1.00  0.00     0.039 A 
ATOM     42  C   UNL A   1      41.958  28.632  25.989  1.00  0.00     0.014 A 
ATOM     43  C   UNL A   1      43.497  27.441  27.432  1.00  0.00     0.014 A 
ATOM     44  C   UNL A   1      42.213  29.809  26.699  1.00  0.00     0.010 A 
ATOM     45  C   UNL A   1      43.693  28.598  28.182  1.00  0.00     0.010 A 
ATOM     46  C   UNL A   1      43.057  29.796  27.821  1.00  0.00    -0.014 A 
BRANCH  46  47
ATOM     47  C   UNL A   1      43.297  31.025  28.621  1.00  0.00     0.031 A 
ATOM     48  C   UNL A   1      42.450  31.316  29.830  1.00  0.00     0.074 A 
ATOM     49  C   UNL A   1      44.238  31.905  28.225  1.00  0.00     0.049 A 
ATOM     50  N   UNL A   1      42.451  32.366  30.610  1.00  0.00    -0.248 NA
ATOM     51  C   UNL A   1      41.448  30.300  30.192  1.00  0.00     0.031 C 
ATOM     52  C   UNL A   1      45.100  31.748  27.052  1.00  0.00     0.029 A 
ATOM     53  N   UNL A   1      44.625  33.109  28.759  1.00  0.00    -0.354 N 
ATOM     54  C   UNL A   1      41.449  32.143  31.550  1.00  0.00     0.074 A 
ATOM     55  C   UNL A   1      40.819  30.889  31.196  1.00  0.00     0.031 C 
ATOM     56  C   UNL A   1      45.932  32.799  26.972  1.00  0.00     0.029 A 
ATOM     57  C   UNL A   1      45.631  33.730  28.055  1.00  0.00     0.049 A 
ATOM     58  H   UNL A   1      44.220  33.492  29.570  1.00  0.00     0.167 HD
ATOM     59  C   UNL A   1      41.105  32.902  32.620  1.00  0.00     0.034 A 
ATOM     60  C   UNL A   1      46.232  34.920  28.251  1.00  0.00     0.034 A 
ATOM     61  C   UNL A   1      41.748  34.148  32.959  1.00  0.00     0.049 A 
ATOM     62  C   UNL A   1      45.802  35.767  29.424  1.00  0.00     0.074 A 
ATOM     63  C   UNL A   1      41.510  34.976  34.042  1.00  0.00     0.029 A 
ATOM     64  N   UNL A   1      42.756  34.751  32.216  1.00  0.00    -0.354 N 
ATOM     65  N   UNL A   1      44.881  35.521  30.327  1.00  0.00    -0.248 NA
ATOM     66  C   UNL A   1      46.500  37.046  29.608  1.00  0.00     0.031 C 
ATOM     67  C   UNL A   1      42.318  36.110  33.916  1.00  0.00     0.029 A 
ATOM     68  C   UNL A   1      43.124  35.954  32.800  1.00  0.00     0.049 A 
ATOM     69  H   UNL A   1      43.151  34.379  31.395  1.00  0.00     0.167 HD
ATOM     70  C   UNL A   1      44.917  36.600  31.207  1.00  0.00     0.074 A 
ATOM     71  C   UNL A   1      45.958  37.487  30.733  1.00  0.00     0.031 C 
ATOM     72  C   UNL A   1      44.160  36.834  32.310  1.00  0.00     0.034 A 
BRANCH  59  73
ATOM     73  C   UNL A   1      39.965  32.411  33.482  1.00  0.00     0.023 A 
ATOM     74  C   UNL A   1      38.695  33.014  33.439  1.00  0.00     0.031 A 
ATOM     75  C   UNL A   1      40.153  31.344  34.378  1.00  0.00     0.131 A 
ATOM     76  C   UNL A   1      37.690  32.601  34.326  1.00  0.00     0.055 A 
ATOM     77  C   UNL A   1      39.122  30.880  35.200  1.00  0.00     0.041 A 
ATOM     78  F   UNL A   1      41.347  30.740  34.482  1.00  0.00    -0.206 F 
ATOM     79  C   UNL A   1      37.887  31.520  35.189  1.00  0.00     0.022 A 
BRANCH  76  80
ATOM     80  S   UNL A   1      36.178  33.595  34.444  1.00  0.00     0.124 S 
ATOM     81  O   UNL A   1      35.221  32.763  33.719  1.00  0.00    -0.237 OA
ATOM     82  O   UNL A   1      35.976  33.694  35.885  1.00  0.00    -0.237 OA
ATOM     83  O   UNL A   1      36.536  34.845  33.777  1.00  0.00    -0.744 OA
ENDBRANCH  76  80
ENDBRANCH  59  73
BRANCH  60  84
ATOM     84  C   UNL A   1      47.296  35.396  27.320  1.00  0.00     0.023 A 
ATOM     85  C   UNL A   1      48.627  34.977  27.472  1.00  0.00     0.031 A 
ATOM     86  C   UNL A   1      47.008  36.316  26.296  1.00  0.00     0.131 A 
ATOM     87  C   UNL A   1      49.629  35.518  26.651  1.00  0.00     0.055 A 
ATOM     88  C   UNL A   1      48.000  36.807  25.444  1.00  0.00     0.041 A 
ATOM     89  F   UNL A   1      45.752  36.748  26.103  1.00  0.00    -0.206 F 
ATOM     90  C   UNL A   1      49.323  36.419  25.630  1.00  0.00     0.022 A 
BRANCH  87  91
ATOM     91  S   UNL A   1      51.359  35.102  27.006  1.00  0.00     0.124 S 
ATOM     92  O   UNL A   1      51.332  33.645  26.949  1.00  0.00    -0.237 OA
ATOM     93  O   UNL A   1      52.060  35.775  25.919  1.00  0.00    -0.237 OA
ATOM     94  O   UNL A   1      51.580  35.671  28.334  1.00  0.00    -0.744 OA
ENDBRANCH  87  91
ENDBRANCH  60  84
BRANCH  72  95
ATOM     95  C   UNL A   1      44.472  38.081  33.103  1.00  0.00     0.023 A 
ATOM     96  C   UNL A   1      43.716  39.258  32.965  1.00  0.00     0.031 A 
ATOM     97  C   UNL A   1      45.554  38.092  34.002  1.00  0.00     0.131 A 
ATOM     98  C   UNL A   1      44.087  40.414  33.669  1.00  0.00     0.055 A 
ATOM     99  C   UNL A   1      45.879  39.226  34.747  1.00  0.00     0.041 A 
ATOM    100  F   UNL A   1      46.313  36.998  34.172  1.00  0.00    -0.206 F 
ATOM    101  C   UNL A   1      45.151  40.401  34.573  1.00  0.00     0.022 A 
BRANCH  98 102
ATOM    102  S   UNL A   1      43.216  41.965  33.314  1.00  0.00     0.124 S 
ATOM    103  O   UNL A   1      43.183  41.967  31.855  1.00  0.00    -0.237 OA
ATOM    104  O   UNL A   1      41.935  41.764  33.981  1.00  0.00    -0.237 OA
ATOM    105  O   UNL A   1      44.075  42.984  33.916  1.00  0.00    -0.744 OA
ENDBRANCH  98 102
ENDBRANCH  72  95
ENDBRANCH  46  47
ENDBRANCH  38  41
ENDBRANCH  36  37
ENDBRANCH  35  36
ENDBRANCH  34  35
ENDBRANCH  33  34
ENDBRANCH  32  33
ENDBRANCH  31  32
ENDBRANCH   3  31
TORSDOF 25
ENDMDL
MODEL 3
REMARK VINA RESULT:      -9.5      1.607      2.763
REMARK SMILES CCCCCCNC(=O)Oc1cccc(-c2ccc([C@@H](C)C(=O)NCCCCCCNC(=O)c3ccc(-c4c5nc(c(-c6cc(S(=O)(=O)[O-])ccc6F)c6ccc([nH]6)c(-c6cc(S(=O)(=O)[O-])ccc6F)c6nc(c(-c7cc(S(=O)(=O)[O-])ccc7F)c7ccc4[nH]7)C=C6)C=C5)cc3)cc2F)c1
REMARK SMILES IDX 22 1 23 2 24 3 20 5 21 6 19 7 16 8 17 9 98 10 18 11 97 12
REMARK SMILES IDX 99 13 15 14 11 15 12 16 100 17 13 18 14 19 10 20 8 21 7 22
REMARK SMILES IDX 9 24 6 25 5 26 4 27 3 28 2 29 1 30 25 31 26 32 27 33 28 34
REMARK SMILES IDX 29 35 30 36 31 37 32 38 33 40 34 41 35 42 96 43 36 44 95 45
REMARK SMILES IDX 37 46 38 47 39 48 89 49 40 50 94 51 88 52 90 53 41 54 93 55
REMARK SMILES IDX 87 56 86 57 42 59 74 60 54 61 73 62 55 63 58 64 72 65 91 66
REMARK SMILES IDX 56 67 57 68 71 70 92 71 59 72 43 73 44 74 52 75 45 76 51 77
REMARK SMILES IDX 53 78 50 79 46 80 47 81 48 82 49 83 75 84 76 85 84 86 77 87
REMARK SMILES IDX 83 88 85 89 82 90 78 91 79 92 80 93 81 94 60 95 61 96 69 97
REMARK SMILES IDX 62 98 68 99 70 100 67 101 63 102 64 103 65 104 66 105
REMARK H PARENT 24 4 7 23 31 39 90 58 58 69
REMARK Flexibility Score: inf
ROOT
ATOM      1  C   UNL A   1      36.599  32.019  29.501  1.00  0.00     0.227 C 
ATOM      2  O   UNL A   1      36.208  32.625  30.507  1.00  0.00    -0.274 OA
ATOM      3  N   UNL A   1      37.640  31.162  29.678  1.00  0.00    -0.356 N 
ATOM      4  H   UNL A   1      37.927  31.065  30.615  1.00  0.00     0.163 HD
ENDROOT
BRANCH   1   5
ATOM      5  C   UNL A   1      35.894  32.243  28.154  1.00  0.00     0.105 C 
ATOM      6  C   UNL A   1      35.319  33.648  27.982  1.00  0.00     0.023 C 
BRANCH   5   7
ATOM      7  C   UNL A   1      34.980  31.101  27.740  1.00  0.00    -0.033 A 
ATOM      8  C   UNL A   1      33.215  29.025  26.846  1.00  0.00     0.018 A 
ATOM      9  C   UNL A   1      34.586  28.799  27.051  1.00  0.00     0.012 A 
ATOM     10  C   UNL A   1      32.752  30.320  27.128  1.00  0.00     0.131 A 
ATOM     11  C   UNL A   1      35.438  29.799  27.528  1.00  0.00     0.005 A 
ATOM     12  C   UNL A   1      33.612  31.343  27.543  1.00  0.00     0.044 A 
ATOM     13  F   UNL A   1      31.448  30.620  27.018  1.00  0.00    -0.206 F 
BRANCH   8  14
ATOM     14  C   UNL A   1      32.342  27.934  26.357  1.00  0.00    -0.012 A 
ATOM     15  C   UNL A   1      30.902  26.942  24.669  1.00  0.00     0.133 A 
ATOM     16  C   UNL A   1      30.720  25.798  25.438  1.00  0.00     0.047 A 
ATOM     17  C   UNL A   1      31.697  28.001  25.112  1.00  0.00     0.056 A 
ATOM     18  C   UNL A   1      31.349  25.707  26.672  1.00  0.00     0.004 A 
ATOM     19  C   UNL A   1      32.138  26.768  27.128  1.00  0.00     0.009 A 
BRANCH  15  20
ATOM     20  O   UNL A   1      30.130  27.037  23.500  1.00  0.00    -0.410 OA
BRANCH  20  21
ATOM     21  C   UNL A   1      30.737  27.370  22.301  1.00  0.00     0.412 C 
ATOM     22  N   UNL A   1      30.155  28.454  21.703  1.00  0.00    -0.321 N 
ATOM     23  H   UNL A   1      30.513  28.724  20.827  1.00  0.00     0.167 HD
ATOM     24  O   UNL A   1      31.684  26.793  21.781  1.00  0.00    -0.224 OA
BRANCH  22  25
ATOM     25  C   UNL A   1      29.063  29.243  22.236  1.00  0.00     0.119 C 
BRANCH  25  26
ATOM     26  C   UNL A   1      28.824  30.507  21.411  1.00  0.00     0.021 C 
BRANCH  26  27
ATOM     27  C   UNL A   1      27.686  31.398  21.924  1.00  0.00     0.002 C 
BRANCH  27  28
ATOM     28  C   UNL A   1      27.773  31.785  23.404  1.00  0.00    -0.000 C 
BRANCH  28  29
ATOM     29  C   UNL A   1      29.118  32.359  23.853  1.00  0.00    -0.003 C 
ATOM     30  C   UNL A   1      29.357  33.779  23.365  1.00  0.00     0.004 C 
ENDBRANCH  28  29
ENDBRANCH  27  28
ENDBRANCH  26  27
ENDBRANCH  25  26
ENDBRANCH  22  25
ENDBRANCH  20  21
ENDBRANCH  15  20
ENDBRANCH   8  14
ENDBRANCH   5   7
ENDBRANCH   1   5
BRANCH   3  31
ATOM     31  C   UNL A   1      38.404  30.367  28.739  1.00  0.00     0.116 C 
BRANCH  31  32
ATOM     32  C   UNL A   1      38.294  28.871  29.043  1.00  0.00     0.021 C 
BRANCH  32  33
ATOM     33  C   UNL A   1      39.344  28.019  28.323  1.00  0.00     0.002 C 
BRANCH  33  34
ATOM     34  C   UNL A   1      39.563  26.623  28.921  1.00  0.00     0.002 C 
BRANCH  34  35
ATOM     35  C   UNL A   1      40.594  25.752  28.194  1.00  0.00     0.021 C 
BRANCH  35  36
ATOM     36  C   UNL A   1      40.426  25.704  26.678  1.00  0.00     0.116 C 
BRANCH  36  37
ATOM     37  N   UNL A   1      41.669  25.342  26.015  1.00  0.00    -0.352 N 
ATOM     38  C   UNL A   1      42.791  26.099  25.788  1.00  0.00     0.251 C 
ATOM     39  H   UNL A   1      41.711  24.418  25.680  1.00  0.00     0.163 HD
ATOM     40  O   UNL A   1      43.629  25.714  24.977  1.00  0.00    -0.269 OA
BRANCH  38  41
ATOM     41  C   UNL A   1      42.983  27.375  26.510  1.00  0.00     0.039 A 
ATOM     42  C   UNL A   1      42.333  28.522  26.048  1.00  0.00     0.014 A 
ATOM     43  C   UNL A   1      43.825  27.446  27.624  1.00  0.00     0.014 A 
ATOM     44  C   UNL A   1      42.484  29.728  26.737  1.00  0.00     0.010 A 
ATOM     45  C   UNL A   1      43.916  28.631  28.351  1.00  0.00     0.010 A 
ATOM     46  C   UNL A   1      43.251  29.786  27.912  1.00  0.00    -0.014 A 
BRANCH  46  47
ATOM     47  C   UNL A   1      43.378  31.047  28.688  1.00  0.00     0.031 A 
ATOM     48  C   UNL A   1      44.427  32.060  28.316  1.00  0.00     0.074 A 
ATOM     49  C   UNL A   1      42.587  31.252  29.761  1.00  0.00     0.049 A 
ATOM     50  N   UNL A   1      44.746  33.180  28.913  1.00  0.00    -0.248 NA
ATOM     51  C   UNL A   1      45.244  31.757  27.131  1.00  0.00     0.031 C 
ATOM     52  C   UNL A   1      41.556  30.329  30.237  1.00  0.00     0.029 A 
ATOM     53  N   UNL A   1      42.530  32.298  30.648  1.00  0.00    -0.354 N 
ATOM     54  C   UNL A   1      45.803  33.712  28.182  1.00  0.00     0.074 A 
ATOM     55  C   UNL A   1      46.113  32.755  27.140  1.00  0.00     0.031 C 
ATOM     56  C   UNL A   1      40.950  30.862  31.311  1.00  0.00     0.029 A 
ATOM     57  C   UNL A   1      41.581  32.138  31.631  1.00  0.00     0.049 A 
ATOM     58  H   UNL A   1      43.112  33.089  30.586  1.00  0.00     0.167 HD
ATOM     59  C   UNL A   1      46.440  34.899  28.348  1.00  0.00     0.034 A 
ATOM     60  C   UNL A   1      41.265  32.923  32.681  1.00  0.00     0.034 A 
ATOM     61  C   UNL A   1      46.114  35.843  29.390  1.00  0.00     0.049 A 
ATOM     62  C   UNL A   1      42.016  34.218  32.871  1.00  0.00     0.074 A 
ATOM     63  C   UNL A   1      46.664  37.090  29.627  1.00  0.00     0.029 A 
ATOM     64  N   UNL A   1      45.155  35.641  30.375  1.00  0.00    -0.354 N 
ATOM     65  N   UNL A   1      42.986  34.726  32.145  1.00  0.00    -0.248 NA
ATOM     66  C   UNL A   1      41.623  35.049  34.016  1.00  0.00     0.031 C 
ATOM     67  C   UNL A   1      46.090  37.611  30.792  1.00  0.00     0.029 A 
ATOM     68  C   UNL A   1      45.122  36.726  31.238  1.00  0.00     0.049 A 
ATOM     69  H   UNL A   1      44.582  34.845  30.450  1.00  0.00     0.167 HD
ATOM     70  C   UNL A   1      43.291  35.953  32.728  1.00  0.00     0.074 A 
ATOM     71  C   UNL A   1      42.394  36.113  33.853  1.00  0.00     0.031 C 
ATOM     72  C   UNL A   1      44.226  36.868  32.363  1.00  0.00     0.034 A 
BRANCH  59  73
ATOM     73  C   UNL A   1      47.567  35.223  27.395  1.00  0.00     0.023 A 
ATOM     74  C   UNL A   1      48.900  34.881  27.686  1.00  0.00     0.031 A 
ATOM     75  C   UNL A   1      47.313  35.907  26.193  1.00  0.00     0.131 A 
ATOM     76  C   UNL A   1      49.933  35.289  26.829  1.00  0.00     0.055 A 
ATOM     77  C   UNL A   1      48.337  36.236  25.301  1.00  0.00     0.041 A 
ATOM     78  F   UNL A   1      46.065  36.280  25.868  1.00  0.00    -0.206 F 
ATOM     79  C   UNL A   1      49.658  35.942  25.625  1.00  0.00     0.022 A 
BRANCH  76  80
ATOM     80  S   UNL A   1      51.648  35.091  27.385  1.00  0.00     0.124 S 
ATOM     81  O   UNL A   1      51.638  33.718  27.884  1.00  0.00    -0.237 OA
ATOM     82  O   UNL A   1      52.405  35.321  26.161  1.00  0.00    -0.237 OA
ATOM     83  O   UNL A   1      51.796  36.119  28.413  1.00  0.00    -0.744 OA
ENDBRANCH  76  80
ENDBRANCH  59  73
BRANCH  60  84
ATOM     84  C   UNL A   1      40.199  32.515  33.641  1.00  0.00     0.023 A 
ATOM     85  C   UNL A   1      38.904  33.048  33.550  1.00  0.00     0.031 A 
ATOM     86  C   UNL A   1      40.472  31.625  34.695  1.00  0.00     0.131 A 
ATOM     87  C   UNL A   1      37.946  32.731  34.526  1.00  0.00     0.055 A 
ATOM     88  C   UNL A   1      39.498  31.266  35.630  1.00  0.00     0.041 A 
ATOM     89  F   UNL A   1      41.692  31.082  34.828  1.00  0.00    -0.206 F 
ATOM     90  C   UNL A   1      38.230  31.833  35.556  1.00  0.00     0.022 A 
BRANCH  87  91
ATOM     91  S   UNL A   1      36.349  33.591  34.485  1.00  0.00     0.124 S 
ATOM     92  O   UNL A   1      35.528  32.657  33.724  1.00  0.00    -0.237 OA
ATOM     93  O   UNL A   1      36.036  33.713  35.904  1.00  0.00    -0.237 OA
ATOM     94  O   UNL A   1      36.658  34.848  33.807  1.00  0.00    -0.744 OA
ENDBRANCH  87  91
ENDBRANCH  60  84
BRANCH  72  95
ATOM     95  C   UNL A   1      44.285  38.146  33.167  1.00  0.00     0.023 A 
ATOM     96  C   UNL A   1      43.456  39.243  32.877  1.00  0.00     0.031 A 
ATOM     97  C   UNL A   1      45.196  38.268  34.231  1.00  0.00     0.131 A 
ATOM     98  C   UNL A   1      43.595  40.435  33.604  1.00  0.00     0.055 A 
ATOM     99  C   UNL A   1      45.286  39.434  34.992  1.00  0.00     0.041 A 
ATOM    100  F   UNL A   1      46.015  37.253  34.550  1.00  0.00    -0.206 F 
ATOM    101  C   UNL A   1      44.491  40.532  34.671  1.00  0.00     0.022 A 
BRANCH  98 102
ATOM    102  S   UNL A   1      42.654  41.893  33.074  1.00  0.00     0.124 S 
ATOM    103  O   UNL A   1      41.893  42.216  34.275  1.00  0.00    -0.237 OA
ATOM    104  O   UNL A   1      43.711  42.833  32.715  1.00  0.00    -0.237 OA
ATOM    105  O   UNL A   1      41.860  41.397  31.951  1.00  0.00    -0.744 OA
ENDBRANCH  98 102
ENDBRANCH  72  95
ENDBRANCH  46  47
ENDBRANCH  38  41
ENDBRANCH  36  37
ENDBRANCH  35  36
ENDBRANCH  34  35
ENDBRANCH  33  34
ENDBRANCH  32  33
ENDBRANCH  31  32
ENDBRANCH   3  31
TORSDOF 25
ENDMDL
