MODEL 1
REMARK VINA RESULT:     -11.4      0.000      0.000
REMARK SMILES COc1ccc(C(F)(F)F)cc1-c1cccnc1C(=O)NCCCCCCNC(=O)c1ccc(-c2c3nc(c(-c4cc(S(=O)(=O)[O-])ccc4F)c4ccc([nH]4)c(-c4cc(S(=O)(=O)[O-])ccc4F)c4nc(c(-c5cc(S(=O)(=O)[O-])ccc5F)c5ccc2[nH]5)C=C4)C=C3)cc1
REMARK SMILES IDX 25 1 24 2 23 3 22 4 21 5 19 6 20 7 18 9 13 10 14 11 15 12
REMARK SMILES IDX 17 13 16 14 12 15 3 16 4 17 5 18 11 19 6 20 2 21 1 22 7 23
REMARK SMILES IDX 8 24 9 25 10 26 26 27 27 28 28 29 29 30 30 32 31 33 32 34
REMARK SMILES IDX 93 35 33 36 92 37 34 38 35 39 36 40 86 41 37 42 91 43 85 44
REMARK SMILES IDX 87 45 38 46 90 47 84 48 83 49 39 51 71 52 51 53 70 54 52 55
REMARK SMILES IDX 55 56 69 57 88 58 53 59 54 60 68 62 89 63 56 64 40 65 41 66
REMARK SMILES IDX 49 67 42 68 48 69 50 70 47 71 43 72 44 73 45 74 46 75 72 76
REMARK SMILES IDX 73 77 81 78 74 79 80 80 82 81 79 82 75 83 76 84 77 85 78 86
REMARK SMILES IDX 57 87 58 88 66 89 59 90 65 91 67 92 64 93 60 94 61 95 62 96
REMARK SMILES IDX 63 97
REMARK H PARENT 21 8 28 31 87 50 55 61
REMARK Flexibility Score: inf
ROOT
ATOM      1  C   UNL A   1      34.348  22.982  26.759  1.00  0.00     0.002 C 
ENDROOT
BRANCH   1   2
ATOM      2  C   UNL A   1      32.897  22.565  27.028  1.00  0.00     0.002 C 
BRANCH   2   3
ATOM      3  C   UNL A   1      31.844  23.667  27.187  1.00  0.00     0.021 C 
BRANCH   3   4
ATOM      4  C   UNL A   1      30.476  23.437  26.556  1.00  0.00     0.116 C 
BRANCH   4   5
ATOM      5  N   UNL A   1      30.078  24.293  25.474  1.00  0.00    -0.351 N 
ATOM      6  C   UNL A   1      30.610  24.436  24.203  1.00  0.00     0.270 C 
ATOM      7  O   UNL A   1      29.937  25.127  23.429  1.00  0.00    -0.267 OA
ATOM      8  H   UNL A   1      29.303  24.868  25.666  1.00  0.00     0.163 HD
BRANCH   6   9
ATOM      9  C   UNL A   1      31.949  23.893  23.704  1.00  0.00     0.136 A 
ATOM     10  C   UNL A   1      33.162  24.581  23.510  1.00  0.00     0.017 A 
ATOM     11  C   UNL A   1      34.295  23.801  23.168  1.00  0.00     0.013 A 
ATOM     12  C   UNL A   1      34.214  22.425  23.019  1.00  0.00     0.021 A 
ATOM     13  N   UNL A   1      31.875  22.530  23.545  1.00  0.00    -0.250 NA
ATOM     14  C   UNL A   1      32.986  21.839  23.216  1.00  0.00     0.112 A 
BRANCH  10  15
ATOM     15  C   UNL A   1      33.389  26.025  23.630  1.00  0.00     0.027 A 
ATOM     16  C   UNL A   1      33.508  26.866  22.496  1.00  0.00     0.126 A 
ATOM     17  C   UNL A   1      33.743  28.233  22.648  1.00  0.00     0.048 A 
ATOM     18  C   UNL A   1      33.844  28.792  23.923  1.00  0.00     0.017 A 
ATOM     19  C   UNL A   1      33.532  26.603  24.906  1.00  0.00     0.025 A 
ATOM     20  C   UNL A   1      33.739  27.985  25.066  1.00  0.00     0.056 A 
BRANCH  16  21
ATOM     21  O   UNL A   1      33.531  26.403  21.202  1.00  0.00    -0.496 OA
ATOM     22  C   UNL A   1      32.287  25.891  20.723  1.00  0.00     0.278 C 
ENDBRANCH  16  21
BRANCH  20  23
ATOM     23  C   UNL A   1      33.765  28.602  26.445  1.00  0.00     0.416 C 
ATOM     24  F   UNL A   1      32.894  28.019  27.309  1.00  0.00    -0.166 F 
ATOM     25  F   UNL A   1      34.996  28.500  27.019  1.00  0.00    -0.166 F 
ATOM     26  F   UNL A   1      33.466  29.930  26.445  1.00  0.00    -0.166 F 
ENDBRANCH  20  23
ENDBRANCH  10  15
ENDBRANCH   6   9
ENDBRANCH   4   5
ENDBRANCH   3   4
ENDBRANCH   2   3
ENDBRANCH   1   2
BRANCH   1  27
ATOM     27  C   UNL A   1      35.380  21.873  26.540  1.00  0.00     0.021 C 
BRANCH  27  28
ATOM     28  C   UNL A   1      36.602  22.205  25.689  1.00  0.00     0.116 C 
BRANCH  28  29
ATOM     29  N   UNL A   1      37.663  21.227  25.821  1.00  0.00    -0.352 N 
ATOM     30  C   UNL A   1      38.988  21.360  26.164  1.00  0.00     0.251 C 
ATOM     31  H   UNL A   1      37.387  20.302  25.629  1.00  0.00     0.163 HD
ATOM     32  O   UNL A   1      39.714  20.374  26.049  1.00  0.00    -0.269 OA
BRANCH  30  33
ATOM     33  C   UNL A   1      39.570  22.644  26.643  1.00  0.00     0.039 A 
ATOM     34  C   UNL A   1      39.193  23.823  25.987  1.00  0.00     0.014 A 
ATOM     35  C   UNL A   1      40.532  22.715  27.654  1.00  0.00     0.014 A 
ATOM     36  C   UNL A   1      39.744  25.055  26.360  1.00  0.00     0.010 A 
ATOM     37  C   UNL A   1      41.025  23.955  28.079  1.00  0.00     0.010 A 
ATOM     38  C   UNL A   1      40.651  25.139  27.426  1.00  0.00    -0.014 A 
BRANCH  38  39
ATOM     39  C   UNL A   1      41.238  26.449  27.832  1.00  0.00     0.031 A 
ATOM     40  C   UNL A   1      42.668  26.785  27.486  1.00  0.00     0.074 A 
ATOM     41  C   UNL A   1      40.498  27.333  28.532  1.00  0.00     0.049 A 
ATOM     42  N   UNL A   1      43.367  27.853  27.782  1.00  0.00    -0.248 NA
ATOM     43  C   UNL A   1      43.418  25.772  26.728  1.00  0.00     0.031 C 
ATOM     44  C   UNL A   1      39.112  27.122  28.956  1.00  0.00     0.029 A 
ATOM     45  N   UNL A   1      40.803  28.584  29.012  1.00  0.00    -0.354 N 
ATOM     46  C   UNL A   1      44.638  27.636  27.258  1.00  0.00     0.074 A 
ATOM     47  C   UNL A   1      44.629  26.306  26.684  1.00  0.00     0.031 C 
ATOM     48  C   UNL A   1      38.679  28.216  29.605  1.00  0.00     0.029 A 
ATOM     49  C   UNL A   1      39.765  29.188  29.684  1.00  0.00     0.049 A 
ATOM     50  H   UNL A   1      41.682  29.008  28.885  1.00  0.00     0.167 HD
ATOM     51  C   UNL A   1      45.707  28.473  27.234  1.00  0.00     0.034 A 
ATOM     52  C   UNL A   1      39.695  30.386  30.301  1.00  0.00     0.034 A 
ATOM     53  C   UNL A   1      45.701  29.802  27.797  1.00  0.00     0.049 A 
ATOM     54  C   UNL A   1      40.901  31.292  30.279  1.00  0.00     0.074 A 
ATOM     55  C   UNL A   1      46.713  30.748  27.789  1.00  0.00     0.029 A 
ATOM     56  N   UNL A   1      44.632  30.378  28.473  1.00  0.00    -0.354 N 
ATOM     57  N   UNL A   1      42.082  31.085  29.744  1.00  0.00    -0.248 NA
ATOM     58  C   UNL A   1      40.757  32.600  30.932  1.00  0.00     0.031 C 
ATOM     59  C   UNL A   1      46.281  31.863  28.516  1.00  0.00     0.029 A 
ATOM     60  C   UNL A   1      44.970  31.650  28.909  1.00  0.00     0.049 A 
ATOM     61  H   UNL A   1      43.760  29.945  28.620  1.00  0.00     0.167 HD
ATOM     62  C   UNL A   1      42.808  32.252  29.967  1.00  0.00     0.074 A 
ATOM     63  C   UNL A   1      41.926  33.162  30.669  1.00  0.00     0.031 C 
ATOM     64  C   UNL A   1      44.088  32.547  29.619  1.00  0.00     0.034 A 
BRANCH  51  65
ATOM     65  C   UNL A   1      46.980  27.958  26.599  1.00  0.00     0.023 A 
ATOM     66  C   UNL A   1      47.245  28.130  25.229  1.00  0.00     0.031 A 
ATOM     67  C   UNL A   1      47.931  27.262  27.367  1.00  0.00     0.131 A 
ATOM     68  C   UNL A   1      48.384  27.546  24.655  1.00  0.00     0.055 A 
ATOM     69  C   UNL A   1      49.106  26.758  26.806  1.00  0.00     0.041 A 
ATOM     70  F   UNL A   1      47.727  27.048  28.676  1.00  0.00    -0.206 F 
ATOM     71  C   UNL A   1      49.331  26.883  25.439  1.00  0.00     0.022 A 
BRANCH  68  72
ATOM     72  S   UNL A   1      48.531  27.530  22.846  1.00  0.00     0.124 S 
ATOM     73  O   UNL A   1      47.321  28.244  22.447  1.00  0.00    -0.237 OA
ATOM     74  O   UNL A   1      49.791  28.229  22.625  1.00  0.00    -0.237 OA
ATOM     75  O   UNL A   1      48.541  26.105  22.517  1.00  0.00    -0.744 OA
ENDBRANCH  68  72
ENDBRANCH  51  65
BRANCH  52  76
ATOM     76  C   UNL A   1      38.444  30.806  30.997  1.00  0.00     0.023 A 
ATOM     77  C   UNL A   1      37.414  31.464  30.304  1.00  0.00     0.031 A 
ATOM     78  C   UNL A   1      38.279  30.599  32.378  1.00  0.00     0.131 A 
ATOM     79  C   UNL A   1      36.290  31.936  31.002  1.00  0.00     0.055 A 
ATOM     80  C   UNL A   1      37.136  31.020  33.057  1.00  0.00     0.041 A 
ATOM     81  F   UNL A   1      39.231  29.972  33.088  1.00  0.00    -0.206 F 
ATOM     82  C   UNL A   1      36.138  31.706  32.371  1.00  0.00     0.022 A 
BRANCH  79  83
ATOM     83  S   UNL A   1      35.070  32.937  30.109  1.00  0.00     0.124 S 
ATOM     84  O   UNL A   1      34.151  33.310  31.179  1.00  0.00    -0.237 OA
ATOM     85  O   UNL A   1      35.898  34.012  29.572  1.00  0.00    -0.237 OA
ATOM     86  O   UNL A   1      34.532  32.012  29.115  1.00  0.00    -0.744 OA
ENDBRANCH  79  83
ENDBRANCH  52  76
BRANCH  64  87
ATOM     87  C   UNL A   1      44.587  33.935  29.951  1.00  0.00     0.023 A 
ATOM     88  C   UNL A   1      45.181  34.234  31.189  1.00  0.00     0.031 A 
ATOM     89  C   UNL A   1      44.441  34.979  29.020  1.00  0.00     0.131 A 
ATOM     90  C   UNL A   1      45.547  35.554  31.490  1.00  0.00     0.055 A 
ATOM     91  C   UNL A   1      44.866  36.278  29.299  1.00  0.00     0.041 A 
ATOM     92  F   UNL A   1      43.880  34.754  27.821  1.00  0.00    -0.206 F 
ATOM     93  C   UNL A   1      45.408  36.576  30.547  1.00  0.00     0.022 A 
BRANCH  90  94
ATOM     94  S   UNL A   1      46.105  35.943  33.172  1.00  0.00     0.124 S 
ATOM     95  O   UNL A   1      47.557  35.944  33.017  1.00  0.00    -0.237 OA
ATOM     96  O   UNL A   1      45.489  37.244  33.412  1.00  0.00    -0.237 OA
ATOM     97  O   UNL A   1      45.567  34.845  33.974  1.00  0.00    -0.744 OA
ENDBRANCH  90  94
ENDBRANCH  64  87
ENDBRANCH  38  39
ENDBRANCH  30  33
ENDBRANCH  28  29
ENDBRANCH  27  28
ENDBRANCH   1  27
TORSDOF 19
ENDMDL
MODEL 2
REMARK VINA RESULT:     -11.4      2.048      2.645
REMARK SMILES COc1ccc(C(F)(F)F)cc1-c1cccnc1C(=O)NCCCCCCNC(=O)c1ccc(-c2c3nc(c(-c4cc(S(=O)(=O)[O-])ccc4F)c4ccc([nH]4)c(-c4cc(S(=O)(=O)[O-])ccc4F)c4nc(c(-c5cc(S(=O)(=O)[O-])ccc5F)c5ccc2[nH]5)C=C4)C=C3)cc1
REMARK SMILES IDX 25 1 24 2 23 3 22 4 21 5 19 6 20 7 18 9 13 10 14 11 15 12
REMARK SMILES IDX 17 13 16 14 12 15 3 16 4 17 5 18 11 19 6 20 2 21 1 22 7 23
REMARK SMILES IDX 8 24 9 25 10 26 26 27 27 28 28 29 29 30 30 32 31 33 32 34
REMARK SMILES IDX 93 35 33 36 92 37 34 38 35 39 36 40 86 41 37 42 91 43 85 44
REMARK SMILES IDX 87 45 38 46 90 47 84 48 83 49 39 51 71 52 51 53 70 54 52 55
REMARK SMILES IDX 55 56 69 57 88 58 53 59 54 60 68 62 89 63 56 64 40 65 41 66
REMARK SMILES IDX 49 67 42 68 48 69 50 70 47 71 43 72 44 73 45 74 46 75 72 76
REMARK SMILES IDX 73 77 81 78 74 79 80 80 82 81 79 82 75 83 76 84 77 85 78 86
REMARK SMILES IDX 57 87 58 88 66 89 59 90 65 91 67 92 64 93 60 94 61 95 62 96
REMARK SMILES IDX 63 97
REMARK H PARENT 21 8 28 31 87 50 55 61
REMARK Flexibility Score: inf
ROOT
ATOM      1  C   UNL A   1      34.519  24.215  25.389  1.00  0.00     0.002 C 
ENDROOT
BRANCH   1   2
ATOM      2  C   UNL A   1      33.170  23.649  25.851  1.00  0.00     0.002 C 
BRANCH   2   3
ATOM      3  C   UNL A   1      32.148  24.617  26.456  1.00  0.00     0.021 C 
BRANCH   3   4
ATOM      4  C   UNL A   1      30.674  24.242  26.359  1.00  0.00     0.116 C 
BRANCH   4   5
ATOM      5  N   UNL A   1      29.783  25.166  25.716  1.00  0.00    -0.351 N 
ATOM      6  C   UNL A   1      29.906  25.840  24.512  1.00  0.00     0.270 C 
ATOM      7  O   UNL A   1      28.888  26.433  24.138  1.00  0.00    -0.267 OA
ATOM      8  H   UNL A   1      28.951  25.349  26.210  1.00  0.00     0.163 HD
BRANCH   6   9
ATOM      9  C   UNL A   1      31.170  25.972  23.662  1.00  0.00     0.136 A 
ATOM     10  C   UNL A   1      32.164  26.968  23.710  1.00  0.00     0.017 A 
ATOM     11  C   UNL A   1      33.308  26.772  22.898  1.00  0.00     0.013 A 
ATOM     12  C   UNL A   1      33.442  25.659  22.083  1.00  0.00     0.021 A 
ATOM     13  N   UNL A   1      31.305  24.875  22.845  1.00  0.00    -0.250 NA
ATOM     14  C   UNL A   1      32.416  24.743  22.091  1.00  0.00     0.112 A 
BRANCH  10  15
ATOM     15  C   UNL A   1      32.151  28.192  24.518  1.00  0.00     0.027 A 
ATOM     16  C   UNL A   1      31.154  29.186  24.364  1.00  0.00     0.126 A 
ATOM     17  C   UNL A   1      31.184  30.348  25.138  1.00  0.00     0.048 A 
ATOM     18  C   UNL A   1      32.190  30.534  26.088  1.00  0.00     0.017 A 
ATOM     19  C   UNL A   1      33.178  28.418  25.456  1.00  0.00     0.025 A 
ATOM     20  C   UNL A   1      33.197  29.573  26.258  1.00  0.00     0.056 A 
BRANCH  16  21
ATOM     21  O   UNL A   1      30.185  29.151  23.389  1.00  0.00    -0.496 OA
ATOM     22  C   UNL A   1      29.317  30.284  23.360  1.00  0.00     0.278 C 
ENDBRANCH  16  21
BRANCH  20  23
ATOM     23  C   UNL A   1      34.236  29.736  27.342  1.00  0.00     0.416 C 
ATOM     24  F   UNL A   1      33.987  30.786  28.169  1.00  0.00    -0.166 F 
ATOM     25  F   UNL A   1      34.310  28.635  28.140  1.00  0.00    -0.166 F 
ATOM     26  F   UNL A   1      35.493  29.927  26.857  1.00  0.00    -0.166 F 
ENDBRANCH  20  23
ENDBRANCH  10  15
ENDBRANCH   6   9
ENDBRANCH   4   5
ENDBRANCH   3   4
ENDBRANCH   2   3
ENDBRANCH   1   2
BRANCH   1  27
ATOM     27  C   UNL A   1      35.520  23.245  24.757  1.00  0.00     0.021 C 
BRANCH  27  28
ATOM     28  C   UNL A   1      36.995  23.631  24.795  1.00  0.00     0.116 C 
BRANCH  28  29
ATOM     29  N   UNL A   1      37.824  22.630  25.436  1.00  0.00    -0.352 N 
ATOM     30  C   UNL A   1      38.939  22.744  26.232  1.00  0.00     0.251 C 
ATOM     31  H   UNL A   1      37.538  21.703  25.273  1.00  0.00     0.163 HD
ATOM     32  O   UNL A   1      39.547  21.714  26.523  1.00  0.00    -0.269 OA
BRANCH  30  33
ATOM     33  C   UNL A   1      39.443  24.053  26.730  1.00  0.00     0.039 A 
ATOM     34  C   UNL A   1      39.169  24.400  28.060  1.00  0.00     0.014 A 
ATOM     35  C   UNL A   1      40.097  24.980  25.915  1.00  0.00     0.014 A 
ATOM     36  C   UNL A   1      39.574  25.639  28.573  1.00  0.00     0.010 A 
ATOM     37  C   UNL A   1      40.570  26.185  26.448  1.00  0.00     0.010 A 
ATOM     38  C   UNL A   1      40.299  26.538  27.778  1.00  0.00    -0.014 A 
BRANCH  38  39
ATOM     39  C   UNL A   1      40.738  27.858  28.320  1.00  0.00     0.031 A 
ATOM     40  C   UNL A   1      42.207  28.176  28.456  1.00  0.00     0.074 A 
ATOM     41  C   UNL A   1      39.822  28.766  28.711  1.00  0.00     0.049 A 
ATOM     42  N   UNL A   1      42.785  29.249  28.937  1.00  0.00    -0.248 NA
ATOM     43  C   UNL A   1      43.150  27.136  28.017  1.00  0.00     0.031 C 
ATOM     44  C   UNL A   1      38.371  28.575  28.659  1.00  0.00     0.029 A 
ATOM     45  N   UNL A   1      39.969  30.029  29.231  1.00  0.00    -0.354 N 
ATOM     46  C   UNL A   1      44.154  29.010  28.870  1.00  0.00     0.074 A 
ATOM     47  C   UNL A   1      44.315  27.664  28.361  1.00  0.00     0.031 C 
ATOM     48  C   UNL A   1      37.764  29.690  29.099  1.00  0.00     0.029 A 
ATOM     49  C   UNL A   1      38.776  30.659  29.506  1.00  0.00     0.049 A 
ATOM     50  H   UNL A   1      40.847  30.446  29.390  1.00  0.00     0.167 HD
ATOM     51  C   UNL A   1      45.183  29.840  29.177  1.00  0.00     0.034 A 
ATOM     52  C   UNL A   1      38.524  31.875  30.032  1.00  0.00     0.034 A 
ATOM     53  C   UNL A   1      45.011  31.187  29.670  1.00  0.00     0.049 A 
ATOM     54  C   UNL A   1      39.683  32.774  30.385  1.00  0.00     0.074 A 
ATOM     55  C   UNL A   1      45.983  32.127  29.972  1.00  0.00     0.029 A 
ATOM     56  N   UNL A   1      43.787  31.787  29.939  1.00  0.00    -0.354 N 
ATOM     57  N   UNL A   1      40.971  32.546  30.277  1.00  0.00    -0.248 NA
ATOM     58  C   UNL A   1      39.351  34.102  30.919  1.00  0.00     0.031 C 
ATOM     59  C   UNL A   1      45.351  33.266  30.485  1.00  0.00     0.029 A 
ATOM     60  C   UNL A   1      43.980  33.071  30.428  1.00  0.00     0.049 A 
ATOM     61  H   UNL A   1      42.909  31.363  29.802  1.00  0.00     0.167 HD
ATOM     62  C   UNL A   1      41.600  33.715  30.695  1.00  0.00     0.074 A 
ATOM     63  C   UNL A   1      40.549  34.650  31.042  1.00  0.00     0.031 C 
ATOM     64  C   UNL A   1      42.927  33.993  30.782  1.00  0.00     0.034 A 
BRANCH  51  65
ATOM     65  C   UNL A   1      46.586  29.301  29.013  1.00  0.00     0.023 A 
ATOM     66  C   UNL A   1      47.193  29.190  27.749  1.00  0.00     0.031 A 
ATOM     67  C   UNL A   1      47.321  28.866  30.131  1.00  0.00     0.131 A 
ATOM     68  C   UNL A   1      48.453  28.585  27.625  1.00  0.00     0.055 A 
ATOM     69  C   UNL A   1      48.611  28.345  30.010  1.00  0.00     0.041 A 
ATOM     70  F   UNL A   1      46.790  28.928  31.363  1.00  0.00    -0.206 F 
ATOM     71  C   UNL A   1      49.179  28.185  28.750  1.00  0.00     0.022 A 
BRANCH  68  72
ATOM     72  S   UNL A   1      49.062  28.185  25.963  1.00  0.00     0.124 S 
ATOM     73  O   UNL A   1      50.197  29.096  25.840  1.00  0.00    -0.237 OA
ATOM     74  O   UNL A   1      49.386  26.769  26.077  1.00  0.00    -0.237 OA
ATOM     75  O   UNL A   1      47.925  28.499  25.098  1.00  0.00    -0.744 OA
ENDBRANCH  68  72
ENDBRANCH  51  65
BRANCH  52  76
ATOM     76  C   UNL A   1      37.119  32.322  30.264  1.00  0.00     0.023 A 
ATOM     77  C   UNL A   1      36.389  32.973  29.256  1.00  0.00     0.031 A 
ATOM     78  C   UNL A   1      36.502  32.149  31.516  1.00  0.00     0.131 A 
ATOM     79  C   UNL A   1      35.105  33.470  29.530  1.00  0.00     0.055 A 
ATOM     80  C   UNL A   1      35.204  32.595  31.767  1.00  0.00     0.041 A 
ATOM     81  F   UNL A   1      37.154  31.530  32.514  1.00  0.00    -0.206 F 
ATOM     82  C   UNL A   1      34.503  33.273  30.775  1.00  0.00     0.022 A 
BRANCH  79  83
ATOM     83  S   UNL A   1      34.267  34.461  28.264  1.00  0.00     0.124 S 
ATOM     84  O   UNL A   1      33.034  33.708  28.065  1.00  0.00    -0.237 OA
ATOM     85  O   UNL A   1      34.130  35.751  28.932  1.00  0.00    -0.237 OA
ATOM     86  O   UNL A   1      35.202  34.440  27.141  1.00  0.00    -0.744 OA
ENDBRANCH  79  83
ENDBRANCH  52  76
BRANCH  64  87
ATOM     87  C   UNL A   1      43.309  35.388  31.222  1.00  0.00     0.023 A 
ATOM     88  C   UNL A   1      43.356  35.751  32.579  1.00  0.00     0.031 A 
ATOM     89  C   UNL A   1      43.605  36.375  30.264  1.00  0.00     0.131 A 
ATOM     90  C   UNL A   1      43.626  37.080  32.940  1.00  0.00     0.055 A 
ATOM     91  C   UNL A   1      43.936  37.679  30.631  1.00  0.00     0.041 A 
ATOM     92  F   UNL A   1      43.574  36.087  28.954  1.00  0.00    -0.206 F 
ATOM     93  C   UNL A   1      43.932  38.043  31.975  1.00  0.00     0.022 A 
BRANCH  90  94
ATOM     94  S   UNL A   1      43.463  37.561  34.682  1.00  0.00     0.124 S 
ATOM     95  O   UNL A   1      43.864  38.964  34.648  1.00  0.00    -0.237 OA
ATOM     96  O   UNL A   1      42.050  37.308  34.944  1.00  0.00    -0.237 OA
ATOM     97  O   UNL A   1      44.391  36.666  35.373  1.00  0.00    -0.744 OA
ENDBRANCH  90  94
ENDBRANCH  64  87
ENDBRANCH  38  39
ENDBRANCH  30  33
ENDBRANCH  28  29
ENDBRANCH  27  28
ENDBRANCH   1  27
TORSDOF 19
ENDMDL
MODEL 3
REMARK VINA RESULT:     -11.4      5.031      7.971
REMARK SMILES COc1ccc(C(F)(F)F)cc1-c1cccnc1C(=O)NCCCCCCNC(=O)c1ccc(-c2c3nc(c(-c4cc(S(=O)(=O)[O-])ccc4F)c4ccc([nH]4)c(-c4cc(S(=O)(=O)[O-])ccc4F)c4nc(c(-c5cc(S(=O)(=O)[O-])ccc5F)c5ccc2[nH]5)C=C4)C=C3)cc1
REMARK SMILES IDX 25 1 24 2 23 3 22 4 21 5 19 6 20 7 18 9 13 10 14 11 15 12
REMARK SMILES IDX 17 13 16 14 12 15 3 16 4 17 5 18 11 19 6 20 2 21 1 22 7 23
REMARK SMILES IDX 8 24 9 25 10 26 26 27 27 28 28 29 29 30 30 32 31 33 32 34
REMARK SMILES IDX 93 35 33 36 92 37 34 38 35 39 36 40 86 41 37 42 91 43 85 44
REMARK SMILES IDX 87 45 38 46 90 47 84 48 83 49 39 51 71 52 51 53 70 54 52 55
REMARK SMILES IDX 55 56 69 57 88 58 53 59 54 60 68 62 89 63 56 64 40 65 41 66
REMARK SMILES IDX 49 67 42 68 48 69 50 70 47 71 43 72 44 73 45 74 46 75 72 76
REMARK SMILES IDX 73 77 81 78 74 79 80 80 82 81 79 82 75 83 76 84 77 85 78 86
REMARK SMILES IDX 57 87 58 88 66 89 59 90 65 91 67 92 64 93 60 94 61 95 62 96
REMARK SMILES IDX 63 97
REMARK H PARENT 21 8 28 31 87 50 55 61
REMARK Flexibility Score: inf
ROOT
ATOM      1  C   UNL A   1      31.453  30.674  26.160  1.00  0.00     0.002 C 
ENDROOT
BRANCH   1   2
ATOM      2  C   UNL A   1      31.718  29.702  27.316  1.00  0.00     0.002 C 
BRANCH   2   3
ATOM      3  C   UNL A   1      32.818  28.650  27.141  1.00  0.00     0.021 C 
BRANCH   3   4
ATOM      4  C   UNL A   1      32.446  27.344  26.450  1.00  0.00     0.116 C 
BRANCH   4   5
ATOM      5  N   UNL A   1      31.171  26.758  26.755  1.00  0.00    -0.351 N 
ATOM      6  C   UNL A   1      30.516  25.685  26.173  1.00  0.00     0.270 C 
ATOM      7  O   UNL A   1      29.505  25.301  26.773  1.00  0.00    -0.267 OA
ATOM      8  H   UNL A   1      30.685  27.187  27.496  1.00  0.00     0.163 HD
BRANCH   6   9
ATOM      9  C   UNL A   1      30.878  24.994  24.858  1.00  0.00     0.136 A 
ATOM     10  C   UNL A   1      31.070  25.566  23.586  1.00  0.00     0.017 A 
ATOM     11  C   UNL A   1      31.538  24.708  22.561  1.00  0.00     0.013 A 
ATOM     12  C   UNL A   1      31.786  23.364  22.792  1.00  0.00     0.021 A 
ATOM     13  N   UNL A   1      31.117  23.659  25.077  1.00  0.00    -0.250 NA
ATOM     14  C   UNL A   1      31.560  22.889  24.061  1.00  0.00     0.112 A 
BRANCH  10  15
ATOM     15  C   UNL A   1      30.844  26.964  23.202  1.00  0.00     0.027 A 
ATOM     16  C   UNL A   1      31.910  27.834  22.867  1.00  0.00     0.126 A 
ATOM     17  C   UNL A   1      31.659  29.165  22.525  1.00  0.00     0.048 A 
ATOM     18  C   UNL A   1      30.350  29.647  22.491  1.00  0.00     0.017 A 
ATOM     19  C   UNL A   1      29.534  27.482  23.198  1.00  0.00     0.025 A 
ATOM     20  C   UNL A   1      29.273  28.813  22.825  1.00  0.00     0.056 A 
BRANCH  16  21
ATOM     21  O   UNL A   1      33.237  27.492  22.972  1.00  0.00    -0.496 OA
ATOM     22  C   UNL A   1      34.156  28.552  22.708  1.00  0.00     0.278 C 
ENDBRANCH  16  21
BRANCH  20  23
ATOM     23  C   UNL A   1      27.852  29.311  22.708  1.00  0.00     0.416 C 
ATOM     24  F   UNL A   1      27.554  30.292  23.600  1.00  0.00    -0.166 F 
ATOM     25  F   UNL A   1      27.601  29.831  21.474  1.00  0.00    -0.166 F 
ATOM     26  F   UNL A   1      26.923  28.334  22.895  1.00  0.00    -0.166 F 
ENDBRANCH  20  23
ENDBRANCH  10  15
ENDBRANCH   6   9
ENDBRANCH   4   5
ENDBRANCH   3   4
ENDBRANCH   2   3
ENDBRANCH   1   2
BRANCH   1  27
ATOM     27  C   UNL A   1      31.424  32.171  26.479  1.00  0.00     0.021 C 
BRANCH  27  28
ATOM     28  C   UNL A   1      32.736  32.829  26.892  1.00  0.00     0.116 C 
BRANCH  28  29
ATOM     29  N   UNL A   1      32.543  34.084  27.589  1.00  0.00    -0.352 N 
ATOM     30  C   UNL A   1      33.151  34.611  28.704  1.00  0.00     0.251 C 
ATOM     31  H   UNL A   1      31.853  34.664  27.194  1.00  0.00     0.163 HD
ATOM     32  O   UNL A   1      32.684  35.646  29.180  1.00  0.00    -0.269 OA
BRANCH  30  33
ATOM     33  C   UNL A   1      34.326  33.972  29.358  1.00  0.00     0.039 A 
ATOM     34  C   UNL A   1      34.085  32.966  30.304  1.00  0.00     0.014 A 
ATOM     35  C   UNL A   1      35.642  34.385  29.136  1.00  0.00     0.014 A 
ATOM     36  C   UNL A   1      35.146  32.362  30.989  1.00  0.00     0.010 A 
ATOM     37  C   UNL A   1      36.707  33.728  29.764  1.00  0.00     0.010 A 
ATOM     38  C   UNL A   1      36.473  32.720  30.711  1.00  0.00    -0.014 A 
BRANCH  38  39
ATOM     39  C   UNL A   1      37.609  32.076  31.434  1.00  0.00     0.031 A 
ATOM     40  C   UNL A   1      38.394  30.965  30.783  1.00  0.00     0.074 A 
ATOM     41  C   UNL A   1      37.924  32.471  32.683  1.00  0.00     0.049 A 
ATOM     42  N   UNL A   1      39.388  30.257  31.262  1.00  0.00    -0.248 NA
ATOM     43  C   UNL A   1      37.990  30.581  29.422  1.00  0.00     0.031 C 
ATOM     44  C   UNL A   1      37.228  33.514  33.439  1.00  0.00     0.029 A 
ATOM     45  N   UNL A   1      38.908  32.044  33.542  1.00  0.00    -0.354 N 
ATOM     46  C   UNL A   1      39.719  29.340  30.269  1.00  0.00     0.074 A 
ATOM     47  C   UNL A   1      38.776  29.541  29.188  1.00  0.00     0.031 C 
ATOM     48  C   UNL A   1      37.824  33.666  34.633  1.00  0.00     0.029 A 
ATOM     49  C   UNL A   1      38.916  32.705  34.750  1.00  0.00     0.049 A 
ATOM     50  H   UNL A   1      39.549  31.332  33.314  1.00  0.00     0.167 HD
ATOM     51  C   UNL A   1      40.729  28.433  30.245  1.00  0.00     0.034 A 
ATOM     52  C   UNL A   1      39.706  32.550  35.832  1.00  0.00     0.034 A 
ATOM     53  C   UNL A   1      41.673  28.251  31.323  1.00  0.00     0.049 A 
ATOM     54  C   UNL A   1      40.810  31.522  35.792  1.00  0.00     0.074 A 
ATOM     55  C   UNL A   1      42.758  27.392  31.385  1.00  0.00     0.029 A 
ATOM     56  N   UNL A   1      41.646  28.937  32.531  1.00  0.00    -0.354 N 
ATOM     57  N   UNL A   1      41.132  30.692  34.828  1.00  0.00    -0.248 NA
ATOM     58  C   UNL A   1      41.665  31.423  36.983  1.00  0.00     0.031 C 
ATOM     59  C   UNL A   1      43.343  27.510  32.651  1.00  0.00     0.029 A 
ATOM     60  C   UNL A   1      42.675  28.501  33.353  1.00  0.00     0.049 A 
ATOM     61  H   UNL A   1      40.991  29.632  32.770  1.00  0.00     0.167 HD
ATOM     62  C   UNL A   1      42.250  29.997  35.285  1.00  0.00     0.074 A 
ATOM     63  C   UNL A   1      42.553  30.518  36.602  1.00  0.00     0.031 C 
ATOM     64  C   UNL A   1      42.964  29.019  34.670  1.00  0.00     0.034 A 
BRANCH  51  65
ATOM     65  C   UNL A   1      40.844  27.550  29.023  1.00  0.00     0.023 A 
ATOM     66  C   UNL A   1      41.795  27.797  28.017  1.00  0.00     0.031 A 
ATOM     67  C   UNL A   1      39.973  26.460  28.844  1.00  0.00     0.131 A 
ATOM     68  C   UNL A   1      41.800  27.023  26.847  1.00  0.00     0.055 A 
ATOM     69  C   UNL A   1      40.040  25.638  27.717  1.00  0.00     0.041 A 
ATOM     70  F   UNL A   1      39.029  26.182  29.758  1.00  0.00    -0.206 F 
ATOM     71  C   UNL A   1      40.946  25.927  26.701  1.00  0.00     0.022 A 
BRANCH  68  72
ATOM     72  S   UNL A   1      42.830  27.563  25.455  1.00  0.00     0.124 S 
ATOM     73  O   UNL A   1      42.026  28.648  24.899  1.00  0.00    -0.237 OA
ATOM     74  O   UNL A   1      44.070  27.955  26.113  1.00  0.00    -0.237 OA
ATOM     75  O   UNL A   1      42.919  26.370  24.613  1.00  0.00    -0.744 OA
ENDBRANCH  68  72
ENDBRANCH  51  65
BRANCH  52  76
ATOM     76  C   UNL A   1      39.489  33.382  37.052  1.00  0.00     0.023 A 
ATOM     77  C   UNL A   1      40.185  34.588  37.240  1.00  0.00     0.031 A 
ATOM     78  C   UNL A   1      38.618  32.959  38.071  1.00  0.00     0.131 A 
ATOM     79  C   UNL A   1      40.036  35.302  38.440  1.00  0.00     0.055 A 
ATOM     80  C   UNL A   1      38.431  33.701  39.238  1.00  0.00     0.041 A 
ATOM     81  F   UNL A   1      37.926  31.816  37.941  1.00  0.00    -0.206 F 
ATOM     82  C   UNL A   1      39.153  34.874  39.434  1.00  0.00     0.022 A 
BRANCH  79  83
ATOM     83  S   UNL A   1      41.085  36.755  38.722  1.00  0.00     0.124 S 
ATOM     84  O   UNL A   1      40.092  37.804  38.921  1.00  0.00    -0.237 OA
ATOM     85  O   UNL A   1      41.840  36.356  39.905  1.00  0.00    -0.237 OA
ATOM     86  O   UNL A   1      41.866  36.856  37.492  1.00  0.00    -0.744 OA
ENDBRANCH  79  83
ENDBRANCH  52  76
BRANCH  64  87
ATOM     87  C   UNL A   1      44.176  28.490  35.401  1.00  0.00     0.023 A 
ATOM     88  C   UNL A   1      44.076  27.464  36.358  1.00  0.00     0.031 A 
ATOM     89  C   UNL A   1      45.446  29.040  35.154  1.00  0.00     0.131 A 
ATOM     90  C   UNL A   1      45.213  27.067  37.079  1.00  0.00     0.055 A 
ATOM     91  C   UNL A   1      46.584  28.596  35.828  1.00  0.00     0.041 A 
ATOM     92  F   UNL A   1      45.602  30.023  34.253  1.00  0.00    -0.206 F 
ATOM     93  C   UNL A   1      46.469  27.615  36.809  1.00  0.00     0.022 A 
BRANCH  90  94
ATOM     94  S   UNL A   1      45.008  25.901  38.455  1.00  0.00     0.124 S 
ATOM     95  O   UNL A   1      43.848  26.450  39.148  1.00  0.00    -0.237 OA
ATOM     96  O   UNL A   1      44.796  24.635  37.761  1.00  0.00    -0.237 OA
ATOM     97  O   UNL A   1      46.273  26.003  39.182  1.00  0.00    -0.744 OA
ENDBRANCH  90  94
ENDBRANCH  64  87
ENDBRANCH  38  39
ENDBRANCH  30  33
ENDBRANCH  28  29
ENDBRANCH  27  28
ENDBRANCH   1  27
TORSDOF 19
ENDMDL
