MODEL 1
REMARK VINA RESULT:     -11.3      0.000      0.000
REMARK SMILES Cc1cc2c(c(C)c1Br)C=C(C(=O)NCCCCCCNC(=O)c1ccc(-c3c4nc(c(-c5cc(S(=O)(=O)[O-])ccc5F)c5ccc([nH]5)c(-c5cc(S(=O)(=O)[O-])ccc5F)c5nc(c(-c6cc(S(=O)(=O)[O-])ccc6F)c6ccc3[nH]6)C=C5)C=C4)cc1)[C@@H](C(F)(F)F)O2
REMARK SMILES IDX 18 1 17 2 16 3 15 4 14 5 12 6 13 7 11 9 1 10 2 11 3 12 8 13
REMARK SMILES IDX 4 14 6 15 9 16 5 17 92 18 7 19 10 20 87 21 88 22 89 23 90 24
REMARK SMILES IDX 91 25 19 26 20 27 21 28 22 29 23 31 24 32 25 33 86 34 26 35
REMARK SMILES IDX 85 36 27 37 28 38 29 39 79 40 30 41 84 42 78 43 80 44 31 45
REMARK SMILES IDX 83 46 77 47 76 48 32 50 64 51 44 52 63 53 45 54 48 55 62 56
REMARK SMILES IDX 81 57 46 58 47 59 61 61 82 62 49 63 33 64 34 65 42 66 35 67
REMARK SMILES IDX 41 68 43 69 40 70 36 71 37 72 38 73 39 74 65 75 66 76 74 77
REMARK SMILES IDX 67 78 73 79 75 80 72 81 68 82 69 83 70 84 71 85 50 86 51 87
REMARK SMILES IDX 59 88 52 89 58 90 60 91 57 92 53 93 54 94 55 95 56 96
REMARK H PARENT 14 8 21 30 80 49 48 60
REMARK Flexibility Score: inf
ROOT
ATOM      1  C   UNL A   1      34.661  32.016  27.633  1.00  0.00     0.002 C 
ENDROOT
BRANCH   1   2
ATOM      2  C   UNL A   1      34.872  30.779  28.517  1.00  0.00     0.002 C 
BRANCH   2   3
ATOM      3  C   UNL A   1      35.278  29.509  27.764  1.00  0.00     0.021 C 
BRANCH   3   4
ATOM      4  C   UNL A   1      34.241  29.047  26.746  1.00  0.00     0.116 C 
BRANCH   4   5
ATOM      5  N   UNL A   1      32.960  28.769  27.371  1.00  0.00    -0.352 N 
ATOM      6  C   UNL A   1      31.954  27.880  27.214  1.00  0.00     0.251 C 
ATOM      7  O   UNL A   1      31.020  27.993  28.016  1.00  0.00    -0.270 OA
ATOM      8  H   UNL A   1      32.774  29.397  28.107  1.00  0.00     0.163 HD
BRANCH   6   9
ATOM      9  C   UNL A   1      31.903  26.812  26.169  1.00  0.00     0.067 C 
ATOM     10  C   UNL A   1      32.156  21.354  22.628  1.00  0.00     0.046 C 
ATOM     11  C   UNL A   1      32.354  22.448  23.642  1.00  0.00    -0.033 A 
ATOM     12  C   UNL A   1      31.611  23.620  23.488  1.00  0.00     0.051 A 
ATOM     13  C   UNL A   1      33.235  22.343  24.740  1.00  0.00     0.024 A 
ATOM     14  C   UNL A   1      31.728  24.661  24.400  1.00  0.00     0.128 A 
ATOM     15  C   UNL A   1      33.365  23.399  25.679  1.00  0.00    -0.026 A 
ATOM     16  Br  UNL A   1      34.237  20.723  24.938  1.00  0.00    -0.050 Br
ATOM     17  C   UNL A   1      32.577  24.565  25.504  1.00  0.00     0.021 A 
ATOM     18  O   UNL A   1      30.923  25.729  24.148  1.00  0.00    -0.475 OA
ATOM     19  C   UNL A   1      34.299  23.319  26.865  1.00  0.00     0.046 C 
ATOM     20  C   UNL A   1      32.561  25.675  26.464  1.00  0.00     0.026 C 
ATOM     21  C   UNL A   1      31.205  26.960  24.852  1.00  0.00     0.314 C 
BRANCH  21  22
ATOM     22  C   UNL A   1      31.928  27.932  23.902  1.00  0.00     0.429 C 
ATOM     23  F   UNL A   1      31.617  29.215  24.206  1.00  0.00    -0.167 F 
ATOM     24  F   UNL A   1      33.275  27.836  23.983  1.00  0.00    -0.167 F 
ATOM     25  F   UNL A   1      31.597  27.727  22.606  1.00  0.00    -0.167 F 
ENDBRANCH  21  22
ENDBRANCH   6   9
ENDBRANCH   4   5
ENDBRANCH   3   4
ENDBRANCH   2   3
ENDBRANCH   1   2
BRANCH   1  26
ATOM     26  C   UNL A   1      33.423  32.854  27.967  1.00  0.00     0.021 C 
BRANCH  26  27
ATOM     27  C   UNL A   1      33.632  34.359  27.855  1.00  0.00     0.116 C 
BRANCH  27  28
ATOM     28  N   UNL A   1      33.079  35.062  28.998  1.00  0.00    -0.352 N 
ATOM     29  C   UNL A   1      33.364  34.902  30.329  1.00  0.00     0.251 C 
ATOM     30  H   UNL A   1      32.407  35.750  28.789  1.00  0.00     0.163 HD
ATOM     31  O   UNL A   1      32.629  35.403  31.177  1.00  0.00    -0.269 OA
BRANCH  29  32
ATOM     32  C   UNL A   1      34.546  34.116  30.732  1.00  0.00     0.039 A 
ATOM     33  C   UNL A   1      35.813  34.536  30.323  1.00  0.00     0.014 A 
ATOM     34  C   UNL A   1      34.400  32.961  31.510  1.00  0.00     0.014 A 
ATOM     35  C   UNL A   1      36.939  33.823  30.734  1.00  0.00     0.010 A 
ATOM     36  C   UNL A   1      35.527  32.294  31.977  1.00  0.00     0.010 A 
ATOM     37  C   UNL A   1      36.807  32.712  31.584  1.00  0.00    -0.014 A 
BRANCH  37  38
ATOM     38  C   UNL A   1      37.998  31.952  32.037  1.00  0.00     0.031 A 
ATOM     39  C   UNL A   1      38.626  32.274  33.366  1.00  0.00     0.074 A 
ATOM     40  C   UNL A   1      38.519  30.992  31.249  1.00  0.00     0.049 A 
ATOM     41  N   UNL A   1      39.691  31.757  33.920  1.00  0.00    -0.248 NA
ATOM     42  C   UNL A   1      37.984  33.330  34.167  1.00  0.00     0.031 C 
ATOM     43  C   UNL A   1      38.001  30.604  29.935  1.00  0.00     0.029 A 
ATOM     44  N   UNL A   1      39.593  30.159  31.439  1.00  0.00    -0.354 N 
ATOM     45  C   UNL A   1      39.844  32.418  35.133  1.00  0.00     0.074 A 
ATOM     46  C   UNL A   1      38.804  33.420  35.203  1.00  0.00     0.031 C 
ATOM     47  C   UNL A   1      38.731  29.583  29.458  1.00  0.00     0.029 A 
ATOM     48  C   UNL A   1      39.796  29.274  30.408  1.00  0.00     0.049 A 
ATOM     49  H   UNL A   1      40.165  30.194  32.240  1.00  0.00     0.167 HD
ATOM     50  C   UNL A   1      40.751  32.189  36.111  1.00  0.00     0.034 A 
ATOM     51  C   UNL A   1      40.736  28.321  30.244  1.00  0.00     0.034 A 
ATOM     52  C   UNL A   1      41.770  31.175  36.039  1.00  0.00     0.049 A 
ATOM     53  C   UNL A   1      41.770  28.126  31.322  1.00  0.00     0.074 A 
ATOM     54  C   UNL A   1      42.717  30.839  36.990  1.00  0.00     0.029 A 
ATOM     55  N   UNL A   1      41.974  30.331  34.956  1.00  0.00    -0.354 N 
ATOM     56  N   UNL A   1      41.894  28.756  32.468  1.00  0.00    -0.248 NA
ATOM     57  C   UNL A   1      42.790  27.095  31.087  1.00  0.00     0.031 C 
ATOM     58  C   UNL A   1      43.532  29.836  36.459  1.00  0.00     0.029 A 
ATOM     59  C   UNL A   1      43.052  29.497  35.203  1.00  0.00     0.049 A 
ATOM     60  H   UNL A   1      41.432  30.326  34.134  1.00  0.00     0.167 HD
ATOM     61  C   UNL A   1      42.995  28.185  33.097  1.00  0.00     0.074 A 
ATOM     62  C   UNL A   1      43.494  27.152  32.210  1.00  0.00     0.031 C 
ATOM     63  C   UNL A   1      43.545  28.486  34.300  1.00  0.00     0.034 A 
BRANCH  50  64
ATOM     64  C   UNL A   1      40.684  33.054  37.343  1.00  0.00     0.023 A 
ATOM     65  C   UNL A   1      39.907  32.683  38.454  1.00  0.00     0.031 A 
ATOM     66  C   UNL A   1      41.424  34.246  37.419  1.00  0.00     0.131 A 
ATOM     67  C   UNL A   1      39.853  33.520  39.578  1.00  0.00     0.055 A 
ATOM     68  C   UNL A   1      41.417  35.042  38.566  1.00  0.00     0.041 A 
ATOM     69  F   UNL A   1      42.167  34.656  36.379  1.00  0.00    -0.206 F 
ATOM     70  C   UNL A   1      40.622  34.683  39.652  1.00  0.00     0.022 A 
BRANCH  67  71
ATOM     71  S   UNL A   1      38.700  33.105  40.914  1.00  0.00     0.124 S 
ATOM     72  O   UNL A   1      38.635  31.650  40.805  1.00  0.00    -0.237 OA
ATOM     73  O   UNL A   1      39.380  33.626  42.094  1.00  0.00    -0.237 OA
ATOM     74  O   UNL A   1      37.475  33.808  40.540  1.00  0.00    -0.744 OA
ENDBRANCH  67  71
ENDBRANCH  50  64
BRANCH  51  75
ATOM     75  C   UNL A   1      40.745  27.482  29.013  1.00  0.00     0.023 A 
ATOM     76  C   UNL A   1      41.656  27.737  27.977  1.00  0.00     0.031 A 
ATOM     77  C   UNL A   1      39.841  26.417  28.853  1.00  0.00     0.131 A 
ATOM     78  C   UNL A   1      41.629  26.951  26.813  1.00  0.00     0.055 A 
ATOM     79  C   UNL A   1      39.845  25.612  27.713  1.00  0.00     0.041 A 
ATOM     80  F   UNL A   1      38.954  26.129  29.819  1.00  0.00    -0.206 F 
ATOM     81  C   UNL A   1      40.739  25.882  26.681  1.00  0.00     0.022 A 
BRANCH  78  82
ATOM     82  S   UNL A   1      42.755  27.367  25.455  1.00  0.00     0.124 S 
ATOM     83  O   UNL A   1      44.006  27.599  26.169  1.00  0.00    -0.237 OA
ATOM     84  O   UNL A   1      42.698  26.164  24.631  1.00  0.00    -0.237 OA
ATOM     85  O   UNL A   1      42.146  28.556  24.860  1.00  0.00    -0.744 OA
ENDBRANCH  78  82
ENDBRANCH  51  75
BRANCH  63  86
ATOM     86  C   UNL A   1      44.740  27.682  34.739  1.00  0.00     0.023 A 
ATOM     87  C   UNL A   1      44.587  26.446  35.388  1.00  0.00     0.031 A 
ATOM     88  C   UNL A   1      46.041  28.132  34.457  1.00  0.00     0.131 A 
ATOM     89  C   UNL A   1      45.722  25.709  35.756  1.00  0.00     0.055 A 
ATOM     90  C   UNL A   1      47.165  27.373  34.781  1.00  0.00     0.041 A 
ATOM     91  F   UNL A   1      46.238  29.306  33.835  1.00  0.00    -0.206 F 
ATOM     92  C   UNL A   1      47.009  26.156  35.440  1.00  0.00     0.022 A 
BRANCH  89  93
ATOM     93  S   UNL A   1      45.497  24.170  36.687  1.00  0.00     0.124 S 
ATOM     94  O   UNL A   1      45.015  24.664  37.973  1.00  0.00    -0.237 OA
ATOM     95  O   UNL A   1      44.522  23.450  35.875  1.00  0.00    -0.237 OA
ATOM     96  O   UNL A   1      46.835  23.584  36.709  1.00  0.00    -0.744 OA
ENDBRANCH  89  93
ENDBRANCH  63  86
ENDBRANCH  37  38
ENDBRANCH  29  32
ENDBRANCH  27  28
ENDBRANCH  26  27
ENDBRANCH   1  26
TORSDOF 17
ENDMDL
MODEL 2
REMARK VINA RESULT:     -11.1      1.474      2.052
REMARK SMILES Cc1cc2c(c(C)c1Br)C=C(C(=O)NCCCCCCNC(=O)c1ccc(-c3c4nc(c(-c5cc(S(=O)(=O)[O-])ccc5F)c5ccc([nH]5)c(-c5cc(S(=O)(=O)[O-])ccc5F)c5nc(c(-c6cc(S(=O)(=O)[O-])ccc6F)c6ccc3[nH]6)C=C5)C=C4)cc1)[C@@H](C(F)(F)F)O2
REMARK SMILES IDX 18 1 17 2 16 3 15 4 14 5 12 6 13 7 11 9 1 10 2 11 3 12 8 13
REMARK SMILES IDX 4 14 6 15 9 16 5 17 92 18 7 19 10 20 87 21 88 22 89 23 90 24
REMARK SMILES IDX 91 25 19 26 20 27 21 28 22 29 23 31 24 32 25 33 86 34 26 35
REMARK SMILES IDX 85 36 27 37 28 38 29 39 79 40 30 41 84 42 78 43 80 44 31 45
REMARK SMILES IDX 83 46 77 47 76 48 32 50 64 51 44 52 63 53 45 54 48 55 62 56
REMARK SMILES IDX 81 57 46 58 47 59 61 61 82 62 49 63 33 64 34 65 42 66 35 67
REMARK SMILES IDX 41 68 43 69 40 70 36 71 37 72 38 73 39 74 65 75 66 76 74 77
REMARK SMILES IDX 67 78 73 79 75 80 72 81 68 82 69 83 70 84 71 85 50 86 51 87
REMARK SMILES IDX 59 88 52 89 58 90 60 91 57 92 53 93 54 94 55 95 56 96
REMARK H PARENT 14 8 21 30 80 49 48 60
REMARK Flexibility Score: inf
ROOT
ATOM      1  C   UNL A   1      31.900  30.551  26.837  1.00  0.00     0.002 C 
ENDROOT
BRANCH   1   2
ATOM      2  C   UNL A   1      31.925  29.951  25.424  1.00  0.00     0.002 C 
BRANCH   2   3
ATOM      3  C   UNL A   1      33.238  29.265  25.037  1.00  0.00     0.021 C 
BRANCH   3   4
ATOM      4  C   UNL A   1      33.520  29.289  23.539  1.00  0.00     0.116 C 
BRANCH   4   5
ATOM      5  N   UNL A   1      32.459  28.649  22.782  1.00  0.00    -0.352 N 
ATOM      6  C   UNL A   1      31.750  27.499  22.849  1.00  0.00     0.251 C 
ATOM      7  O   UNL A   1      30.886  27.360  21.975  1.00  0.00    -0.270 OA
ATOM      8  H   UNL A   1      32.182  29.199  22.014  1.00  0.00     0.163 HD
BRANCH   6   9
ATOM      9  C   UNL A   1      31.941  26.427  23.873  1.00  0.00     0.067 C 
ATOM     10  C   UNL A   1      33.942  21.513  27.647  1.00  0.00     0.046 C 
ATOM     11  C   UNL A   1      33.688  22.486  26.527  1.00  0.00    -0.033 A 
ATOM     12  C   UNL A   1      32.805  23.539  26.768  1.00  0.00     0.051 A 
ATOM     13  C   UNL A   1      34.305  22.393  25.260  1.00  0.00     0.024 A 
ATOM     14  C   UNL A   1      32.543  24.485  25.785  1.00  0.00     0.128 A 
ATOM     15  C   UNL A   1      34.046  23.352  24.247  1.00  0.00    -0.026 A 
ATOM     16  Br  UNL A   1      35.521  20.944  24.955  1.00  0.00    -0.050 Br
ATOM     17  C   UNL A   1      33.162  24.423  24.535  1.00  0.00     0.021 A 
ATOM     18  O   UNL A   1      31.690  25.476  26.164  1.00  0.00    -0.475 OA
ATOM     19  C   UNL A   1      34.689  23.282  22.881  1.00  0.00     0.046 C 
ATOM     20  C   UNL A   1      32.896  25.519  23.597  1.00  0.00     0.026 C 
ATOM     21  C   UNL A   1      31.127  26.308  25.125  1.00  0.00     0.314 C 
BRANCH  21  22
ATOM     22  C   UNL A   1      29.678  25.866  24.853  1.00  0.00     0.429 C 
ATOM     23  F   UNL A   1      29.097  25.411  25.990  1.00  0.00    -0.167 F 
ATOM     24  F   UNL A   1      28.898  26.877  24.404  1.00  0.00    -0.167 F 
ATOM     25  F   UNL A   1      29.605  24.876  23.933  1.00  0.00    -0.167 F 
ENDBRANCH  21  22
ENDBRANCH   6   9
ENDBRANCH   4   5
ENDBRANCH   3   4
ENDBRANCH   2   3
ENDBRANCH   1   2
BRANCH   1  26
ATOM     26  C   UNL A   1      31.697  32.068  26.898  1.00  0.00     0.021 C 
BRANCH  26  27
ATOM     27  C   UNL A   1      32.983  32.869  27.057  1.00  0.00     0.116 C 
BRANCH  27  28
ATOM     28  N   UNL A   1      32.755  34.109  27.777  1.00  0.00    -0.352 N 
ATOM     29  C   UNL A   1      33.300  34.532  28.961  1.00  0.00     0.251 C 
ATOM     30  H   UNL A   1      32.121  34.733  27.356  1.00  0.00     0.163 HD
ATOM     31  O   UNL A   1      32.812  35.494  29.551  1.00  0.00    -0.269 OA
BRANCH  29  32
ATOM     32  C   UNL A   1      34.461  33.816  29.524  1.00  0.00     0.039 A 
ATOM     33  C   UNL A   1      35.748  34.222  29.166  1.00  0.00     0.014 A 
ATOM     34  C   UNL A   1      34.277  32.743  30.404  1.00  0.00     0.014 A 
ATOM     35  C   UNL A   1      36.852  33.579  29.726  1.00  0.00     0.010 A 
ATOM     36  C   UNL A   1      35.377  32.152  31.015  1.00  0.00     0.010 A 
ATOM     37  C   UNL A   1      36.675  32.557  30.673  1.00  0.00    -0.014 A 
BRANCH  37  38
ATOM     38  C   UNL A   1      37.842  31.873  31.285  1.00  0.00     0.031 A 
ATOM     39  C   UNL A   1      38.297  32.267  32.664  1.00  0.00     0.074 A 
ATOM     40  C   UNL A   1      38.496  30.919  30.595  1.00  0.00     0.049 A 
ATOM     41  N   UNL A   1      39.315  31.822  33.353  1.00  0.00    -0.248 NA
ATOM     42  C   UNL A   1      37.518  33.311  33.349  1.00  0.00     0.031 C 
ATOM     43  C   UNL A   1      38.151  30.466  29.245  1.00  0.00     0.029 A 
ATOM     44  N   UNL A   1      39.579  30.149  30.935  1.00  0.00    -0.354 N 
ATOM     45  C   UNL A   1      39.297  32.526  34.551  1.00  0.00     0.074 A 
ATOM     46  C   UNL A   1      38.208  33.475  34.467  1.00  0.00     0.031 C 
ATOM     47  C   UNL A   1      38.979  29.471  28.891  1.00  0.00     0.029 A 
ATOM     48  C   UNL A   1      39.941  29.245  29.965  1.00  0.00     0.049 A 
ATOM     49  H   UNL A   1      40.054  30.237  31.794  1.00  0.00     0.167 HD
ATOM     50  C   UNL A   1      40.095  32.374  35.633  1.00  0.00     0.034 A 
ATOM     51  C   UNL A   1      40.939  28.337  29.942  1.00  0.00     0.034 A 
ATOM     52  C   UNL A   1      41.163  31.412  35.713  1.00  0.00     0.049 A 
ATOM     53  C   UNL A   1      41.850  28.228  31.137  1.00  0.00     0.074 A 
ATOM     54  C   UNL A   1      42.010  31.154  36.775  1.00  0.00     0.029 A 
ATOM     55  N   UNL A   1      41.531  30.549  34.690  1.00  0.00    -0.354 N 
ATOM     56  N   UNL A   1      41.812  28.898  32.266  1.00  0.00    -0.248 NA
ATOM     57  C   UNL A   1      42.939  27.245  31.055  1.00  0.00     0.031 C 
ATOM     58  C   UNL A   1      42.928  30.180  36.376  1.00  0.00     0.029 A 
ATOM     59  C   UNL A   1      42.612  29.779  35.086  1.00  0.00     0.049 A 
ATOM     60  H   UNL A   1      41.088  30.490  33.812  1.00  0.00     0.167 HD
ATOM     61  C   UNL A   1      42.860  28.403  33.035  1.00  0.00     0.074 A 
ATOM     62  C   UNL A   1      43.506  27.372  32.247  1.00  0.00     0.031 C 
ATOM     63  C   UNL A   1      43.253  28.768  34.281  1.00  0.00     0.034 A 
BRANCH  50  64
ATOM     64  C   UNL A   1      39.846  33.270  36.818  1.00  0.00     0.023 A 
ATOM     65  C   UNL A   1      39.131  32.816  37.939  1.00  0.00     0.031 A 
ATOM     66  C   UNL A   1      40.349  34.582  36.839  1.00  0.00     0.131 A 
ATOM     67  C   UNL A   1      38.901  33.682  39.019  1.00  0.00     0.055 A 
ATOM     68  C   UNL A   1      40.173  35.418  37.943  1.00  0.00     0.041 A 
ATOM     69  F   UNL A   1      41.022  35.072  35.786  1.00  0.00    -0.206 F 
ATOM     70  C   UNL A   1      39.439  34.970  39.039  1.00  0.00     0.022 A 
BRANCH  67  71
ATOM     71  S   UNL A   1      37.821  33.125  40.364  1.00  0.00     0.124 S 
ATOM     72  O   UNL A   1      36.587  32.823  39.644  1.00  0.00    -0.237 OA
ATOM     73  O   UNL A   1      38.545  31.977  40.898  1.00  0.00    -0.237 OA
ATOM     74  O   UNL A   1      37.752  34.285  41.250  1.00  0.00    -0.744 OA
ENDBRANCH  67  71
ENDBRANCH  50  64
BRANCH  51  75
ATOM     75  C   UNL A   1      41.129  27.464  28.751  1.00  0.00     0.023 A 
ATOM     76  C   UNL A   1      42.106  27.765  27.789  1.00  0.00     0.031 A 
ATOM     77  C   UNL A   1      40.336  26.320  28.554  1.00  0.00     0.131 A 
ATOM     78  C   UNL A   1      42.250  26.943  26.659  1.00  0.00     0.055 A 
ATOM     79  C   UNL A   1      40.510  25.483  27.451  1.00  0.00     0.041 A 
ATOM     80  F   UNL A   1      39.392  25.987  29.449  1.00  0.00    -0.206 F 
ATOM     81  C   UNL A   1      41.468  25.797  26.491  1.00  0.00     0.022 A 
BRANCH  78  82
ATOM     82  S   UNL A   1      43.456  27.412  25.389  1.00  0.00     0.124 S 
ATOM     83  O   UNL A   1      44.095  26.132  25.101  1.00  0.00    -0.237 OA
ATOM     84  O   UNL A   1      42.599  27.954  24.340  1.00  0.00    -0.237 OA
ATOM     85  O   UNL A   1      44.301  28.393  26.068  1.00  0.00    -0.744 OA
ENDBRANCH  78  82
ENDBRANCH  51  75
BRANCH  63  86
ATOM     86  C   UNL A   1      44.427  28.041  34.881  1.00  0.00     0.023 A 
ATOM     87  C   UNL A   1      44.263  26.809  35.535  1.00  0.00     0.031 A 
ATOM     88  C   UNL A   1      45.727  28.559  34.747  1.00  0.00     0.131 A 
ATOM     89  C   UNL A   1      45.383  26.144  36.056  1.00  0.00     0.055 A 
ATOM     90  C   UNL A   1      46.842  27.870  35.223  1.00  0.00     0.041 A 
ATOM     91  F   UNL A   1      45.935  29.731  34.126  1.00  0.00    -0.206 F 
ATOM     92  C   UNL A   1      46.673  26.658  35.887  1.00  0.00     0.022 A 
BRANCH  89  93
ATOM     93  S   UNL A   1      45.129  24.611  36.989  1.00  0.00     0.124 S 
ATOM     94  O   UNL A   1      46.478  24.054  37.025  1.00  0.00    -0.237 OA
ATOM     95  O   UNL A   1      44.607  25.098  38.261  1.00  0.00    -0.237 OA
ATOM     96  O   UNL A   1      44.172  23.867  36.172  1.00  0.00    -0.744 OA
ENDBRANCH  89  93
ENDBRANCH  63  86
ENDBRANCH  37  38
ENDBRANCH  29  32
ENDBRANCH  27  28
ENDBRANCH  26  27
ENDBRANCH   1  26
TORSDOF 17
ENDMDL
MODEL 3
REMARK VINA RESULT:     -11.0      2.220      8.078
REMARK SMILES Cc1cc2c(c(C)c1Br)C=C(C(=O)NCCCCCCNC(=O)c1ccc(-c3c4nc(c(-c5cc(S(=O)(=O)[O-])ccc5F)c5ccc([nH]5)c(-c5cc(S(=O)(=O)[O-])ccc5F)c5nc(c(-c6cc(S(=O)(=O)[O-])ccc6F)c6ccc3[nH]6)C=C5)C=C4)cc1)[C@@H](C(F)(F)F)O2
REMARK SMILES IDX 18 1 17 2 16 3 15 4 14 5 12 6 13 7 11 9 1 10 2 11 3 12 8 13
REMARK SMILES IDX 4 14 6 15 9 16 5 17 92 18 7 19 10 20 87 21 88 22 89 23 90 24
REMARK SMILES IDX 91 25 19 26 20 27 21 28 22 29 23 31 24 32 25 33 86 34 26 35
REMARK SMILES IDX 85 36 27 37 28 38 29 39 79 40 30 41 84 42 78 43 80 44 31 45
REMARK SMILES IDX 83 46 77 47 76 48 32 50 64 51 44 52 63 53 45 54 48 55 62 56
REMARK SMILES IDX 81 57 46 58 47 59 61 61 82 62 49 63 33 64 34 65 42 66 35 67
REMARK SMILES IDX 41 68 43 69 40 70 36 71 37 72 38 73 39 74 65 75 66 76 74 77
REMARK SMILES IDX 67 78 73 79 75 80 72 81 68 82 69 83 70 84 71 85 50 86 51 87
REMARK SMILES IDX 59 88 52 89 58 90 60 91 57 92 53 93 54 94 55 95 56 96
REMARK H PARENT 14 8 21 30 80 49 48 60
REMARK Flexibility Score: inf
ROOT
ATOM      1  C   UNL A   1      31.756  30.274  26.692  1.00  0.00     0.002 C 
ENDROOT
BRANCH   1   2
ATOM      2  C   UNL A   1      32.017  29.628  25.325  1.00  0.00     0.002 C 
BRANCH   2   3
ATOM      3  C   UNL A   1      33.299  28.795  25.239  1.00  0.00     0.021 C 
BRANCH   3   4
ATOM      4  C   UNL A   1      33.059  27.349  24.819  1.00  0.00     0.116 C 
BRANCH   4   5
ATOM      5  N   UNL A   1      32.098  26.690  25.686  1.00  0.00    -0.352 N 
ATOM      6  C   UNL A   1      31.851  25.432  26.115  1.00  0.00     0.251 C 
ATOM      7  O   UNL A   1      30.904  25.318  26.901  1.00  0.00    -0.270 OA
ATOM      8  H   UNL A   1      31.453  27.332  26.062  1.00  0.00     0.163 HD
BRANCH   6   9
ATOM      9  C   UNL A   1      32.622  24.216  25.710  1.00  0.00     0.067 C 
ATOM     10  C   UNL A   1      36.931  19.421  24.804  1.00  0.00     0.046 C 
ATOM     11  C   UNL A   1      36.231  20.719  25.103  1.00  0.00    -0.033 A 
ATOM     12  C   UNL A   1      34.849  20.771  24.915  1.00  0.00     0.051 A 
ATOM     13  C   UNL A   1      36.897  21.872  25.573  1.00  0.00     0.024 A 
ATOM     14  C   UNL A   1      34.138  21.931  25.193  1.00  0.00     0.128 A 
ATOM     15  C   UNL A   1      36.182  23.065  25.861  1.00  0.00    -0.026 A 
ATOM     16  Br  UNL A   1      38.792  21.776  25.833  1.00  0.00    -0.050 Br
ATOM     17  C   UNL A   1      34.775  23.073  25.681  1.00  0.00     0.021 A 
ATOM     18  O   UNL A   1      32.794  21.833  24.997  1.00  0.00    -0.475 OA
ATOM     19  C   UNL A   1      36.863  24.316  26.365  1.00  0.00     0.046 C 
ATOM     20  C   UNL A   1      33.928  24.217  26.037  1.00  0.00     0.026 C 
ATOM     21  C   UNL A   1      32.032  23.061  24.960  1.00  0.00     0.314 C 
BRANCH  21  22
ATOM     22  C   UNL A   1      31.703  23.407  23.497  1.00  0.00     0.429 C 
ATOM     23  F   UNL A   1      32.155  22.437  22.665  1.00  0.00    -0.167 F 
ATOM     24  F   UNL A   1      30.373  23.514  23.271  1.00  0.00    -0.167 F 
ATOM     25  F   UNL A   1      32.262  24.575  23.105  1.00  0.00    -0.167 F 
ENDBRANCH  21  22
ENDBRANCH   6   9
ENDBRANCH   4   5
ENDBRANCH   3   4
ENDBRANCH   2   3
ENDBRANCH   1   2
BRANCH   1  26
ATOM     26  C   UNL A   1      31.694  31.804  26.690  1.00  0.00     0.021 C 
BRANCH  26  27
ATOM     27  C   UNL A   1      32.973  32.486  27.161  1.00  0.00     0.116 C 
BRANCH  27  28
ATOM     28  N   UNL A   1      32.727  33.856  27.575  1.00  0.00    -0.352 N 
ATOM     29  C   UNL A   1      33.236  34.537  28.650  1.00  0.00     0.251 C 
ATOM     30  H   UNL A   1      32.108  34.366  27.005  1.00  0.00     0.163 HD
ATOM     31  O   UNL A   1      32.734  35.605  28.992  1.00  0.00    -0.269 OA
BRANCH  29  32
ATOM     32  C   UNL A   1      34.378  33.971  29.395  1.00  0.00     0.039 A 
ATOM     33  C   UNL A   1      34.133  33.055  30.419  1.00  0.00     0.014 A 
ATOM     34  C   UNL A   1      35.688  34.351  29.082  1.00  0.00     0.014 A 
ATOM     35  C   UNL A   1      35.208  32.484  31.100  1.00  0.00     0.010 A 
ATOM     36  C   UNL A   1      36.759  33.727  29.713  1.00  0.00     0.010 A 
ATOM     37  C   UNL A   1      36.529  32.796  30.737  1.00  0.00    -0.014 A 
BRANCH  37  38
ATOM     38  C   UNL A   1      37.680  32.186  31.446  1.00  0.00     0.031 A 
ATOM     39  C   UNL A   1      38.457  31.077  30.790  1.00  0.00     0.074 A 
ATOM     40  C   UNL A   1      38.011  32.616  32.679  1.00  0.00     0.049 A 
ATOM     41  N   UNL A   1      39.463  30.387  31.259  1.00  0.00    -0.248 NA
ATOM     42  C   UNL A   1      38.033  30.677  29.438  1.00  0.00     0.031 C 
ATOM     43  C   UNL A   1      37.320  33.676  33.418  1.00  0.00     0.029 A 
ATOM     44  N   UNL A   1      39.017  32.225  33.526  1.00  0.00    -0.354 N 
ATOM     45  C   UNL A   1      39.796  29.478  30.262  1.00  0.00     0.074 A 
ATOM     46  C   UNL A   1      38.841  29.657  29.191  1.00  0.00     0.031 C 
ATOM     47  C   UNL A   1      37.948  33.878  34.587  1.00  0.00     0.029 A 
ATOM     48  C   UNL A   1      39.056  32.934  34.703  1.00  0.00     0.049 A 
ATOM     49  H   UNL A   1      39.652  31.503  33.310  1.00  0.00     0.167 HD
ATOM     50  C   UNL A   1      40.822  28.596  30.230  1.00  0.00     0.034 A 
ATOM     51  C   UNL A   1      39.889  32.834  35.758  1.00  0.00     0.034 A 
ATOM     52  C   UNL A   1      41.779  28.440  31.295  1.00  0.00     0.049 A 
ATOM     53  C   UNL A   1      40.988  31.804  35.723  1.00  0.00     0.074 A 
ATOM     54  C   UNL A   1      42.876  27.599  31.349  1.00  0.00     0.029 A 
ATOM     55  N   UNL A   1      41.754  29.142  32.492  1.00  0.00    -0.354 N 
ATOM     56  N   UNL A   1      41.292  30.957  34.766  1.00  0.00    -0.248 NA
ATOM     57  C   UNL A   1      41.853  31.712  36.907  1.00  0.00     0.031 C 
ATOM     58  C   UNL A   1      43.478  27.747  32.600  1.00  0.00     0.029 A 
ATOM     59  C   UNL A   1      42.799  28.730  33.303  1.00  0.00     0.049 A 
ATOM     60  H   UNL A   1      41.094  29.832  32.730  1.00  0.00     0.167 HD
ATOM     61  C   UNL A   1      42.395  30.246  35.227  1.00  0.00     0.074 A 
ATOM     62  C   UNL A   1      42.710  30.769  36.542  1.00  0.00     0.031 C 
ATOM     63  C   UNL A   1      43.087  29.251  34.618  1.00  0.00     0.034 A 
BRANCH  50  64
ATOM     64  C   UNL A   1      40.962  27.729  29.007  1.00  0.00     0.023 A 
ATOM     65  C   UNL A   1      41.955  27.979  28.044  1.00  0.00     0.031 A 
ATOM     66  C   UNL A   1      40.112  26.627  28.812  1.00  0.00     0.131 A 
ATOM     67  C   UNL A   1      42.047  27.162  26.908  1.00  0.00     0.055 A 
ATOM     68  C   UNL A   1      40.249  25.780  27.711  1.00  0.00     0.041 A 
ATOM     69  F   UNL A   1      39.134  26.356  29.691  1.00  0.00    -0.206 F 
ATOM     70  C   UNL A   1      41.217  26.050  26.748  1.00  0.00     0.022 A 
BRANCH  67  71
ATOM     71  S   UNL A   1      43.216  27.621  25.600  1.00  0.00     0.124 S 
ATOM     72  O   UNL A   1      43.873  26.344  25.332  1.00  0.00    -0.237 OA
ATOM     73  O   UNL A   1      42.337  28.120  24.548  1.00  0.00    -0.237 OA
ATOM     74  O   UNL A   1      44.061  28.630  26.236  1.00  0.00    -0.744 OA
ENDBRANCH  67  71
ENDBRANCH  50  64
BRANCH  51  75
ATOM     75  C   UNL A   1      39.716  33.729  36.936  1.00  0.00     0.023 A 
ATOM     76  C   UNL A   1      39.054  33.280  38.089  1.00  0.00     0.031 A 
ATOM     77  C   UNL A   1      40.206  35.047  36.925  1.00  0.00     0.131 A 
ATOM     78  C   UNL A   1      38.878  34.149  39.177  1.00  0.00     0.055 A 
ATOM     79  C   UNL A   1      40.066  35.895  38.025  1.00  0.00     0.041 A 
ATOM     80  F   UNL A   1      40.852  35.521  35.848  1.00  0.00    -0.206 F 
ATOM     81  C   UNL A   1      39.392  35.449  39.158  1.00  0.00     0.022 A 
BRANCH  78  82
ATOM     82  S   UNL A   1      37.935  33.569  40.613  1.00  0.00     0.124 S 
ATOM     83  O   UNL A   1      37.767  34.802  41.375  1.00  0.00    -0.237 OA
ATOM     84  O   UNL A   1      36.732  33.028  39.990  1.00  0.00    -0.237 OA
ATOM     85  O   UNL A   1      38.819  32.575  41.221  1.00  0.00    -0.744 OA
ENDBRANCH  78  82
ENDBRANCH  51  75
BRANCH  63  86
ATOM     86  C   UNL A   1      44.262  28.667  35.356  1.00  0.00     0.023 A 
ATOM     87  C   UNL A   1      45.553  29.201  35.207  1.00  0.00     0.031 A 
ATOM     88  C   UNL A   1      44.078  27.605  36.257  1.00  0.00     0.131 A 
ATOM     89  C   UNL A   1      46.619  28.652  35.933  1.00  0.00     0.055 A 
ATOM     90  C   UNL A   1      45.133  27.096  37.014  1.00  0.00     0.041 A 
ATOM     91  F   UNL A   1      42.862  27.064  36.437  1.00  0.00    -0.206 F 
ATOM     92  C   UNL A   1      46.415  27.616  36.850  1.00  0.00     0.022 A 
BRANCH  89  93
ATOM     93  S   UNL A   1      48.291  29.290  35.640  1.00  0.00     0.124 S 
ATOM     94  O   UNL A   1      48.220  30.612  36.254  1.00  0.00    -0.237 OA
ATOM     95  O   UNL A   1      49.126  28.312  36.329  1.00  0.00    -0.237 OA
ATOM     96  O   UNL A   1      48.409  29.286  34.184  1.00  0.00    -0.744 OA
ENDBRANCH  89  93
ENDBRANCH  63  86
ENDBRANCH  37  38
ENDBRANCH  29  32
ENDBRANCH  27  28
ENDBRANCH  26  27
ENDBRANCH   1  26
TORSDOF 17
ENDMDL
