MODEL 1
REMARK VINA RESULT:     -11.3      0.000      0.000
REMARK SMILES O=C(NCCCCCCNC(=O)[C@@]1(Cl)C[C@@H]2CC[C@H]1C2)c1ccc(-c2c3nc(c(-c4cc(S(=O)(=O)[O-])ccc4F)c4ccc([nH]4)c(-c4cc(S(=O)(=O)[O-])ccc4F)c4nc(c(-c5cc(S(=O)(=O)[O-])ccc5F)c5ccc2[nH]5)C=C4)C=C3)cc1
REMARK SMILES IDX 5 1 4 2 3 3 1 4 2 5 21 7 22 8 83 9 23 10 82 11 24 12 25 13
REMARK SMILES IDX 26 14 76 15 27 16 81 17 75 18 77 19 28 20 80 21 74 22 73 23
REMARK SMILES IDX 29 25 61 26 41 27 60 28 42 29 45 30 59 31 78 32 43 33 44 34
REMARK SMILES IDX 58 36 79 37 46 38 30 39 31 40 39 41 32 42 38 43 40 44 37 45
REMARK SMILES IDX 33 46 34 47 35 48 36 49 62 50 63 51 71 52 64 53 70 54 72 55
REMARK SMILES IDX 69 56 65 57 66 58 67 59 68 60 47 61 48 62 56 63 49 64 55 65
REMARK SMILES IDX 57 66 54 67 50 68 51 69 52 70 53 71 6 72 7 73 8 74 9 75
REMARK SMILES IDX 10 76 11 77 12 79 13 80 15 81 19 82 14 83 16 84 18 85 20 86
REMARK SMILES IDX 17 87
REMARK H PARENT 3 6 77 24 45 35 10 78
REMARK Flexibility Score: inf
ROOT
ATOM      1  C   UNL A   1      31.494  31.902  26.566  1.00  0.00     0.021 C 
ENDROOT
BRANCH   1   2
ATOM      2  C   UNL A   1      32.752  32.430  27.242  1.00  0.00     0.116 C 
BRANCH   2   3
ATOM      3  N   UNL A   1      32.617  33.818  27.651  1.00  0.00    -0.352 N 
ATOM      4  O   UNL A   1      32.914  35.614  28.981  1.00  0.00    -0.269 OA
ATOM      5  C   UNL A   1      33.276  34.487  28.652  1.00  0.00     0.251 C 
ATOM      6  H   UNL A   1      31.964  34.350  27.141  1.00  0.00     0.163 HD
BRANCH   5   7
ATOM      7  C   UNL A   1      34.416  33.840  29.338  1.00  0.00     0.039 A 
ATOM      8  C   UNL A   1      35.729  34.222  29.051  1.00  0.00     0.014 A 
ATOM      9  C   UNL A   1      34.165  32.850  30.293  1.00  0.00     0.014 A 
ATOM     10  C   UNL A   1      36.791  33.536  29.629  1.00  0.00     0.010 A 
ATOM     11  C   UNL A   1      35.235  32.217  30.934  1.00  0.00     0.010 A 
ATOM     12  C   UNL A   1      36.557  32.543  30.594  1.00  0.00    -0.014 A 
BRANCH  12  13
ATOM     13  C   UNL A   1      37.712  31.923  31.291  1.00  0.00     0.031 A 
ATOM     14  C   UNL A   1      38.541  30.858  30.633  1.00  0.00     0.074 A 
ATOM     15  C   UNL A   1      38.016  32.352  32.533  1.00  0.00     0.049 A 
ATOM     16  N   UNL A   1      39.584  30.218  31.100  1.00  0.00    -0.248 NA
ATOM     17  C   UNL A   1      38.146  30.451  29.277  1.00  0.00     0.031 C 
ATOM     18  C   UNL A   1      37.270  33.377  33.271  1.00  0.00     0.029 A 
ATOM     19  N   UNL A   1      39.029  32.003  33.386  1.00  0.00    -0.354 N 
ATOM     20  C   UNL A   1      39.964  29.325  30.104  1.00  0.00     0.074 A 
ATOM     21  C   UNL A   1      39.017  29.484  29.019  1.00  0.00     0.031 C 
ATOM     22  C   UNL A   1      37.875  33.602  34.445  1.00  0.00     0.029 A 
ATOM     23  C   UNL A   1      39.008  32.693  34.576  1.00  0.00     0.049 A 
ATOM     24  H   UNL A   1      39.708  31.323  33.169  1.00  0.00     0.167 HD
ATOM     25  C   UNL A   1      41.010  28.459  30.098  1.00  0.00     0.034 A 
ATOM     26  C   UNL A   1      39.795  32.591  35.663  1.00  0.00     0.034 A 
ATOM     27  C   UNL A   1      41.940  28.314  31.195  1.00  0.00     0.049 A 
ATOM     28  C   UNL A   1      40.921  31.595  35.645  1.00  0.00     0.074 A 
ATOM     29  C   UNL A   1      43.050  27.491  31.281  1.00  0.00     0.029 A 
ATOM     30  N   UNL A   1      41.863  28.999  32.402  1.00  0.00    -0.354 N 
ATOM     31  N   UNL A   1      41.278  30.771  34.686  1.00  0.00    -0.248 NA
ATOM     32  C   UNL A   1      41.751  31.515  36.852  1.00  0.00     0.031 C 
ATOM     33  C   UNL A   1      43.603  27.629  32.560  1.00  0.00     0.029 A 
ATOM     34  C   UNL A   1      42.885  28.594  33.249  1.00  0.00     0.049 A 
ATOM     35  H   UNL A   1      41.182  29.674  32.623  1.00  0.00     0.167 HD
ATOM     36  C   UNL A   1      42.387  30.086  35.171  1.00  0.00     0.074 A 
ATOM     37  C   UNL A   1      42.652  30.612  36.496  1.00  0.00     0.031 C 
ATOM     38  C   UNL A   1      43.121  29.111  34.576  1.00  0.00     0.034 A 
BRANCH  25  39
ATOM     39  C   UNL A   1      41.175  27.574  28.885  1.00  0.00     0.023 A 
ATOM     40  C   UNL A   1      42.175  27.806  27.926  1.00  0.00     0.031 A 
ATOM     41  C   UNL A   1      40.309  26.484  28.679  1.00  0.00     0.131 A 
ATOM     42  C   UNL A   1      42.245  27.004  26.776  1.00  0.00     0.055 A 
ATOM     43  C   UNL A   1      40.430  25.644  27.571  1.00  0.00     0.041 A 
ATOM     44  F   UNL A   1      39.321  26.222  29.551  1.00  0.00    -0.206 F 
ATOM     45  C   UNL A   1      41.395  25.910  26.603  1.00  0.00     0.022 A 
BRANCH  42  46
ATOM     46  S   UNL A   1      43.380  27.489  25.447  1.00  0.00     0.124 S 
ATOM     47  O   UNL A   1      44.149  26.262  25.250  1.00  0.00    -0.237 OA
ATOM     48  O   UNL A   1      42.468  27.850  24.368  1.00  0.00    -0.237 OA
ATOM     49  O   UNL A   1      44.134  28.600  26.026  1.00  0.00    -0.744 OA
ENDBRANCH  42  46
ENDBRANCH  25  39
BRANCH  26  50
ATOM     50  C   UNL A   1      39.524  33.426  36.866  1.00  0.00     0.023 A 
ATOM     51  C   UNL A   1      38.861  32.897  37.983  1.00  0.00     0.031 A 
ATOM     52  C   UNL A   1      39.909  34.779  36.906  1.00  0.00     0.131 A 
ATOM     53  C   UNL A   1      38.568  33.724  39.078  1.00  0.00     0.055 A 
ATOM     54  C   UNL A   1      39.664  35.583  38.019  1.00  0.00     0.041 A 
ATOM     55  F   UNL A   1      40.551  35.333  35.865  1.00  0.00    -0.206 F 
ATOM     56  C   UNL A   1      38.978  35.059  39.109  1.00  0.00     0.022 A 
BRANCH  53  57
ATOM     57  S   UNL A   1      37.572  33.049  40.434  1.00  0.00     0.124 S 
ATOM     58  O   UNL A   1      37.619  34.133  41.408  1.00  0.00    -0.237 OA
ATOM     59  O   UNL A   1      36.285  32.828  39.782  1.00  0.00    -0.237 OA
ATOM     60  O   UNL A   1      38.292  31.836  40.814  1.00  0.00    -0.744 OA
ENDBRANCH  53  57
ENDBRANCH  26  50
BRANCH  38  61
ATOM     61  C   UNL A   1      44.297  28.580  35.358  1.00  0.00     0.023 A 
ATOM     62  C   UNL A   1      44.142  27.578  36.331  1.00  0.00     0.031 A 
ATOM     63  C   UNL A   1      45.582  29.110  35.150  1.00  0.00     0.131 A 
ATOM     64  C   UNL A   1      45.244  27.180  37.104  1.00  0.00     0.055 A 
ATOM     65  C   UNL A   1      46.685  28.668  35.881  1.00  0.00     0.041 A 
ATOM     66  F   UNL A   1      45.785  30.073  34.236  1.00  0.00    -0.206 F 
ATOM     67  C   UNL A   1      46.516  27.708  36.874  1.00  0.00     0.022 A 
BRANCH  64  68
ATOM     68  S   UNL A   1      44.970  26.035  38.485  1.00  0.00     0.124 S 
ATOM     69  O   UNL A   1      44.747  24.771  37.790  1.00  0.00    -0.237 OA
ATOM     70  O   UNL A   1      46.219  26.141  39.231  1.00  0.00    -0.237 OA
ATOM     71  O   UNL A   1      43.796  26.588  39.159  1.00  0.00    -0.744 OA
ENDBRANCH  64  68
ENDBRANCH  38  61
ENDBRANCH  12  13
ENDBRANCH   5   7
ENDBRANCH   2   3
ENDBRANCH   1   2
BRANCH   1  72
ATOM     72  C   UNL A   1      31.584  30.455  26.076  1.00  0.00     0.002 C 
BRANCH  72  73
ATOM     73  C   UNL A   1      32.327  29.490  27.006  1.00  0.00     0.002 C 
BRANCH  73  74
ATOM     74  C   UNL A   1      31.550  28.233  27.407  1.00  0.00     0.021 C 
BRANCH  74  75
ATOM     75  C   UNL A   1      31.507  27.139  26.339  1.00  0.00     0.116 C 
BRANCH  75  76
ATOM     76  N   UNL A   1      31.244  25.844  26.936  1.00  0.00    -0.355 N 
ATOM     77  C   UNL A   1      31.468  24.557  26.580  1.00  0.00     0.241 C 
ATOM     78  H   UNL A   1      30.794  25.918  27.809  1.00  0.00     0.163 HD
ATOM     79  O   UNL A   1      30.891  23.729  27.306  1.00  0.00    -0.273 OA
BRANCH  77  80
ATOM     80  C   UNL A   1      32.362  24.056  25.410  1.00  0.00     0.126 C 
ATOM     81  C   UNL A   1      32.344  25.134  24.287  1.00  0.00     0.037 C 
ATOM     82  C   UNL A   1      33.878  23.821  25.595  1.00  0.00     0.020 C 
ATOM     83  Cl  UNL A   1      31.545  22.538  24.855  1.00  0.00    -0.108 Cl
ATOM     84  C   UNL A   1      33.839  25.424  24.046  1.00  0.00    -0.009 C 
ATOM     85  C   UNL A   1      34.543  23.159  24.363  1.00  0.00     0.006 C 
ATOM     86  C   UNL A   1      34.426  25.249  25.444  1.00  0.00     0.009 C 
ATOM     87  C   UNL A   1      34.463  24.246  23.288  1.00  0.00     0.004 C 
ENDBRANCH  77  80
ENDBRANCH  75  76
ENDBRANCH  74  75
ENDBRANCH  73  74
ENDBRANCH  72  73
ENDBRANCH   1  72
TORSDOF 16
ENDMDL
MODEL 2
REMARK VINA RESULT:     -11.2      2.432      3.180
REMARK SMILES O=C(NCCCCCCNC(=O)[C@@]1(Cl)C[C@@H]2CC[C@H]1C2)c1ccc(-c2c3nc(c(-c4cc(S(=O)(=O)[O-])ccc4F)c4ccc([nH]4)c(-c4cc(S(=O)(=O)[O-])ccc4F)c4nc(c(-c5cc(S(=O)(=O)[O-])ccc5F)c5ccc2[nH]5)C=C4)C=C3)cc1
REMARK SMILES IDX 5 1 4 2 3 3 1 4 2 5 21 7 22 8 83 9 23 10 82 11 24 12 25 13
REMARK SMILES IDX 26 14 76 15 27 16 81 17 75 18 77 19 28 20 80 21 74 22 73 23
REMARK SMILES IDX 29 25 61 26 41 27 60 28 42 29 45 30 59 31 78 32 43 33 44 34
REMARK SMILES IDX 58 36 79 37 46 38 30 39 31 40 39 41 32 42 38 43 40 44 37 45
REMARK SMILES IDX 33 46 34 47 35 48 36 49 62 50 63 51 71 52 64 53 70 54 72 55
REMARK SMILES IDX 69 56 65 57 66 58 67 59 68 60 47 61 48 62 56 63 49 64 55 65
REMARK SMILES IDX 57 66 54 67 50 68 51 69 52 70 53 71 6 72 7 73 8 74 9 75
REMARK SMILES IDX 10 76 11 77 12 79 13 80 15 81 19 82 14 83 16 84 18 85 20 86
REMARK SMILES IDX 17 87
REMARK H PARENT 3 6 77 24 45 35 10 78
REMARK Flexibility Score: inf
ROOT
ATOM      1  C   UNL A   1      32.255  27.730  24.994  1.00  0.00     0.021 C 
ENDROOT
BRANCH   1   2
ATOM      2  C   UNL A   1      33.210  28.917  24.997  1.00  0.00     0.116 C 
BRANCH   2   3
ATOM      3  N   UNL A   1      32.577  30.132  25.483  1.00  0.00    -0.352 N 
ATOM      4  O   UNL A   1      32.132  31.775  26.961  1.00  0.00    -0.269 OA
ATOM      5  C   UNL A   1      32.882  30.872  26.599  1.00  0.00     0.251 C 
ATOM      6  H   UNL A   1      31.829  30.469  24.939  1.00  0.00     0.163 HD
BRANCH   5   7
ATOM      7  C   UNL A   1      34.110  30.568  27.366  1.00  0.00     0.039 A 
ATOM      8  C   UNL A   1      35.051  31.568  27.626  1.00  0.00     0.014 A 
ATOM      9  C   UNL A   1      34.313  29.271  27.844  1.00  0.00     0.014 A 
ATOM     10  C   UNL A   1      36.246  31.246  28.260  1.00  0.00     0.010 A 
ATOM     11  C   UNL A   1      35.480  28.967  28.553  1.00  0.00     0.010 A 
ATOM     12  C   UNL A   1      36.463  29.948  28.752  1.00  0.00    -0.014 A 
BRANCH  12  13
ATOM     13  C   UNL A   1      37.689  29.668  29.542  1.00  0.00     0.031 A 
ATOM     14  C   UNL A   1      38.782  28.791  29.003  1.00  0.00     0.074 A 
ATOM     15  C   UNL A   1      37.810  30.238  30.758  1.00  0.00     0.049 A 
ATOM     16  N   UNL A   1      39.917  28.450  29.560  1.00  0.00    -0.248 NA
ATOM     17  C   UNL A   1      38.573  28.215  27.667  1.00  0.00     0.031 C 
ATOM     18  C   UNL A   1      36.803  31.101  31.384  1.00  0.00     0.029 A 
ATOM     19  N   UNL A   1      38.826  30.197  31.677  1.00  0.00    -0.354 N 
ATOM     20  C   UNL A   1      40.554  27.611  28.653  1.00  0.00     0.074 A 
ATOM     21  C   UNL A   1      39.661  27.469  27.521  1.00  0.00     0.031 C 
ATOM     22  C   UNL A   1      37.269  31.540  32.561  1.00  0.00     0.029 A 
ATOM     23  C   UNL A   1      38.574  30.938  32.808  1.00  0.00     0.049 A 
ATOM     24  H   UNL A   1      39.656  29.686  31.541  1.00  0.00     0.167 HD
ATOM     25  C   UNL A   1      41.772  27.021  28.757  1.00  0.00     0.034 A 
ATOM     26  C   UNL A   1      39.298  31.098  33.931  1.00  0.00     0.034 A 
ATOM     27  C   UNL A   1      42.644  27.174  29.899  1.00  0.00     0.049 A 
ATOM     28  C   UNL A   1      40.625  30.400  34.037  1.00  0.00     0.074 A 
ATOM     29  C   UNL A   1      43.910  26.646  30.095  1.00  0.00     0.029 A 
ATOM     30  N   UNL A   1      42.338  27.898  31.046  1.00  0.00    -0.354 N 
ATOM     31  N   UNL A   1      41.221  29.625  33.160  1.00  0.00    -0.248 NA
ATOM     32  C   UNL A   1      41.378  30.599  35.280  1.00  0.00     0.031 C 
ATOM     33  C   UNL A   1      44.339  26.996  31.381  1.00  0.00     0.029 A 
ATOM     34  C   UNL A   1      43.376  27.804  31.963  1.00  0.00     0.049 A 
ATOM     35  H   UNL A   1      41.506  28.405  31.186  1.00  0.00     0.167 HD
ATOM     36  C   UNL A   1      42.430  29.257  33.742  1.00  0.00     0.074 A 
ATOM     37  C   UNL A   1      42.486  29.916  35.032  1.00  0.00     0.031 C 
ATOM     38  C   UNL A   1      43.405  28.448  33.255  1.00  0.00     0.034 A 
BRANCH  25  39
ATOM     39  C   UNL A   1      42.211  26.123  27.624  1.00  0.00     0.023 A 
ATOM     40  C   UNL A   1      41.810  24.779  27.544  1.00  0.00     0.031 A 
ATOM     41  C   UNL A   1      43.053  26.618  26.612  1.00  0.00     0.131 A 
ATOM     42  C   UNL A   1      42.301  23.960  26.516  1.00  0.00     0.055 A 
ATOM     43  C   UNL A   1      43.479  25.819  25.550  1.00  0.00     0.041 A 
ATOM     44  F   UNL A   1      43.485  27.889  26.643  1.00  0.00    -0.206 F 
ATOM     45  C   UNL A   1      43.113  24.476  25.504  1.00  0.00     0.022 A 
BRANCH  42  46
ATOM     46  S   UNL A   1      41.966  22.179  26.589  1.00  0.00     0.124 S 
ATOM     47  O   UNL A   1      40.505  22.151  26.608  1.00  0.00    -0.237 OA
ATOM     48  O   UNL A   1      42.597  21.688  25.369  1.00  0.00    -0.237 OA
ATOM     49  O   UNL A   1      42.605  21.760  27.835  1.00  0.00    -0.744 OA
ENDBRANCH  42  46
ENDBRANCH  25  39
BRANCH  26  50
ATOM     50  C   UNL A   1      38.768  31.921  35.054  1.00  0.00     0.023 A 
ATOM     51  C   UNL A   1      38.326  31.326  36.245  1.00  0.00     0.031 A 
ATOM     52  C   UNL A   1      38.678  33.321  34.942  1.00  0.00     0.131 A 
ATOM     53  C   UNL A   1      37.778  32.123  37.263  1.00  0.00     0.055 A 
ATOM     54  C   UNL A   1      38.182  34.113  35.977  1.00  0.00     0.041 A 
ATOM     55  F   UNL A   1      39.091  33.940  33.825  1.00  0.00    -0.206 F 
ATOM     56  C   UNL A   1      37.717  33.513  37.141  1.00  0.00     0.022 A 
BRANCH  53  57
ATOM     57  S   UNL A   1      37.072  31.306  38.719  1.00  0.00     0.124 S 
ATOM     58  O   UNL A   1      36.972  29.924  38.266  1.00  0.00    -0.237 OA
ATOM     59  O   UNL A   1      38.084  31.575  39.736  1.00  0.00    -0.237 OA
ATOM     60  O   UNL A   1      35.799  31.995  38.912  1.00  0.00    -0.744 OA
ENDBRANCH  53  57
ENDBRANCH  26  50
BRANCH  38  61
ATOM     61  C   UNL A   1      44.626  28.265  34.124  1.00  0.00     0.023 A 
ATOM     62  C   UNL A   1      44.706  27.231  35.072  1.00  0.00     0.031 A 
ATOM     63  C   UNL A   1      45.705  29.160  34.024  1.00  0.00     0.131 A 
ATOM     64  C   UNL A   1      45.816  27.153  35.927  1.00  0.00     0.055 A 
ATOM     65  C   UNL A   1      46.833  29.041  34.837  1.00  0.00     0.041 A 
ATOM     66  F   UNL A   1      45.678  30.169  33.138  1.00  0.00    -0.206 F 
ATOM     67  C   UNL A   1      46.886  28.042  35.804  1.00  0.00     0.022 A 
BRANCH  64  68
ATOM     68  S   UNL A   1      45.796  25.933  37.270  1.00  0.00     0.124 S 
ATOM     69  O   UNL A   1      46.394  24.767  36.629  1.00  0.00    -0.237 OA
ATOM     70  O   UNL A   1      46.606  26.584  38.294  1.00  0.00    -0.237 OA
ATOM     71  O   UNL A   1      44.376  25.804  37.593  1.00  0.00    -0.744 OA
ENDBRANCH  64  68
ENDBRANCH  38  61
ENDBRANCH  12  13
ENDBRANCH   5   7
ENDBRANCH   2   3
ENDBRANCH   1   2
BRANCH   1  72
ATOM     72  C   UNL A   1      31.324  27.654  23.784  1.00  0.00     0.002 C 
BRANCH  72  73
ATOM     73  C   UNL A   1      30.072  26.789  23.968  1.00  0.00     0.002 C 
BRANCH  73  74
ATOM     74  C   UNL A   1      30.328  25.351  24.429  1.00  0.00     0.021 C 
BRANCH  74  75
ATOM     75  C   UNL A   1      30.398  24.320  23.301  1.00  0.00     0.116 C 
BRANCH  75  76
ATOM     76  N   UNL A   1      31.604  24.494  22.516  1.00  0.00    -0.355 N 
ATOM     77  C   UNL A   1      32.927  24.296  22.726  1.00  0.00     0.241 C 
ATOM     78  H   UNL A   1      31.417  24.840  21.613  1.00  0.00     0.163 HD
ATOM     79  O   UNL A   1      33.652  24.772  21.837  1.00  0.00    -0.273 OA
BRANCH  77  80
ATOM     80  C   UNL A   1      33.577  23.537  23.919  1.00  0.00     0.126 C 
ATOM     81  C   UNL A   1      35.116  23.502  23.694  1.00  0.00     0.037 C 
ATOM     82  C   UNL A   1      33.482  24.073  25.364  1.00  0.00     0.020 C 
ATOM     83  Cl  UNL A   1      32.874  21.871  23.811  1.00  0.00    -0.108 Cl
ATOM     84  C   UNL A   1      35.682  24.096  25.000  1.00  0.00    -0.009 C 
ATOM     85  C   UNL A   1      34.040  23.082  26.415  1.00  0.00     0.006 C 
ATOM     86  C   UNL A   1      34.611  25.117  25.374  1.00  0.00     0.009 C 
ATOM     87  C   UNL A   1      35.543  23.061  26.123  1.00  0.00     0.004 C 
ENDBRANCH  77  80
ENDBRANCH  75  76
ENDBRANCH  74  75
ENDBRANCH  73  74
ENDBRANCH  72  73
ENDBRANCH   1  72
TORSDOF 16
ENDMDL
MODEL 3
REMARK VINA RESULT:     -11.1      5.781      8.801
REMARK SMILES O=C(NCCCCCCNC(=O)[C@@]1(Cl)C[C@@H]2CC[C@H]1C2)c1ccc(-c2c3nc(c(-c4cc(S(=O)(=O)[O-])ccc4F)c4ccc([nH]4)c(-c4cc(S(=O)(=O)[O-])ccc4F)c4nc(c(-c5cc(S(=O)(=O)[O-])ccc5F)c5ccc2[nH]5)C=C4)C=C3)cc1
REMARK SMILES IDX 5 1 4 2 3 3 1 4 2 5 21 7 22 8 83 9 23 10 82 11 24 12 25 13
REMARK SMILES IDX 26 14 76 15 27 16 81 17 75 18 77 19 28 20 80 21 74 22 73 23
REMARK SMILES IDX 29 25 61 26 41 27 60 28 42 29 45 30 59 31 78 32 43 33 44 34
REMARK SMILES IDX 58 36 79 37 46 38 30 39 31 40 39 41 32 42 38 43 40 44 37 45
REMARK SMILES IDX 33 46 34 47 35 48 36 49 62 50 63 51 71 52 64 53 70 54 72 55
REMARK SMILES IDX 69 56 65 57 66 58 67 59 68 60 47 61 48 62 56 63 49 64 55 65
REMARK SMILES IDX 57 66 54 67 50 68 51 69 52 70 53 71 6 72 7 73 8 74 9 75
REMARK SMILES IDX 10 76 11 77 12 79 13 80 15 81 19 82 14 83 16 84 18 85 20 86
REMARK SMILES IDX 17 87
REMARK H PARENT 3 6 77 24 45 35 10 78
REMARK Flexibility Score: inf
ROOT
ATOM      1  C   UNL A   1      35.932  21.321  25.327  1.00  0.00     0.021 C 
ENDROOT
BRANCH   1   2
ATOM      2  C   UNL A   1      37.402  21.518  24.981  1.00  0.00     0.116 C 
BRANCH   2   3
ATOM      3  N   UNL A   1      38.242  20.468  25.531  1.00  0.00    -0.352 N 
ATOM      4  O   UNL A   1      40.128  19.568  26.377  1.00  0.00    -0.269 OA
ATOM      5  C   UNL A   1      39.475  20.577  26.127  1.00  0.00     0.251 C 
ATOM      6  H   UNL A   1      37.879  19.555  25.468  1.00  0.00     0.163 HD
BRANCH   5   7
ATOM      7  C   UNL A   1      40.014  21.916  26.452  1.00  0.00     0.039 A 
ATOM      8  C   UNL A   1      41.110  22.051  27.310  1.00  0.00     0.014 A 
ATOM      9  C   UNL A   1      39.427  23.047  25.879  1.00  0.00     0.014 A 
ATOM     10  C   UNL A   1      41.541  23.318  27.686  1.00  0.00     0.010 A 
ATOM     11  C   UNL A   1      39.915  24.319  26.196  1.00  0.00     0.010 A 
ATOM     12  C   UNL A   1      40.965  24.465  27.115  1.00  0.00    -0.014 A 
BRANCH  12  13
ATOM     13  C   UNL A   1      41.537  25.799  27.433  1.00  0.00     0.031 A 
ATOM     14  C   UNL A   1      42.897  26.202  26.939  1.00  0.00     0.074 A 
ATOM     15  C   UNL A   1      40.796  26.655  28.165  1.00  0.00     0.049 A 
ATOM     16  N   UNL A   1      43.540  27.328  27.122  1.00  0.00    -0.248 NA
ATOM     17  C   UNL A   1      43.636  25.212  26.143  1.00  0.00     0.031 C 
ATOM     18  C   UNL A   1      39.464  26.361  28.704  1.00  0.00     0.029 A 
ATOM     19  N   UNL A   1      41.040  27.940  28.569  1.00  0.00    -0.354 N 
ATOM     20  C   UNL A   1      44.763  27.182  26.477  1.00  0.00     0.074 A 
ATOM     21  C   UNL A   1      44.783  25.842  25.924  1.00  0.00     0.031 C 
ATOM     22  C   UNL A   1      38.993  27.448  29.330  1.00  0.00     0.029 A 
ATOM     23  C   UNL A   1      40.011  28.491  29.299  1.00  0.00     0.049 A 
ATOM     24  H   UNL A   1      41.870  28.425  28.358  1.00  0.00     0.167 HD
ATOM     25  C   UNL A   1      45.768  28.085  26.353  1.00  0.00     0.034 A 
ATOM     26  C   UNL A   1      39.906  29.691  29.899  1.00  0.00     0.034 A 
ATOM     27  C   UNL A   1      45.727  29.415  26.917  1.00  0.00     0.049 A 
ATOM     28  C   UNL A   1      41.052  30.658  29.781  1.00  0.00     0.074 A 
ATOM     29  C   UNL A   1      46.676  30.420  26.827  1.00  0.00     0.029 A 
ATOM     30  N   UNL A   1      44.687  29.924  27.686  1.00  0.00    -0.354 N 
ATOM     31  N   UNL A   1      42.194  30.509  29.149  1.00  0.00    -0.248 NA
ATOM     32  C   UNL A   1      40.895  31.952  30.453  1.00  0.00     0.031 C 
ATOM     33  C   UNL A   1      46.241  31.508  27.594  1.00  0.00     0.029 A 
ATOM     34  C   UNL A   1      44.986  31.214  28.102  1.00  0.00     0.049 A 
ATOM     35  H   UNL A   1      43.859  29.440  27.903  1.00  0.00     0.167 HD
ATOM     36  C   UNL A   1      42.886  31.701  29.336  1.00  0.00     0.074 A 
ATOM     37  C   UNL A   1      42.021  32.564  30.117  1.00  0.00     0.031 C 
ATOM     38  C   UNL A   1      44.123  32.052  28.902  1.00  0.00     0.034 A 
BRANCH  25  39
ATOM     39  C   UNL A   1      47.012  27.647  25.618  1.00  0.00     0.023 A 
ATOM     40  C   UNL A   1      47.216  27.944  24.259  1.00  0.00     0.031 A 
ATOM     41  C   UNL A   1      48.007  26.908  26.284  1.00  0.00     0.131 A 
ATOM     42  C   UNL A   1      48.351  27.454  23.595  1.00  0.00     0.055 A 
ATOM     43  C   UNL A   1      49.171  26.486  25.637  1.00  0.00     0.041 A 
ATOM     44  F   UNL A   1      47.862  26.577  27.576  1.00  0.00    -0.206 F 
ATOM     45  C   UNL A   1      49.342  26.747  24.280  1.00  0.00     0.022 A 
BRANCH  42  46
ATOM     46  S   UNL A   1      48.453  27.643  21.794  1.00  0.00     0.124 S 
ATOM     47  O   UNL A   1      48.684  26.265  21.364  1.00  0.00    -0.237 OA
ATOM     48  O   UNL A   1      47.149  28.204  21.461  1.00  0.00    -0.237 OA
ATOM     49  O   UNL A   1      49.588  28.544  21.606  1.00  0.00    -0.744 OA
ENDBRANCH  42  46
ENDBRANCH  25  39
BRANCH  26  50
ATOM     50  C   UNL A   1      38.691  30.030  30.691  1.00  0.00     0.023 A 
ATOM     51  C   UNL A   1      37.669  30.823  30.149  1.00  0.00     0.031 A 
ATOM     52  C   UNL A   1      38.545  29.578  32.015  1.00  0.00     0.131 A 
ATOM     53  C   UNL A   1      36.563  31.173  30.940  1.00  0.00     0.055 A 
ATOM     54  C   UNL A   1      37.418  29.883  32.779  1.00  0.00     0.041 A 
ATOM     55  F   UNL A   1      39.492  28.812  32.580  1.00  0.00    -0.206 F 
ATOM     56  C   UNL A   1      36.425  30.696  32.245  1.00  0.00     0.022 A 
BRANCH  53  57
ATOM     57  S   UNL A   1      35.342  32.328  30.260  1.00  0.00     0.124 S 
ATOM     58  O   UNL A   1      34.857  31.598  29.095  1.00  0.00    -0.237 OA
ATOM     59  O   UNL A   1      34.403  32.462  31.369  1.00  0.00    -0.237 OA
ATOM     60  O   UNL A   1      36.130  33.522  29.966  1.00  0.00    -0.744 OA
ENDBRANCH  53  57
ENDBRANCH  26  50
BRANCH  38  61
ATOM     61  C   UNL A   1      44.589  33.445  29.246  1.00  0.00     0.023 A 
ATOM     62  C   UNL A   1      44.399  34.523  28.364  1.00  0.00     0.031 A 
ATOM     63  C   UNL A   1      45.262  33.688  30.456  1.00  0.00     0.131 A 
ATOM     64  C   UNL A   1      44.933  35.783  28.678  1.00  0.00     0.055 A 
ATOM     65  C   UNL A   1      45.737  34.956  30.789  1.00  0.00     0.041 A 
ATOM     66  F   UNL A   1      45.473  32.692  31.332  1.00  0.00    -0.206 F 
ATOM     67  C   UNL A   1      45.586  36.009  29.892  1.00  0.00     0.022 A 
BRANCH  64  68
ATOM     68  S   UNL A   1      44.847  37.099  27.432  1.00  0.00     0.124 S 
ATOM     69  O   UNL A   1      45.104  38.292  28.232  1.00  0.00    -0.237 OA
ATOM     70  O   UNL A   1      45.903  36.715  26.501  1.00  0.00    -0.237 OA
ATOM     71  O   UNL A   1      43.487  36.985  26.907  1.00  0.00    -0.744 OA
ENDBRANCH  64  68
ENDBRANCH  38  61
ENDBRANCH  12  13
ENDBRANCH   5   7
ENDBRANCH   2   3
ENDBRANCH   1   2
BRANCH   1  72
ATOM     72  C   UNL A   1      34.976  22.322  24.675  1.00  0.00     0.002 C 
BRANCH  72  73
ATOM     73  C   UNL A   1      33.704  21.720  24.069  1.00  0.00     0.002 C 
BRANCH  73  74
ATOM     74  C   UNL A   1      32.649  21.257  25.079  1.00  0.00     0.021 C 
BRANCH  74  75
ATOM     75  C   UNL A   1      32.708  21.963  26.435  1.00  0.00     0.116 C 
BRANCH  75  76
ATOM     76  N   UNL A   1      31.403  22.468  26.812  1.00  0.00    -0.355 N 
ATOM     77  C   UNL A   1      30.691  23.589  26.549  1.00  0.00     0.241 C 
ATOM     78  H   UNL A   1      30.918  21.847  27.403  1.00  0.00     0.163 HD
ATOM     79  O   UNL A   1      29.674  23.713  27.251  1.00  0.00    -0.273 OA
BRANCH  77  80
ATOM     80  C   UNL A   1      31.017  24.667  25.475  1.00  0.00     0.126 C 
ATOM     81  C   UNL A   1      30.064  25.878  25.696  1.00  0.00     0.037 C 
ATOM     82  C   UNL A   1      32.396  25.360  25.419  1.00  0.00     0.020 C 
ATOM     83  Cl  UNL A   1      30.653  23.843  23.904  1.00  0.00    -0.108 Cl
ATOM     84  C   UNL A   1      31.029  27.075  25.818  1.00  0.00    -0.009 C 
ATOM     85  C   UNL A   1      32.569  26.265  24.174  1.00  0.00     0.006 C 
ATOM     86  C   UNL A   1      32.237  26.440  26.501  1.00  0.00     0.009 C 
ATOM     87  C   UNL A   1      31.587  27.412  24.429  1.00  0.00     0.004 C 
ENDBRANCH  77  80
ENDBRANCH  75  76
ENDBRANCH  74  75
ENDBRANCH  73  74
ENDBRANCH  72  73
ENDBRANCH   1  72
TORSDOF 16
ENDMDL
