MODEL 1
REMARK VINA RESULT:     -12.1      0.000      0.000
REMARK SMILES O=C(NCCCCCCNC(=O)[C@H]1CS[C@]2(c3ccccc3)CCC(=O)N12)c1ccc(-c2c3nc(c(-c4cc(S(=O)(=O)[O-])ccc4F)c4ccc([nH]4)c(-c4cc(S(=O)(=O)[O-])ccc4F)c4nc(c(-c5cc(S(=O)(=O)[O-])ccc5F)c5ccc2[nH]5)C=C4)C=C3)cc1
REMARK SMILES IDX 5 1 4 2 3 3 1 4 2 5 28 7 29 8 90 9 30 10 89 11 31 12 32 13
REMARK SMILES IDX 33 14 83 15 34 16 88 17 82 18 84 19 35 20 87 21 81 22 80 23
REMARK SMILES IDX 36 25 68 26 48 27 67 28 49 29 52 30 66 31 85 32 50 33 51 34
REMARK SMILES IDX 65 36 86 37 53 38 37 39 38 40 46 41 39 42 45 43 47 44 44 45
REMARK SMILES IDX 40 46 41 47 42 48 43 49 69 50 70 51 78 52 71 53 77 54 79 55
REMARK SMILES IDX 76 56 72 57 73 58 74 59 75 60 54 61 55 62 63 63 56 64 62 65
REMARK SMILES IDX 64 66 61 67 57 68 58 69 59 70 60 71 6 72 7 73 8 74 9 75
REMARK SMILES IDX 10 76 11 77 12 79 13 80 14 81 27 82 15 83 16 84 25 85 23 86
REMARK SMILES IDX 24 87 26 88 17 89 18 90 22 91 19 92 21 93 20 94
REMARK H PARENT 3 6 84 24 52 35 10 78
REMARK Flexibility Score: inf
ROOT
ATOM      1  C   UNL A   1      31.540  32.165  26.842  1.00  0.00     0.021 C 
ENDROOT
BRANCH   1   2
ATOM      2  C   UNL A   1      32.857  32.858  27.162  1.00  0.00     0.116 C 
BRANCH   2   3
ATOM      3  N   UNL A   1      32.680  34.209  27.667  1.00  0.00    -0.352 N 
ATOM      4  O   UNL A   1      32.915  35.947  29.080  1.00  0.00    -0.269 OA
ATOM      5  C   UNL A   1      33.298  34.835  28.725  1.00  0.00     0.251 C 
ATOM      6  H   UNL A   1      32.021  34.757  27.181  1.00  0.00     0.163 HD
BRANCH   5   7
ATOM      7  C   UNL A   1      34.405  34.166  29.451  1.00  0.00     0.039 A 
ATOM      8  C   UNL A   1      35.739  34.431  29.135  1.00  0.00     0.014 A 
ATOM      9  C   UNL A   1      34.100  33.272  30.482  1.00  0.00     0.014 A 
ATOM     10  C   UNL A   1      36.756  33.706  29.751  1.00  0.00     0.010 A 
ATOM     11  C   UNL A   1      35.127  32.606  31.159  1.00  0.00     0.010 A 
ATOM     12  C   UNL A   1      36.465  32.796  30.780  1.00  0.00    -0.014 A 
BRANCH  12  13
ATOM     13  C   UNL A   1      37.584  32.106  31.475  1.00  0.00     0.031 A 
ATOM     14  C   UNL A   1      38.346  30.990  30.814  1.00  0.00     0.074 A 
ATOM     15  C   UNL A   1      37.940  32.533  32.703  1.00  0.00     0.049 A 
ATOM     16  N   UNL A   1      39.374  30.315  31.262  1.00  0.00    -0.248 NA
ATOM     17  C   UNL A   1      37.890  30.572  29.480  1.00  0.00     0.031 C 
ATOM     18  C   UNL A   1      37.263  33.597  33.450  1.00  0.00     0.029 A 
ATOM     19  N   UNL A   1      38.964  32.149  33.530  1.00  0.00    -0.354 N 
ATOM     20  C   UNL A   1      39.690  29.391  30.271  1.00  0.00     0.074 A 
ATOM     21  C   UNL A   1      38.713  29.567  29.215  1.00  0.00     0.031 C 
ATOM     22  C   UNL A   1      37.916  33.810  34.602  1.00  0.00     0.029 A 
ATOM     23  C   UNL A   1      39.020  32.863  34.705  1.00  0.00     0.049 A 
ATOM     24  H   UNL A   1      39.600  31.431  33.306  1.00  0.00     0.167 HD
ATOM     25  C   UNL A   1      40.705  28.491  30.240  1.00  0.00     0.034 A 
ATOM     26  C   UNL A   1      39.855  32.760  35.757  1.00  0.00     0.034 A 
ATOM     27  C   UNL A   1      41.665  28.320  31.307  1.00  0.00     0.049 A 
ATOM     28  C   UNL A   1      40.960  31.740  35.705  1.00  0.00     0.074 A 
ATOM     29  C   UNL A   1      42.729  27.436  31.379  1.00  0.00     0.029 A 
ATOM     30  N   UNL A   1      41.675  29.045  32.492  1.00  0.00    -0.354 N 
ATOM     31  N   UNL A   1      41.246  30.882  34.753  1.00  0.00    -0.248 NA
ATOM     32  C   UNL A   1      41.857  31.680  36.864  1.00  0.00     0.031 C 
ATOM     33  C   UNL A   1      43.348  27.590  32.625  1.00  0.00     0.029 A 
ATOM     34  C   UNL A   1      42.714  28.616  33.307  1.00  0.00     0.049 A 
ATOM     35  H   UNL A   1      41.038  29.759  32.721  1.00  0.00     0.167 HD
ATOM     36  C   UNL A   1      42.367  30.188  35.197  1.00  0.00     0.074 A 
ATOM     37  C   UNL A   1      42.721  30.751  36.484  1.00  0.00     0.031 C 
ATOM     38  C   UNL A   1      43.040  29.173  34.598  1.00  0.00     0.034 A 
BRANCH  25  39
ATOM     39  C   UNL A   1      40.807  27.602  29.024  1.00  0.00     0.023 A 
ATOM     40  C   UNL A   1      41.760  27.840  28.016  1.00  0.00     0.031 A 
ATOM     41  C   UNL A   1      39.936  26.511  28.860  1.00  0.00     0.131 A 
ATOM     42  C   UNL A   1      41.778  27.039  26.864  1.00  0.00     0.055 A 
ATOM     43  C   UNL A   1      40.006  25.673  27.743  1.00  0.00     0.041 A 
ATOM     44  F   UNL A   1      38.993  26.245  29.777  1.00  0.00    -0.206 F 
ATOM     45  C   UNL A   1      40.923  25.943  26.731  1.00  0.00     0.022 A 
BRANCH  42  46
ATOM     46  S   UNL A   1      42.856  27.525  25.488  1.00  0.00     0.124 S 
ATOM     47  O   UNL A   1      42.022  28.501  24.790  1.00  0.00    -0.237 OA
ATOM     48  O   UNL A   1      44.025  28.061  26.175  1.00  0.00    -0.237 OA
ATOM     49  O   UNL A   1      43.074  26.274  24.766  1.00  0.00    -0.744 OA
ENDBRANCH  42  46
ENDBRANCH  25  39
BRANCH  26  50
ATOM     50  C   UNL A   1      39.662  33.624  36.955  1.00  0.00     0.023 A 
ATOM     51  C   UNL A   1      38.992  33.152  38.094  1.00  0.00     0.031 A 
ATOM     52  C   UNL A   1      40.122  34.953  36.962  1.00  0.00     0.131 A 
ATOM     53  C   UNL A   1      38.762  34.016  39.176  1.00  0.00     0.055 A 
ATOM     54  C   UNL A   1      39.939  35.791  38.062  1.00  0.00     0.041 A 
ATOM     55  F   UNL A   1      40.774  35.453  35.900  1.00  0.00    -0.206 F 
ATOM     56  C   UNL A   1      39.243  35.327  39.173  1.00  0.00     0.022 A 
BRANCH  53  57
ATOM     57  S   UNL A   1      37.746  33.424  40.557  1.00  0.00     0.124 S 
ATOM     58  O   UNL A   1      38.631  32.447  41.181  1.00  0.00    -0.237 OA
ATOM     59  O   UNL A   1      37.515  34.653  41.310  1.00  0.00    -0.237 OA
ATOM     60  O   UNL A   1      36.567  32.868  39.897  1.00  0.00    -0.744 OA
ENDBRANCH  53  57
ENDBRANCH  26  50
BRANCH  38  61
ATOM     61  C   UNL A   1      44.241  28.635  35.335  1.00  0.00     0.023 A 
ATOM     62  C   UNL A   1      44.122  27.596  36.273  1.00  0.00     0.031 A 
ATOM     63  C   UNL A   1      45.511  29.202  35.129  1.00  0.00     0.131 A 
ATOM     64  C   UNL A   1      45.241  27.198  37.021  1.00  0.00     0.055 A 
ATOM     65  C   UNL A   1      46.632  28.763  35.834  1.00  0.00     0.041 A 
ATOM     66  F   UNL A   1      45.680  30.200  34.246  1.00  0.00    -0.206 F 
ATOM     67  C   UNL A   1      46.498  27.766  36.797  1.00  0.00     0.022 A 
BRANCH  64  68
ATOM     68  S   UNL A   1      45.009  26.000  38.363  1.00  0.00     0.124 S 
ATOM     69  O   UNL A   1      46.284  26.085  39.068  1.00  0.00    -0.237 OA
ATOM     70  O   UNL A   1      43.852  26.542  39.068  1.00  0.00    -0.237 OA
ATOM     71  O   UNL A   1      44.772  24.740  37.661  1.00  0.00    -0.744 OA
ENDBRANCH  64  68
ENDBRANCH  38  61
ENDBRANCH  12  13
ENDBRANCH   5   7
ENDBRANCH   2   3
ENDBRANCH   1   2
BRANCH   1  72
ATOM     72  C   UNL A   1      31.645  30.735  26.310  1.00  0.00     0.002 C 
BRANCH  72  73
ATOM     73  C   UNL A   1      32.301  29.702  27.231  1.00  0.00     0.002 C 
BRANCH  73  74
ATOM     74  C   UNL A   1      31.474  28.466  27.588  1.00  0.00     0.021 C 
BRANCH  74  75
ATOM     75  C   UNL A   1      31.415  27.363  26.538  1.00  0.00     0.116 C 
BRANCH  75  76
ATOM     76  N   UNL A   1      32.552  27.331  25.658  1.00  0.00    -0.354 N 
ATOM     77  C   UNL A   1      32.917  26.401  24.740  1.00  0.00     0.243 C 
ATOM     78  H   UNL A   1      33.159  28.102  25.734  1.00  0.00     0.163 HD
ATOM     79  O   UNL A   1      33.971  26.627  24.130  1.00  0.00    -0.273 OA
BRANCH  77  80
ATOM     80  C   UNL A   1      32.210  25.034  24.570  1.00  0.00     0.186 C 
ATOM     81  C   UNL A   1      31.829  24.765  23.120  1.00  0.00     0.107 C 
ATOM     82  N   UNL A   1      32.677  23.784  25.196  1.00  0.00    -0.311 N 
ATOM     83  S   UNL A   1      32.578  23.194  22.630  1.00  0.00    -0.126 SA
ATOM     84  C   UNL A   1      33.013  22.657  24.334  1.00  0.00     0.115 C 
ATOM     85  C   UNL A   1      31.908  23.369  26.288  1.00  0.00     0.224 C 
ATOM     86  C   UNL A   1      32.123  21.497  24.825  1.00  0.00     0.055 C 
ATOM     87  C   UNL A   1      31.236  22.078  25.906  1.00  0.00     0.104 C 
ATOM     88  O   UNL A   1      31.591  24.049  27.244  1.00  0.00    -0.275 OA
BRANCH  84  89
ATOM     89  C   UNL A   1      34.473  22.176  24.389  1.00  0.00    -0.012 A 
ATOM     90  C   UNL A   1      34.867  20.969  24.990  1.00  0.00     0.007 A 
ATOM     91  C   UNL A   1      35.484  22.951  23.772  1.00  0.00     0.007 A 
ATOM     92  C   UNL A   1      36.217  20.595  25.044  1.00  0.00     0.000 A 
ATOM     93  C   UNL A   1      36.825  22.558  23.792  1.00  0.00     0.000 A 
ATOM     94  C   UNL A   1      37.193  21.389  24.445  1.00  0.00     0.000 A 
ENDBRANCH  84  89
ENDBRANCH  77  80
ENDBRANCH  75  76
ENDBRANCH  74  75
ENDBRANCH  73  74
ENDBRANCH  72  73
ENDBRANCH   1  72
TORSDOF 17
ENDMDL
MODEL 2
REMARK VINA RESULT:     -12.0      3.047      8.474
REMARK SMILES O=C(NCCCCCCNC(=O)[C@H]1CS[C@]2(c3ccccc3)CCC(=O)N12)c1ccc(-c2c3nc(c(-c4cc(S(=O)(=O)[O-])ccc4F)c4ccc([nH]4)c(-c4cc(S(=O)(=O)[O-])ccc4F)c4nc(c(-c5cc(S(=O)(=O)[O-])ccc5F)c5ccc2[nH]5)C=C4)C=C3)cc1
REMARK SMILES IDX 5 1 4 2 3 3 1 4 2 5 28 7 29 8 90 9 30 10 89 11 31 12 32 13
REMARK SMILES IDX 33 14 83 15 34 16 88 17 82 18 84 19 35 20 87 21 81 22 80 23
REMARK SMILES IDX 36 25 68 26 48 27 67 28 49 29 52 30 66 31 85 32 50 33 51 34
REMARK SMILES IDX 65 36 86 37 53 38 37 39 38 40 46 41 39 42 45 43 47 44 44 45
REMARK SMILES IDX 40 46 41 47 42 48 43 49 69 50 70 51 78 52 71 53 77 54 79 55
REMARK SMILES IDX 76 56 72 57 73 58 74 59 75 60 54 61 55 62 63 63 56 64 62 65
REMARK SMILES IDX 64 66 61 67 57 68 58 69 59 70 60 71 6 72 7 73 8 74 9 75
REMARK SMILES IDX 10 76 11 77 12 79 13 80 14 81 27 82 15 83 16 84 25 85 23 86
REMARK SMILES IDX 24 87 26 88 17 89 18 90 22 91 19 92 21 93 20 94
REMARK H PARENT 3 6 84 24 52 35 10 78
REMARK Flexibility Score: inf
ROOT
ATOM      1  C   UNL A   1      33.266  27.926  26.926  1.00  0.00     0.021 C 
ENDROOT
BRANCH   1   2
ATOM      2  C   UNL A   1      33.862  29.050  26.092  1.00  0.00     0.116 C 
BRANCH   2   3
ATOM      3  N   UNL A   1      33.546  30.371  26.610  1.00  0.00    -0.352 N 
ATOM      4  O   UNL A   1      33.698  32.162  27.967  1.00  0.00    -0.269 OA
ATOM      5  C   UNL A   1      34.198  31.113  27.568  1.00  0.00     0.251 C 
ATOM      6  H   UNL A   1      32.750  30.797  26.218  1.00  0.00     0.163 HD
BRANCH   5   7
ATOM      7  C   UNL A   1      35.484  30.643  28.136  1.00  0.00     0.039 A 
ATOM      8  C   UNL A   1      36.705  31.095  27.630  1.00  0.00     0.014 A 
ATOM      9  C   UNL A   1      35.467  29.747  29.210  1.00  0.00     0.014 A 
ATOM     10  C   UNL A   1      37.897  30.552  28.102  1.00  0.00     0.010 A 
ATOM     11  C   UNL A   1      36.669  29.266  29.741  1.00  0.00     0.010 A 
ATOM     12  C   UNL A   1      37.895  29.643  29.173  1.00  0.00    -0.014 A 
BRANCH  12  13
ATOM     13  C   UNL A   1      39.194  29.153  29.709  1.00  0.00     0.031 A 
ATOM     14  C   UNL A   1      39.812  29.763  30.937  1.00  0.00     0.074 A 
ATOM     15  C   UNL A   1      39.790  28.110  29.098  1.00  0.00     0.049 A 
ATOM     16  N   UNL A   1      40.914  29.426  31.559  1.00  0.00    -0.248 NA
ATOM     17  C   UNL A   1      39.110  30.905  31.539  1.00  0.00     0.031 C 
ATOM     18  C   UNL A   1      39.290  27.448  27.890  1.00  0.00     0.029 A 
ATOM     19  N   UNL A   1      40.925  27.408  29.413  1.00  0.00    -0.354 N 
ATOM     20  C   UNL A   1      41.040  30.310  32.625  1.00  0.00     0.074 A 
ATOM     21  C   UNL A   1      39.922  31.228  32.536  1.00  0.00     0.031 C 
ATOM     22  C   UNL A   1      40.087  26.411  27.593  1.00  0.00     0.029 A 
ATOM     23  C   UNL A   1      41.186  26.368  28.551  1.00  0.00     0.049 A 
ATOM     24  H   UNL A   1      41.499  27.627  30.183  1.00  0.00     0.167 HD
ATOM     25  C   UNL A   1      41.992  30.346  33.592  1.00  0.00     0.034 A 
ATOM     26  C   UNL A   1      42.202  25.485  28.523  1.00  0.00     0.034 A 
ATOM     27  C   UNL A   1      43.108  29.431  33.661  1.00  0.00     0.049 A 
ATOM     28  C   UNL A   1      43.255  25.560  29.595  1.00  0.00     0.074 A 
ATOM     29  C   UNL A   1      44.129  29.381  34.595  1.00  0.00     0.029 A 
ATOM     30  N   UNL A   1      43.352  28.405  32.756  1.00  0.00    -0.354 N 
ATOM     31  N   UNL A   1      43.350  26.400  30.600  1.00  0.00    -0.248 NA
ATOM     32  C   UNL A   1      44.330  24.563  29.535  1.00  0.00     0.031 C 
ATOM     33  C   UNL A   1      45.016  28.362  34.227  1.00  0.00     0.029 A 
ATOM     34  C   UNL A   1      44.516  27.730  33.100  1.00  0.00     0.049 A 
ATOM     35  H   UNL A   1      42.783  28.188  31.984  1.00  0.00     0.167 HD
ATOM     36  C   UNL A   1      44.493  26.023  31.298  1.00  0.00     0.074 A 
ATOM     37  C   UNL A   1      45.030  24.862  30.618  1.00  0.00     0.031 C 
ATOM     38  C   UNL A   1      45.051  26.588  32.399  1.00  0.00     0.034 A 
BRANCH  25  39
ATOM     39  C   UNL A   1      41.879  31.432  34.636  1.00  0.00     0.023 A 
ATOM     40  C   UNL A   1      40.850  31.428  35.595  1.00  0.00     0.031 A 
ATOM     41  C   UNL A   1      42.803  32.491  34.668  1.00  0.00     0.131 A 
ATOM     42  C   UNL A   1      40.732  32.491  36.503  1.00  0.00     0.055 A 
ATOM     43  C   UNL A   1      42.722  33.511  35.621  1.00  0.00     0.041 A 
ATOM     44  F   UNL A   1      43.796  32.560  33.767  1.00  0.00    -0.206 F 
ATOM     45  C   UNL A   1      41.675  33.521  36.538  1.00  0.00     0.022 A 
BRANCH  42  46
ATOM     46  S   UNL A   1      39.260  32.570  37.559  1.00  0.00     0.124 S 
ATOM     47  O   UNL A   1      39.848  32.470  38.894  1.00  0.00    -0.237 OA
ATOM     48  O   UNL A   1      38.689  33.865  37.211  1.00  0.00    -0.237 OA
ATOM     49  O   UNL A   1      38.477  31.408  37.143  1.00  0.00    -0.744 OA
ENDBRANCH  42  46
ENDBRANCH  25  39
BRANCH  26  50
ATOM     50  C   UNL A   1      42.290  24.477  27.428  1.00  0.00     0.023 A 
ATOM     51  C   UNL A   1      41.506  23.313  27.444  1.00  0.00     0.031 A 
ATOM     52  C   UNL A   1      43.190  24.654  26.362  1.00  0.00     0.131 A 
ATOM     53  C   UNL A   1      41.668  22.350  26.437  1.00  0.00     0.055 A 
ATOM     54  C   UNL A   1      43.307  23.719  25.334  1.00  0.00     0.041 A 
ATOM     55  F   UNL A   1      43.959  25.753  26.296  1.00  0.00    -0.206 F 
ATOM     56  C   UNL A   1      42.553  22.551  25.375  1.00  0.00     0.022 A 
BRANCH  53  57
ATOM     57  S   UNL A   1      40.764  20.784  26.581  1.00  0.00     0.124 S 
ATOM     58  O   UNL A   1      39.463  21.138  26.026  1.00  0.00    -0.237 OA
ATOM     59  O   UNL A   1      41.584  19.887  25.773  1.00  0.00    -0.237 OA
ATOM     60  O   UNL A   1      40.779  20.516  28.017  1.00  0.00    -0.744 OA
ENDBRANCH  53  57
ENDBRANCH  26  50
BRANCH  38  61
ATOM     61  C   UNL A   1      46.296  25.927  32.936  1.00  0.00     0.023 A 
ATOM     62  C   UNL A   1      46.225  24.844  33.829  1.00  0.00     0.031 A 
ATOM     63  C   UNL A   1      47.565  26.418  32.586  1.00  0.00     0.131 A 
ATOM     64  C   UNL A   1      47.400  24.328  34.395  1.00  0.00     0.055 A 
ATOM     65  C   UNL A   1      48.734  25.862  33.107  1.00  0.00     0.041 A 
ATOM     66  F   UNL A   1      47.690  27.452  31.739  1.00  0.00    -0.206 F 
ATOM     67  C   UNL A   1      48.655  24.821  34.029  1.00  0.00     0.022 A 
BRANCH  64  68
ATOM     68  S   UNL A   1      47.260  23.071  35.696  1.00  0.00     0.124 S 
ATOM     69  O   UNL A   1      48.078  21.988  35.160  1.00  0.00    -0.237 OA
ATOM     70  O   UNL A   1      47.801  23.765  36.859  1.00  0.00    -0.237 OA
ATOM     71  O   UNL A   1      45.826  22.794  35.752  1.00  0.00    -0.744 OA
ENDBRANCH  64  68
ENDBRANCH  38  61
ENDBRANCH  12  13
ENDBRANCH   5   7
ENDBRANCH   2   3
ENDBRANCH   1   2
BRANCH   1  72
ATOM     72  C   UNL A   1      31.739  27.872  26.990  1.00  0.00     0.002 C 
BRANCH  72  73
ATOM     73  C   UNL A   1      31.057  26.718  26.251  1.00  0.00     0.002 C 
BRANCH  73  74
ATOM     74  C   UNL A   1      30.982  26.815  24.727  1.00  0.00     0.021 C 
BRANCH  74  75
ATOM     75  C   UNL A   1      31.184  25.518  23.954  1.00  0.00     0.116 C 
BRANCH  75  76
ATOM     76  N   UNL A   1      30.648  24.356  24.609  1.00  0.00    -0.354 N 
ATOM     77  C   UNL A   1      31.283  23.371  25.294  1.00  0.00     0.243 C 
ATOM     78  H   UNL A   1      29.670  24.260  24.553  1.00  0.00     0.163 HD
ATOM     79  O   UNL A   1      30.559  22.470  25.742  1.00  0.00    -0.273 OA
BRANCH  77  80
ATOM     80  C   UNL A   1      32.822  23.225  25.365  1.00  0.00     0.186 C 
ATOM     81  C   UNL A   1      33.312  23.043  26.796  1.00  0.00     0.107 C 
ATOM     82  N   UNL A   1      33.610  22.366  24.463  1.00  0.00    -0.311 N 
ATOM     83  S   UNL A   1      34.269  21.510  26.865  1.00  0.00    -0.126 SA
ATOM     84  C   UNL A   1      34.423  21.306  25.045  1.00  0.00     0.115 C 
ATOM     85  C   UNL A   1      34.323  23.067  23.484  1.00  0.00     0.224 C 
ATOM     86  C   UNL A   1      35.857  21.582  24.546  1.00  0.00     0.055 C 
ATOM     87  C   UNL A   1      35.788  22.877  23.766  1.00  0.00     0.104 C 
ATOM     88  O   UNL A   1      33.874  23.911  22.733  1.00  0.00    -0.275 OA
BRANCH  84  89
ATOM     89  C   UNL A   1      34.057  19.870  24.632  1.00  0.00    -0.012 A 
ATOM     90  C   UNL A   1      32.775  19.493  24.200  1.00  0.00     0.007 A 
ATOM     91  C   UNL A   1      35.057  18.868  24.639  1.00  0.00     0.007 A 
ATOM     92  C   UNL A   1      32.486  18.162  23.869  1.00  0.00     0.000 A 
ATOM     93  C   UNL A   1      34.778  17.550  24.271  1.00  0.00     0.000 A 
ATOM     94  C   UNL A   1      33.487  17.193  23.904  1.00  0.00     0.000 A 
ENDBRANCH  84  89
ENDBRANCH  77  80
ENDBRANCH  75  76
ENDBRANCH  74  75
ENDBRANCH  73  74
ENDBRANCH  72  73
ENDBRANCH   1  72
TORSDOF 17
ENDMDL
MODEL 3
REMARK VINA RESULT:     -12.0      5.549      8.820
REMARK SMILES O=C(NCCCCCCNC(=O)[C@H]1CS[C@]2(c3ccccc3)CCC(=O)N12)c1ccc(-c2c3nc(c(-c4cc(S(=O)(=O)[O-])ccc4F)c4ccc([nH]4)c(-c4cc(S(=O)(=O)[O-])ccc4F)c4nc(c(-c5cc(S(=O)(=O)[O-])ccc5F)c5ccc2[nH]5)C=C4)C=C3)cc1
REMARK SMILES IDX 5 1 4 2 3 3 1 4 2 5 28 7 29 8 90 9 30 10 89 11 31 12 32 13
REMARK SMILES IDX 33 14 83 15 34 16 88 17 82 18 84 19 35 20 87 21 81 22 80 23
REMARK SMILES IDX 36 25 68 26 48 27 67 28 49 29 52 30 66 31 85 32 50 33 51 34
REMARK SMILES IDX 65 36 86 37 53 38 37 39 38 40 46 41 39 42 45 43 47 44 44 45
REMARK SMILES IDX 40 46 41 47 42 48 43 49 69 50 70 51 78 52 71 53 77 54 79 55
REMARK SMILES IDX 76 56 72 57 73 58 74 59 75 60 54 61 55 62 63 63 56 64 62 65
REMARK SMILES IDX 64 66 61 67 57 68 58 69 59 70 60 71 6 72 7 73 8 74 9 75
REMARK SMILES IDX 10 76 11 77 12 79 13 80 14 81 27 82 15 83 16 84 25 85 23 86
REMARK SMILES IDX 24 87 26 88 17 89 18 90 22 91 19 92 21 93 20 94
REMARK H PARENT 3 6 84 24 52 35 10 78
REMARK Flexibility Score: inf
ROOT
ATOM      1  C   UNL A   1      35.061  21.976  25.893  1.00  0.00     0.021 C 
ENDROOT
BRANCH   1   2
ATOM      2  C   UNL A   1      36.489  22.485  25.753  1.00  0.00     0.116 C 
BRANCH   2   3
ATOM      3  N   UNL A   1      37.480  21.424  25.810  1.00  0.00    -0.352 N 
ATOM      4  O   UNL A   1      39.526  20.499  25.984  1.00  0.00    -0.269 OA
ATOM      5  C   UNL A   1      38.819  21.495  26.118  1.00  0.00     0.251 C 
ATOM      6  H   UNL A   1      37.144  20.523  25.597  1.00  0.00     0.163 HD
BRANCH   5   7
ATOM      7  C   UNL A   1      39.415  22.769  26.588  1.00  0.00     0.039 A 
ATOM      8  C   UNL A   1      38.983  23.998  26.083  1.00  0.00     0.014 A 
ATOM      9  C   UNL A   1      40.412  22.733  27.568  1.00  0.00     0.014 A 
ATOM     10  C   UNL A   1      39.636  25.169  26.454  1.00  0.00     0.010 A 
ATOM     11  C   UNL A   1      41.011  23.921  28.003  1.00  0.00     0.010 A 
ATOM     12  C   UNL A   1      40.647  25.148  27.428  1.00  0.00    -0.014 A 
BRANCH  12  13
ATOM     13  C   UNL A   1      41.261  26.432  27.864  1.00  0.00     0.031 A 
ATOM     14  C   UNL A   1      42.686  26.771  27.523  1.00  0.00     0.074 A 
ATOM     15  C   UNL A   1      40.497  27.316  28.535  1.00  0.00     0.049 A 
ATOM     16  N   UNL A   1      43.359  27.863  27.787  1.00  0.00    -0.248 NA
ATOM     17  C   UNL A   1      43.460  25.751  26.801  1.00  0.00     0.031 C 
ATOM     18  C   UNL A   1      39.106  27.087  28.936  1.00  0.00     0.029 A 
ATOM     19  N   UNL A   1      40.764  28.585  28.979  1.00  0.00    -0.354 N 
ATOM     20  C   UNL A   1      44.634  27.665  27.266  1.00  0.00     0.074 A 
ATOM     21  C   UNL A   1      44.650  26.328  26.709  1.00  0.00     0.031 C 
ATOM     22  C   UNL A   1      38.629  28.194  29.524  1.00  0.00     0.029 A 
ATOM     23  C   UNL A   1      39.693  29.188  29.598  1.00  0.00     0.049 A 
ATOM     24  H   UNL A   1      41.639  29.023  28.868  1.00  0.00     0.167 HD
ATOM     25  C   UNL A   1      45.686  28.522  27.245  1.00  0.00     0.034 A 
ATOM     26  C   UNL A   1      39.581  30.401  30.174  1.00  0.00     0.034 A 
ATOM     27  C   UNL A   1      45.658  29.849  27.815  1.00  0.00     0.049 A 
ATOM     28  C   UNL A   1      40.770  31.324  30.154  1.00  0.00     0.074 A 
ATOM     29  C   UNL A   1      46.667  30.797  27.851  1.00  0.00     0.029 A 
ATOM     30  N   UNL A   1      44.563  30.418  28.455  1.00  0.00    -0.354 N 
ATOM     31  N   UNL A   1      41.964  31.120  29.648  1.00  0.00    -0.248 NA
ATOM     32  C   UNL A   1      40.592  32.641  30.774  1.00  0.00     0.031 C 
ATOM     33  C   UNL A   1      46.201  31.913  28.556  1.00  0.00     0.029 A 
ATOM     34  C   UNL A   1      44.878  31.693  28.903  1.00  0.00     0.049 A 
ATOM     35  H   UNL A   1      43.689  29.980  28.573  1.00  0.00     0.167 HD
ATOM     36  C   UNL A   1      42.676  32.291  29.880  1.00  0.00     0.074 A 
ATOM     37  C   UNL A   1      41.767  33.205  30.541  1.00  0.00     0.031 C 
ATOM     38  C   UNL A   1      43.967  32.584  29.580  1.00  0.00     0.034 A 
BRANCH  25  39
ATOM     39  C   UNL A   1      46.965  28.034  26.609  1.00  0.00     0.023 A 
ATOM     40  C   UNL A   1      47.174  28.114  25.220  1.00  0.00     0.031 A 
ATOM     41  C   UNL A   1      47.986  27.470  27.395  1.00  0.00     0.131 A 
ATOM     42  C   UNL A   1      48.343  27.583  24.654  1.00  0.00     0.055 A 
ATOM     43  C   UNL A   1      49.179  27.008  26.833  1.00  0.00     0.041 A 
ATOM     44  F   UNL A   1      47.837  27.349  28.723  1.00  0.00    -0.206 F 
ATOM     45  C   UNL A   1      49.358  27.052  25.453  1.00  0.00     0.022 A 
BRANCH  42  46
ATOM     46  S   UNL A   1      48.466  27.489  22.846  1.00  0.00     0.124 S 
ATOM     47  O   UNL A   1      49.725  28.189  22.599  1.00  0.00    -0.237 OA
ATOM     48  O   UNL A   1      48.478  26.051  22.604  1.00  0.00    -0.237 OA
ATOM     49  O   UNL A   1      47.271  28.191  22.385  1.00  0.00    -0.744 OA
ENDBRANCH  42  46
ENDBRANCH  25  39
BRANCH  26  50
ATOM     50  C   UNL A   1      38.310  30.799  30.842  1.00  0.00     0.023 A 
ATOM     51  C   UNL A   1      37.297  31.470  30.141  1.00  0.00     0.031 A 
ATOM     52  C   UNL A   1      38.106  30.537  32.209  1.00  0.00     0.131 A 
ATOM     53  C   UNL A   1      36.144  31.896  30.819  1.00  0.00     0.055 A 
ATOM     54  C   UNL A   1      36.935  30.915  32.865  1.00  0.00     0.041 A 
ATOM     55  F   UNL A   1      39.042  29.893  32.924  1.00  0.00    -0.206 F 
ATOM     56  C   UNL A   1      35.951  31.611  32.172  1.00  0.00     0.022 A 
BRANCH  53  57
ATOM     57  S   UNL A   1      34.935  32.909  29.922  1.00  0.00     0.124 S 
ATOM     58  O   UNL A   1      34.396  31.951  28.964  1.00  0.00    -0.237 OA
ATOM     59  O   UNL A   1      34.034  33.322  30.994  1.00  0.00    -0.237 OA
ATOM     60  O   UNL A   1      35.749  33.978  29.347  1.00  0.00    -0.744 OA
ENDBRANCH  53  57
ENDBRANCH  26  50
BRANCH  38  61
ATOM     61  C   UNL A   1      44.447  33.965  29.951  1.00  0.00     0.023 A 
ATOM     62  C   UNL A   1      44.333  35.045  29.058  1.00  0.00     0.031 A 
ATOM     63  C   UNL A   1      45.067  34.191  31.191  1.00  0.00     0.131 A 
ATOM     64  C   UNL A   1      44.891  36.289  29.392  1.00  0.00     0.055 A 
ATOM     65  C   UNL A   1      45.569  35.445  31.542  1.00  0.00     0.041 A 
ATOM     66  F   UNL A   1      45.205  33.193  32.079  1.00  0.00    -0.206 F 
ATOM     67  C   UNL A   1      45.496  36.499  30.634  1.00  0.00     0.022 A 
BRANCH  64  68
ATOM     68  S   UNL A   1      44.906  37.600  28.139  1.00  0.00     0.124 S 
ATOM     69  O   UNL A   1      44.669  38.793  28.945  1.00  0.00    -0.237 OA
ATOM     70  O   UNL A   1      46.243  37.470  27.569  1.00  0.00    -0.237 OA
ATOM     71  O   UNL A   1      43.813  37.230  27.243  1.00  0.00    -0.744 OA
ENDBRANCH  64  68
ENDBRANCH  38  61
ENDBRANCH  12  13
ENDBRANCH   5   7
ENDBRANCH   2   3
ENDBRANCH   1   2
BRANCH   1  72
ATOM     72  C   UNL A   1      34.504  21.920  27.315  1.00  0.00     0.002 C 
BRANCH  72  73
ATOM     73  C   UNL A   1      33.094  22.478  27.527  1.00  0.00     0.002 C 
BRANCH  73  74
ATOM     74  C   UNL A   1      32.187  22.560  26.297  1.00  0.00     0.021 C 
BRANCH  74  75
ATOM     75  C   UNL A   1      31.114  23.642  26.318  1.00  0.00     0.116 C 
BRANCH  75  76
ATOM     76  N   UNL A   1      30.513  23.894  25.037  1.00  0.00    -0.354 N 
ATOM     77  C   UNL A   1      30.734  24.901  24.154  1.00  0.00     0.243 C 
ATOM     78  H   UNL A   1      29.837  23.236  24.757  1.00  0.00     0.163 HD
ATOM     79  O   UNL A   1      30.048  24.877  23.123  1.00  0.00    -0.273 OA
BRANCH  77  80
ATOM     80  C   UNL A   1      31.622  26.132  24.455  1.00  0.00     0.186 C 
ATOM     81  C   UNL A   1      32.602  26.419  23.324  1.00  0.00     0.107 C 
ATOM     82  N   UNL A   1      31.110  27.403  24.997  1.00  0.00    -0.311 N 
ATOM     83  S   UNL A   1      32.339  28.124  22.781  1.00  0.00    -0.126 SA
ATOM     84  C   UNL A   1      31.314  28.622  24.224  1.00  0.00     0.115 C 
ATOM     85  C   UNL A   1      31.406  27.610  26.349  1.00  0.00     0.224 C 
ATOM     86  C   UNL A   1      32.067  29.577  25.172  1.00  0.00     0.055 C 
ATOM     87  C   UNL A   1      32.341  28.786  26.434  1.00  0.00     0.104 C 
ATOM     88  O   UNL A   1      31.206  26.828  27.256  1.00  0.00    -0.275 OA
BRANCH  84  89
ATOM     89  C   UNL A   1      30.040  29.345  23.754  1.00  0.00    -0.012 A 
ATOM     90  C   UNL A   1      29.846  30.731  23.880  1.00  0.00     0.007 A 
ATOM     91  C   UNL A   1      29.013  28.604  23.120  1.00  0.00     0.007 A 
ATOM     92  C   UNL A   1      28.650  31.334  23.467  1.00  0.00     0.000 A 
ATOM     93  C   UNL A   1      27.838  29.213  22.673  1.00  0.00     0.000 A 
ATOM     94  C   UNL A   1      27.649  30.575  22.864  1.00  0.00     0.000 A 
ENDBRANCH  84  89
ENDBRANCH  77  80
ENDBRANCH  75  76
ENDBRANCH  74  75
ENDBRANCH  73  74
ENDBRANCH  72  73
ENDBRANCH   1  72
TORSDOF 17
ENDMDL
