MODEL 1
REMARK VINA RESULT:     -10.4      0.000      0.000
REMARK SMILES CC[C@@H]1CCCN1C(=O)N(CC(=O)NCCCCCCNC(=O)c1ccc(-c2c3nc(c(-c4cc(S(=O)(=O)[O-])ccc4F)c4ccc([nH]4)c(-c4cc(S(=O)(=O)[O-])ccc4F)c4nc(c(-c5cc(S(=O)(=O)[O-])ccc5F)c5ccc2[nH]5)C=C4)C=C3)cc1)CC(F)(F)F
REMARK SMILES IDX 17 1 16 2 15 3 14 4 12 5 13 6 11 8 10 9 8 10 9 11 7 12 3 13
REMARK SMILES IDX 4 14 5 15 6 16 2 17 1 18 87 19 88 20 89 21 90 22 91 23 18 24
REMARK SMILES IDX 19 25 20 26 21 27 22 28 23 30 24 31 25 32 86 33 26 34 85 35
REMARK SMILES IDX 27 36 28 37 29 38 79 39 30 40 84 41 78 42 80 43 31 44 83 45
REMARK SMILES IDX 77 46 76 47 32 49 64 50 44 51 63 52 45 53 48 54 62 55 81 56
REMARK SMILES IDX 46 57 47 58 61 60 82 61 49 62 33 63 34 64 42 65 35 66 41 67
REMARK SMILES IDX 43 68 40 69 36 70 37 71 38 72 39 73 65 74 66 75 74 76 67 77
REMARK SMILES IDX 73 78 75 79 72 80 68 81 69 82 70 83 71 84 50 85 51 86 59 87
REMARK SMILES IDX 52 88 58 89 60 90 57 91 53 92 54 93 55 94 56 95
REMARK H PARENT 14 7 21 29 80 48 48 59
REMARK Flexibility Score: inf
ROOT
ATOM      1  C   UNL A   1      31.099  27.168  26.730  1.00  0.00     0.002 C 
ENDROOT
BRANCH   1   2
ATOM      2  C   UNL A   1      30.687  26.707  25.332  1.00  0.00     0.021 C 
BRANCH   2   3
ATOM      3  C   UNL A   1      29.617  25.627  25.346  1.00  0.00     0.116 C 
BRANCH   3   4
ATOM      4  N   UNL A   1      29.806  24.718  26.452  1.00  0.00    -0.355 N 
ATOM      5  C   UNL A   1      30.385  23.494  26.514  1.00  0.00     0.239 C 
ATOM      6  O   UNL A   1      30.391  22.939  27.621  1.00  0.00    -0.273 OA
ATOM      7  H   UNL A   1      29.454  25.045  27.312  1.00  0.00     0.163 HD
BRANCH   5   8
ATOM      8  C   UNL A   1      31.219  22.894  25.371  1.00  0.00     0.221 C 
BRANCH   8   9
ATOM      9  N   UNL A   1      32.661  22.762  25.372  1.00  0.00    -0.306 N 
BRANCH   9  10
ATOM     10  C   UNL A   1      33.478  21.887  26.039  1.00  0.00     0.321 C 
ATOM     11  O   UNL A   1      33.385  21.900  27.278  1.00  0.00    -0.248 OA
BRANCH  10  12
ATOM     12  N   UNL A   1      34.309  20.944  25.466  1.00  0.00    -0.322 N 
ATOM     13  C   UNL A   1      34.278  19.697  24.629  1.00  0.00     0.086 C 
ATOM     14  C   UNL A   1      35.674  19.102  24.925  1.00  0.00     0.027 C 
ATOM     15  C   UNL A   1      36.578  20.307  24.877  1.00  0.00     0.024 C 
ATOM     16  C   UNL A   1      35.719  21.397  25.486  1.00  0.00     0.122 C 
BRANCH  13  17
ATOM     17  C   UNL A   1      33.290  18.531  24.743  1.00  0.00     0.022 C 
ATOM     18  C   UNL A   1      33.358  17.568  23.554  1.00  0.00     0.006 C 
ENDBRANCH  13  17
ENDBRANCH  10  12
ENDBRANCH   9  10
BRANCH   9  19
ATOM     19  C   UNL A   1      33.352  23.780  24.526  1.00  0.00     0.237 C 
BRANCH  19  20
ATOM     20  C   UNL A   1      34.041  24.934  25.257  1.00  0.00     0.406 C 
ATOM     21  F   UNL A   1      33.889  26.124  24.648  1.00  0.00    -0.169 F 
ATOM     22  F   UNL A   1      33.545  25.052  26.514  1.00  0.00    -0.169 F 
ATOM     23  F   UNL A   1      35.367  24.696  25.387  1.00  0.00    -0.169 F 
ENDBRANCH  19  20
ENDBRANCH   9  19
ENDBRANCH   8   9
ENDBRANCH   5   8
ENDBRANCH   3   4
ENDBRANCH   2   3
ENDBRANCH   1   2
BRANCH   1  24
ATOM     24  C   UNL A   1      31.538  28.633  26.801  1.00  0.00     0.002 C 
BRANCH  24  25
ATOM     25  C   UNL A   1      32.344  29.111  25.593  1.00  0.00     0.021 C 
BRANCH  25  26
ATOM     26  C   UNL A   1      33.658  29.797  25.951  1.00  0.00     0.116 C 
BRANCH  26  27
ATOM     27  N   UNL A   1      33.434  31.107  26.539  1.00  0.00    -0.352 N 
ATOM     28  C   UNL A   1      34.073  31.693  27.602  1.00  0.00     0.251 C 
ATOM     29  H   UNL A   1      32.728  31.648  26.116  1.00  0.00     0.163 HD
ATOM     30  O   UNL A   1      33.607  32.698  28.121  1.00  0.00    -0.269 OA
BRANCH  28  31
ATOM     31  C   UNL A   1      35.313  31.079  28.118  1.00  0.00     0.039 A 
ATOM     32  C   UNL A   1      36.513  31.780  27.999  1.00  0.00     0.014 A 
ATOM     33  C   UNL A   1      35.282  29.823  28.733  1.00  0.00     0.014 A 
ATOM     34  C   UNL A   1      37.679  31.239  28.541  1.00  0.00     0.010 A 
ATOM     35  C   UNL A   1      36.428  29.324  29.343  1.00  0.00     0.010 A 
ATOM     36  C   UNL A   1      37.640  30.022  29.243  1.00  0.00    -0.014 A 
BRANCH  36  37
ATOM     37  C   UNL A   1      38.868  29.465  29.865  1.00  0.00     0.031 A 
ATOM     38  C   UNL A   1      39.317  29.949  31.217  1.00  0.00     0.074 A 
ATOM     39  C   UNL A   1      39.592  28.546  29.196  1.00  0.00     0.049 A 
ATOM     40  N   UNL A   1      40.365  29.596  31.916  1.00  0.00    -0.248 NA
ATOM     41  C   UNL A   1      38.493  30.988  31.851  1.00  0.00     0.031 C 
ATOM     42  C   UNL A   1      39.276  28.032  27.861  1.00  0.00     0.029 A 
ATOM     43  N   UNL A   1      40.737  27.878  29.545  1.00  0.00    -0.354 N 
ATOM     44  C   UNL A   1      40.327  30.369  33.071  1.00  0.00     0.074 A 
ATOM     45  C   UNL A   1      39.197  31.264  32.938  1.00  0.00     0.031 C 
ATOM     46  C   UNL A   1      40.178  27.097  27.525  1.00  0.00     0.029 A 
ATOM     47  C   UNL A   1      41.165  26.981  28.594  1.00  0.00     0.049 A 
ATOM     48  H   UNL A   1      41.208  28.025  30.397  1.00  0.00     0.167 HD
ATOM     49  C   UNL A   1      41.140  30.315  34.156  1.00  0.00     0.034 A 
ATOM     50  C   UNL A   1      42.234  26.161  28.584  1.00  0.00     0.034 A 
ATOM     51  C   UNL A   1      42.264  29.417  34.267  1.00  0.00     0.049 A 
ATOM     52  C   UNL A   1      43.152  26.154  29.780  1.00  0.00     0.074 A 
ATOM     53  C   UNL A   1      43.131  29.248  35.332  1.00  0.00     0.029 A 
ATOM     54  N   UNL A   1      42.688  28.545  33.272  1.00  0.00    -0.354 N 
ATOM     55  N   UNL A   1      43.071  26.851  30.890  1.00  0.00    -0.248 NA
ATOM     56  C   UNL A   1      44.297  25.238  29.723  1.00  0.00     0.031 C 
ATOM     57  C   UNL A   1      44.121  28.335  34.953  1.00  0.00     0.029 A 
ATOM     58  C   UNL A   1      43.825  27.864  33.684  1.00  0.00     0.049 A 
ATOM     59  H   UNL A   1      42.245  28.426  32.400  1.00  0.00     0.167 HD
ATOM     60  C   UNL A   1      44.143  26.436  31.676  1.00  0.00     0.074 A 
ATOM     61  C   UNL A   1      44.835  25.411  30.921  1.00  0.00     0.031 C 
ATOM     62  C   UNL A   1      44.521  26.861  32.910  1.00  0.00     0.034 A 
BRANCH  49  63
ATOM     63  C   UNL A   1      40.849  31.277  35.286  1.00  0.00     0.023 A 
ATOM     64  C   UNL A   1      39.719  31.129  36.110  1.00  0.00     0.031 A 
ATOM     65  C   UNL A   1      41.686  32.382  35.519  1.00  0.00     0.131 A 
ATOM     66  C   UNL A   1      39.408  32.112  37.062  1.00  0.00     0.055 A 
ATOM     67  C   UNL A   1      41.421  33.308  36.531  1.00  0.00     0.041 A 
ATOM     68  F   UNL A   1      42.768  32.595  34.753  1.00  0.00    -0.206 F 
ATOM     69  C   UNL A   1      40.267  33.186  37.297  1.00  0.00     0.022 A 
BRANCH  66  70
ATOM     70  S   UNL A   1      37.782  32.054  37.864  1.00  0.00     0.124 S 
ATOM     71  O   UNL A   1      37.011  32.979  37.037  1.00  0.00    -0.237 OA
ATOM     72  O   UNL A   1      37.423  30.644  37.750  1.00  0.00    -0.237 OA
ATOM     73  O   UNL A   1      38.053  32.522  39.222  1.00  0.00    -0.744 OA
ENDBRANCH  66  70
ENDBRANCH  49  63
BRANCH  50  74
ATOM     74  C   UNL A   1      42.502  25.281  27.409  1.00  0.00     0.023 A 
ATOM     75  C   UNL A   1      42.050  23.952  27.383  1.00  0.00     0.031 A 
ATOM     76  C   UNL A   1      43.250  25.744  26.312  1.00  0.00     0.131 A 
ATOM     77  C   UNL A   1      42.390  23.118  26.307  1.00  0.00     0.055 A 
ATOM     78  C   UNL A   1      43.536  24.928  25.215  1.00  0.00     0.041 A 
ATOM     79  F   UNL A   1      43.704  27.007  26.282  1.00  0.00    -0.206 F 
ATOM     80  C   UNL A   1      43.116  23.601  25.216  1.00  0.00     0.022 A 
BRANCH  77  81
ATOM     81  S   UNL A   1      41.943  21.363  26.395  1.00  0.00     0.124 S 
ATOM     82  O   UNL A   1      40.522  21.402  26.072  1.00  0.00    -0.237 OA
ATOM     83  O   UNL A   1      42.817  20.777  25.383  1.00  0.00    -0.237 OA
ATOM     84  O   UNL A   1      42.262  21.000  27.774  1.00  0.00    -0.744 OA
ENDBRANCH  77  81
ENDBRANCH  50  74
BRANCH  62  85
ATOM     85  C   UNL A   1      45.725  26.186  33.525  1.00  0.00     0.023 A 
ATOM     86  C   UNL A   1      45.603  25.020  34.300  1.00  0.00     0.031 A 
ATOM     87  C   UNL A   1      47.009  26.736  33.361  1.00  0.00     0.131 A 
ATOM     88  C   UNL A   1      46.728  24.485  34.944  1.00  0.00     0.055 A 
ATOM     89  C   UNL A   1      48.138  26.155  33.941  1.00  0.00     0.041 A 
ATOM     90  F   UNL A   1      47.189  27.851  32.635  1.00  0.00    -0.206 F 
ATOM     91  C   UNL A   1      47.998  25.034  34.753  1.00  0.00     0.022 A 
BRANCH  88  92
ATOM     92  S   UNL A   1      46.489  23.141  36.138  1.00  0.00     0.124 S 
ATOM     93  O   UNL A   1      46.039  22.050  35.281  1.00  0.00    -0.237 OA
ATOM     94  O   UNL A   1      47.824  22.992  36.710  1.00  0.00    -0.237 OA
ATOM     95  O   UNL A   1      45.479  23.669  37.053  1.00  0.00    -0.744 OA
ENDBRANCH  88  92
ENDBRANCH  62  85
ENDBRANCH  36  37
ENDBRANCH  28  31
ENDBRANCH  26  27
ENDBRANCH  25  26
ENDBRANCH  24  25
ENDBRANCH   1  24
TORSDOF 22
ENDMDL
MODEL 2
REMARK VINA RESULT:      -9.8      2.891      4.422
REMARK SMILES CC[C@@H]1CCCN1C(=O)N(CC(=O)NCCCCCCNC(=O)c1ccc(-c2c3nc(c(-c4cc(S(=O)(=O)[O-])ccc4F)c4ccc([nH]4)c(-c4cc(S(=O)(=O)[O-])ccc4F)c4nc(c(-c5cc(S(=O)(=O)[O-])ccc5F)c5ccc2[nH]5)C=C4)C=C3)cc1)CC(F)(F)F
REMARK SMILES IDX 17 1 16 2 15 3 14 4 12 5 13 6 11 8 10 9 8 10 9 11 7 12 3 13
REMARK SMILES IDX 4 14 5 15 6 16 2 17 1 18 87 19 88 20 89 21 90 22 91 23 18 24
REMARK SMILES IDX 19 25 20 26 21 27 22 28 23 30 24 31 25 32 86 33 26 34 85 35
REMARK SMILES IDX 27 36 28 37 29 38 79 39 30 40 84 41 78 42 80 43 31 44 83 45
REMARK SMILES IDX 77 46 76 47 32 49 64 50 44 51 63 52 45 53 48 54 62 55 81 56
REMARK SMILES IDX 46 57 47 58 61 60 82 61 49 62 33 63 34 64 42 65 35 66 41 67
REMARK SMILES IDX 43 68 40 69 36 70 37 71 38 72 39 73 65 74 66 75 74 76 67 77
REMARK SMILES IDX 73 78 75 79 72 80 68 81 69 82 70 83 71 84 50 85 51 86 59 87
REMARK SMILES IDX 52 88 58 89 60 90 57 91 53 92 54 93 55 94 56 95
REMARK H PARENT 14 7 21 29 80 48 48 59
REMARK Flexibility Score: inf
ROOT
ATOM      1  C   UNL A   1      34.915  31.467  28.185  1.00  0.00     0.002 C 
ENDROOT
BRANCH   1   2
ATOM      2  C   UNL A   1      35.746  30.244  27.793  1.00  0.00     0.021 C 
BRANCH   2   3
ATOM      3  C   UNL A   1      34.949  29.191  27.041  1.00  0.00     0.116 C 
BRANCH   3   4
ATOM      4  N   UNL A   1      33.699  28.907  27.707  1.00  0.00    -0.355 N 
ATOM      5  C   UNL A   1      32.616  28.197  27.308  1.00  0.00     0.239 C 
ATOM      6  O   UNL A   1      31.671  28.134  28.106  1.00  0.00    -0.273 OA
ATOM      7  H   UNL A   1      33.621  29.296  28.609  1.00  0.00     0.163 HD
BRANCH   5   8
ATOM      8  C   UNL A   1      32.606  27.298  26.062  1.00  0.00     0.221 C 
BRANCH   8   9
ATOM      9  N   UNL A   1      31.454  26.574  25.565  1.00  0.00    -0.306 N 
BRANCH   9  10
ATOM     10  C   UNL A   1      30.976  25.330  25.882  1.00  0.00     0.321 C 
ATOM     11  O   UNL A   1      29.856  25.303  26.419  1.00  0.00    -0.248 OA
BRANCH  10  12
ATOM     12  N   UNL A   1      31.574  24.122  25.579  1.00  0.00    -0.322 N 
ATOM     13  C   UNL A   1      32.889  23.527  25.165  1.00  0.00     0.086 C 
ATOM     14  C   UNL A   1      32.437  22.161  24.599  1.00  0.00     0.027 C 
ATOM     15  C   UNL A   1      31.410  21.698  25.600  1.00  0.00     0.024 C 
ATOM     16  C   UNL A   1      30.715  22.987  25.990  1.00  0.00     0.122 C 
BRANCH  13  17
ATOM     17  C   UNL A   1      33.882  24.097  24.146  1.00  0.00     0.022 C 
ATOM     18  C   UNL A   1      35.269  24.358  24.741  1.00  0.00     0.006 C 
ENDBRANCH  13  17
ENDBRANCH  10  12
ENDBRANCH   9  10
BRANCH   9  19
ATOM     19  C   UNL A   1      30.700  27.310  24.508  1.00  0.00     0.237 C 
BRANCH  19  20
ATOM     20  C   UNL A   1      31.112  27.050  23.057  1.00  0.00     0.406 C 
ATOM     21  F   UNL A   1      31.145  25.745  22.732  1.00  0.00    -0.169 F 
ATOM     22  F   UNL A   1      30.247  27.661  22.210  1.00  0.00    -0.169 F 
ATOM     23  F   UNL A   1      32.334  27.575  22.804  1.00  0.00    -0.169 F 
ENDBRANCH  19  20
ENDBRANCH   9  19
ENDBRANCH   8   9
ENDBRANCH   5   8
ENDBRANCH   3   4
ENDBRANCH   2   3
ENDBRANCH   1   2
BRANCH   1  24
ATOM     24  C   UNL A   1      35.651  32.799  28.028  1.00  0.00     0.002 C 
BRANCH  24  25
ATOM     25  C   UNL A   1      34.743  34.031  28.062  1.00  0.00     0.021 C 
BRANCH  25  26
ATOM     26  C   UNL A   1      33.334  33.753  28.574  1.00  0.00     0.116 C 
BRANCH  26  27
ATOM     27  N   UNL A   1      32.873  34.802  29.467  1.00  0.00    -0.352 N 
ATOM     28  C   UNL A   1      33.262  35.066  30.756  1.00  0.00     0.251 C 
ATOM     29  H   UNL A   1      32.187  35.405  29.098  1.00  0.00     0.163 HD
ATOM     30  O   UNL A   1      32.609  35.833  31.451  1.00  0.00    -0.269 OA
BRANCH  28  31
ATOM     31  C   UNL A   1      34.465  34.397  31.292  1.00  0.00     0.039 A 
ATOM     32  C   UNL A   1      34.329  33.144  31.890  1.00  0.00     0.014 A 
ATOM     33  C   UNL A   1      35.722  35.000  31.184  1.00  0.00     0.014 A 
ATOM     34  C   UNL A   1      35.466  32.474  32.341  1.00  0.00     0.010 A 
ATOM     35  C   UNL A   1      36.861  34.295  31.560  1.00  0.00     0.010 A 
ATOM     36  C   UNL A   1      36.743  33.030  32.152  1.00  0.00    -0.014 A 
BRANCH  36  37
ATOM     37  C   UNL A   1      37.961  32.299  32.585  1.00  0.00     0.031 A 
ATOM     38  C   UNL A   1      38.594  32.605  33.915  1.00  0.00     0.074 A 
ATOM     39  C   UNL A   1      38.510  31.381  31.765  1.00  0.00     0.049 A 
ATOM     40  N   UNL A   1      39.662  32.086  34.462  1.00  0.00    -0.248 NA
ATOM     41  C   UNL A   1      37.955  33.656  34.722  1.00  0.00     0.031 C 
ATOM     42  C   UNL A   1      38.006  31.029  30.435  1.00  0.00     0.029 A 
ATOM     43  N   UNL A   1      39.605  30.573  31.929  1.00  0.00    -0.354 N 
ATOM     44  C   UNL A   1      39.825  32.746  35.675  1.00  0.00     0.074 A 
ATOM     45  C   UNL A   1      38.792  33.757  35.743  1.00  0.00     0.031 C 
ATOM     46  C   UNL A   1      38.764  30.047  29.925  1.00  0.00     0.029 A 
ATOM     47  C   UNL A   1      39.835  29.732  30.864  1.00  0.00     0.049 A 
ATOM     48  H   UNL A   1      40.173  30.592  32.733  1.00  0.00     0.167 HD
ATOM     49  C   UNL A   1      40.733  32.510  36.655  1.00  0.00     0.034 A 
ATOM     50  C   UNL A   1      40.803  28.816  30.667  1.00  0.00     0.034 A 
ATOM     51  C   UNL A   1      41.759  31.499  36.566  1.00  0.00     0.049 A 
ATOM     52  C   UNL A   1      41.831  28.605  31.750  1.00  0.00     0.074 A 
ATOM     53  C   UNL A   1      42.706  31.144  37.511  1.00  0.00     0.029 A 
ATOM     54  N   UNL A   1      41.984  30.687  35.460  1.00  0.00    -0.354 N 
ATOM     55  N   UNL A   1      41.939  29.198  32.916  1.00  0.00    -0.248 NA
ATOM     56  C   UNL A   1      42.859  27.590  31.490  1.00  0.00     0.031 C 
ATOM     57  C   UNL A   1      43.548  30.179  36.949  1.00  0.00     0.029 A 
ATOM     58  C   UNL A   1      43.076  29.862  35.685  1.00  0.00     0.049 A 
ATOM     59  H   UNL A   1      41.444  30.696  34.636  1.00  0.00     0.167 HD
ATOM     60  C   UNL A   1      43.033  28.607  33.542  1.00  0.00     0.074 A 
ATOM     61  C   UNL A   1      43.530  27.594  32.632  1.00  0.00     0.031 C 
ATOM     62  C   UNL A   1      43.578  28.873  34.757  1.00  0.00     0.034 A 
BRANCH  49  63
ATOM     63  C   UNL A   1      40.664  33.384  37.887  1.00  0.00     0.023 A 
ATOM     64  C   UNL A   1      39.790  33.094  38.950  1.00  0.00     0.031 A 
ATOM     65  C   UNL A   1      41.449  34.546  37.985  1.00  0.00     0.131 A 
ATOM     66  C   UNL A   1      39.655  33.996  40.017  1.00  0.00     0.055 A 
ATOM     67  C   UNL A   1      41.377  35.393  39.095  1.00  0.00     0.041 A 
ATOM     68  F   UNL A   1      42.286  34.892  36.995  1.00  0.00    -0.206 F 
ATOM     69  C   UNL A   1      40.463  35.130  40.110  1.00  0.00     0.022 A 
BRANCH  66  70
ATOM     70  S   UNL A   1      38.290  33.752  41.187  1.00  0.00     0.124 S 
ATOM     71  O   UNL A   1      37.940  35.131  41.524  1.00  0.00    -0.237 OA
ATOM     72  O   UNL A   1      37.313  33.023  40.386  1.00  0.00    -0.237 OA
ATOM     73  O   UNL A   1      38.902  32.990  42.273  1.00  0.00    -0.744 OA
ENDBRANCH  66  70
ENDBRANCH  49  63
BRANCH  50  74
ATOM     74  C   UNL A   1      40.854  28.030  29.400  1.00  0.00     0.023 A 
ATOM     75  C   UNL A   1      41.793  28.329  28.400  1.00  0.00     0.031 A 
ATOM     76  C   UNL A   1      39.937  26.992  29.153  1.00  0.00     0.131 A 
ATOM     77  C   UNL A   1      41.764  27.634  27.182  1.00  0.00     0.055 A 
ATOM     78  C   UNL A   1      39.950  26.263  27.962  1.00  0.00     0.041 A 
ATOM     79  F   UNL A   1      39.020  26.661  30.076  1.00  0.00    -0.206 F 
ATOM     80  C   UNL A   1      40.859  26.593  26.962  1.00  0.00     0.022 A 
BRANCH  77  81
ATOM     81  S   UNL A   1      42.871  28.170  25.850  1.00  0.00     0.124 S 
ATOM     82  O   UNL A   1      44.122  27.520  26.224  1.00  0.00    -0.237 OA
ATOM     83  O   UNL A   1      42.200  27.642  24.666  1.00  0.00    -0.237 OA
ATOM     84  O   UNL A   1      42.864  29.627  25.968  1.00  0.00    -0.744 OA
ENDBRANCH  77  81
ENDBRANCH  50  74
BRANCH  62  85
ATOM     85  C   UNL A   1      44.758  28.027  35.177  1.00  0.00     0.023 A 
ATOM     86  C   UNL A   1      44.588  26.759  35.759  1.00  0.00     0.031 A 
ATOM     87  C   UNL A   1      46.069  28.511  35.022  1.00  0.00     0.131 A 
ATOM     88  C   UNL A   1      45.702  26.052  36.235  1.00  0.00     0.055 A 
ATOM     89  C   UNL A   1      47.180  27.768  35.427  1.00  0.00     0.041 A 
ATOM     90  F   UNL A   1      46.296  29.717  34.476  1.00  0.00    -0.206 F 
ATOM     91  C   UNL A   1      46.999  26.539  36.055  1.00  0.00     0.022 A 
BRANCH  88  92
ATOM     92  S   UNL A   1      45.425  24.547  37.209  1.00  0.00     0.124 S 
ATOM     93  O   UNL A   1      44.443  23.837  36.397  1.00  0.00    -0.237 OA
ATOM     94  O   UNL A   1      46.759  23.956  37.255  1.00  0.00    -0.237 OA
ATOM     95  O   UNL A   1      44.926  25.052  38.487  1.00  0.00    -0.744 OA
ENDBRANCH  88  92
ENDBRANCH  62  85
ENDBRANCH  36  37
ENDBRANCH  28  31
ENDBRANCH  26  27
ENDBRANCH  25  26
ENDBRANCH  24  25
ENDBRANCH   1  24
TORSDOF 22
ENDMDL
MODEL 3
REMARK VINA RESULT:      -9.8      2.788      3.531
REMARK SMILES CC[C@@H]1CCCN1C(=O)N(CC(=O)NCCCCCCNC(=O)c1ccc(-c2c3nc(c(-c4cc(S(=O)(=O)[O-])ccc4F)c4ccc([nH]4)c(-c4cc(S(=O)(=O)[O-])ccc4F)c4nc(c(-c5cc(S(=O)(=O)[O-])ccc5F)c5ccc2[nH]5)C=C4)C=C3)cc1)CC(F)(F)F
REMARK SMILES IDX 17 1 16 2 15 3 14 4 12 5 13 6 11 8 10 9 8 10 9 11 7 12 3 13
REMARK SMILES IDX 4 14 5 15 6 16 2 17 1 18 87 19 88 20 89 21 90 22 91 23 18 24
REMARK SMILES IDX 19 25 20 26 21 27 22 28 23 30 24 31 25 32 86 33 26 34 85 35
REMARK SMILES IDX 27 36 28 37 29 38 79 39 30 40 84 41 78 42 80 43 31 44 83 45
REMARK SMILES IDX 77 46 76 47 32 49 64 50 44 51 63 52 45 53 48 54 62 55 81 56
REMARK SMILES IDX 46 57 47 58 61 60 82 61 49 62 33 63 34 64 42 65 35 66 41 67
REMARK SMILES IDX 43 68 40 69 36 70 37 71 38 72 39 73 65 74 66 75 74 76 67 77
REMARK SMILES IDX 73 78 75 79 72 80 68 81 69 82 70 83 71 84 50 85 51 86 59 87
REMARK SMILES IDX 52 88 58 89 60 90 57 91 53 92 54 93 55 94 56 95
REMARK H PARENT 14 7 21 29 80 48 48 59
REMARK Flexibility Score: inf
ROOT
ATOM      1  C   UNL A   1      31.752  26.663  26.701  1.00  0.00     0.002 C 
ENDROOT
BRANCH   1   2
ATOM      2  C   UNL A   1      32.341  25.408  26.055  1.00  0.00     0.021 C 
BRANCH   2   3
ATOM      3  C   UNL A   1      31.742  24.118  26.591  1.00  0.00     0.116 C 
BRANCH   3   4
ATOM      4  N   UNL A   1      32.751  23.293  27.214  1.00  0.00    -0.355 N 
ATOM      5  C   UNL A   1      33.061  21.984  27.048  1.00  0.00     0.239 C 
ATOM      6  O   UNL A   1      33.987  21.543  27.741  1.00  0.00    -0.273 OA
ATOM      7  H   UNL A   1      33.311  23.763  27.874  1.00  0.00     0.163 HD
BRANCH   5   8
ATOM      8  C   UNL A   1      32.501  21.120  25.907  1.00  0.00     0.221 C 
BRANCH   8   9
ATOM      9  N   UNL A   1      33.080  21.009  24.584  1.00  0.00    -0.306 N 
BRANCH   9  10
ATOM     10  C   UNL A   1      32.892  21.768  23.460  1.00  0.00     0.321 C 
ATOM     11  O   UNL A   1      32.143  21.279  22.597  1.00  0.00    -0.248 OA
BRANCH  10  12
ATOM     12  N   UNL A   1      33.373  23.045  23.245  1.00  0.00    -0.322 N 
ATOM     13  C   UNL A   1      34.608  23.884  23.407  1.00  0.00     0.086 C 
ATOM     14  C   UNL A   1      34.016  25.309  23.336  1.00  0.00     0.027 C 
ATOM     15  C   UNL A   1      33.024  25.213  22.206  1.00  0.00     0.024 C 
ATOM     16  C   UNL A   1      32.458  23.817  22.372  1.00  0.00     0.122 C 
BRANCH  13  17
ATOM     17  C   UNL A   1      35.574  23.887  24.597  1.00  0.00     0.022 C 
ATOM     18  C   UNL A   1      36.461  22.640  24.655  1.00  0.00     0.006 C 
ENDBRANCH  13  17
ENDBRANCH  10  12
ENDBRANCH   9  10
BRANCH   9  19
ATOM     19  C   UNL A   1      34.006  19.847  24.437  1.00  0.00     0.237 C 
BRANCH  19  20
ATOM     20  C   UNL A   1      33.365  18.460  24.346  1.00  0.00     0.406 C 
ATOM     21  F   UNL A   1      32.039  18.464  24.575  1.00  0.00    -0.169 F 
ATOM     22  F   UNL A   1      33.566  17.934  23.112  1.00  0.00    -0.169 F 
ATOM     23  F   UNL A   1      33.940  17.608  25.227  1.00  0.00    -0.169 F 
ENDBRANCH  19  20
ENDBRANCH   9  19
ENDBRANCH   8   9
ENDBRANCH   5   8
ENDBRANCH   3   4
ENDBRANCH   2   3
ENDBRANCH   1   2
BRANCH   1  24
ATOM     24  C   UNL A   1      31.707  27.881  25.775  1.00  0.00     0.002 C 
BRANCH  24  25
ATOM     25  C   UNL A   1      33.080  28.390  25.333  1.00  0.00     0.021 C 
BRANCH  25  26
ATOM     26  C   UNL A   1      33.958  28.888  26.475  1.00  0.00     0.116 C 
BRANCH  26  27
ATOM     27  N   UNL A   1      33.754  30.305  26.729  1.00  0.00    -0.352 N 
ATOM     28  C   UNL A   1      34.433  31.131  27.588  1.00  0.00     0.251 C 
ATOM     29  H   UNL A   1      33.029  30.729  26.215  1.00  0.00     0.163 HD
ATOM     30  O   UNL A   1      33.985  32.236  27.861  1.00  0.00    -0.269 OA
BRANCH  28  31
ATOM     31  C   UNL A   1      35.696  30.655  28.189  1.00  0.00     0.039 A 
ATOM     32  C   UNL A   1      35.643  29.687  29.191  1.00  0.00     0.014 A 
ATOM     33  C   UNL A   1      36.926  31.155  27.747  1.00  0.00     0.014 A 
ATOM     34  C   UNL A   1      36.831  29.184  29.721  1.00  0.00     0.010 A 
ATOM     35  C   UNL A   1      38.108  30.593  28.218  1.00  0.00     0.010 A 
ATOM     36  C   UNL A   1      38.073  29.610  29.217  1.00  0.00    -0.014 A 
BRANCH  36  37
ATOM     37  C   UNL A   1      39.340  29.042  29.742  1.00  0.00     0.031 A 
ATOM     38  C   UNL A   1      39.985  29.634  30.964  1.00  0.00     0.074 A 
ATOM     39  C   UNL A   1      39.922  28.011  29.096  1.00  0.00     0.049 A 
ATOM     40  N   UNL A   1      41.094  29.288  31.565  1.00  0.00    -0.248 NA
ATOM     41  C   UNL A   1      39.306  30.787  31.574  1.00  0.00     0.031 C 
ATOM     42  C   UNL A   1      39.409  27.381  27.877  1.00  0.00     0.029 A 
ATOM     43  N   UNL A   1      41.065  27.308  29.376  1.00  0.00    -0.354 N 
ATOM     44  C   UNL A   1      41.247  30.179  32.622  1.00  0.00     0.074 A 
ATOM     45  C   UNL A   1      40.159  31.129  32.528  1.00  0.00     0.031 C 
ATOM     46  C   UNL A   1      40.209  26.359  27.541  1.00  0.00     0.029 A 
ATOM     47  C   UNL A   1      41.318  26.290  28.487  1.00  0.00     0.049 A 
ATOM     48  H   UNL A   1      41.649  27.513  30.141  1.00  0.00     0.167 HD
ATOM     49  C   UNL A   1      42.189  30.185  33.597  1.00  0.00     0.034 A 
ATOM     50  C   UNL A   1      42.332  25.404  28.438  1.00  0.00     0.034 A 
ATOM     51  C   UNL A   1      43.269  29.231  33.670  1.00  0.00     0.049 A 
ATOM     52  C   UNL A   1      43.396  25.461  29.505  1.00  0.00     0.074 A 
ATOM     53  C   UNL A   1      44.256  29.117  34.633  1.00  0.00     0.029 A 
ATOM     54  N   UNL A   1      43.514  28.232  32.735  1.00  0.00    -0.354 N 
ATOM     55  N   UNL A   1      43.496  26.276  30.531  1.00  0.00    -0.248 NA
ATOM     56  C   UNL A   1      44.474  24.470  29.412  1.00  0.00     0.031 C 
ATOM     57  C   UNL A   1      45.140  28.106  34.240  1.00  0.00     0.029 A 
ATOM     58  C   UNL A   1      44.657  27.525  33.079  1.00  0.00     0.049 A 
ATOM     59  H   UNL A   1      42.956  28.052  31.944  1.00  0.00     0.167 HD
ATOM     60  C   UNL A   1      44.637  25.875  31.221  1.00  0.00     0.074 A 
ATOM     61  C   UNL A   1      45.170  24.732  30.508  1.00  0.00     0.031 C 
ATOM     62  C   UNL A   1      45.193  26.401  32.343  1.00  0.00     0.034 A 
BRANCH  49  63
ATOM     63  C   UNL A   1      42.098  31.278  34.639  1.00  0.00     0.023 A 
ATOM     64  C   UNL A   1      42.750  32.514  34.472  1.00  0.00     0.031 A 
ATOM     65  C   UNL A   1      41.388  31.071  35.834  1.00  0.00     0.131 A 
ATOM     66  C   UNL A   1      42.755  33.453  35.514  1.00  0.00     0.055 A 
ATOM     67  C   UNL A   1      41.319  32.048  36.830  1.00  0.00     0.041 A 
ATOM     68  F   UNL A   1      40.763  29.905  36.066  1.00  0.00    -0.206 F 
ATOM     69  C   UNL A   1      42.020  33.240  36.682  1.00  0.00     0.022 A 
BRANCH  66  70
ATOM     70  S   UNL A   1      43.872  34.877  35.389  1.00  0.00     0.124 S 
ATOM     71  O   UNL A   1      43.282  35.802  36.353  1.00  0.00    -0.237 OA
ATOM     72  O   UNL A   1      45.160  34.301  35.761  1.00  0.00    -0.237 OA
ATOM     73  O   UNL A   1      43.751  35.286  33.990  1.00  0.00    -0.744 OA
ENDBRANCH  66  70
ENDBRANCH  49  63
BRANCH  50  74
ATOM     74  C   UNL A   1      42.399  24.389  27.346  1.00  0.00     0.023 A 
ATOM     75  C   UNL A   1      41.629  23.217  27.401  1.00  0.00     0.031 A 
ATOM     76  C   UNL A   1      43.265  24.558  26.251  1.00  0.00     0.131 A 
ATOM     77  C   UNL A   1      41.775  22.237  26.407  1.00  0.00     0.055 A 
ATOM     78  C   UNL A   1      43.363  23.607  25.233  1.00  0.00     0.041 A 
ATOM     79  F   UNL A   1      44.022  25.662  26.146  1.00  0.00    -0.206 F 
ATOM     80  C   UNL A   1      42.625  22.430  25.316  1.00  0.00     0.022 A 
BRANCH  77  81
ATOM     81  S   UNL A   1      40.900  20.661  26.607  1.00  0.00     0.124 S 
ATOM     82  O   UNL A   1      39.603  20.964  26.015  1.00  0.00    -0.237 OA
ATOM     83  O   UNL A   1      41.752  19.744  25.855  1.00  0.00    -0.237 OA
ATOM     84  O   UNL A   1      40.896  20.457  28.055  1.00  0.00    -0.744 OA
ENDBRANCH  77  81
ENDBRANCH  50  74
BRANCH  62  85
ATOM     85  C   UNL A   1      46.430  25.716  32.878  1.00  0.00     0.023 A 
ATOM     86  C   UNL A   1      47.695  25.921  32.302  1.00  0.00     0.031 A 
ATOM     87  C   UNL A   1      46.335  24.819  33.957  1.00  0.00     0.131 A 
ATOM     88  C   UNL A   1      48.800  25.183  32.755  1.00  0.00     0.055 A 
ATOM     89  C   UNL A   1      47.452  24.145  34.455  1.00  0.00     0.041 A 
ATOM     90  F   UNL A   1      45.152  24.578  34.546  1.00  0.00    -0.206 F 
ATOM     91  C   UNL A   1      48.690  24.312  33.841  1.00  0.00     0.022 A 
BRANCH  88  92
ATOM     92  S   UNL A   1      50.352  25.281  31.823  1.00  0.00     0.124 S 
ATOM     93  O   UNL A   1      49.893  25.743  30.517  1.00  0.00    -0.237 OA
ATOM     94  O   UNL A   1      51.124  26.244  32.603  1.00  0.00    -0.237 OA
ATOM     95  O   UNL A   1      50.859  23.911  31.854  1.00  0.00    -0.744 OA
ENDBRANCH  88  92
ENDBRANCH  62  85
ENDBRANCH  36  37
ENDBRANCH  28  31
ENDBRANCH  26  27
ENDBRANCH  25  26
ENDBRANCH  24  25
ENDBRANCH   1  24
TORSDOF 22
ENDMDL
