MODEL 1
REMARK VINA RESULT:      -9.9      0.000      0.000
REMARK SMILES C=CC[N@@H+](CC(=O)NCCCCCCNC(=O)c1ccc(-c2c3nc(c(-c4cc(S(=O)(=O)[O-])ccc4F)c4ccc([nH]4)c(-c4cc(S(=O)(=O)[O-])ccc4F)c4nc(c(-c5cc(S(=O)(=O)[O-])ccc5F)c5ccc2[nH]5)C=C4)C=C3)cc1)C[C@H]1CNC(=O)O1
REMARK SMILES IDX 11 1 10 2 9 3 8 4 6 5 7 6 5 8 4 9 3 11 2 12 1 13 81 14 82 15
REMARK SMILES IDX 83 16 87 17 84 18 85 19 86 21 12 22 13 23 14 24 15 25 16 26
REMARK SMILES IDX 17 28 18 29 19 30 80 31 20 32 79 33 21 34 22 35 23 36 73 37
REMARK SMILES IDX 24 38 78 39 72 40 74 41 25 42 77 43 71 44 70 45 26 47 58 48
REMARK SMILES IDX 38 49 57 50 39 51 42 52 56 53 75 54 40 55 41 56 55 58 76 59
REMARK SMILES IDX 43 60 27 61 28 62 36 63 29 64 35 65 37 66 34 67 30 68 31 69
REMARK SMILES IDX 32 70 33 71 59 72 60 73 68 74 61 75 67 76 69 77 66 78 62 79
REMARK SMILES IDX 63 80 64 81 65 82 44 83 45 84 53 85 46 86 52 87 54 88 51 89
REMARK SMILES IDX 47 90 48 91 49 92 50 93
REMARK H PARENT 8 7 4 10 84 20 15 27 74 46 42 57
REMARK Flexibility Score: inf
ROOT
ATOM      1  C   UNL A   1      34.586  23.203  23.628  1.00  0.00     0.002 C 
ENDROOT
BRANCH   1   2
ATOM      2  C   UNL A   1      33.865  24.377  22.973  1.00  0.00     0.021 C 
BRANCH   2   3
ATOM      3  C   UNL A   1      33.380  25.498  23.908  1.00  0.00     0.116 C 
BRANCH   3   4
ATOM      4  N   UNL A   1      33.934  26.799  23.582  1.00  0.00    -0.351 N 
ATOM      5  C   UNL A   1      33.397  27.862  22.915  1.00  0.00     0.275 C 
ATOM      6  O   UNL A   1      34.101  28.869  22.763  1.00  0.00    -0.269 OA
ATOM      7  H   UNL A   1      34.857  26.938  23.896  1.00  0.00     0.163 HD
BRANCH   5   8
ATOM      8  C   UNL A   1      31.966  27.859  22.375  1.00  0.00     0.363 C 
BRANCH   8   9
ATOM      9  N   UNL A   1      30.960  28.618  23.157  1.00  0.00    -0.321 N 
ATOM     10  H   UNL A   1      31.424  29.411  23.599  1.00  0.00     0.348 HD
BRANCH   9  11
ATOM     11  C   UNL A   1      30.506  27.894  24.323  1.00  0.00     0.290 C 
BRANCH  11  12
ATOM     12  C   UNL A   1      31.186  28.149  25.629  1.00  0.00     0.025 C 
ATOM     13  C   UNL A   1      31.758  29.325  25.927  1.00  0.00     0.010 C 
ENDBRANCH  11  12
ENDBRANCH   9  11
BRANCH   9  14
ATOM     14  C   UNL A   1      30.015  29.410  22.357  1.00  0.00     0.310 C 
BRANCH  14  15
ATOM     15  C   UNL A   1      28.866  30.277  22.948  1.00  0.00     0.252 C 
ATOM     16  C   UNL A   1      29.400  31.352  23.895  1.00  0.00     0.170 C 
ATOM     17  O   UNL A   1      28.112  31.017  21.981  1.00  0.00    -0.438 OA
ATOM     18  N   UNL A   1      29.098  32.570  23.225  1.00  0.00    -0.318 N 
ATOM     19  C   UNL A   1      28.311  32.352  22.142  1.00  0.00     0.407 C 
ATOM     20  H   UNL A   1      29.419  33.455  23.510  1.00  0.00     0.167 HD
ATOM     21  O   UNL A   1      27.824  33.217  21.427  1.00  0.00    -0.225 OA
ENDBRANCH  14  15
ENDBRANCH   9  14
ENDBRANCH   8   9
ENDBRANCH   5   8
ENDBRANCH   3   4
ENDBRANCH   2   3
ENDBRANCH   1   2
BRANCH   1  22
ATOM     22  C   UNL A   1      36.068  23.440  23.899  1.00  0.00     0.002 C 
BRANCH  22  23
ATOM     23  C   UNL A   1      36.798  22.269  24.561  1.00  0.00     0.021 C 
BRANCH  23  24
ATOM     24  C   UNL A   1      37.540  22.621  25.849  1.00  0.00     0.116 C 
BRANCH  24  25
ATOM     25  N   UNL A   1      38.694  21.763  26.052  1.00  0.00    -0.352 N 
ATOM     26  C   UNL A   1      39.990  22.105  26.347  1.00  0.00     0.251 C 
ATOM     27  H   UNL A   1      38.522  20.798  25.966  1.00  0.00     0.163 HD
ATOM     28  O   UNL A   1      40.887  21.281  26.192  1.00  0.00    -0.269 OA
BRANCH  26  29
ATOM     29  C   UNL A   1      40.302  23.466  26.837  1.00  0.00     0.039 A 
ATOM     30  C   UNL A   1      40.793  23.623  28.136  1.00  0.00     0.014 A 
ATOM     31  C   UNL A   1      40.081  24.588  26.032  1.00  0.00     0.014 A 
ATOM     32  C   UNL A   1      41.103  24.900  28.608  1.00  0.00     0.010 A 
ATOM     33  C   UNL A   1      40.470  25.850  26.475  1.00  0.00     0.010 A 
ATOM     34  C   UNL A   1      40.972  26.024  27.773  1.00  0.00    -0.014 A 
BRANCH  34  35
ATOM     35  C   UNL A   1      41.334  27.384  28.255  1.00  0.00     0.031 A 
ATOM     36  C   UNL A   1      42.778  27.810  28.302  1.00  0.00     0.074 A 
ATOM     37  C   UNL A   1      40.368  28.221  28.680  1.00  0.00     0.049 A 
ATOM     38  N   UNL A   1      43.296  28.935  28.725  1.00  0.00    -0.248 NA
ATOM     39  C   UNL A   1      43.773  26.831  27.839  1.00  0.00     0.031 C 
ATOM     40  C   UNL A   1      38.936  27.910  28.714  1.00  0.00     0.029 A 
ATOM     41  N   UNL A   1      40.438  29.503  29.166  1.00  0.00    -0.354 N 
ATOM     42  C   UNL A   1      44.673  28.797  28.585  1.00  0.00     0.074 A 
ATOM     43  C   UNL A   1      44.911  27.452  28.106  1.00  0.00     0.031 C 
ATOM     44  C   UNL A   1      38.264  28.983  29.158  1.00  0.00     0.029 A 
ATOM     45  C   UNL A   1      39.212  30.039  29.493  1.00  0.00     0.049 A 
ATOM     46  H   UNL A   1      41.285  29.994  29.269  1.00  0.00     0.167 HD
ATOM     47  C   UNL A   1      45.647  29.714  28.810  1.00  0.00     0.034 A 
ATOM     48  C   UNL A   1      38.891  31.240  30.015  1.00  0.00     0.034 A 
ATOM     49  C   UNL A   1      45.391  31.052  29.285  1.00  0.00     0.049 A 
ATOM     50  C   UNL A   1      39.995  32.229  30.296  1.00  0.00     0.074 A 
ATOM     51  C   UNL A   1      46.297  32.075  29.508  1.00  0.00     0.029 A 
ATOM     52  N   UNL A   1      44.140  31.554  29.622  1.00  0.00    -0.354 N 
ATOM     53  N   UNL A   1      41.291  32.097  30.114  1.00  0.00    -0.248 NA
ATOM     54  C   UNL A   1      39.594  33.532  30.838  1.00  0.00     0.031 C 
ATOM     55  C   UNL A   1      45.607  33.161  30.057  1.00  0.00     0.029 A 
ATOM     56  C   UNL A   1      44.256  32.857  30.084  1.00  0.00     0.049 A 
ATOM     57  H   UNL A   1      43.293  31.057  29.544  1.00  0.00     0.167 HD
ATOM     58  C   UNL A   1      41.851  33.319  30.483  1.00  0.00     0.074 A 
ATOM     59  C   UNL A   1      40.751  34.175  30.881  1.00  0.00     0.031 C 
ATOM     60  C   UNL A   1      43.154  33.700  30.486  1.00  0.00     0.034 A 
BRANCH  47  61
ATOM     61  C   UNL A   1      47.078  29.286  28.573  1.00  0.00     0.023 A 
ATOM     62  C   UNL A   1      47.584  29.078  27.277  1.00  0.00     0.031 A 
ATOM     63  C   UNL A   1      47.945  29.064  29.657  1.00  0.00     0.131 A 
ATOM     64  C   UNL A   1      48.887  28.587  27.102  1.00  0.00     0.055 A 
ATOM     65  C   UNL A   1      49.270  28.663  29.472  1.00  0.00     0.041 A 
ATOM     66  F   UNL A   1      47.515  29.221  30.919  1.00  0.00    -0.206 F 
ATOM     67  C   UNL A   1      49.744  28.407  28.190  1.00  0.00     0.022 A 
BRANCH  64  68
ATOM     68  S   UNL A   1      49.392  28.040  25.448  1.00  0.00     0.124 S 
ATOM     69  O   UNL A   1      48.147  28.186  24.698  1.00  0.00    -0.237 OA
ATOM     70  O   UNL A   1      50.454  28.981  25.114  1.00  0.00    -0.237 OA
ATOM     71  O   UNL A   1      49.824  26.660  25.661  1.00  0.00    -0.744 OA
ENDBRANCH  64  68
ENDBRANCH  47  61
BRANCH  48  72
ATOM     72  C   UNL A   1      37.470  31.579  30.318  1.00  0.00     0.023 A 
ATOM     73  C   UNL A   1      36.589  31.992  29.304  1.00  0.00     0.031 A 
ATOM     74  C   UNL A   1      36.983  31.549  31.638  1.00  0.00     0.131 A 
ATOM     75  C   UNL A   1      35.290  32.411  29.633  1.00  0.00     0.055 A 
ATOM     76  C   UNL A   1      35.670  31.904  31.951  1.00  0.00     0.041 A 
ATOM     77  F   UNL A   1      37.781  31.163  32.647  1.00  0.00    -0.206 F 
ATOM     78  C   UNL A   1      34.819  32.354  30.946  1.00  0.00     0.022 A 
BRANCH  75  79
ATOM     79  S   UNL A   1      34.258  33.139  28.331  1.00  0.00     0.124 S 
ATOM     80  O   UNL A   1      33.373  34.003  29.103  1.00  0.00    -0.237 OA
ATOM     81  O   UNL A   1      35.249  33.813  27.499  1.00  0.00    -0.237 OA
ATOM     82  O   UNL A   1      33.618  31.978  27.716  1.00  0.00    -0.744 OA
ENDBRANCH  75  79
ENDBRANCH  48  72
BRANCH  60  83
ATOM     83  C   UNL A   1      43.453  35.129  30.877  1.00  0.00     0.023 A 
ATOM     84  C   UNL A   1      43.498  36.168  29.930  1.00  0.00     0.031 A 
ATOM     85  C   UNL A   1      43.719  35.452  32.221  1.00  0.00     0.131 A 
ATOM     86  C   UNL A   1      43.873  37.461  30.327  1.00  0.00     0.055 A 
ATOM     87  C   UNL A   1      44.014  36.755  32.622  1.00  0.00     0.041 A 
ATOM     88  F   UNL A   1      43.696  34.502  33.169  1.00  0.00    -0.206 F 
ATOM     89  C   UNL A   1      44.109  37.766  31.670  1.00  0.00     0.022 A 
BRANCH  86  90
ATOM     90  S   UNL A   1      44.168  38.713  29.048  1.00  0.00     0.124 S 
ATOM     91  O   UNL A   1      42.810  39.126  28.710  1.00  0.00    -0.237 OA
ATOM     92  O   UNL A   1      44.976  39.700  29.759  1.00  0.00    -0.237 OA
ATOM     93  O   UNL A   1      44.872  37.975  28.001  1.00  0.00    -0.744 OA
ENDBRANCH  86  90
ENDBRANCH  60  83
ENDBRANCH  34  35
ENDBRANCH  26  29
ENDBRANCH  24  25
ENDBRANCH  23  24
ENDBRANCH  22  23
ENDBRANCH   1  22
TORSDOF 21
ENDMDL
MODEL 2
REMARK VINA RESULT:      -9.7      6.453     12.163
REMARK SMILES C=CC[N@@H+](CC(=O)NCCCCCCNC(=O)c1ccc(-c2c3nc(c(-c4cc(S(=O)(=O)[O-])ccc4F)c4ccc([nH]4)c(-c4cc(S(=O)(=O)[O-])ccc4F)c4nc(c(-c5cc(S(=O)(=O)[O-])ccc5F)c5ccc2[nH]5)C=C4)C=C3)cc1)C[C@H]1CNC(=O)O1
REMARK SMILES IDX 11 1 10 2 9 3 8 4 6 5 7 6 5 8 4 9 3 11 2 12 1 13 81 14 82 15
REMARK SMILES IDX 83 16 87 17 84 18 85 19 86 21 12 22 13 23 14 24 15 25 16 26
REMARK SMILES IDX 17 28 18 29 19 30 80 31 20 32 79 33 21 34 22 35 23 36 73 37
REMARK SMILES IDX 24 38 78 39 72 40 74 41 25 42 77 43 71 44 70 45 26 47 58 48
REMARK SMILES IDX 38 49 57 50 39 51 42 52 56 53 75 54 40 55 41 56 55 58 76 59
REMARK SMILES IDX 43 60 27 61 28 62 36 63 29 64 35 65 37 66 34 67 30 68 31 69
REMARK SMILES IDX 32 70 33 71 59 72 60 73 68 74 61 75 67 76 69 77 66 78 62 79
REMARK SMILES IDX 63 80 64 81 65 82 44 83 45 84 53 85 46 86 52 87 54 88 51 89
REMARK SMILES IDX 47 90 48 91 49 92 50 93
REMARK H PARENT 8 7 4 10 84 20 15 27 74 46 42 57
REMARK Flexibility Score: inf
ROOT
ATOM      1  C   UNL A   1      39.428  28.803  28.765  1.00  0.00     0.002 C 
ENDROOT
BRANCH   1   2
ATOM      2  C   UNL A   1      39.059  27.395  29.220  1.00  0.00     0.021 C 
BRANCH   2   3
ATOM      3  C   UNL A   1      39.859  26.238  28.600  1.00  0.00     0.116 C 
BRANCH   3   4
ATOM      4  N   UNL A   1      40.520  26.594  27.359  1.00  0.00    -0.351 N 
ATOM      5  C   UNL A   1      40.920  25.829  26.301  1.00  0.00     0.275 C 
ATOM      6  O   UNL A   1      41.481  26.393  25.353  1.00  0.00    -0.269 OA
ATOM      7  H   UNL A   1      40.715  27.555  27.263  1.00  0.00     0.163 HD
BRANCH   5   8
ATOM      8  C   UNL A   1      40.681  24.319  26.240  1.00  0.00     0.363 C 
BRANCH   8   9
ATOM      9  N   UNL A   1      41.363  23.496  27.268  1.00  0.00    -0.321 N 
ATOM     10  H   UNL A   1      40.912  23.664  28.167  1.00  0.00     0.348 HD
BRANCH   9  11
ATOM     11  C   UNL A   1      42.701  23.964  27.552  1.00  0.00     0.290 C 
BRANCH  11  12
ATOM     12  C   UNL A   1      43.078  24.225  28.974  1.00  0.00     0.025 C 
ATOM     13  C   UNL A   1      43.848  23.384  29.681  1.00  0.00     0.010 C 
ENDBRANCH  11  12
ENDBRANCH   9  11
BRANCH   9  14
ATOM     14  C   UNL A   1      41.073  22.057  27.209  1.00  0.00     0.310 C 
BRANCH  14  15
ATOM     15  C   UNL A   1      42.139  20.933  27.363  1.00  0.00     0.252 C 
ATOM     16  C   UNL A   1      41.490  19.568  27.594  1.00  0.00     0.170 C 
ATOM     17  O   UNL A   1      42.967  20.727  26.213  1.00  0.00    -0.438 OA
ATOM     18  N   UNL A   1      41.829  18.833  26.425  1.00  0.00    -0.318 N 
ATOM     19  C   UNL A   1      42.723  19.509  25.662  1.00  0.00     0.407 C 
ATOM     20  H   UNL A   1      41.461  17.948  26.200  1.00  0.00     0.167 HD
ATOM     21  O   UNL A   1      43.258  19.087  24.646  1.00  0.00    -0.225 OA
ENDBRANCH  14  15
ENDBRANCH   9  14
ENDBRANCH   8   9
ENDBRANCH   5   8
ENDBRANCH   3   4
ENDBRANCH   2   3
ENDBRANCH   1   2
BRANCH   1  22
ATOM     22  C   UNL A   1      38.327  29.533  28.003  1.00  0.00     0.002 C 
BRANCH  22  23
ATOM     23  C   UNL A   1      37.425  30.420  28.866  1.00  0.00     0.021 C 
BRANCH  23  24
ATOM     24  C   UNL A   1      36.629  29.675  29.936  1.00  0.00     0.116 C 
BRANCH  24  25
ATOM     25  N   UNL A   1      36.433  30.491  31.122  1.00  0.00    -0.352 N 
ATOM     26  C   UNL A   1      37.176  30.541  32.274  1.00  0.00     0.251 C 
ATOM     27  H   UNL A   1      35.656  31.094  31.094  1.00  0.00     0.163 HD
ATOM     28  O   UNL A   1      36.702  31.063  33.280  1.00  0.00    -0.269 OA
BRANCH  26  29
ATOM     29  C   UNL A   1      38.535  29.959  32.304  1.00  0.00     0.039 A 
ATOM     30  C   UNL A   1      39.635  30.790  32.080  1.00  0.00     0.014 A 
ATOM     31  C   UNL A   1      38.725  28.590  32.520  1.00  0.00     0.014 A 
ATOM     32  C   UNL A   1      40.925  30.256  32.116  1.00  0.00     0.010 A 
ATOM     33  C   UNL A   1      40.015  28.076  32.640  1.00  0.00     0.010 A 
ATOM     34  C   UNL A   1      41.130  28.899  32.425  1.00  0.00    -0.014 A 
BRANCH  34  35
ATOM     35  C   UNL A   1      42.501  28.330  32.502  1.00  0.00     0.031 A 
ATOM     36  C   UNL A   1      43.150  28.097  33.842  1.00  0.00     0.074 A 
ATOM     37  C   UNL A   1      43.174  28.052  31.368  1.00  0.00     0.049 A 
ATOM     38  N   UNL A   1      44.348  27.647  34.115  1.00  0.00    -0.248 NA
ATOM     39  C   UNL A   1      42.356  28.444  35.031  1.00  0.00     0.031 C 
ATOM     40  C   UNL A   1      42.664  28.264  30.011  1.00  0.00     0.029 A 
ATOM     41  N   UNL A   1      44.430  27.532  31.170  1.00  0.00    -0.354 N 
ATOM     42  C   UNL A   1      44.454  27.662  35.502  1.00  0.00     0.074 A 
ATOM     43  C   UNL A   1      43.224  28.235  36.008  1.00  0.00     0.031 C 
ATOM     44  C   UNL A   1      43.582  27.844  29.126  1.00  0.00     0.029 A 
ATOM     45  C   UNL A   1      44.766  27.384  29.844  1.00  0.00     0.049 A 
ATOM     46  H   UNL A   1      45.032  27.287  31.909  1.00  0.00     0.167 HD
ATOM     47  C   UNL A   1      45.470  27.217  36.282  1.00  0.00     0.034 A 
ATOM     48  C   UNL A   1      45.902  26.939  29.270  1.00  0.00     0.034 A 
ATOM     49  C   UNL A   1      46.689  26.646  35.760  1.00  0.00     0.049 A 
ATOM     50  C   UNL A   1      47.035  26.488  30.158  1.00  0.00     0.074 A 
ATOM     51  C   UNL A   1      47.765  26.126  36.458  1.00  0.00     0.029 A 
ATOM     52  N   UNL A   1      47.001  26.528  34.411  1.00  0.00    -0.354 N 
ATOM     53  N   UNL A   1      47.100  26.468  31.471  1.00  0.00    -0.248 NA
ATOM     54  C   UNL A   1      48.241  25.988  29.489  1.00  0.00     0.031 C 
ATOM     55  C   UNL A   1      48.757  25.774  35.539  1.00  0.00     0.029 A 
ATOM     56  C   UNL A   1      48.265  25.978  34.260  1.00  0.00     0.049 A 
ATOM     57  H   UNL A   1      46.410  26.796  33.670  1.00  0.00     0.167 HD
ATOM     58  C   UNL A   1      48.340  25.913  31.780  1.00  0.00     0.074 A 
ATOM     59  C   UNL A   1      48.979  25.600  30.518  1.00  0.00     0.031 C 
ATOM     60  C   UNL A   1      48.897  25.677  32.996  1.00  0.00     0.034 A 
BRANCH  47  61
ATOM     61  C   UNL A   1      45.316  27.361  37.780  1.00  0.00     0.023 A 
ATOM     62  C   UNL A   1      45.677  28.542  38.451  1.00  0.00     0.031 A 
ATOM     63  C   UNL A   1      44.818  26.296  38.551  1.00  0.00     0.131 A 
ATOM     64  C   UNL A   1      45.610  28.603  39.852  1.00  0.00     0.055 A 
ATOM     65  C   UNL A   1      44.668  26.395  39.936  1.00  0.00     0.041 A 
ATOM     66  F   UNL A   1      44.480  25.133  37.973  1.00  0.00    -0.206 F 
ATOM     67  C   UNL A   1      45.080  27.548  40.596  1.00  0.00     0.022 A 
BRANCH  64  68
ATOM     68  S   UNL A   1      46.372  30.017  40.695  1.00  0.00     0.124 S 
ATOM     69  O   UNL A   1      46.519  30.969  39.597  1.00  0.00    -0.237 OA
ATOM     70  O   UNL A   1      45.378  30.356  41.706  1.00  0.00    -0.237 OA
ATOM     71  O   UNL A   1      47.627  29.474  41.210  1.00  0.00    -0.744 OA
ENDBRANCH  64  68
ENDBRANCH  47  61
BRANCH  48  72
ATOM     72  C   UNL A   1      46.039  26.905  27.785  1.00  0.00     0.023 A 
ATOM     73  C   UNL A   1      45.866  25.710  27.067  1.00  0.00     0.031 A 
ATOM     74  C   UNL A   1      46.399  28.058  27.063  1.00  0.00     0.131 A 
ATOM     75  C   UNL A   1      46.109  25.682  25.685  1.00  0.00     0.055 A 
ATOM     76  C   UNL A   1      46.575  28.039  25.679  1.00  0.00     0.041 A 
ATOM     77  F   UNL A   1      46.578  29.228  27.697  1.00  0.00    -0.206 F 
ATOM     78  C   UNL A   1      46.446  26.841  24.983  1.00  0.00     0.022 A 
BRANCH  75  79
ATOM     79  S   UNL A   1      46.087  24.081  24.832  1.00  0.00     0.124 S 
ATOM     80  O   UNL A   1      46.407  23.162  25.918  1.00  0.00    -0.237 OA
ATOM     81  O   UNL A   1      44.719  24.027  24.326  1.00  0.00    -0.237 OA
ATOM     82  O   UNL A   1      47.121  24.226  23.810  1.00  0.00    -0.744 OA
ENDBRANCH  75  79
ENDBRANCH  48  72
BRANCH  60  83
ATOM     83  C   UNL A   1      50.245  24.992  33.015  1.00  0.00     0.023 A 
ATOM     84  C   UNL A   1      50.370  23.592  32.993  1.00  0.00     0.031 A 
ATOM     85  C   UNL A   1      51.424  25.757  33.081  1.00  0.00     0.131 A 
ATOM     86  C   UNL A   1      51.637  23.000  33.109  1.00  0.00     0.055 A 
ATOM     87  C   UNL A   1      52.687  25.165  33.116  1.00  0.00     0.041 A 
ATOM     88  F   UNL A   1      51.368  27.098  33.110  1.00  0.00    -0.206 F 
ATOM     89  C   UNL A   1      52.797  23.777  33.148  1.00  0.00     0.022 A 
BRANCH  86  90
ATOM     90  S   UNL A   1      51.743  21.204  33.333  1.00  0.00     0.124 S 
ATOM     91  O   UNL A   1      52.661  20.819  32.267  1.00  0.00    -0.237 OA
ATOM     92  O   UNL A   1      52.261  21.089  34.693  1.00  0.00    -0.237 OA
ATOM     93  O   UNL A   1      50.363  20.754  33.156  1.00  0.00    -0.744 OA
ENDBRANCH  86  90
ENDBRANCH  60  83
ENDBRANCH  34  35
ENDBRANCH  26  29
ENDBRANCH  24  25
ENDBRANCH  23  24
ENDBRANCH  22  23
ENDBRANCH   1  22
TORSDOF 21
ENDMDL
MODEL 3
REMARK VINA RESULT:      -9.7      2.347      3.417
REMARK SMILES C=CC[N@@H+](CC(=O)NCCCCCCNC(=O)c1ccc(-c2c3nc(c(-c4cc(S(=O)(=O)[O-])ccc4F)c4ccc([nH]4)c(-c4cc(S(=O)(=O)[O-])ccc4F)c4nc(c(-c5cc(S(=O)(=O)[O-])ccc5F)c5ccc2[nH]5)C=C4)C=C3)cc1)C[C@H]1CNC(=O)O1
REMARK SMILES IDX 11 1 10 2 9 3 8 4 6 5 7 6 5 8 4 9 3 11 2 12 1 13 81 14 82 15
REMARK SMILES IDX 83 16 87 17 84 18 85 19 86 21 12 22 13 23 14 24 15 25 16 26
REMARK SMILES IDX 17 28 18 29 19 30 80 31 20 32 79 33 21 34 22 35 23 36 73 37
REMARK SMILES IDX 24 38 78 39 72 40 74 41 25 42 77 43 71 44 70 45 26 47 58 48
REMARK SMILES IDX 38 49 57 50 39 51 42 52 56 53 75 54 40 55 41 56 55 58 76 59
REMARK SMILES IDX 43 60 27 61 28 62 36 63 29 64 35 65 37 66 34 67 30 68 31 69
REMARK SMILES IDX 32 70 33 71 59 72 60 73 68 74 61 75 67 76 69 77 66 78 62 79
REMARK SMILES IDX 63 80 64 81 65 82 44 83 45 84 53 85 46 86 52 87 54 88 51 89
REMARK SMILES IDX 47 90 48 91 49 92 50 93
REMARK H PARENT 8 7 4 10 84 20 15 27 74 46 42 57
REMARK Flexibility Score: inf
ROOT
ATOM      1  C   UNL A   1      35.642  21.062  24.942  1.00  0.00     0.002 C 
ENDROOT
BRANCH   1   2
ATOM      2  C   UNL A   1      35.437  21.801  26.260  1.00  0.00     0.021 C 
BRANCH   2   3
ATOM      3  C   UNL A   1      34.703  23.149  26.188  1.00  0.00     0.116 C 
BRANCH   3   4
ATOM      4  N   UNL A   1      33.360  23.104  26.737  1.00  0.00    -0.351 N 
ATOM      5  C   UNL A   1      32.362  24.036  26.746  1.00  0.00     0.275 C 
ATOM      6  O   UNL A   1      31.296  23.740  27.301  1.00  0.00    -0.269 OA
ATOM      7  H   UNL A   1      33.130  22.255  27.179  1.00  0.00     0.163 HD
BRANCH   5   8
ATOM      8  C   UNL A   1      32.507  25.406  26.083  1.00  0.00     0.363 C 
BRANCH   8   9
ATOM      9  N   UNL A   1      31.801  25.599  24.793  1.00  0.00    -0.321 N 
ATOM     10  H   UNL A   1      30.950  25.037  24.804  1.00  0.00     0.348 HD
BRANCH   9  11
ATOM     11  C   UNL A   1      32.503  24.993  23.684  1.00  0.00     0.290 C 
BRANCH  11  12
ATOM     12  C   UNL A   1      31.931  25.141  22.312  1.00  0.00     0.025 C 
ATOM     13  C   UNL A   1      32.647  25.608  21.278  1.00  0.00     0.010 C 
ENDBRANCH  11  12
ENDBRANCH   9  11
BRANCH   9  14
ATOM     14  C   UNL A   1      31.136  26.899  24.633  1.00  0.00     0.310 C 
BRANCH  14  15
ATOM     15  C   UNL A   1      31.862  28.225  24.265  1.00  0.00     0.252 C 
ATOM     16  C   UNL A   1      30.870  29.320  23.871  1.00  0.00     0.170 C 
ATOM     17  O   UNL A   1      32.615  28.814  25.331  1.00  0.00    -0.438 OA
ATOM     18  N   UNL A   1      31.012  30.289  24.903  1.00  0.00    -0.318 N 
ATOM     19  C   UNL A   1      32.061  29.996  25.711  1.00  0.00     0.407 C 
ATOM     20  H   UNL A   1      30.424  31.070  25.016  1.00  0.00     0.167 HD
ATOM     21  O   UNL A   1      32.473  30.693  26.627  1.00  0.00    -0.225 OA
ENDBRANCH  14  15
ENDBRANCH   9  14
ENDBRANCH   8   9
ENDBRANCH   5   8
ENDBRANCH   3   4
ENDBRANCH   2   3
ENDBRANCH   1   2
BRANCH   1  22
ATOM     22  C   UNL A   1      37.078  21.072  24.425  1.00  0.00     0.002 C 
BRANCH  22  23
ATOM     23  C   UNL A   1      37.964  19.944  24.961  1.00  0.00     0.021 C 
BRANCH  23  24
ATOM     24  C   UNL A   1      38.965  20.371  26.033  1.00  0.00     0.116 C 
BRANCH  24  25
ATOM     25  N   UNL A   1      40.134  19.508  26.046  1.00  0.00    -0.352 N 
ATOM     26  C   UNL A   1      41.462  19.846  26.100  1.00  0.00     0.251 C 
ATOM     27  H   UNL A   1      39.945  18.543  26.010  1.00  0.00     0.163 HD
ATOM     28  O   UNL A   1      42.314  19.013  25.805  1.00  0.00    -0.269 OA
BRANCH  26  29
ATOM     29  C   UNL A   1      41.862  21.213  26.501  1.00  0.00     0.039 A 
ATOM     30  C   UNL A   1      42.105  22.168  25.511  1.00  0.00     0.014 A 
ATOM     31  C   UNL A   1      42.029  21.546  27.849  1.00  0.00     0.014 A 
ATOM     32  C   UNL A   1      42.472  23.465  25.875  1.00  0.00     0.010 A 
ATOM     33  C   UNL A   1      42.312  22.861  28.212  1.00  0.00     0.010 A 
ATOM     34  C   UNL A   1      42.551  23.833  27.230  1.00  0.00    -0.014 A 
BRANCH  34  35
ATOM     35  C   UNL A   1      42.906  25.221  27.628  1.00  0.00     0.031 A 
ATOM     36  C   UNL A   1      44.327  25.705  27.501  1.00  0.00     0.074 A 
ATOM     37  C   UNL A   1      41.957  26.035  28.131  1.00  0.00     0.049 A 
ATOM     38  N   UNL A   1      44.840  26.863  27.829  1.00  0.00    -0.248 NA
ATOM     39  C   UNL A   1      45.306  24.750  26.960  1.00  0.00     0.031 C 
ATOM     40  C   UNL A   1      40.553  25.670  28.333  1.00  0.00     0.029 A 
ATOM     41  N   UNL A   1      42.025  27.335  28.567  1.00  0.00    -0.354 N 
ATOM     42  C   UNL A   1      46.198  26.774  27.541  1.00  0.00     0.074 A 
ATOM     43  C   UNL A   1      46.439  25.424  27.080  1.00  0.00     0.031 C 
ATOM     44  C   UNL A   1      39.887  26.731  28.816  1.00  0.00     0.029 A 
ATOM     45  C   UNL A   1      40.821  27.834  29.012  1.00  0.00     0.049 A 
ATOM     46  H   UNL A   1      42.857  27.862  28.561  1.00  0.00     0.167 HD
ATOM     47  C   UNL A   1      47.151  27.736  27.629  1.00  0.00     0.034 A 
ATOM     48  C   UNL A   1      40.508  29.039  29.528  1.00  0.00     0.034 A 
ATOM     49  C   UNL A   1      46.891  29.079  28.089  1.00  0.00     0.049 A 
ATOM     50  C   UNL A   1      41.594  30.080  29.655  1.00  0.00     0.074 A 
ATOM     51  C   UNL A   1      47.772  30.144  28.179  1.00  0.00     0.029 A 
ATOM     52  N   UNL A   1      45.664  29.544  28.546  1.00  0.00    -0.354 N 
ATOM     53  N   UNL A   1      42.866  29.992  29.335  1.00  0.00    -0.248 NA
ATOM     54  C   UNL A   1      41.199  31.384  30.199  1.00  0.00     0.031 C 
ATOM     55  C   UNL A   1      47.101  31.221  28.767  1.00  0.00     0.029 A 
ATOM     56  C   UNL A   1      45.775  30.865  28.953  1.00  0.00     0.049 A 
ATOM     57  H   UNL A   1      44.836  29.011  28.578  1.00  0.00     0.167 HD
ATOM     58  C   UNL A   1      43.410  31.247  29.602  1.00  0.00     0.074 A 
ATOM     59  C   UNL A   1      42.325  32.072  30.093  1.00  0.00     0.031 C 
ATOM     60  C   UNL A   1      44.688  31.678  29.449  1.00  0.00     0.034 A 
BRANCH  47  61
ATOM     61  C   UNL A   1      48.564  27.356  27.248  1.00  0.00     0.023 A 
ATOM     62  C   UNL A   1      49.103  27.677  25.989  1.00  0.00     0.031 A 
ATOM     63  C   UNL A   1      49.379  26.647  28.148  1.00  0.00     0.131 A 
ATOM     64  C   UNL A   1      50.384  27.222  25.637  1.00  0.00     0.055 A 
ATOM     65  C   UNL A   1      50.686  26.277  27.824  1.00  0.00     0.041 A 
ATOM     66  F   UNL A   1      48.914  26.290  29.355  1.00  0.00    -0.206 F 
ATOM     67  C   UNL A   1      51.190  26.550  26.557  1.00  0.00     0.022 A 
BRANCH  64  68
ATOM     68  S   UNL A   1      50.917  27.385  23.911  1.00  0.00     0.124 S 
ATOM     69  O   UNL A   1      51.137  28.825  23.806  1.00  0.00    -0.237 OA
ATOM     70  O   UNL A   1      52.111  26.551  23.868  1.00  0.00    -0.237 OA
ATOM     71  O   UNL A   1      49.774  26.881  23.151  1.00  0.00    -0.744 OA
ENDBRANCH  64  68
ENDBRANCH  47  61
BRANCH  48  72
ATOM     72  C   UNL A   1      39.115  29.333  29.977  1.00  0.00     0.023 A 
ATOM     73  C   UNL A   1      38.236  30.077  29.173  1.00  0.00     0.031 A 
ATOM     74  C   UNL A   1      38.659  28.921  31.242  1.00  0.00     0.131 A 
ATOM     75  C   UNL A   1      36.970  30.434  29.666  1.00  0.00     0.055 A 
ATOM     76  C   UNL A   1      37.376  29.222  31.701  1.00  0.00     0.041 A 
ATOM     77  F   UNL A   1      39.458  28.207  32.053  1.00  0.00    -0.206 F 
ATOM     78  C   UNL A   1      36.528  29.998  30.916  1.00  0.00     0.022 A 
BRANCH  75  79
ATOM     79  S   UNL A   1      35.949  31.574  28.691  1.00  0.00     0.124 S 
ATOM     80  O   UNL A   1      35.642  30.765  27.517  1.00  0.00    -0.237 OA
ATOM     81  O   UNL A   1      34.838  31.837  29.599  1.00  0.00    -0.237 OA
ATOM     82  O   UNL A   1      36.839  32.708  28.453  1.00  0.00    -0.744 OA
ENDBRANCH  75  79
ENDBRANCH  48  72
BRANCH  60  83
ATOM     83  C   UNL A   1      44.967  33.131  29.761  1.00  0.00     0.023 A 
ATOM     84  C   UNL A   1      44.891  34.133  28.777  1.00  0.00     0.031 A 
ATOM     85  C   UNL A   1      45.338  33.514  31.063  1.00  0.00     0.131 A 
ATOM     86  C   UNL A   1      45.251  35.452  29.092  1.00  0.00     0.055 A 
ATOM     87  C   UNL A   1      45.618  34.841  31.389  1.00  0.00     0.041 A 
ATOM     88  F   UNL A   1      45.433  32.602  32.043  1.00  0.00    -0.206 F 
ATOM     89  C   UNL A   1      45.593  35.817  30.397  1.00  0.00     0.022 A 
BRANCH  86  90
ATOM     90  S   UNL A   1      45.386  36.663  27.748  1.00  0.00     0.124 S 
ATOM     91  O   UNL A   1      46.280  35.982  26.818  1.00  0.00    -0.237 OA
ATOM     92  O   UNL A   1      44.000  36.802  27.313  1.00  0.00    -0.237 OA
ATOM     93  O   UNL A   1      45.951  37.841  28.403  1.00  0.00    -0.744 OA
ENDBRANCH  86  90
ENDBRANCH  60  83
ENDBRANCH  34  35
ENDBRANCH  26  29
ENDBRANCH  24  25
ENDBRANCH  23  24
ENDBRANCH  22  23
ENDBRANCH   1  22
TORSDOF 21
ENDMDL
