MODEL 1
REMARK VINA RESULT:     -11.2      0.000      0.000
REMARK SMILES C[C@H](C(=O)NCCCCCCNC(=O)c1ccc(-c2c3nc(c(-c4cc(S(=O)(=O)[O-])ccc4F)c4ccc([nH]4)c(-c4cc(S(=O)(=O)[O-])ccc4F)c4nc(c(-c5cc(S(=O)(=O)[O-])ccc5F)c5ccc2[nH]5)C=C4)C=C3)cc1)N1CCc2ccccc21
REMARK SMILES IDX 9 1 8 2 7 3 6 4 5 5 3 6 4 7 2 9 1 10 78 11 79 12 86 13 80 14
REMARK SMILES IDX 81 15 85 16 82 17 84 18 83 19 10 20 11 21 12 22 13 23 14 25
REMARK SMILES IDX 15 26 16 27 77 28 17 29 76 30 18 31 19 32 20 33 70 34 21 35
REMARK SMILES IDX 75 36 69 37 71 38 22 39 74 40 68 41 67 42 23 44 55 45 35 46
REMARK SMILES IDX 54 47 36 48 39 49 53 50 72 51 37 52 38 53 52 55 73 56 40 57
REMARK SMILES IDX 24 58 25 59 33 60 26 61 32 62 34 63 31 64 27 65 28 66 29 67
REMARK SMILES IDX 30 68 56 69 57 70 65 71 58 72 64 73 66 74 63 75 59 76 60 77
REMARK SMILES IDX 61 78 62 79 41 80 42 81 50 82 43 83 49 84 51 85 48 86 44 87
REMARK SMILES IDX 45 88 46 89 47 90
REMARK H PARENT 5 8 12 24 71 43 39 54
REMARK Flexibility Score: inf
ROOT
ATOM      1  C   UNL A   1      31.488  30.214  26.616  1.00  0.00     0.002 C 
ENDROOT
BRANCH   1   2
ATOM      2  C   UNL A   1      32.807  29.533  26.243  1.00  0.00     0.002 C 
BRANCH   2   3
ATOM      3  C   UNL A   1      33.161  28.302  27.081  1.00  0.00     0.021 C 
BRANCH   3   4
ATOM      4  C   UNL A   1      32.803  26.972  26.421  1.00  0.00     0.116 C 
BRANCH   4   5
ATOM      5  N   UNL A   1      31.499  26.489  26.831  1.00  0.00    -0.354 N 
ATOM      6  C   UNL A   1      30.717  25.560  26.194  1.00  0.00     0.242 C 
ATOM      7  O   UNL A   1      29.632  25.263  26.700  1.00  0.00    -0.273 OA
ATOM      8  H   UNL A   1      31.135  26.871  27.663  1.00  0.00     0.163 HD
BRANCH   6   9
ATOM      9  C   UNL A   1      31.258  24.910  24.900  1.00  0.00     0.168 C 
ATOM     10  C   UNL A   1      30.961  23.407  24.845  1.00  0.00     0.042 C 
BRANCH   9  11
ATOM     11  N   UNL A   1      30.775  25.634  23.699  1.00  0.00    -0.359 N 
ATOM     12  C   UNL A   1      29.426  26.220  23.689  1.00  0.00     0.122 C 
ATOM     13  C   UNL A   1      31.609  26.609  23.135  1.00  0.00     0.041 A 
ATOM     14  C   UNL A   1      29.567  27.741  23.503  1.00  0.00     0.059 C 
ATOM     15  C   UNL A   1      30.997  27.862  23.096  1.00  0.00    -0.023 A 
ATOM     16  C   UNL A   1      32.941  26.468  22.782  1.00  0.00     0.026 A 
ATOM     17  C   UNL A   1      31.725  29.011  22.838  1.00  0.00     0.006 A 
ATOM     18  C   UNL A   1      33.684  27.614  22.500  1.00  0.00     0.002 A 
ATOM     19  C   UNL A   1      33.087  28.882  22.561  1.00  0.00     0.000 A 
ENDBRANCH   9  11
ENDBRANCH   6   9
ENDBRANCH   4   5
ENDBRANCH   3   4
ENDBRANCH   2   3
ENDBRANCH   1   2
BRANCH   1  20
ATOM     20  C   UNL A   1      31.508  31.742  26.538  1.00  0.00     0.021 C 
BRANCH  20  21
ATOM     21  C   UNL A   1      32.780  32.379  27.085  1.00  0.00     0.116 C 
BRANCH  21  22
ATOM     22  N   UNL A   1      32.540  33.735  27.557  1.00  0.00    -0.352 N 
ATOM     23  C   UNL A   1      33.154  34.411  28.585  1.00  0.00     0.251 C 
ATOM     24  H   UNL A   1      31.844  34.236  27.075  1.00  0.00     0.163 HD
ATOM     25  O   UNL A   1      32.675  35.450  29.014  1.00  0.00    -0.269 OA
BRANCH  23  26
ATOM     26  C   UNL A   1      34.391  33.849  29.171  1.00  0.00     0.039 A 
ATOM     27  C   UNL A   1      35.632  34.321  28.739  1.00  0.00     0.014 A 
ATOM     28  C   UNL A   1      34.310  32.869  30.162  1.00  0.00     0.014 A 
ATOM     29  C   UNL A   1      36.798  33.854  29.352  1.00  0.00     0.010 A 
ATOM     30  C   UNL A   1      35.463  32.464  30.823  1.00  0.00     0.010 A 
ATOM     31  C   UNL A   1      36.719  32.947  30.421  1.00  0.00    -0.014 A 
BRANCH  31  32
ATOM     32  C   UNL A   1      37.927  32.447  31.126  1.00  0.00     0.031 A 
ATOM     33  C   UNL A   1      38.686  31.285  30.546  1.00  0.00     0.074 A 
ATOM     34  C   UNL A   1      38.273  32.953  32.325  1.00  0.00     0.049 A 
ATOM     35  N   UNL A   1      39.636  30.562  31.080  1.00  0.00    -0.248 NA
ATOM     36  C   UNL A   1      38.282  30.856  29.200  1.00  0.00     0.031 C 
ATOM     37  C   UNL A   1      37.602  34.064  33.000  1.00  0.00     0.029 A 
ATOM     38  N   UNL A   1      39.259  32.575  33.205  1.00  0.00    -0.354 N 
ATOM     39  C   UNL A   1      39.921  29.570  30.147  1.00  0.00     0.074 A 
ATOM     40  C   UNL A   1      38.996  29.753  29.048  1.00  0.00     0.031 C 
ATOM     41  C   UNL A   1      38.194  34.279  34.185  1.00  0.00     0.029 A 
ATOM     42  C   UNL A   1      39.246  33.285  34.382  1.00  0.00     0.049 A 
ATOM     43  H   UNL A   1      39.911  31.864  33.010  1.00  0.00     0.167 HD
ATOM     44  C   UNL A   1      40.879  28.611  30.196  1.00  0.00     0.034 A 
ATOM     45  C   UNL A   1      39.974  33.132  35.507  1.00  0.00     0.034 A 
ATOM     46  C   UNL A   1      41.792  28.456  31.301  1.00  0.00     0.049 A 
ATOM     47  C   UNL A   1      41.011  32.040  35.565  1.00  0.00     0.074 A 
ATOM     48  C   UNL A   1      42.836  27.558  31.438  1.00  0.00     0.029 A 
ATOM     49  N   UNL A   1      41.762  29.210  32.469  1.00  0.00    -0.354 N 
ATOM     50  N   UNL A   1      41.296  31.127  34.665  1.00  0.00    -0.248 NA
ATOM     51  C   UNL A   1      41.827  31.958  36.783  1.00  0.00     0.031 C 
ATOM     52  C   UNL A   1      43.382  27.713  32.717  1.00  0.00     0.029 A 
ATOM     53  C   UNL A   1      42.745  28.773  33.344  1.00  0.00     0.049 A 
ATOM     54  H   UNL A   1      41.135  29.947  32.649  1.00  0.00     0.167 HD
ATOM     55  C   UNL A   1      42.353  30.389  35.191  1.00  0.00     0.074 A 
ATOM     56  C   UNL A   1      42.647  30.957  36.492  1.00  0.00     0.031 C 
ATOM     57  C   UNL A   1      43.029  29.348  34.640  1.00  0.00     0.034 A 
BRANCH  44  58
ATOM     58  C   UNL A   1      40.942  27.638  29.040  1.00  0.00     0.023 A 
ATOM     59  C   UNL A   1      41.900  27.763  28.017  1.00  0.00     0.031 A 
ATOM     60  C   UNL A   1      39.986  26.613  28.915  1.00  0.00     0.131 A 
ATOM     61  C   UNL A   1      41.809  26.964  26.869  1.00  0.00     0.055 A 
ATOM     62  C   UNL A   1      39.969  25.749  27.819  1.00  0.00     0.041 A 
ATOM     63  F   UNL A   1      39.032  26.451  29.846  1.00  0.00    -0.206 F 
ATOM     64  C   UNL A   1      40.868  25.938  26.775  1.00  0.00     0.022 A 
BRANCH  61  65
ATOM     65  S   UNL A   1      42.800  27.424  25.420  1.00  0.00     0.124 S 
ATOM     66  O   UNL A   1      44.099  27.704  26.031  1.00  0.00    -0.237 OA
ATOM     67  O   UNL A   1      42.728  26.225  24.594  1.00  0.00    -0.237 OA
ATOM     68  O   UNL A   1      42.107  28.595  24.888  1.00  0.00    -0.744 OA
ENDBRANCH  61  65
ENDBRANCH  44  58
BRANCH  45  69
ATOM     69  C   UNL A   1      39.725  34.023  36.676  1.00  0.00     0.023 A 
ATOM     70  C   UNL A   1      39.158  33.529  37.861  1.00  0.00     0.031 A 
ATOM     71  C   UNL A   1      40.062  35.389  36.624  1.00  0.00     0.131 A 
ATOM     72  C   UNL A   1      38.922  34.400  38.937  1.00  0.00     0.055 A 
ATOM     73  C   UNL A   1      39.870  36.239  37.715  1.00  0.00     0.041 A 
ATOM     74  F   UNL A   1      40.615  35.910  35.516  1.00  0.00    -0.206 F 
ATOM     75  C   UNL A   1      39.289  35.747  38.878  1.00  0.00     0.022 A 
BRANCH  72  76
ATOM     76  S   UNL A   1      38.076  33.756  40.407  1.00  0.00     0.124 S 
ATOM     77  O   UNL A   1      38.995  32.711  40.843  1.00  0.00    -0.237 OA
ATOM     78  O   UNL A   1      37.998  34.940  41.256  1.00  0.00    -0.237 OA
ATOM     79  O   UNL A   1      36.796  33.283  39.883  1.00  0.00    -0.744 OA
ENDBRANCH  72  76
ENDBRANCH  45  69
BRANCH  57  80
ATOM     80  C   UNL A   1      44.208  28.794  35.404  1.00  0.00     0.023 A 
ATOM     81  C   UNL A   1      44.059  27.872  36.452  1.00  0.00     0.031 A 
ATOM     82  C   UNL A   1      45.512  29.171  35.032  1.00  0.00     0.131 A 
ATOM     83  C   UNL A   1      45.196  27.376  37.111  1.00  0.00     0.055 A 
ATOM     84  C   UNL A   1      46.639  28.632  35.652  1.00  0.00     0.041 A 
ATOM     85  F   UNL A   1      45.710  30.053  34.039  1.00  0.00    -0.206 F 
ATOM     86  C   UNL A   1      46.484  27.734  36.703  1.00  0.00     0.022 A 
BRANCH  83  87
ATOM     87  S   UNL A   1      44.975  26.292  38.549  1.00  0.00     0.124 S 
ATOM     88  O   UNL A   1      43.536  26.377  38.773  1.00  0.00    -0.237 OA
ATOM     89  O   UNL A   1      45.470  25.012  38.057  1.00  0.00    -0.237 OA
ATOM     90  O   UNL A   1      45.800  26.919  39.581  1.00  0.00    -0.744 OA
ENDBRANCH  83  87
ENDBRANCH  57  80
ENDBRANCH  31  32
ENDBRANCH  23  26
ENDBRANCH  21  22
ENDBRANCH  20  21
ENDBRANCH   1  20
TORSDOF 17
ENDMDL
MODEL 2
REMARK VINA RESULT:     -11.1      1.025      1.909
REMARK SMILES C[C@H](C(=O)NCCCCCCNC(=O)c1ccc(-c2c3nc(c(-c4cc(S(=O)(=O)[O-])ccc4F)c4ccc([nH]4)c(-c4cc(S(=O)(=O)[O-])ccc4F)c4nc(c(-c5cc(S(=O)(=O)[O-])ccc5F)c5ccc2[nH]5)C=C4)C=C3)cc1)N1CCc2ccccc21
REMARK SMILES IDX 9 1 8 2 7 3 6 4 5 5 3 6 4 7 2 9 1 10 78 11 79 12 86 13 80 14
REMARK SMILES IDX 81 15 85 16 82 17 84 18 83 19 10 20 11 21 12 22 13 23 14 25
REMARK SMILES IDX 15 26 16 27 77 28 17 29 76 30 18 31 19 32 20 33 70 34 21 35
REMARK SMILES IDX 75 36 69 37 71 38 22 39 74 40 68 41 67 42 23 44 55 45 35 46
REMARK SMILES IDX 54 47 36 48 39 49 53 50 72 51 37 52 38 53 52 55 73 56 40 57
REMARK SMILES IDX 24 58 25 59 33 60 26 61 32 62 34 63 31 64 27 65 28 66 29 67
REMARK SMILES IDX 30 68 56 69 57 70 65 71 58 72 64 73 66 74 63 75 59 76 60 77
REMARK SMILES IDX 61 78 62 79 41 80 42 81 50 82 43 83 49 84 51 85 48 86 44 87
REMARK SMILES IDX 45 88 46 89 47 90
REMARK H PARENT 5 8 12 24 71 43 39 54
REMARK Flexibility Score: inf
ROOT
ATOM      1  C   UNL A   1      31.692  30.653  25.924  1.00  0.00     0.002 C 
ENDROOT
BRANCH   1   2
ATOM      2  C   UNL A   1      31.866  29.319  26.656  1.00  0.00     0.002 C 
BRANCH   2   3
ATOM      3  C   UNL A   1      33.253  28.685  26.523  1.00  0.00     0.021 C 
BRANCH   3   4
ATOM      4  C   UNL A   1      33.303  27.482  25.584  1.00  0.00     0.116 C 
BRANCH   4   5
ATOM      5  N   UNL A   1      33.822  27.827  24.275  1.00  0.00    -0.354 N 
ATOM      6  C   UNL A   1      33.104  28.088  23.136  1.00  0.00     0.242 C 
ATOM      7  O   UNL A   1      33.721  28.375  22.109  1.00  0.00    -0.273 OA
ATOM      8  H   UNL A   1      34.802  27.880  24.196  1.00  0.00     0.163 HD
BRANCH   6   9
ATOM      9  C   UNL A   1      31.561  28.045  23.217  1.00  0.00     0.168 C 
ATOM     10  C   UNL A   1      30.912  29.155  22.383  1.00  0.00     0.042 C 
BRANCH   9  11
ATOM     11  N   UNL A   1      31.047  26.696  22.875  1.00  0.00    -0.359 N 
ATOM     12  C   UNL A   1      31.776  25.857  21.912  1.00  0.00     0.122 C 
ATOM     13  C   UNL A   1      30.693  25.838  23.925  1.00  0.00     0.041 A 
ATOM     14  C   UNL A   1      32.218  24.573  22.637  1.00  0.00     0.059 C 
ATOM     15  C   UNL A   1      31.414  24.645  23.892  1.00  0.00    -0.023 A 
ATOM     16  C   UNL A   1      29.858  26.123  24.993  1.00  0.00     0.026 A 
ATOM     17  C   UNL A   1      31.427  23.781  24.973  1.00  0.00     0.006 A 
ATOM     18  C   UNL A   1      29.843  25.252  26.083  1.00  0.00     0.002 A 
ATOM     19  C   UNL A   1      30.649  24.104  26.086  1.00  0.00     0.000 A 
ENDBRANCH   9  11
ENDBRANCH   6   9
ENDBRANCH   4   5
ENDBRANCH   3   4
ENDBRANCH   2   3
ENDBRANCH   1   2
BRANCH   1  20
ATOM     20  C   UNL A   1      31.525  31.870  26.837  1.00  0.00     0.021 C 
BRANCH  20  21
ATOM     21  C   UNL A   1      32.827  32.594  27.158  1.00  0.00     0.116 C 
BRANCH  21  22
ATOM     22  N   UNL A   1      32.582  33.932  27.677  1.00  0.00    -0.352 N 
ATOM     23  C   UNL A   1      33.179  34.565  28.743  1.00  0.00     0.251 C 
ATOM     24  H   UNL A   1      31.897  34.453  27.202  1.00  0.00     0.163 HD
ATOM     25  O   UNL A   1      32.695  35.588  29.202  1.00  0.00    -0.269 OA
BRANCH  23  26
ATOM     26  C   UNL A   1      34.402  33.976  29.329  1.00  0.00     0.039 A 
ATOM     27  C   UNL A   1      35.654  34.397  28.874  1.00  0.00     0.014 A 
ATOM     28  C   UNL A   1      34.300  33.022  30.344  1.00  0.00     0.014 A 
ATOM     29  C   UNL A   1      36.810  33.906  29.487  1.00  0.00     0.010 A 
ATOM     30  C   UNL A   1      35.446  32.595  31.003  1.00  0.00     0.010 A 
ATOM     31  C   UNL A   1      36.713  33.027  30.578  1.00  0.00    -0.014 A 
BRANCH  31  32
ATOM     32  C   UNL A   1      37.911  32.504  31.282  1.00  0.00     0.031 A 
ATOM     33  C   UNL A   1      38.661  31.344  30.690  1.00  0.00     0.074 A 
ATOM     34  C   UNL A   1      38.255  32.988  32.491  1.00  0.00     0.049 A 
ATOM     35  N   UNL A   1      39.600  30.602  31.219  1.00  0.00    -0.248 NA
ATOM     36  C   UNL A   1      38.262  30.939  29.335  1.00  0.00     0.031 C 
ATOM     37  C   UNL A   1      37.590  34.096  33.178  1.00  0.00     0.029 A 
ATOM     38  N   UNL A   1      39.230  32.587  33.371  1.00  0.00    -0.354 N 
ATOM     39  C   UNL A   1      39.881  29.622  30.272  1.00  0.00     0.074 A 
ATOM     40  C   UNL A   1      38.965  29.831  29.170  1.00  0.00     0.031 C 
ATOM     41  C   UNL A   1      38.177  34.287  34.371  1.00  0.00     0.029 A 
ATOM     42  C   UNL A   1      39.218  33.279  34.560  1.00  0.00     0.049 A 
ATOM     43  H   UNL A   1      39.877  31.872  33.170  1.00  0.00     0.167 HD
ATOM     44  C   UNL A   1      40.829  28.652  30.313  1.00  0.00     0.034 A 
ATOM     45  C   UNL A   1      39.937  33.101  35.686  1.00  0.00     0.034 A 
ATOM     46  C   UNL A   1      41.734  28.471  31.421  1.00  0.00     0.049 A 
ATOM     47  C   UNL A   1      40.961  31.998  35.734  1.00  0.00     0.074 A 
ATOM     48  C   UNL A   1      42.767  27.561  31.551  1.00  0.00     0.029 A 
ATOM     49  N   UNL A   1      41.704  29.207  32.600  1.00  0.00    -0.354 N 
ATOM     50  N   UNL A   1      41.244  31.096  34.822  1.00  0.00    -0.248 NA
ATOM     51  C   UNL A   1      41.769  31.889  36.956  1.00  0.00     0.031 C 
ATOM     52  C   UNL A   1      43.306  27.691  32.836  1.00  0.00     0.029 A 
ATOM     53  C   UNL A   1      42.677  28.748  33.474  1.00  0.00     0.049 A 
ATOM     54  H   UNL A   1      41.083  29.949  32.787  1.00  0.00     0.167 HD
ATOM     55  C   UNL A   1      42.290  30.339  35.344  1.00  0.00     0.074 A 
ATOM     56  C   UNL A   1      42.581  30.884  36.655  1.00  0.00     0.031 C 
ATOM     57  C   UNL A   1      42.958  29.299  34.781  1.00  0.00     0.034 A 
BRANCH  44  58
ATOM     58  C   UNL A   1      40.889  27.696  29.142  1.00  0.00     0.023 A 
ATOM     59  C   UNL A   1      41.853  27.829  28.126  1.00  0.00     0.031 A 
ATOM     60  C   UNL A   1      39.926  26.681  28.999  1.00  0.00     0.131 A 
ATOM     61  C   UNL A   1      41.760  27.048  26.965  1.00  0.00     0.055 A 
ATOM     62  C   UNL A   1      39.907  25.833  27.890  1.00  0.00     0.041 A 
ATOM     63  F   UNL A   1      38.967  26.512  29.923  1.00  0.00    -0.206 F 
ATOM     64  C   UNL A   1      40.812  26.031  26.852  1.00  0.00     0.022 A 
BRANCH  61  65
ATOM     65  S   UNL A   1      42.762  27.523  25.528  1.00  0.00     0.124 S 
ATOM     66  O   UNL A   1      43.999  27.968  26.166  1.00  0.00    -0.237 OA
ATOM     67  O   UNL A   1      42.843  26.277  24.775  1.00  0.00    -0.237 OA
ATOM     68  O   UNL A   1      41.979  28.584  24.899  1.00  0.00    -0.744 OA
ENDBRANCH  61  65
ENDBRANCH  44  58
BRANCH  45  69
ATOM     69  C   UNL A   1      39.689  33.977  36.867  1.00  0.00     0.023 A 
ATOM     70  C   UNL A   1      39.051  33.487  38.017  1.00  0.00     0.031 A 
ATOM     71  C   UNL A   1      40.099  35.324  36.863  1.00  0.00     0.131 A 
ATOM     72  C   UNL A   1      38.819  34.344  39.105  1.00  0.00     0.055 A 
ATOM     73  C   UNL A   1      39.910  36.158  37.966  1.00  0.00     0.041 A 
ATOM     74  F   UNL A   1      40.721  35.840  35.790  1.00  0.00    -0.206 F 
ATOM     75  C   UNL A   1      39.258  35.670  39.094  1.00  0.00     0.022 A 
BRANCH  72  76
ATOM     76  S   UNL A   1      37.884  33.712  40.525  1.00  0.00     0.124 S 
ATOM     77  O   UNL A   1      38.916  32.992  41.262  1.00  0.00    -0.237 OA
ATOM     78  O   UNL A   1      37.395  34.942  41.139  1.00  0.00    -0.237 OA
ATOM     79  O   UNL A   1      36.855  32.875  39.909  1.00  0.00    -0.744 OA
ENDBRANCH  72  76
ENDBRANCH  45  69
BRANCH  57  80
ATOM     80  C   UNL A   1      44.126  28.722  35.544  1.00  0.00     0.023 A 
ATOM     81  C   UNL A   1      43.975  27.691  36.485  1.00  0.00     0.031 A 
ATOM     82  C   UNL A   1      45.426  29.192  35.278  1.00  0.00     0.131 A 
ATOM     83  C   UNL A   1      45.103  27.180  37.146  1.00  0.00     0.055 A 
ATOM     84  C   UNL A   1      46.549  28.642  35.897  1.00  0.00     0.041 A 
ATOM     85  F   UNL A   1      45.626  30.181  34.391  1.00  0.00    -0.206 F 
ATOM     86  C   UNL A   1      46.390  27.634  36.842  1.00  0.00     0.022 A 
BRANCH  83  87
ATOM     87  S   UNL A   1      44.870  25.945  38.455  1.00  0.00     0.124 S 
ATOM     88  O   UNL A   1      44.307  24.821  37.713  1.00  0.00    -0.237 OA
ATOM     89  O   UNL A   1      46.226  25.761  38.959  1.00  0.00    -0.237 OA
ATOM     90  O   UNL A   1      43.948  26.598  39.383  1.00  0.00    -0.744 OA
ENDBRANCH  83  87
ENDBRANCH  57  80
ENDBRANCH  31  32
ENDBRANCH  23  26
ENDBRANCH  21  22
ENDBRANCH  20  21
ENDBRANCH   1  20
TORSDOF 17
ENDMDL
MODEL 3
REMARK VINA RESULT:     -11.1      6.489     11.433
REMARK SMILES C[C@H](C(=O)NCCCCCCNC(=O)c1ccc(-c2c3nc(c(-c4cc(S(=O)(=O)[O-])ccc4F)c4ccc([nH]4)c(-c4cc(S(=O)(=O)[O-])ccc4F)c4nc(c(-c5cc(S(=O)(=O)[O-])ccc5F)c5ccc2[nH]5)C=C4)C=C3)cc1)N1CCc2ccccc21
REMARK SMILES IDX 9 1 8 2 7 3 6 4 5 5 3 6 4 7 2 9 1 10 78 11 79 12 86 13 80 14
REMARK SMILES IDX 81 15 85 16 82 17 84 18 83 19 10 20 11 21 12 22 13 23 14 25
REMARK SMILES IDX 15 26 16 27 77 28 17 29 76 30 18 31 19 32 20 33 70 34 21 35
REMARK SMILES IDX 75 36 69 37 71 38 22 39 74 40 68 41 67 42 23 44 55 45 35 46
REMARK SMILES IDX 54 47 36 48 39 49 53 50 72 51 37 52 38 53 52 55 73 56 40 57
REMARK SMILES IDX 24 58 25 59 33 60 26 61 32 62 34 63 31 64 27 65 28 66 29 67
REMARK SMILES IDX 30 68 56 69 57 70 65 71 58 72 64 73 66 74 63 75 59 76 60 77
REMARK SMILES IDX 61 78 62 79 41 80 42 81 50 82 43 83 49 84 51 85 48 86 44 87
REMARK SMILES IDX 45 88 46 89 47 90
REMARK H PARENT 5 8 12 24 71 43 39 54
REMARK Flexibility Score: inf
ROOT
ATOM      1  C   UNL A   1      36.868  21.337  24.685  1.00  0.00     0.002 C 
ENDROOT
BRANCH   1   2
ATOM      2  C   UNL A   1      35.565  21.283  25.487  1.00  0.00     0.002 C 
BRANCH   2   3
ATOM      3  C   UNL A   1      34.488  20.360  24.911  1.00  0.00     0.021 C 
BRANCH   3   4
ATOM      4  C   UNL A   1      33.114  20.522  25.558  1.00  0.00     0.116 C 
BRANCH   4   5
ATOM      5  N   UNL A   1      33.182  21.220  26.826  1.00  0.00    -0.354 N 
ATOM      6  C   UNL A   1      32.381  22.246  27.257  1.00  0.00     0.242 C 
ATOM      7  O   UNL A   1      32.583  22.714  28.379  1.00  0.00    -0.273 OA
ATOM      8  H   UNL A   1      33.884  20.922  27.450  1.00  0.00     0.163 HD
BRANCH   6   9
ATOM      9  C   UNL A   1      31.247  22.730  26.325  1.00  0.00     0.168 C 
ATOM     10  C   UNL A   1      29.920  22.897  27.075  1.00  0.00     0.042 C 
BRANCH   9  11
ATOM     11  N   UNL A   1      31.646  23.954  25.589  1.00  0.00    -0.359 N 
ATOM     12  C   UNL A   1      32.320  25.050  26.302  1.00  0.00     0.122 C 
ATOM     13  C   UNL A   1      32.351  23.802  24.388  1.00  0.00     0.041 A 
ATOM     14  C   UNL A   1      33.712  25.244  25.675  1.00  0.00     0.059 C 
ATOM     15  C   UNL A   1      33.592  24.440  24.424  1.00  0.00    -0.023 A 
ATOM     16  C   UNL A   1      32.004  23.006  23.309  1.00  0.00     0.026 A 
ATOM     17  C   UNL A   1      34.557  24.192  23.464  1.00  0.00     0.006 A 
ATOM     18  C   UNL A   1      32.958  22.762  22.321  1.00  0.00     0.002 A 
ATOM     19  C   UNL A   1      34.239  23.326  22.416  1.00  0.00     0.000 A 
ENDBRANCH   9  11
ENDBRANCH   6   9
ENDBRANCH   4   5
ENDBRANCH   3   4
ENDBRANCH   2   3
ENDBRANCH   1   2
BRANCH   1  20
ATOM     20  C   UNL A   1      37.840  20.186  24.958  1.00  0.00     0.021 C 
BRANCH  20  21
ATOM     21  C   UNL A   1      39.009  20.557  25.863  1.00  0.00     0.116 C 
BRANCH  21  22
ATOM     22  N   UNL A   1      39.978  19.474  25.956  1.00  0.00    -0.352 N 
ATOM     23  C   UNL A   1      41.346  19.549  26.075  1.00  0.00     0.251 C 
ATOM     24  H   UNL A   1      39.603  18.565  25.930  1.00  0.00     0.163 HD
ATOM     25  O   UNL A   1      42.037  18.558  25.896  1.00  0.00    -0.269 OA
BRANCH  23  26
ATOM     26  C   UNL A   1      41.963  20.853  26.405  1.00  0.00     0.039 A 
ATOM     27  C   UNL A   1      42.230  21.765  25.381  1.00  0.00     0.014 A 
ATOM     28  C   UNL A   1      42.252  21.171  27.733  1.00  0.00     0.014 A 
ATOM     29  C   UNL A   1      42.732  23.030  25.701  1.00  0.00     0.010 A 
ATOM     30  C   UNL A   1      42.677  22.455  28.054  1.00  0.00     0.010 A 
ATOM     31  C   UNL A   1      42.926  23.395  27.042  1.00  0.00    -0.014 A 
BRANCH  31  32
ATOM     32  C   UNL A   1      43.426  24.739  27.433  1.00  0.00     0.031 A 
ATOM     33  C   UNL A   1      42.475  25.723  28.054  1.00  0.00     0.074 A 
ATOM     34  C   UNL A   1      44.685  25.109  27.131  1.00  0.00     0.049 A 
ATOM     35  N   UNL A   1      42.634  27.000  28.287  1.00  0.00    -0.248 NA
ATOM     36  C   UNL A   1      41.150  25.201  28.416  1.00  0.00     0.031 C 
ATOM     37  C   UNL A   1      45.693  24.251  26.508  1.00  0.00     0.029 A 
ATOM     38  N   UNL A   1      45.322  26.317  27.279  1.00  0.00    -0.354 N 
ATOM     39  C   UNL A   1      41.416  27.442  28.794  1.00  0.00     0.074 A 
ATOM     40  C   UNL A   1      40.517  26.308  28.770  1.00  0.00     0.031 C 
ATOM     41  C   UNL A   1      46.820  24.957  26.329  1.00  0.00     0.029 A 
ATOM     42  C   UNL A   1      46.598  26.333  26.767  1.00  0.00     0.049 A 
ATOM     43  H   UNL A   1      44.904  27.097  27.711  1.00  0.00     0.167 HD
ATOM     44  C   UNL A   1      41.088  28.676  29.255  1.00  0.00     0.034 A 
ATOM     45  C   UNL A   1      47.477  27.347  26.632  1.00  0.00     0.034 A 
ATOM     46  C   UNL A   1      42.007  29.787  29.274  1.00  0.00     0.049 A 
ATOM     47  C   UNL A   1      47.089  28.721  27.114  1.00  0.00     0.074 A 
ATOM     48  C   UNL A   1      41.805  31.064  29.766  1.00  0.00     0.029 A 
ATOM     49  N   UNL A   1      43.300  29.758  28.765  1.00  0.00    -0.354 N 
ATOM     50  N   UNL A   1      45.947  29.123  27.623  1.00  0.00    -0.248 NA
ATOM     51  C   UNL A   1      48.106  29.776  27.011  1.00  0.00     0.031 C 
ATOM     52  C   UNL A   1      42.943  31.828  29.481  1.00  0.00     0.029 A 
ATOM     53  C   UNL A   1      43.894  31.004  28.900  1.00  0.00     0.049 A 
ATOM     54  H   UNL A   1      43.733  28.967  28.368  1.00  0.00     0.167 HD
ATOM     55  C   UNL A   1      46.122  30.468  27.939  1.00  0.00     0.074 A 
ATOM     56  C   UNL A   1      47.477  30.810  27.554  1.00  0.00     0.031 C 
ATOM     57  C   UNL A   1      45.247  31.334  28.511  1.00  0.00     0.034 A 
BRANCH  44  58
ATOM     58  C   UNL A   1      39.666  28.881  29.726  1.00  0.00     0.023 A 
ATOM     59  C   UNL A   1      38.705  29.523  28.923  1.00  0.00     0.031 A 
ATOM     60  C   UNL A   1      39.279  28.496  31.023  1.00  0.00     0.131 A 
ATOM     61  C   UNL A   1      37.456  29.866  29.461  1.00  0.00     0.055 A 
ATOM     62  C   UNL A   1      37.996  28.744  31.514  1.00  0.00     0.041 A 
ATOM     63  F   UNL A   1      40.152  27.896  31.847  1.00  0.00    -0.206 F 
ATOM     64  C   UNL A   1      37.084  29.455  30.742  1.00  0.00     0.022 A 
BRANCH  61  65
ATOM     65  S   UNL A   1      36.414  31.032  28.541  1.00  0.00     0.124 S 
ATOM     66  O   UNL A   1      36.268  30.345  27.259  1.00  0.00    -0.237 OA
ATOM     67  O   UNL A   1      35.215  31.103  29.367  1.00  0.00    -0.237 OA
ATOM     68  O   UNL A   1      37.219  32.250  28.497  1.00  0.00    -0.744 OA
ENDBRANCH  61  65
ENDBRANCH  44  58
BRANCH  45  69
ATOM     69  C   UNL A   1      48.799  27.098  25.990  1.00  0.00     0.023 A 
ATOM     70  C   UNL A   1      49.017  27.391  24.635  1.00  0.00     0.031 A 
ATOM     71  C   UNL A   1      49.872  26.568  26.731  1.00  0.00     0.131 A 
ATOM     72  C   UNL A   1      50.270  27.130  24.057  1.00  0.00     0.055 A 
ATOM     73  C   UNL A   1      51.129  26.356  26.164  1.00  0.00     0.041 A 
ATOM     74  F   UNL A   1      49.717  26.277  28.034  1.00  0.00    -0.206 F 
ATOM     75  C   UNL A   1      51.332  26.630  24.816  1.00  0.00     0.022 A 
BRANCH  72  76
ATOM     76  S   UNL A   1      50.481  27.406  22.276  1.00  0.00     0.124 S 
ATOM     77  O   UNL A   1      49.426  26.568  21.720  1.00  0.00    -0.237 OA
ATOM     78  O   UNL A   1      50.285  28.847  22.167  1.00  0.00    -0.237 OA
ATOM     79  O   UNL A   1      51.846  26.945  22.021  1.00  0.00    -0.744 OA
ENDBRANCH  72  76
ENDBRANCH  45  69
BRANCH  57  80
ATOM     80  C   UNL A   1      45.743  32.724  28.830  1.00  0.00     0.023 A 
ATOM     81  C   UNL A   1      45.563  33.807  27.955  1.00  0.00     0.031 A 
ATOM     82  C   UNL A   1      46.369  32.968  30.068  1.00  0.00     0.131 A 
ATOM     83  C   UNL A   1      46.028  35.081  28.318  1.00  0.00     0.055 A 
ATOM     84  C   UNL A   1      46.779  34.246  30.446  1.00  0.00     0.041 A 
ATOM     85  F   UNL A   1      46.571  31.966  30.939  1.00  0.00    -0.206 F 
ATOM     86  C   UNL A   1      46.614  35.311  29.566  1.00  0.00     0.022 A 
BRANCH  83  87
ATOM     87  S   UNL A   1      45.907  36.436  27.117  1.00  0.00     0.124 S 
ATOM     88  O   UNL A   1      46.669  35.908  25.989  1.00  0.00    -0.237 OA
ATOM     89  O   UNL A   1      44.467  36.549  26.916  1.00  0.00    -0.237 OA
ATOM     90  O   UNL A   1      46.526  37.565  27.809  1.00  0.00    -0.744 OA
ENDBRANCH  83  87
ENDBRANCH  57  80
ENDBRANCH  31  32
ENDBRANCH  23  26
ENDBRANCH  21  22
ENDBRANCH  20  21
ENDBRANCH   1  20
TORSDOF 17
ENDMDL
