MODEL 1
REMARK VINA RESULT:      -6.7      0.000      0.000
REMARK SMILES CC(C)C[C@H](NC(=O)[C@@H](NC(=O)[C@H](C)NC(=O)CNC(=O)OCc1ccccc1)C(C)C)C(=O)NCCCCCCNC(=O)c1ccc(-c2c3nc(c(-c4cc(S(=O)(=O)[O-])ccc4F)c4ccc([nH]4)c(-c4cc(S(=O)(=O)[O-])ccc4F)c4nc(c(-c5cc(S(=O)(=O)[O-])ccc5F)c5ccc2[nH]5)C=C4)C=C3)cc1
REMARK SMILES IDX 33 1 34 2 35 3 5 5 4 6 2 7 1 8 3 9 6 10 7 11 8 13 9 14 10 15
REMARK SMILES IDX 11 16 12 18 13 19 14 20 15 21 16 22 17 24 18 25 19 26 20 27
REMARK SMILES IDX 21 29 22 30 23 31 24 32 25 33 29 34 26 35 28 36 27 37 30 38
REMARK SMILES IDX 31 39 32 40 36 41 37 42 38 43 39 44 40 45 41 46 42 47 43 48
REMARK SMILES IDX 44 50 45 51 46 52 107 53 47 54 106 55 48 56 49 57 50 58
REMARK SMILES IDX 100 59 51 60 105 61 99 62 101 63 52 64 104 65 98 66 97 67
REMARK SMILES IDX 53 69 85 70 65 71 84 72 66 73 69 74 83 75 102 76 67 77 68 78
REMARK SMILES IDX 82 80 103 81 70 82 54 83 55 84 63 85 56 86 62 87 64 88 61 89
REMARK SMILES IDX 57 90 58 91 59 92 60 93 86 94 87 95 95 96 88 97 94 98 96 99
REMARK SMILES IDX 93 100 89 101 90 102 91 103 92 104 71 105 72 106 80 107
REMARK SMILES IDX 73 108 79 109 81 110 78 111 74 112 75 113 76 114 77 115
REMARK H PARENT 35 4 6 12 10 17 15 23 19 28 42 49 101 68 69 79
REMARK Flexibility Score: inf
ROOT
ATOM      1  C   UNL A   1      44.901  23.262  25.714  1.00  0.00     0.242 C 
ATOM      2  O   UNL A   1      45.344  22.150  26.003  1.00  0.00    -0.273 OA
ATOM      3  N   UNL A   1      45.761  24.093  25.084  1.00  0.00    -0.354 N 
ATOM      4  H   UNL A   1      46.396  23.645  24.480  1.00  0.00     0.163 HD
ENDROOT
BRANCH   1   5
ATOM      5  C   UNL A   1      43.490  23.670  26.164  1.00  0.00     0.171 C 
BRANCH   5   6
ATOM      6  C   UNL A   1      42.445  22.545  26.076  1.00  0.00     0.038 C 
BRANCH   6   7
ATOM      7  C   UNL A   1      42.203  21.875  27.445  1.00  0.00    -0.015 C 
ATOM      8  C   UNL A   1      42.738  22.743  28.587  1.00  0.00     0.007 C 
ATOM      9  C   UNL A   1      40.711  21.614  27.652  1.00  0.00     0.007 C 
ENDBRANCH   6   7
ENDBRANCH   5   6
BRANCH   5  10
ATOM     10  N   UNL A   1      43.059  24.870  25.472  1.00  0.00    -0.343 N 
ATOM     11  C   UNL A   1      42.322  25.939  25.845  1.00  0.00     0.243 C 
ATOM     12  H   UNL A   1      43.367  24.915  24.538  1.00  0.00     0.164 HD
ATOM     13  O   UNL A   1      42.074  26.717  24.913  1.00  0.00    -0.273 OA
BRANCH  11  14
ATOM     14  C   UNL A   1      41.789  26.266  27.287  1.00  0.00     0.174 C 
BRANCH  14  15
ATOM     15  N   UNL A   1      41.741  27.658  27.784  1.00  0.00    -0.342 N 
ATOM     16  C   UNL A   1      42.558  28.746  27.806  1.00  0.00     0.242 C 
ATOM     17  H   UNL A   1      40.879  27.851  28.220  1.00  0.00     0.164 HD
ATOM     18  O   UNL A   1      42.034  29.790  28.219  1.00  0.00    -0.273 OA
BRANCH  16  19
ATOM     19  C   UNL A   1      44.000  28.765  27.255  1.00  0.00     0.168 C 
ATOM     20  C   UNL A   1      44.974  28.700  28.441  1.00  0.00     0.041 C 
BRANCH  19  21
ATOM     21  N   UNL A   1      44.232  30.048  26.586  1.00  0.00    -0.343 N 
ATOM     22  C   UNL A   1      45.375  30.711  26.263  1.00  0.00     0.240 C 
ATOM     23  H   UNL A   1      43.408  30.518  26.322  1.00  0.00     0.164 HD
ATOM     24  O   UNL A   1      45.250  31.817  25.728  1.00  0.00    -0.273 OA
BRANCH  22  25
ATOM     25  C   UNL A   1      46.759  30.058  26.369  1.00  0.00     0.219 C 
BRANCH  25  26
ATOM     26  N   UNL A   1      47.796  30.885  26.948  1.00  0.00    -0.312 N 
ATOM     27  C   UNL A   1      48.787  30.495  27.801  1.00  0.00     0.407 C 
ATOM     28  H   UNL A   1      47.786  31.836  26.697  1.00  0.00     0.167 HD
ATOM     29  O   UNL A   1      49.601  31.297  28.227  1.00  0.00    -0.225 OA
BRANCH  27  30
ATOM     30  O   UNL A   1      48.717  29.182  28.137  1.00  0.00    -0.445 OA
BRANCH  30  31
ATOM     31  C   UNL A   1      49.985  28.561  28.356  1.00  0.00     0.270 C 
BRANCH  31  32
ATOM     32  C   UNL A   1      50.010  27.585  29.501  1.00  0.00    -0.011 A 
ATOM     33  C   UNL A   1      50.656  26.347  29.384  1.00  0.00     0.007 A 
ATOM     34  C   UNL A   1      49.295  27.869  30.673  1.00  0.00     0.007 A 
ATOM     35  C   UNL A   1      50.535  25.391  30.396  1.00  0.00     0.000 A 
ATOM     36  C   UNL A   1      49.161  26.908  31.674  1.00  0.00     0.000 A 
ATOM     37  C   UNL A   1      49.774  25.666  31.532  1.00  0.00     0.000 A 
ENDBRANCH  31  32
ENDBRANCH  30  31
ENDBRANCH  27  30
ENDBRANCH  25  26
ENDBRANCH  22  25
ENDBRANCH  19  21
ENDBRANCH  16  19
ENDBRANCH  14  15
BRANCH  14  38
ATOM     38  C   UNL A   1      40.575  25.404  27.740  1.00  0.00     0.015 C 
ATOM     39  C   UNL A   1      39.648  26.054  28.776  1.00  0.00     0.010 C 
ATOM     40  C   UNL A   1      39.704  24.991  26.538  1.00  0.00     0.010 C 
ENDBRANCH  14  38
ENDBRANCH  11  14
ENDBRANCH   5  10
ENDBRANCH   1   5
BRANCH   3  41
ATOM     41  C   UNL A   1      45.899  25.532  25.152  1.00  0.00     0.116 C 
BRANCH  41  42
ATOM     42  C   UNL A   1      47.250  25.907  25.765  1.00  0.00     0.021 C 
BRANCH  42  43
ATOM     43  C   UNL A   1      47.215  26.229  27.268  1.00  0.00     0.002 C 
BRANCH  43  44
ATOM     44  C   UNL A   1      47.399  25.028  28.199  1.00  0.00     0.002 C 
BRANCH  44  45
ATOM     45  C   UNL A   1      46.778  25.198  29.584  1.00  0.00     0.021 C 
BRANCH  45  46
ATOM     46  C   UNL A   1      45.260  25.064  29.621  1.00  0.00     0.116 C 
BRANCH  46  47
ATOM     47  N   UNL A   1      44.776  24.565  30.897  1.00  0.00    -0.352 N 
ATOM     48  C   UNL A   1      44.472  25.282  32.030  1.00  0.00     0.251 C 
ATOM     49  H   UNL A   1      44.650  23.590  30.958  1.00  0.00     0.163 HD
ATOM     50  O   UNL A   1      44.224  24.708  33.085  1.00  0.00    -0.269 OA
BRANCH  48  51
ATOM     51  C   UNL A   1      44.488  26.757  31.958  1.00  0.00     0.039 A 
ATOM     52  C   UNL A   1      43.396  27.421  31.397  1.00  0.00     0.014 A 
ATOM     53  C   UNL A   1      45.548  27.475  32.521  1.00  0.00     0.014 A 
ATOM     54  C   UNL A   1      43.331  28.813  31.469  1.00  0.00     0.010 A 
ATOM     55  C   UNL A   1      45.447  28.857  32.651  1.00  0.00     0.010 A 
ATOM     56  C   UNL A   1      44.334  29.538  32.134  1.00  0.00    -0.014 A 
BRANCH  56  57
ATOM     57  C   UNL A   1      44.233  31.010  32.312  1.00  0.00     0.031 A 
ATOM     58  C   UNL A   1      45.214  31.917  31.627  1.00  0.00     0.074 A 
ATOM     59  C   UNL A   1      43.311  31.517  33.153  1.00  0.00     0.049 A 
ATOM     60  N   UNL A   1      45.354  33.214  31.726  1.00  0.00    -0.248 NA
ATOM     61  C   UNL A   1      46.191  31.271  30.738  1.00  0.00     0.031 C 
ATOM     62  C   UNL A   1      42.340  30.731  33.917  1.00  0.00     0.029 A 
ATOM     63  N   UNL A   1      43.053  32.813  33.525  1.00  0.00    -0.354 N 
ATOM     64  C   UNL A   1      46.437  33.541  30.919  1.00  0.00     0.074 A 
ATOM     65  C   UNL A   1      46.959  32.294  30.398  1.00  0.00     0.031 C 
ATOM     66  C   UNL A   1      41.589  31.560  34.659  1.00  0.00     0.029 A 
ATOM     67  C   UNL A   1      42.049  32.931  34.458  1.00  0.00     0.049 A 
ATOM     68  H   UNL A   1      43.540  33.586  33.157  1.00  0.00     0.167 HD
ATOM     69  C   UNL A   1      46.933  34.767  30.619  1.00  0.00     0.034 A 
ATOM     70  C   UNL A   1      41.568  34.017  35.096  1.00  0.00     0.034 A 
ATOM     71  C   UNL A   1      46.399  35.998  31.150  1.00  0.00     0.049 A 
ATOM     72  C   UNL A   1      42.149  35.368  34.772  1.00  0.00     0.074 A 
ATOM     73  C   UNL A   1      46.782  37.298  30.871  1.00  0.00     0.029 A 
ATOM     74  N   UNL A   1      45.374  36.081  32.086  1.00  0.00    -0.354 N 
ATOM     75  N   UNL A   1      43.133  35.669  33.956  1.00  0.00    -0.248 NA
ATOM     76  C   UNL A   1      41.548  36.526  35.446  1.00  0.00     0.031 C 
ATOM     77  C   UNL A   1      46.037  38.160  31.685  1.00  0.00     0.029 A 
ATOM     78  C   UNL A   1      45.137  37.406  32.420  1.00  0.00     0.049 A 
ATOM     79  H   UNL A   1      44.887  35.310  32.457  1.00  0.00     0.167 HD
ATOM     80  C   UNL A   1      43.256  37.055  34.005  1.00  0.00     0.074 A 
ATOM     81  C   UNL A   1      42.235  37.529  34.918  1.00  0.00     0.031 C 
ATOM     82  C   UNL A   1      44.132  37.862  33.353  1.00  0.00     0.034 A 
BRANCH  69  83
ATOM     83  C   UNL A   1      48.128  34.818  29.694  1.00  0.00     0.023 A 
ATOM     84  C   UNL A   1      47.974  34.872  28.297  1.00  0.00     0.031 A 
ATOM     85  C   UNL A   1      49.435  34.756  30.207  1.00  0.00     0.131 A 
ATOM     86  C   UNL A   1      49.096  34.763  27.462  1.00  0.00     0.055 A 
ATOM     87  C   UNL A   1      50.554  34.741  29.371  1.00  0.00     0.041 A 
ATOM     88  F   UNL A   1      49.649  34.684  31.530  1.00  0.00    -0.206 F 
ATOM     89  C   UNL A   1      50.387  34.723  27.989  1.00  0.00     0.022 A 
BRANCH  86  90
ATOM     90  S   UNL A   1      48.828  34.496  25.688  1.00  0.00     0.124 S 
ATOM     91  O   UNL A   1      49.786  33.429  25.402  1.00  0.00    -0.237 OA
ATOM     92  O   UNL A   1      47.419  34.120  25.636  1.00  0.00    -0.237 OA
ATOM     93  O   UNL A   1      49.152  35.790  25.093  1.00  0.00    -0.744 OA
ENDBRANCH  86  90
ENDBRANCH  69  83
BRANCH  70  94
ATOM     94  C   UNL A   1      40.500  33.865  36.124  1.00  0.00     0.023 A 
ATOM     95  C   UNL A   1      40.815  33.678  37.479  1.00  0.00     0.031 A 
ATOM     96  C   UNL A   1      39.142  33.893  35.759  1.00  0.00     0.131 A 
ATOM     97  C   UNL A   1      39.786  33.493  38.416  1.00  0.00     0.055 A 
ATOM     98  C   UNL A   1      38.121  33.754  36.700  1.00  0.00     0.041 A 
ATOM     99  F   UNL A   1      38.788  34.079  34.477  1.00  0.00    -0.206 F 
ATOM    100  C   UNL A   1      38.442  33.543  38.038  1.00  0.00     0.022 A 
BRANCH  97 101
ATOM    101  S   UNL A   1      40.230  33.129  40.136  1.00  0.00     0.124 S 
ATOM    102  O   UNL A   1      38.932  32.799  40.715  1.00  0.00    -0.237 OA
ATOM    103  O   UNL A   1      41.164  32.019  39.979  1.00  0.00    -0.237 OA
ATOM    104  O   UNL A   1      40.824  34.379  40.606  1.00  0.00    -0.744 OA
ENDBRANCH  97 101
ENDBRANCH  70  94
BRANCH  82 105
ATOM    105  C   UNL A   1      44.001  39.346  33.591  1.00  0.00     0.023 A 
ATOM    106  C   UNL A   1      43.345  40.185  32.673  1.00  0.00     0.031 A 
ATOM    107  C   UNL A   1      44.545  39.928  34.750  1.00  0.00     0.131 A 
ATOM    108  C   UNL A   1      43.292  41.569  32.907  1.00  0.00     0.055 A 
ATOM    109  C   UNL A   1      44.439  41.296  35.004  1.00  0.00     0.041 A 
ATOM    110  F   UNL A   1      45.184  39.173  35.658  1.00  0.00    -0.206 F 
ATOM    111  C   UNL A   1      43.820  42.126  34.074  1.00  0.00     0.022 A 
BRANCH 108 112
ATOM    112  S   UNL A   1      42.593  42.643  31.623  1.00  0.00     0.124 S 
ATOM    113  O   UNL A   1      42.214  43.825  32.391  1.00  0.00    -0.237 OA
ATOM    114  O   UNL A   1      43.718  42.810  30.708  1.00  0.00    -0.237 OA
ATOM    115  O   UNL A   1      41.476  41.863  31.095  1.00  0.00    -0.744 OA
ENDBRANCH 108 112
ENDBRANCH  82 105
ENDBRANCH  56  57
ENDBRANCH  48  51
ENDBRANCH  46  47
ENDBRANCH  45  46
ENDBRANCH  44  45
ENDBRANCH  43  44
ENDBRANCH  42  43
ENDBRANCH  41  42
ENDBRANCH   3  41
TORSDOF 29
ENDMDL
MODEL 2
REMARK VINA RESULT:      -6.6      7.091     13.755
REMARK SMILES CC(C)C[C@H](NC(=O)[C@@H](NC(=O)[C@H](C)NC(=O)CNC(=O)OCc1ccccc1)C(C)C)C(=O)NCCCCCCNC(=O)c1ccc(-c2c3nc(c(-c4cc(S(=O)(=O)[O-])ccc4F)c4ccc([nH]4)c(-c4cc(S(=O)(=O)[O-])ccc4F)c4nc(c(-c5cc(S(=O)(=O)[O-])ccc5F)c5ccc2[nH]5)C=C4)C=C3)cc1
REMARK SMILES IDX 33 1 34 2 35 3 5 5 4 6 2 7 1 8 3 9 6 10 7 11 8 13 9 14 10 15
REMARK SMILES IDX 11 16 12 18 13 19 14 20 15 21 16 22 17 24 18 25 19 26 20 27
REMARK SMILES IDX 21 29 22 30 23 31 24 32 25 33 29 34 26 35 28 36 27 37 30 38
REMARK SMILES IDX 31 39 32 40 36 41 37 42 38 43 39 44 40 45 41 46 42 47 43 48
REMARK SMILES IDX 44 50 45 51 46 52 107 53 47 54 106 55 48 56 49 57 50 58
REMARK SMILES IDX 100 59 51 60 105 61 99 62 101 63 52 64 104 65 98 66 97 67
REMARK SMILES IDX 53 69 85 70 65 71 84 72 66 73 69 74 83 75 102 76 67 77 68 78
REMARK SMILES IDX 82 80 103 81 70 82 54 83 55 84 63 85 56 86 62 87 64 88 61 89
REMARK SMILES IDX 57 90 58 91 59 92 60 93 86 94 87 95 95 96 88 97 94 98 96 99
REMARK SMILES IDX 93 100 89 101 90 102 91 103 92 104 71 105 72 106 80 107
REMARK SMILES IDX 73 108 79 109 81 110 78 111 74 112 75 113 76 114 77 115
REMARK H PARENT 35 4 6 12 10 17 15 23 19 28 42 49 101 68 69 79
REMARK Flexibility Score: inf
ROOT
ATOM      1  C   UNL A   1      39.617  31.690  34.736  1.00  0.00     0.242 C 
ATOM      2  O   UNL A   1      39.845  31.067  35.775  1.00  0.00    -0.273 OA
ATOM      3  N   UNL A   1      40.608  32.505  34.310  1.00  0.00    -0.354 N 
ATOM      4  H   UNL A   1      41.517  32.180  34.498  1.00  0.00     0.163 HD
ENDROOT
BRANCH   1   5
ATOM      5  C   UNL A   1      38.237  31.596  34.069  1.00  0.00     0.171 C 
BRANCH   5   6
ATOM      6  C   UNL A   1      37.152  32.462  34.729  1.00  0.00     0.038 C 
BRANCH   6   7
ATOM      7  C   UNL A   1      36.364  33.288  33.691  1.00  0.00    -0.015 C 
ATOM      8  C   UNL A   1      37.185  34.483  33.197  1.00  0.00     0.007 C 
ATOM      9  C   UNL A   1      35.966  32.411  32.505  1.00  0.00     0.007 C 
ENDBRANCH   6   7
ENDBRANCH   5   6
BRANCH   5  10
ATOM     10  N   UNL A   1      37.826  30.210  33.939  1.00  0.00    -0.343 N 
ATOM     11  C   UNL A   1      38.076  29.253  33.019  1.00  0.00     0.243 C 
ATOM     12  H   UNL A   1      37.244  29.904  34.672  1.00  0.00     0.164 HD
ATOM     13  O   UNL A   1      37.436  28.208  33.206  1.00  0.00    -0.273 OA
BRANCH  11  14
ATOM     14  C   UNL A   1      39.066  29.344  31.802  1.00  0.00     0.174 C 
BRANCH  14  15
ATOM     15  N   UNL A   1      39.321  30.631  31.121  1.00  0.00    -0.342 N 
ATOM     16  C   UNL A   1      38.773  31.357  30.108  1.00  0.00     0.242 C 
ATOM     17  H   UNL A   1      40.103  31.090  31.507  1.00  0.00     0.164 HD
ATOM     18  O   UNL A   1      39.246  32.493  29.960  1.00  0.00    -0.273 OA
BRANCH  16  19
ATOM     19  C   UNL A   1      37.570  30.899  29.257  1.00  0.00     0.168 C 
ATOM     20  C   UNL A   1      38.091  30.017  28.113  1.00  0.00     0.041 C 
BRANCH  19  21
ATOM     21  N   UNL A   1      36.955  32.076  28.638  1.00  0.00    -0.343 N 
ATOM     22  C   UNL A   1      35.738  32.268  28.061  1.00  0.00     0.240 C 
ATOM     23  H   UNL A   1      37.528  32.876  28.640  1.00  0.00     0.164 HD
ATOM     24  O   UNL A   1      35.515  33.383  27.579  1.00  0.00    -0.273 OA
BRANCH  22  25
ATOM     25  C   UNL A   1      34.611  31.232  28.161  1.00  0.00     0.219 C 
BRANCH  25  26
ATOM     26  N   UNL A   1      33.421  31.529  27.393  1.00  0.00    -0.312 N 
ATOM     27  C   UNL A   1      32.481  30.646  26.947  1.00  0.00     0.407 C 
ATOM     28  H   UNL A   1      33.273  32.475  27.168  1.00  0.00     0.167 HD
ATOM     29  O   UNL A   1      31.521  31.025  26.297  1.00  0.00    -0.225 OA
BRANCH  27  30
ATOM     30  O   UNL A   1      32.769  29.357  27.257  1.00  0.00    -0.445 OA
BRANCH  30  31
ATOM     31  C   UNL A   1      31.946  28.394  26.595  1.00  0.00     0.270 C 
BRANCH  31  32
ATOM     32  C   UNL A   1      32.669  27.553  25.577  1.00  0.00    -0.011 A 
ATOM     33  C   UNL A   1      32.465  27.744  24.204  1.00  0.00     0.007 A 
ATOM     34  C   UNL A   1      33.484  26.495  26.001  1.00  0.00     0.007 A 
ATOM     35  C   UNL A   1      33.020  26.855  23.279  1.00  0.00     0.000 A 
ATOM     36  C   UNL A   1      34.022  25.599  25.079  1.00  0.00     0.000 A 
ATOM     37  C   UNL A   1      33.783  25.774  23.718  1.00  0.00     0.000 A 
ENDBRANCH  31  32
ENDBRANCH  30  31
ENDBRANCH  27  30
ENDBRANCH  25  26
ENDBRANCH  22  25
ENDBRANCH  19  21
ENDBRANCH  16  19
ENDBRANCH  14  15
BRANCH  14  38
ATOM     38  C   UNL A   1      40.334  28.449  31.930  1.00  0.00     0.015 C 
ATOM     39  C   UNL A   1      41.473  28.768  30.953  1.00  0.00     0.010 C 
ATOM     40  C   UNL A   1      40.918  28.510  33.354  1.00  0.00     0.010 C 
ENDBRANCH  14  38
ENDBRANCH  11  14
ENDBRANCH   5  10
ENDBRANCH   1   5
BRANCH   3  41
ATOM     41  C   UNL A   1      40.547  33.777  33.621  1.00  0.00     0.116 C 
BRANCH  41  42
ATOM     42  C   UNL A   1      41.234  34.864  34.452  1.00  0.00     0.021 C 
BRANCH  42  43
ATOM     43  C   UNL A   1      40.932  34.817  35.960  1.00  0.00     0.002 C 
BRANCH  43  44
ATOM     44  C   UNL A   1      39.495  35.167  36.350  1.00  0.00     0.002 C 
BRANCH  44  45
ATOM     45  C   UNL A   1      38.898  34.276  37.438  1.00  0.00     0.021 C 
BRANCH  45  46
ATOM     46  C   UNL A   1      39.474  34.500  38.832  1.00  0.00     0.116 C 
BRANCH  46  47
ATOM     47  N   UNL A   1      38.466  34.399  39.874  1.00  0.00    -0.352 N 
ATOM     48  C   UNL A   1      38.241  35.259  40.924  1.00  0.00     0.251 C 
ATOM     49  H   UNL A   1      37.870  33.617  39.822  1.00  0.00     0.163 HD
ATOM     50  O   UNL A   1      37.455  34.961  41.817  1.00  0.00    -0.269 OA
BRANCH  48  51
ATOM     51  C   UNL A   1      38.994  36.528  40.971  1.00  0.00     0.039 A 
ATOM     52  C   UNL A   1      40.011  36.680  41.915  1.00  0.00     0.014 A 
ATOM     53  C   UNL A   1      38.743  37.528  40.025  1.00  0.00     0.014 A 
ATOM     54  C   UNL A   1      40.831  37.808  41.862  1.00  0.00     0.010 A 
ATOM     55  C   UNL A   1      39.604  38.616  39.934  1.00  0.00     0.010 A 
ATOM     56  C   UNL A   1      40.661  38.763  40.846  1.00  0.00    -0.014 A 
BRANCH  56  57
ATOM     57  C   UNL A   1      41.586  39.918  40.709  1.00  0.00     0.031 A 
ATOM     58  C   UNL A   1      41.239  41.236  41.340  1.00  0.00     0.074 A 
ATOM     59  C   UNL A   1      42.693  39.798  39.952  1.00  0.00     0.049 A 
ATOM     60  N   UNL A   1      41.862  42.384  41.260  1.00  0.00    -0.248 NA
ATOM     61  C   UNL A   1      40.004  41.273  42.138  1.00  0.00     0.031 C 
ATOM     62  C   UNL A   1      43.107  38.584  39.245  1.00  0.00     0.029 A 
ATOM     63  N   UNL A   1      43.663  40.714  39.630  1.00  0.00    -0.354 N 
ATOM     64  C   UNL A   1      41.094  43.282  41.992  1.00  0.00     0.074 A 
ATOM     65  C   UNL A   1      39.923  42.558  42.443  1.00  0.00     0.031 C 
ATOM     66  C   UNL A   1      44.248  38.829  38.581  1.00  0.00     0.029 A 
ATOM     67  C   UNL A   1      44.626  40.225  38.778  1.00  0.00     0.049 A 
ATOM     68  H   UNL A   1      43.671  41.636  39.978  1.00  0.00     0.167 HD
ATOM     69  C   UNL A   1      41.354  44.582  42.282  1.00  0.00     0.034 A 
ATOM     70  C   UNL A   1      45.681  40.836  38.203  1.00  0.00     0.034 A 
ATOM     71  C   UNL A   1      42.526  45.285  41.820  1.00  0.00     0.049 A 
ATOM     72  C   UNL A   1      45.940  42.286  38.513  1.00  0.00     0.074 A 
ATOM     73  C   UNL A   1      42.923  46.581  42.100  1.00  0.00     0.029 A 
ATOM     74  N   UNL A   1      43.487  44.754  40.966  1.00  0.00    -0.354 N 
ATOM     75  N   UNL A   1      45.239  43.108  39.260  1.00  0.00    -0.248 NA
ATOM     76  C   UNL A   1      47.137  42.888  37.913  1.00  0.00     0.031 C 
ATOM     77  C   UNL A   1      44.082  46.854  41.364  1.00  0.00     0.029 A 
ATOM     78  C   UNL A   1      44.453  45.707  40.681  1.00  0.00     0.049 A 
ATOM     79  H   UNL A   1      43.482  43.835  40.615  1.00  0.00     0.167 HD
ATOM     80  C   UNL A   1      45.922  44.321  39.234  1.00  0.00     0.074 A 
ATOM     81  C   UNL A   1      47.097  44.116  38.411  1.00  0.00     0.031 C 
ATOM     82  C   UNL A   1      45.607  45.496  39.837  1.00  0.00     0.034 A 
BRANCH  69  83
ATOM     83  C   UNL A   1      40.331  45.318  43.116  1.00  0.00     0.023 A 
ATOM     84  C   UNL A   1      39.258  46.008  42.523  1.00  0.00     0.031 A 
ATOM     85  C   UNL A   1      40.456  45.379  44.515  1.00  0.00     0.131 A 
ATOM     86  C   UNL A   1      38.416  46.807  43.310  1.00  0.00     0.055 A 
ATOM     87  C   UNL A   1      39.557  46.103  45.303  1.00  0.00     0.041 A 
ATOM     88  F   UNL A   1      41.468  44.758  45.140  1.00  0.00    -0.206 F 
ATOM     89  C   UNL A   1      38.542  46.839  44.699  1.00  0.00     0.022 A 
BRANCH  86  90
ATOM     90  S   UNL A   1      37.270  47.937  42.473  1.00  0.00     0.124 S 
ATOM     91  O   UNL A   1      37.580  49.208  43.125  1.00  0.00    -0.237 OA
ATOM     92  O   UNL A   1      37.675  47.819  41.077  1.00  0.00    -0.237 OA
ATOM     93  O   UNL A   1      35.954  47.388  42.790  1.00  0.00    -0.744 OA
ENDBRANCH  86  90
ENDBRANCH  69  83
BRANCH  70  94
ATOM     94  C   UNL A   1      46.551  40.085  37.255  1.00  0.00     0.023 A 
ATOM     95  C   UNL A   1      46.204  39.946  35.902  1.00  0.00     0.031 A 
ATOM     96  C   UNL A   1      47.743  39.482  37.696  1.00  0.00     0.131 A 
ATOM     97  C   UNL A   1      47.023  39.194  35.044  1.00  0.00     0.055 A 
ATOM     98  C   UNL A   1      48.577  38.773  36.830  1.00  0.00     0.041 A 
ATOM     99  F   UNL A   1      48.124  39.594  38.979  1.00  0.00    -0.206 F 
ATOM    100  C   UNL A   1      48.212  38.618  35.496  1.00  0.00     0.022 A 
BRANCH  97 101
ATOM    101  S   UNL A   1      46.481  38.930  33.334  1.00  0.00     0.124 S 
ATOM    102  O   UNL A   1      47.146  40.026  32.638  1.00  0.00    -0.237 OA
ATOM    103  O   UNL A   1      46.991  37.591  33.059  1.00  0.00    -0.237 OA
ATOM    104  O   UNL A   1      45.026  39.034  33.418  1.00  0.00    -0.744 OA
ENDBRANCH  97 101
ENDBRANCH  70  94
BRANCH  82 105
ATOM    105  C   UNL A   1      46.568  46.642  39.643  1.00  0.00     0.023 A 
ATOM    106  C   UNL A   1      46.506  47.475  38.512  1.00  0.00     0.031 A 
ATOM    107  C   UNL A   1      47.564  46.901  40.602  1.00  0.00     0.131 A 
ATOM    108  C   UNL A   1      47.453  48.497  38.344  1.00  0.00     0.055 A 
ATOM    109  C   UNL A   1      48.468  47.954  40.456  1.00  0.00     0.041 A 
ATOM    110  F   UNL A   1      47.671  46.135  41.700  1.00  0.00    -0.206 F 
ATOM    111  C   UNL A   1      48.423  48.752  39.317  1.00  0.00     0.022 A 
BRANCH 108 112
ATOM    112  S   UNL A   1      47.452  49.440  36.795  1.00  0.00     0.124 S 
ATOM    113  O   UNL A   1      48.828  49.276  36.338  1.00  0.00    -0.237 OA
ATOM    114  O   UNL A   1      46.432  48.750  36.009  1.00  0.00    -0.237 OA
ATOM    115  O   UNL A   1      47.096  50.793  37.217  1.00  0.00    -0.744 OA
ENDBRANCH 108 112
ENDBRANCH  82 105
ENDBRANCH  56  57
ENDBRANCH  48  51
ENDBRANCH  46  47
ENDBRANCH  45  46
ENDBRANCH  44  45
ENDBRANCH  43  44
ENDBRANCH  42  43
ENDBRANCH  41  42
ENDBRANCH   3  41
TORSDOF 29
ENDMDL
MODEL 3
REMARK VINA RESULT:      -6.6      5.805     12.349
REMARK SMILES CC(C)C[C@H](NC(=O)[C@@H](NC(=O)[C@H](C)NC(=O)CNC(=O)OCc1ccccc1)C(C)C)C(=O)NCCCCCCNC(=O)c1ccc(-c2c3nc(c(-c4cc(S(=O)(=O)[O-])ccc4F)c4ccc([nH]4)c(-c4cc(S(=O)(=O)[O-])ccc4F)c4nc(c(-c5cc(S(=O)(=O)[O-])ccc5F)c5ccc2[nH]5)C=C4)C=C3)cc1
REMARK SMILES IDX 33 1 34 2 35 3 5 5 4 6 2 7 1 8 3 9 6 10 7 11 8 13 9 14 10 15
REMARK SMILES IDX 11 16 12 18 13 19 14 20 15 21 16 22 17 24 18 25 19 26 20 27
REMARK SMILES IDX 21 29 22 30 23 31 24 32 25 33 29 34 26 35 28 36 27 37 30 38
REMARK SMILES IDX 31 39 32 40 36 41 37 42 38 43 39 44 40 45 41 46 42 47 43 48
REMARK SMILES IDX 44 50 45 51 46 52 107 53 47 54 106 55 48 56 49 57 50 58
REMARK SMILES IDX 100 59 51 60 105 61 99 62 101 63 52 64 104 65 98 66 97 67
REMARK SMILES IDX 53 69 85 70 65 71 84 72 66 73 69 74 83 75 102 76 67 77 68 78
REMARK SMILES IDX 82 80 103 81 70 82 54 83 55 84 63 85 56 86 62 87 64 88 61 89
REMARK SMILES IDX 57 90 58 91 59 92 60 93 86 94 87 95 95 96 88 97 94 98 96 99
REMARK SMILES IDX 93 100 89 101 90 102 91 103 92 104 71 105 72 106 80 107
REMARK SMILES IDX 73 108 79 109 81 110 78 111 74 112 75 113 76 114 77 115
REMARK H PARENT 35 4 6 12 10 17 15 23 19 28 42 49 101 68 69 79
REMARK Flexibility Score: inf
ROOT
ATOM      1  C   UNL A   1      47.778  38.237  31.318  1.00  0.00     0.242 C 
ATOM      2  O   UNL A   1      48.281  38.439  32.425  1.00  0.00    -0.273 OA
ATOM      3  N   UNL A   1      48.565  37.601  30.422  1.00  0.00    -0.354 N 
ATOM      4  H   UNL A   1      49.178  36.937  30.812  1.00  0.00     0.163 HD
ENDROOT
BRANCH   1   5
ATOM      5  C   UNL A   1      46.383  38.792  30.993  1.00  0.00     0.171 C 
BRANCH   5   6
ATOM      6  C   UNL A   1      45.221  37.888  31.434  1.00  0.00     0.038 C 
BRANCH   6   7
ATOM      7  C   UNL A   1      44.178  38.657  32.272  1.00  0.00    -0.015 C 
ATOM      8  C   UNL A   1      43.453  37.723  33.245  1.00  0.00     0.007 C 
ATOM      9  C   UNL A   1      44.850  39.789  33.049  1.00  0.00     0.007 C 
ENDBRANCH   6   7
ENDBRANCH   5   6
BRANCH   5  10
ATOM     10  N   UNL A   1      46.291  39.155  29.591  1.00  0.00    -0.343 N 
ATOM     11  C   UNL A   1      45.415  39.902  28.884  1.00  0.00     0.243 C 
ATOM     12  H   UNL A   1      47.017  38.779  29.041  1.00  0.00     0.164 HD
ATOM     13  O   UNL A   1      45.621  39.879  27.662  1.00  0.00    -0.273 OA
BRANCH  11  14
ATOM     14  C   UNL A   1      44.227  40.759  29.451  1.00  0.00     0.174 C 
BRANCH  14  15
ATOM     15  N   UNL A   1      44.152  42.215  29.206  1.00  0.00    -0.342 N 
ATOM     16  C   UNL A   1      45.018  43.249  29.022  1.00  0.00     0.242 C 
ATOM     17  H   UNL A   1      43.217  42.522  29.163  1.00  0.00     0.164 HD
ATOM     18  O   UNL A   1      44.494  44.323  28.696  1.00  0.00    -0.273 OA
BRANCH  16  19
ATOM     19  C   UNL A   1      46.555  43.120  29.084  1.00  0.00     0.168 C 
ATOM     20  C   UNL A   1      46.946  42.625  30.484  1.00  0.00     0.041 C 
BRANCH  19  21
ATOM     21  N   UNL A   1      47.146  44.452  28.925  1.00  0.00    -0.343 N 
ATOM     22  C   UNL A   1      47.484  45.170  27.821  1.00  0.00     0.240 C 
ATOM     23  H   UNL A   1      47.333  44.912  29.775  1.00  0.00     0.164 HD
ATOM     24  O   UNL A   1      48.013  46.270  28.007  1.00  0.00    -0.273 OA
BRANCH  22  25
ATOM     25  C   UNL A   1      47.065  44.745  26.407  1.00  0.00     0.219 C 
BRANCH  25  26
ATOM     26  N   UNL A   1      47.264  43.347  26.090  1.00  0.00    -0.312 N 
ATOM     27  C   UNL A   1      46.760  42.660  25.025  1.00  0.00     0.407 C 
ATOM     28  H   UNL A   1      47.826  42.835  26.714  1.00  0.00     0.167 HD
ATOM     29  O   UNL A   1      46.997  41.473  24.875  1.00  0.00    -0.225 OA
BRANCH  27  30
ATOM     30  O   UNL A   1      45.962  43.415  24.230  1.00  0.00    -0.445 OA
BRANCH  30  31
ATOM     31  C   UNL A   1      45.694  42.842  22.949  1.00  0.00     0.270 C 
BRANCH  31  32
ATOM     32  C   UNL A   1      44.253  42.926  22.519  1.00  0.00    -0.011 A 
ATOM     33  C   UNL A   1      43.233  43.164  23.449  1.00  0.00     0.007 A 
ATOM     34  C   UNL A   1      43.909  42.665  21.186  1.00  0.00     0.007 A 
ATOM     35  C   UNL A   1      41.893  43.082  23.061  1.00  0.00     0.000 A 
ATOM     36  C   UNL A   1      42.571  42.566  20.804  1.00  0.00     0.000 A 
ATOM     37  C   UNL A   1      41.563  42.767  21.743  1.00  0.00     0.000 A 
ENDBRANCH  31  32
ENDBRANCH  30  31
ENDBRANCH  27  30
ENDBRANCH  25  26
ENDBRANCH  22  25
ENDBRANCH  19  21
ENDBRANCH  16  19
ENDBRANCH  14  15
BRANCH  14  38
ATOM     38  C   UNL A   1      42.841  40.051  29.410  1.00  0.00     0.015 C 
ATOM     39  C   UNL A   1      41.684  40.889  28.847  1.00  0.00     0.010 C 
ATOM     40  C   UNL A   1      42.904  38.747  28.593  1.00  0.00     0.010 C 
ENDBRANCH  14  38
ENDBRANCH  11  14
ENDBRANCH   5  10
ENDBRANCH   1   5
BRANCH   3  41
ATOM     41  C   UNL A   1      48.651  37.737  28.983  1.00  0.00     0.116 C 
BRANCH  41  42
ATOM     42  C   UNL A   1      49.015  36.395  28.344  1.00  0.00     0.021 C 
BRANCH  42  43
ATOM     43  C   UNL A   1      48.275  35.177  28.924  1.00  0.00     0.002 C 
BRANCH  43  44
ATOM     44  C   UNL A   1      47.204  34.569  28.016  1.00  0.00     0.002 C 
BRANCH  44  45
ATOM     45  C   UNL A   1      47.479  34.721  26.522  1.00  0.00     0.021 C 
BRANCH  45  46
ATOM     46  C   UNL A   1      46.440  35.541  25.764  1.00  0.00     0.116 C 
BRANCH  46  47
ATOM     47  N   UNL A   1      45.704  34.747  24.794  1.00  0.00    -0.352 N 
ATOM     48  C   UNL A   1      44.651  33.892  25.021  1.00  0.00     0.251 C 
ATOM     49  H   UNL A   1      45.996  34.831  23.857  1.00  0.00     0.163 HD
ATOM     50  O   UNL A   1      44.231  33.167  24.124  1.00  0.00    -0.269 OA
BRANCH  48  51
ATOM     51  C   UNL A   1      44.063  33.839  26.374  1.00  0.00     0.039 A 
ATOM     52  C   UNL A   1      44.197  32.672  27.127  1.00  0.00     0.014 A 
ATOM     53  C   UNL A   1      43.455  34.974  26.919  1.00  0.00     0.014 A 
ATOM     54  C   UNL A   1      43.787  32.667  28.462  1.00  0.00     0.010 A 
ATOM     55  C   UNL A   1      43.111  34.987  28.267  1.00  0.00     0.010 A 
ATOM     56  C   UNL A   1      43.280  33.836  29.053  1.00  0.00    -0.014 A 
BRANCH  56  57
ATOM     57  C   UNL A   1      42.935  33.883  30.498  1.00  0.00     0.031 A 
ATOM     58  C   UNL A   1      41.499  33.791  30.928  1.00  0.00     0.074 A 
ATOM     59  C   UNL A   1      43.905  34.089  31.409  1.00  0.00     0.049 A 
ATOM     60  N   UNL A   1      40.983  33.905  32.125  1.00  0.00    -0.248 NA
ATOM     61  C   UNL A   1      40.509  33.579  29.861  1.00  0.00     0.031 C 
ATOM     62  C   UNL A   1      45.329  34.248  31.106  1.00  0.00     0.029 A 
ATOM     63  N   UNL A   1      43.840  34.222  32.773  1.00  0.00    -0.354 N 
ATOM     64  C   UNL A   1      39.608  33.784  31.957  1.00  0.00     0.074 A 
ATOM     65  C   UNL A   1      39.372  33.662  30.533  1.00  0.00     0.031 C 
ATOM     66  C   UNL A   1      46.002  34.449  32.249  1.00  0.00     0.029 A 
ATOM     67  C   UNL A   1      45.057  34.476  33.362  1.00  0.00     0.049 A 
ATOM     68  H   UNL A   1      43.002  34.142  33.283  1.00  0.00     0.167 HD
ATOM     69  C   UNL A   1      38.636  33.750  32.903  1.00  0.00     0.034 A 
ATOM     70  C   UNL A   1      45.374  34.723  34.648  1.00  0.00     0.034 A 
ATOM     71  C   UNL A   1      38.894  33.874  34.318  1.00  0.00     0.049 A 
ATOM     72  C   UNL A   1      44.280  34.710  35.684  1.00  0.00     0.074 A 
ATOM     73  C   UNL A   1      37.998  33.795  35.369  1.00  0.00     0.029 A 
ATOM     74  N   UNL A   1      40.141  34.120  34.880  1.00  0.00    -0.354 N 
ATOM     75  N   UNL A   1      42.990  34.530  35.518  1.00  0.00    -0.248 NA
ATOM     76  C   UNL A   1      44.686  34.923  37.078  1.00  0.00     0.031 C 
ATOM     77  C   UNL A   1      38.690  34.060  36.557  1.00  0.00     0.029 A 
ATOM     78  C   UNL A   1      40.031  34.232  36.258  1.00  0.00     0.049 A 
ATOM     79  H   UNL A   1      40.981  34.203  34.374  1.00  0.00     0.167 HD
ATOM     80  C   UNL A   1      42.432  34.589  36.791  1.00  0.00     0.074 A 
ATOM     81  C   UNL A   1      43.528  34.804  37.714  1.00  0.00     0.031 C 
ATOM     82  C   UNL A   1      41.131  34.473  37.164  1.00  0.00     0.034 A 
BRANCH  69  83
ATOM     83  C   UNL A   1      37.212  33.598  32.421  1.00  0.00     0.023 A 
ATOM     84  C   UNL A   1      36.313  34.679  32.432  1.00  0.00     0.031 A 
ATOM     85  C   UNL A   1      36.728  32.347  31.998  1.00  0.00     0.131 A 
ATOM     86  C   UNL A   1      34.961  34.471  32.124  1.00  0.00     0.055 A 
ATOM     87  C   UNL A   1      35.400  32.167  31.604  1.00  0.00     0.041 A 
ATOM     88  F   UNL A   1      37.530  31.272  31.983  1.00  0.00    -0.206 F 
ATOM     89  C   UNL A   1      34.502  33.228  31.686  1.00  0.00     0.022 A 
BRANCH  86  90
ATOM     90  S   UNL A   1      33.782  35.804  32.477  1.00  0.00     0.124 S 
ATOM     91  O   UNL A   1      34.362  36.402  33.678  1.00  0.00    -0.237 OA
ATOM     92  O   UNL A   1      33.848  36.612  31.264  1.00  0.00    -0.237 OA
ATOM     93  O   UNL A   1      32.520  35.098  32.689  1.00  0.00    -0.744 OA
ENDBRANCH  86  90
ENDBRANCH  69  83
BRANCH  70  94
ATOM     94  C   UNL A   1      46.783  35.033  35.023  1.00  0.00     0.023 A 
ATOM     95  C   UNL A   1      47.692  34.013  35.345  1.00  0.00     0.031 A 
ATOM     96  C   UNL A   1      47.237  36.364  35.075  1.00  0.00     0.131 A 
ATOM     97  C   UNL A   1      49.000  34.342  35.738  1.00  0.00     0.055 A 
ATOM     98  C   UNL A   1      48.551  36.683  35.422  1.00  0.00     0.041 A 
ATOM     99  F   UNL A   1      46.409  37.375  34.766  1.00  0.00    -0.206 F 
ATOM    100  C   UNL A   1      49.438  35.668  35.766  1.00  0.00     0.022 A 
BRANCH  97 101
ATOM    101  S   UNL A   1      50.109  33.010  36.269  1.00  0.00     0.124 S 
ATOM    102  O   UNL A   1      50.206  32.202  35.058  1.00  0.00    -0.237 OA
ATOM    103  O   UNL A   1      51.310  33.748  36.646  1.00  0.00    -0.237 OA
ATOM    104  O   UNL A   1      49.389  32.389  37.379  1.00  0.00    -0.744 OA
ENDBRANCH  97 101
ENDBRANCH  70  94
BRANCH  82 105
ATOM    105  C   UNL A   1      40.834  34.554  38.641  1.00  0.00     0.023 A 
ATOM    106  C   UNL A   1      40.934  33.427  39.476  1.00  0.00     0.031 A 
ATOM    107  C   UNL A   1      40.440  35.774  39.218  1.00  0.00     0.131 A 
ATOM    108  C   UNL A   1      40.597  33.533  40.835  1.00  0.00     0.055 A 
ATOM    109  C   UNL A   1      40.161  35.885  40.581  1.00  0.00     0.041 A 
ATOM    110  F   UNL A   1      40.326  36.880  38.466  1.00  0.00    -0.206 F 
ATOM    111  C   UNL A   1      40.228  34.758  41.395  1.00  0.00     0.022 A 
BRANCH 108 112
ATOM    112  S   UNL A   1      40.571  32.028  41.846  1.00  0.00     0.124 S 
ATOM    113  O   UNL A   1      40.652  32.569  43.199  1.00  0.00    -0.237 OA
ATOM    114  O   UNL A   1      39.294  31.424  41.477  1.00  0.00    -0.237 OA
ATOM    115  O   UNL A   1      41.753  31.294  41.400  1.00  0.00    -0.744 OA
ENDBRANCH 108 112
ENDBRANCH  82 105
ENDBRANCH  56  57
ENDBRANCH  48  51
ENDBRANCH  46  47
ENDBRANCH  45  46
ENDBRANCH  44  45
ENDBRANCH  43  44
ENDBRANCH  42  43
ENDBRANCH  41  42
ENDBRANCH   3  41
TORSDOF 29
ENDMDL
