MODEL 1
REMARK VINA RESULT:      -9.9      0.000      0.000
REMARK SMILES Cc1ccc(S(=O)(=O)n2cc(C(=O)C(=O)N[C@H](Cc3c[nH]c4ccccc34)C(=O)NCC(=O)NCCCCCCNC(=O)c3ccc(-c4c5nc(c(-c6cc(S(=O)(=O)[O-])ccc6F)c6ccc([nH]6)c(-c6cc(S(=O)(=O)[O-])ccc6F)c6nc(c(-c7cc(S(=O)(=O)[O-])ccc7F)c7ccc4[nH]7)C=C6)C=C5)cc3)c3ccccc32)cc1
REMARK SMILES IDX 35 1 34 2 32 3 33 4 31 6 30 7 28 8 29 9 17 11 16 12 14 13
REMARK SMILES IDX 15 14 12 16 13 17 11 18 9 19 10 20 112 21 107 22 111 23
REMARK SMILES IDX 108 24 110 25 109 26 6 27 7 28 8 29 5 30 1 31 2 32 3 33
REMARK SMILES IDX 114 34 4 35 113 36 18 37 19 38 20 39 27 40 21 41 22 42 26 43
REMARK SMILES IDX 23 45 25 46 24 47 36 48 37 49 38 50 39 51 40 52 41 53 42 54
REMARK SMILES IDX 43 56 44 57 45 58 106 59 46 60 105 61 47 62 48 63 49 64
REMARK SMILES IDX 99 65 50 66 104 67 98 68 100 69 51 70 103 71 97 72 96 73
REMARK SMILES IDX 52 75 84 76 64 77 83 78 65 79 68 80 82 81 101 82 66 83 67 84
REMARK SMILES IDX 81 86 102 87 69 88 53 89 54 90 62 91 55 92 61 93 63 94 60 95
REMARK SMILES IDX 56 96 57 97 58 98 59 99 85 100 86 101 94 102 87 103 93 104
REMARK SMILES IDX 95 105 92 106 88 107 89 108 90 109 91 110 70 111 71 112
REMARK SMILES IDX 79 113 72 114 78 115 80 116 77 117 73 118 74 119 75 120
REMARK SMILES IDX 76 121
REMARK H PARENT 34 5 30 10 16 15 21 44 41 55 100 74 68 85
REMARK Flexibility Score: inf
ROOT
ATOM      1  C   UNL A   1      35.367  35.120  33.295  1.00  0.00     0.116 C 
ENDROOT
BRANCH   1   2
ATOM      2  N   UNL A   1      34.384  36.192  33.201  1.00  0.00    -0.355 N 
ATOM      3  C   UNL A   1      33.316  36.341  32.361  1.00  0.00     0.239 C 
ATOM      4  O   UNL A   1      32.471  37.196  32.655  1.00  0.00    -0.273 OA
ATOM      5  H   UNL A   1      34.508  36.926  33.846  1.00  0.00     0.163 HD
BRANCH   3   6
ATOM      6  C   UNL A   1      33.035  35.388  31.186  1.00  0.00     0.216 C 
BRANCH   6   7
ATOM      7  N   UNL A   1      33.755  35.633  29.961  1.00  0.00    -0.345 N 
ATOM      8  C   UNL A   1      34.264  34.835  29.000  1.00  0.00     0.243 C 
ATOM      9  O   UNL A   1      34.576  35.434  27.960  1.00  0.00    -0.273 OA
ATOM     10  H   UNL A   1      33.907  36.590  29.788  1.00  0.00     0.164 HD
BRANCH   8  11
ATOM     11  C   UNL A   1      34.540  33.300  29.093  1.00  0.00     0.176 C 
BRANCH  11  12
ATOM     12  N   UNL A   1      34.844  32.624  30.404  1.00  0.00    -0.337 N 
ATOM     13  C   UNL A   1      35.991  32.219  31.076  1.00  0.00     0.293 C 
ATOM     14  O   UNL A   1      35.888  31.582  32.121  1.00  0.00    -0.265 OA
ATOM     15  H   UNL A   1      34.026  32.418  30.911  1.00  0.00     0.164 HD
BRANCH  13  16
ATOM     16  C   UNL A   1      37.378  32.575  30.548  1.00  0.00     0.252 C 
ATOM     17  O   UNL A   1      37.406  33.580  29.835  1.00  0.00    -0.283 OA
BRANCH  16  18
ATOM     18  C   UNL A   1      38.637  31.838  30.784  1.00  0.00     0.054 A 
ATOM     19  N   UNL A   1      40.661  30.992  31.361  1.00  0.00    -0.240 N 
ATOM     20  C   UNL A   1      39.999  32.152  30.884  1.00  0.00     0.117 A 
ATOM     21  C   UNL A   1      39.642  30.164  31.859  1.00  0.00     0.065 A 
ATOM     22  C   UNL A   1      38.613  30.429  30.971  1.00  0.00     0.012 A 
ATOM     23  C   UNL A   1      39.668  28.991  32.628  1.00  0.00     0.028 A 
ATOM     24  C   UNL A   1      37.787  29.377  30.564  1.00  0.00     0.011 A 
ATOM     25  C   UNL A   1      38.798  27.966  32.231  1.00  0.00     0.002 A 
ATOM     26  C   UNL A   1      37.929  28.130  31.159  1.00  0.00     0.001 A 
BRANCH  19  27
ATOM     27  S   UNL A   1      41.792  30.043  30.353  1.00  0.00     0.268 S 
ATOM     28  O   UNL A   1      42.828  29.598  31.266  1.00  0.00    -0.201 OA
ATOM     29  O   UNL A   1      42.084  30.944  29.247  1.00  0.00    -0.201 OA
BRANCH  27  30
ATOM     30  C   UNL A   1      41.212  28.614  29.500  1.00  0.00     0.088 A 
ATOM     31  C   UNL A   1      39.455  25.628  26.930  1.00  0.00     0.044 C 
ATOM     32  C   UNL A   1      40.116  26.645  27.815  1.00  0.00    -0.051 A 
ATOM     33  C   UNL A   1      39.833  27.983  27.577  1.00  0.00     0.005 A 
ATOM     34  C   UNL A   1      40.962  26.303  28.892  1.00  0.00     0.005 A 
ATOM     35  C   UNL A   1      40.388  28.948  28.401  1.00  0.00     0.022 A 
ATOM     36  C   UNL A   1      41.517  27.286  29.746  1.00  0.00     0.022 A 
ENDBRANCH  27  30
ENDBRANCH  19  27
ENDBRANCH  16  18
ENDBRANCH  13  16
ENDBRANCH  11  12
BRANCH  11  37
ATOM     37  C   UNL A   1      35.144  32.618  27.821  1.00  0.00     0.072 C 
BRANCH  37  38
ATOM     38  C   UNL A   1      35.002  31.126  27.673  1.00  0.00    -0.020 A 
ATOM     39  C   UNL A   1      36.004  30.213  27.937  1.00  0.00     0.087 A 
ATOM     40  C   UNL A   1      33.852  30.349  27.280  1.00  0.00     0.003 A 
ATOM     41  N   UNL A   1      35.557  28.964  27.614  1.00  0.00    -0.361 N 
ATOM     42  C   UNL A   1      34.259  29.017  27.182  1.00  0.00     0.046 A 
ATOM     43  C   UNL A   1      32.513  30.643  26.947  1.00  0.00     0.010 A 
ATOM     44  H   UNL A   1      36.093  28.141  27.682  1.00  0.00     0.166 HD
ATOM     45  C   UNL A   1      33.436  27.991  26.703  1.00  0.00     0.026 A 
ATOM     46  C   UNL A   1      31.665  29.621  26.492  1.00  0.00     0.001 A 
ATOM     47  C   UNL A   1      32.128  28.316  26.352  1.00  0.00     0.002 A 
ENDBRANCH  37  38
ENDBRANCH  11  37
ENDBRANCH   8  11
ENDBRANCH   6   7
ENDBRANCH   3   6
ENDBRANCH   1   2
BRANCH   1  48
ATOM     48  C   UNL A   1      35.542  34.575  34.712  1.00  0.00     0.021 C 
BRANCH  48  49
ATOM     49  C   UNL A   1      36.817  33.772  35.014  1.00  0.00     0.002 C 
BRANCH  49  50
ATOM     50  C   UNL A   1      37.881  33.557  33.922  1.00  0.00     0.002 C 
BRANCH  50  51
ATOM     51  C   UNL A   1      39.307  34.091  34.091  1.00  0.00     0.021 C 
BRANCH  51  52
ATOM     52  C   UNL A   1      39.615  34.928  35.330  1.00  0.00     0.116 C 
BRANCH  52  53
ATOM     53  N   UNL A   1      38.958  34.485  36.558  1.00  0.00    -0.352 N 
ATOM     54  C   UNL A   1      39.263  33.405  37.382  1.00  0.00     0.251 C 
ATOM     55  H   UNL A   1      38.190  35.030  36.844  1.00  0.00     0.163 HD
ATOM     56  O   UNL A   1      38.564  33.101  38.331  1.00  0.00    -0.269 OA
BRANCH  54  57
ATOM     57  C   UNL A   1      40.568  32.717  37.191  1.00  0.00     0.039 A 
ATOM     58  C   UNL A   1      41.722  33.464  37.463  1.00  0.00     0.014 A 
ATOM     59  C   UNL A   1      40.656  31.516  36.503  1.00  0.00     0.014 A 
ATOM     60  C   UNL A   1      42.907  33.158  36.798  1.00  0.00     0.010 A 
ATOM     61  C   UNL A   1      41.792  31.279  35.757  1.00  0.00     0.010 A 
ATOM     62  C   UNL A   1      42.888  32.141  35.850  1.00  0.00    -0.014 A 
BRANCH  62  63
ATOM     63  C   UNL A   1      43.917  31.951  34.836  1.00  0.00     0.031 A 
ATOM     64  C   UNL A   1      43.719  32.469  33.472  1.00  0.00     0.074 A 
ATOM     65  C   UNL A   1      45.095  31.386  35.180  1.00  0.00     0.049 A 
ATOM     66  N   UNL A   1      44.382  32.070  32.444  1.00  0.00    -0.248 NA
ATOM     67  C   UNL A   1      42.708  33.468  33.153  1.00  0.00     0.031 C 
ATOM     68  C   UNL A   1      46.330  31.344  34.403  1.00  0.00     0.029 A 
ATOM     69  N   UNL A   1      45.312  30.487  36.223  1.00  0.00    -0.354 N 
ATOM     70  C   UNL A   1      44.093  32.913  31.399  1.00  0.00     0.074 A 
ATOM     71  C   UNL A   1      43.002  33.732  31.876  1.00  0.00     0.031 C 
ATOM     72  C   UNL A   1      47.053  30.284  34.800  1.00  0.00     0.029 A 
ATOM     73  C   UNL A   1      46.240  29.537  35.742  1.00  0.00     0.049 A 
ATOM     74  H   UNL A   1      44.901  30.508  37.117  1.00  0.00     0.167 HD
ATOM     75  C   UNL A   1      44.886  32.888  30.291  1.00  0.00     0.034 A 
ATOM     76  C   UNL A   1      45.883  28.223  35.629  1.00  0.00     0.034 A 
ATOM     77  C   UNL A   1      45.891  31.828  30.373  1.00  0.00     0.049 A 
ATOM     78  C   UNL A   1      45.920  27.697  34.204  1.00  0.00     0.074 A 
ATOM     79  C   UNL A   1      47.234  31.778  30.709  1.00  0.00     0.029 A 
ATOM     80  N   UNL A   1      45.458  30.517  30.348  1.00  0.00    -0.354 N 
ATOM     81  N   UNL A   1      46.191  28.429  33.157  1.00  0.00    -0.248 NA
ATOM     82  C   UNL A   1      45.577  26.323  33.838  1.00  0.00     0.031 C 
ATOM     83  C   UNL A   1      47.584  30.409  30.920  1.00  0.00     0.029 A 
ATOM     84  C   UNL A   1      46.462  29.635  30.686  1.00  0.00     0.049 A 
ATOM     85  H   UNL A   1      44.540  30.244  30.115  1.00  0.00     0.167 HD
ATOM     86  C   UNL A   1      46.011  27.689  32.016  1.00  0.00     0.074 A 
ATOM     87  C   UNL A   1      45.630  26.373  32.495  1.00  0.00     0.031 C 
ATOM     88  C   UNL A   1      46.142  28.218  30.764  1.00  0.00     0.034 A 
BRANCH  75  89
ATOM     89  C   UNL A   1      44.900  33.946  29.216  1.00  0.00     0.023 A 
ATOM     90  C   UNL A   1      44.539  33.581  27.903  1.00  0.00     0.031 A 
ATOM     91  C   UNL A   1      45.271  35.294  29.388  1.00  0.00     0.131 A 
ATOM     92  C   UNL A   1      44.642  34.486  26.833  1.00  0.00     0.055 A 
ATOM     93  C   UNL A   1      45.429  36.181  28.314  1.00  0.00     0.041 A 
ATOM     94  F   UNL A   1      45.438  35.834  30.601  1.00  0.00    -0.206 F 
ATOM     95  C   UNL A   1      45.124  35.777  27.024  1.00  0.00     0.022 A 
BRANCH  92  96
ATOM     96  S   UNL A   1      44.126  33.950  25.180  1.00  0.00     0.124 S 
ATOM     97  O   UNL A   1      43.960  32.511  25.359  1.00  0.00    -0.237 OA
ATOM     98  O   UNL A   1      42.906  34.721  24.973  1.00  0.00    -0.237 OA
ATOM     99  O   UNL A   1      45.252  34.340  24.331  1.00  0.00    -0.744 OA
ENDBRANCH  92  96
ENDBRANCH  75  89
BRANCH  76 100
ATOM    100  C   UNL A   1      44.928  27.814  36.709  1.00  0.00     0.023 A 
ATOM    101  C   UNL A   1      43.609  27.506  36.297  1.00  0.00     0.031 A 
ATOM    102  C   UNL A   1      45.364  27.297  37.935  1.00  0.00     0.131 A 
ATOM    103  C   UNL A   1      42.869  26.527  36.974  1.00  0.00     0.055 A 
ATOM    104  C   UNL A   1      44.570  26.405  38.669  1.00  0.00     0.041 A 
ATOM    105  F   UNL A   1      46.611  27.526  38.372  1.00  0.00    -0.206 F 
ATOM    106  C   UNL A   1      43.344  25.970  38.161  1.00  0.00     0.022 A 
BRANCH 103 107
ATOM    107  S   UNL A   1      41.470  25.754  36.099  1.00  0.00     0.124 S 
ATOM    108  O   UNL A   1      40.457  25.678  37.144  1.00  0.00    -0.237 OA
ATOM    109  O   UNL A   1      41.205  26.703  35.020  1.00  0.00    -0.237 OA
ATOM    110  O   UNL A   1      42.003  24.470  35.642  1.00  0.00    -0.744 OA
ENDBRANCH 103 107
ENDBRANCH  76 100
BRANCH  88 111
ATOM    111  C   UNL A   1      45.941  27.425  29.497  1.00  0.00     0.023 A 
ATOM    112  C   UNL A   1      44.989  27.796  28.536  1.00  0.00     0.031 A 
ATOM    113  C   UNL A   1      46.644  26.223  29.250  1.00  0.00     0.131 A 
ATOM    114  C   UNL A   1      44.818  27.035  27.366  1.00  0.00     0.055 A 
ATOM    115  C   UNL A   1      46.404  25.419  28.133  1.00  0.00     0.041 A 
ATOM    116  F   UNL A   1      47.630  25.800  30.055  1.00  0.00    -0.206 F 
ATOM    117  C   UNL A   1      45.494  25.831  27.173  1.00  0.00     0.022 A 
BRANCH 114 118
ATOM    118  S   UNL A   1      43.764  27.698  26.052  1.00  0.00     0.124 S 
ATOM    119  O   UNL A   1      44.712  27.926  24.967  1.00  0.00    -0.237 OA
ATOM    120  O   UNL A   1      42.821  26.600  25.850  1.00  0.00    -0.237 OA
ATOM    121  O   UNL A   1      43.190  28.904  26.643  1.00  0.00    -0.744 OA
ENDBRANCH 114 118
ENDBRANCH  88 111
ENDBRANCH  62  63
ENDBRANCH  54  57
ENDBRANCH  52  53
ENDBRANCH  51  52
ENDBRANCH  50  51
ENDBRANCH  49  50
ENDBRANCH  48  49
ENDBRANCH   1  48
TORSDOF 25
ENDMDL
MODEL 2
REMARK VINA RESULT:      -8.8      3.631      5.274
REMARK SMILES Cc1ccc(S(=O)(=O)n2cc(C(=O)C(=O)N[C@H](Cc3c[nH]c4ccccc34)C(=O)NCC(=O)NCCCCCCNC(=O)c3ccc(-c4c5nc(c(-c6cc(S(=O)(=O)[O-])ccc6F)c6ccc([nH]6)c(-c6cc(S(=O)(=O)[O-])ccc6F)c6nc(c(-c7cc(S(=O)(=O)[O-])ccc7F)c7ccc4[nH]7)C=C6)C=C5)cc3)c3ccccc32)cc1
REMARK SMILES IDX 35 1 34 2 32 3 33 4 31 6 30 7 28 8 29 9 17 11 16 12 14 13
REMARK SMILES IDX 15 14 12 16 13 17 11 18 9 19 10 20 112 21 107 22 111 23
REMARK SMILES IDX 108 24 110 25 109 26 6 27 7 28 8 29 5 30 1 31 2 32 3 33
REMARK SMILES IDX 114 34 4 35 113 36 18 37 19 38 20 39 27 40 21 41 22 42 26 43
REMARK SMILES IDX 23 45 25 46 24 47 36 48 37 49 38 50 39 51 40 52 41 53 42 54
REMARK SMILES IDX 43 56 44 57 45 58 106 59 46 60 105 61 47 62 48 63 49 64
REMARK SMILES IDX 99 65 50 66 104 67 98 68 100 69 51 70 103 71 97 72 96 73
REMARK SMILES IDX 52 75 84 76 64 77 83 78 65 79 68 80 82 81 101 82 66 83 67 84
REMARK SMILES IDX 81 86 102 87 69 88 53 89 54 90 62 91 55 92 61 93 63 94 60 95
REMARK SMILES IDX 56 96 57 97 58 98 59 99 85 100 86 101 94 102 87 103 93 104
REMARK SMILES IDX 95 105 92 106 88 107 89 108 90 109 91 110 70 111 71 112
REMARK SMILES IDX 79 113 72 114 78 115 80 116 77 117 73 118 74 119 75 120
REMARK SMILES IDX 76 121
REMARK H PARENT 34 5 30 10 16 15 21 44 41 55 100 74 68 85
REMARK Flexibility Score: inf
ROOT
ATOM      1  C   UNL A   1      35.100  35.565  32.868  1.00  0.00     0.116 C 
ENDROOT
BRANCH   1   2
ATOM      2  N   UNL A   1      34.450  36.830  32.546  1.00  0.00    -0.355 N 
ATOM      3  C   UNL A   1      33.515  37.127  31.594  1.00  0.00     0.239 C 
ATOM      4  O   UNL A   1      32.917  38.206  31.696  1.00  0.00    -0.273 OA
ATOM      5  H   UNL A   1      34.731  37.593  33.102  1.00  0.00     0.163 HD
BRANCH   3   6
ATOM      6  C   UNL A   1      33.057  36.118  30.527  1.00  0.00     0.216 C 
BRANCH   6   7
ATOM      7  N   UNL A   1      33.846  36.039  29.323  1.00  0.00    -0.345 N 
ATOM      8  C   UNL A   1      34.225  35.025  28.517  1.00  0.00     0.243 C 
ATOM      9  O   UNL A   1      34.675  35.392  27.422  1.00  0.00    -0.273 OA
ATOM     10  H   UNL A   1      34.181  36.915  29.023  1.00  0.00     0.164 HD
BRANCH   8  11
ATOM     11  C   UNL A   1      34.204  33.497  28.846  1.00  0.00     0.176 C 
BRANCH  11  12
ATOM     12  N   UNL A   1      34.046  32.989  30.255  1.00  0.00    -0.337 N 
ATOM     13  C   UNL A   1      34.887  32.457  31.224  1.00  0.00     0.293 C 
ATOM     14  O   UNL A   1      34.411  32.032  32.273  1.00  0.00    -0.265 OA
ATOM     15  H   UNL A   1      33.114  33.048  30.566  1.00  0.00     0.164 HD
BRANCH  13  16
ATOM     16  C   UNL A   1      36.399  32.415  31.016  1.00  0.00     0.252 C 
ATOM     17  O   UNL A   1      36.867  33.430  30.496  1.00  0.00    -0.283 OA
BRANCH  16  18
ATOM     18  C   UNL A   1      37.313  31.302  31.345  1.00  0.00     0.054 A 
ATOM     19  N   UNL A   1      38.460  29.493  32.093  1.00  0.00    -0.240 N 
ATOM     20  C   UNL A   1      37.751  30.651  32.506  1.00  0.00     0.117 A 
ATOM     21  C   UNL A   1      38.116  29.311  30.744  1.00  0.00     0.065 A 
ATOM     22  C   UNL A   1      38.008  30.621  30.309  1.00  0.00     0.012 A 
ATOM     23  C   UNL A   1      38.327  28.251  29.850  1.00  0.00     0.028 A 
ATOM     24  C   UNL A   1      38.468  30.945  29.028  1.00  0.00     0.011 A 
ATOM     25  C   UNL A   1      38.742  28.601  28.557  1.00  0.00     0.002 A 
ATOM     26  C   UNL A   1      38.891  29.930  28.179  1.00  0.00     0.001 A 
BRANCH  19  27
ATOM     27  S   UNL A   1      40.225  29.314  32.311  1.00  0.00     0.268 S 
ATOM     28  O   UNL A   1      40.420  27.925  32.681  1.00  0.00    -0.201 OA
ATOM     29  O   UNL A   1      40.557  30.402  33.222  1.00  0.00    -0.201 OA
BRANCH  27  30
ATOM     30  C   UNL A   1      41.309  29.642  30.961  1.00  0.00     0.088 A 
ATOM     31  C   UNL A   1      43.865  31.193  27.852  1.00  0.00     0.044 C 
ATOM     32  C   UNL A   1      43.017  30.623  28.952  1.00  0.00    -0.051 A 
ATOM     33  C   UNL A   1      42.335  31.517  29.766  1.00  0.00     0.005 A 
ATOM     34  C   UNL A   1      42.848  29.238  29.162  1.00  0.00     0.005 A 
ATOM     35  C   UNL A   1      41.508  31.028  30.762  1.00  0.00     0.022 A 
ATOM     36  C   UNL A   1      41.991  28.734  30.169  1.00  0.00     0.022 A 
ENDBRANCH  27  30
ENDBRANCH  19  27
ENDBRANCH  16  18
ENDBRANCH  13  16
ENDBRANCH  11  12
BRANCH  11  37
ATOM     37  C   UNL A   1      34.987  32.560  27.869  1.00  0.00     0.072 C 
BRANCH  37  38
ATOM     38  C   UNL A   1      34.531  31.131  27.729  1.00  0.00    -0.020 A 
ATOM     39  C   UNL A   1      35.168  30.045  28.300  1.00  0.00     0.087 A 
ATOM     40  C   UNL A   1      33.381  30.598  27.043  1.00  0.00     0.003 A 
ATOM     41  N   UNL A   1      34.537  28.904  27.897  1.00  0.00    -0.361 N 
ATOM     42  C   UNL A   1      33.461  29.206  27.105  1.00  0.00     0.046 A 
ATOM     43  C   UNL A   1      32.299  31.152  26.327  1.00  0.00     0.010 A 
ATOM     44  H   UNL A   1      34.816  27.992  28.141  1.00  0.00     0.166 HD
ATOM     45  C   UNL A   1      32.577  28.350  26.438  1.00  0.00     0.026 A 
ATOM     46  C   UNL A   1      31.385  30.308  25.675  1.00  0.00     0.001 A 
ATOM     47  C   UNL A   1      31.536  28.926  25.714  1.00  0.00     0.002 A 
ENDBRANCH  37  38
ENDBRANCH  11  37
ENDBRANCH   8  11
ENDBRANCH   6   7
ENDBRANCH   3   6
ENDBRANCH   1   2
BRANCH   1  48
ATOM     48  C   UNL A   1      34.780  35.056  34.274  1.00  0.00     0.021 C 
BRANCH  48  49
ATOM     49  C   UNL A   1      35.687  33.962  34.857  1.00  0.00     0.002 C 
BRANCH  49  50
ATOM     50  C   UNL A   1      37.104  33.741  34.298  1.00  0.00     0.002 C 
BRANCH  50  51
ATOM     51  C   UNL A   1      38.294  34.557  34.814  1.00  0.00     0.021 C 
BRANCH  51  52
ATOM     52  C   UNL A   1      38.413  34.772  36.321  1.00  0.00     0.116 C 
BRANCH  52  53
ATOM     53  N   UNL A   1      37.952  33.659  37.147  1.00  0.00    -0.352 N 
ATOM     54  C   UNL A   1      38.617  32.489  37.501  1.00  0.00     0.251 C 
ATOM     55  H   UNL A   1      37.040  33.751  37.504  1.00  0.00     0.163 HD
ATOM     56  O   UNL A   1      38.067  31.599  38.125  1.00  0.00    -0.269 OA
BRANCH  54  57
ATOM     57  C   UNL A   1      40.081  32.405  37.256  1.00  0.00     0.039 A 
ATOM     58  C   UNL A   1      40.910  33.122  38.130  1.00  0.00     0.014 A 
ATOM     59  C   UNL A   1      40.586  31.901  36.066  1.00  0.00     0.014 A 
ATOM     60  C   UNL A   1      42.147  33.578  37.679  1.00  0.00     0.010 A 
ATOM     61  C   UNL A   1      41.756  32.446  35.577  1.00  0.00     0.010 A 
ATOM     62  C   UNL A   1      42.495  33.340  36.355  1.00  0.00    -0.014 A 
BRANCH  62  63
ATOM     63  C   UNL A   1      43.556  34.048  35.651  1.00  0.00     0.031 A 
ATOM     64  C   UNL A   1      43.265  35.308  34.946  1.00  0.00     0.074 A 
ATOM     65  C   UNL A   1      44.826  33.597  35.731  1.00  0.00     0.049 A 
ATOM     66  N   UNL A   1      44.017  35.817  34.034  1.00  0.00    -0.248 NA
ATOM     67  C   UNL A   1      42.056  36.083  35.194  1.00  0.00     0.031 C 
ATOM     68  C   UNL A   1      46.049  34.287  35.331  1.00  0.00     0.029 A 
ATOM     69  N   UNL A   1      45.228  32.281  35.952  1.00  0.00    -0.354 N 
ATOM     70  C   UNL A   1      43.557  37.083  33.762  1.00  0.00     0.074 A 
ATOM     71  C   UNL A   1      42.301  37.179  34.470  1.00  0.00     0.031 C 
ATOM     72  C   UNL A   1      46.990  33.370  35.053  1.00  0.00     0.029 A 
ATOM     73  C   UNL A   1      46.357  32.066  35.130  1.00  0.00     0.049 A 
ATOM     74  H   UNL A   1      44.810  31.630  36.560  1.00  0.00     0.167 HD
ATOM     75  C   UNL A   1      44.352  37.936  33.056  1.00  0.00     0.034 A 
ATOM     76  C   UNL A   1      46.312  31.135  34.131  1.00  0.00     0.034 A 
ATOM     77  C   UNL A   1      45.571  37.276  32.592  1.00  0.00     0.049 A 
ATOM     78  C   UNL A   1      46.489  31.718  32.739  1.00  0.00     0.074 A 
ATOM     79  C   UNL A   1      46.885  37.229  33.029  1.00  0.00     0.029 A 
ATOM     80  N   UNL A   1      45.450  36.276  31.647  1.00  0.00    -0.354 N 
ATOM     81  N   UNL A   1      46.601  32.995  32.486  1.00  0.00    -0.248 NA
ATOM     82  C   UNL A   1      46.475  30.917  31.516  1.00  0.00     0.031 C 
ATOM     83  C   UNL A   1      47.536  36.153  32.351  1.00  0.00     0.029 A 
ATOM     84  C   UNL A   1      46.625  35.571  31.488  1.00  0.00     0.049 A 
ATOM     85  H   UNL A   1      44.623  36.088  31.146  1.00  0.00     0.167 HD
ATOM     86  C   UNL A   1      46.612  33.199  31.130  1.00  0.00     0.074 A 
ATOM     87  C   UNL A   1      46.535  31.864  30.563  1.00  0.00     0.031 C 
ATOM     88  C   UNL A   1      46.637  34.444  30.569  1.00  0.00     0.034 A 
BRANCH  75  89
ATOM     89  C   UNL A   1      44.139  39.426  32.954  1.00  0.00     0.023 A 
ATOM     90  C   UNL A   1      44.303  40.213  34.113  1.00  0.00     0.031 A 
ATOM     91  C   UNL A   1      43.760  40.130  31.795  1.00  0.00     0.131 A 
ATOM     92  C   UNL A   1      44.008  41.587  34.117  1.00  0.00     0.055 A 
ATOM     93  C   UNL A   1      43.410  41.487  31.810  1.00  0.00     0.041 A 
ATOM     94  F   UNL A   1      43.766  39.558  30.584  1.00  0.00    -0.206 F 
ATOM     95  C   UNL A   1      43.523  42.223  32.978  1.00  0.00     0.022 A 
BRANCH  92  96
ATOM     96  S   UNL A   1      44.277  42.536  35.638  1.00  0.00     0.124 S 
ATOM     97  O   UNL A   1      45.069  43.665  35.163  1.00  0.00    -0.237 OA
ATOM     98  O   UNL A   1      42.913  42.834  36.059  1.00  0.00    -0.237 OA
ATOM     99  O   UNL A   1      44.996  41.597  36.499  1.00  0.00    -0.744 OA
ENDBRANCH  92  96
ENDBRANCH  75  89
BRANCH  76 100
ATOM    100  C   UNL A   1      45.460  29.961  34.506  1.00  0.00     0.023 A 
ATOM    101  C   UNL A   1      45.932  29.156  35.570  1.00  0.00     0.031 A 
ATOM    102  C   UNL A   1      44.094  29.902  34.203  1.00  0.00     0.131 A 
ATOM    103  C   UNL A   1      45.026  28.524  36.433  1.00  0.00     0.055 A 
ATOM    104  C   UNL A   1      43.205  29.172  35.002  1.00  0.00     0.041 A 
ATOM    105  F   UNL A   1      43.575  30.659  33.224  1.00  0.00    -0.206 F 
ATOM    106  C   UNL A   1      43.659  28.528  36.157  1.00  0.00     0.022 A 
BRANCH 103 107
ATOM    107  S   UNL A   1      45.623  28.014  38.078  1.00  0.00     0.124 S 
ATOM    108  O   UNL A   1      44.934  28.949  38.958  1.00  0.00    -0.237 OA
ATOM    109  O   UNL A   1      45.186  26.622  38.157  1.00  0.00    -0.237 OA
ATOM    110  O   UNL A   1      47.074  28.177  37.994  1.00  0.00    -0.744 OA
ENDBRANCH 103 107
ENDBRANCH  76 100
BRANCH  88 111
ATOM    111  C   UNL A   1      46.642  34.690  29.081  1.00  0.00     0.023 A 
ATOM    112  C   UNL A   1      47.814  35.035  28.392  1.00  0.00     0.031 A 
ATOM    113  C   UNL A   1      45.452  34.662  28.317  1.00  0.00     0.131 A 
ATOM    114  C   UNL A   1      47.788  35.264  27.006  1.00  0.00     0.055 A 
ATOM    115  C   UNL A   1      45.416  34.983  26.958  1.00  0.00     0.041 A 
ATOM    116  F   UNL A   1      44.281  34.276  28.843  1.00  0.00    -0.206 F 
ATOM    117  C   UNL A   1      46.593  35.274  26.289  1.00  0.00     0.022 A 
BRANCH 114 118
ATOM    118  S   UNL A   1      49.364  35.453  26.133  1.00  0.00     0.124 S 
ATOM    119  O   UNL A   1      49.476  36.900  25.986  1.00  0.00    -0.237 OA
ATOM    120  O   UNL A   1      50.296  34.838  27.075  1.00  0.00    -0.237 OA
ATOM    121  O   UNL A   1      49.163  34.713  24.890  1.00  0.00    -0.744 OA
ENDBRANCH 114 118
ENDBRANCH  88 111
ENDBRANCH  62  63
ENDBRANCH  54  57
ENDBRANCH  52  53
ENDBRANCH  51  52
ENDBRANCH  50  51
ENDBRANCH  49  50
ENDBRANCH  48  49
ENDBRANCH   1  48
TORSDOF 25
ENDMDL
MODEL 3
REMARK VINA RESULT:      -8.4      3.935      8.106
REMARK SMILES Cc1ccc(S(=O)(=O)n2cc(C(=O)C(=O)N[C@H](Cc3c[nH]c4ccccc34)C(=O)NCC(=O)NCCCCCCNC(=O)c3ccc(-c4c5nc(c(-c6cc(S(=O)(=O)[O-])ccc6F)c6ccc([nH]6)c(-c6cc(S(=O)(=O)[O-])ccc6F)c6nc(c(-c7cc(S(=O)(=O)[O-])ccc7F)c7ccc4[nH]7)C=C6)C=C5)cc3)c3ccccc32)cc1
REMARK SMILES IDX 35 1 34 2 32 3 33 4 31 6 30 7 28 8 29 9 17 11 16 12 14 13
REMARK SMILES IDX 15 14 12 16 13 17 11 18 9 19 10 20 112 21 107 22 111 23
REMARK SMILES IDX 108 24 110 25 109 26 6 27 7 28 8 29 5 30 1 31 2 32 3 33
REMARK SMILES IDX 114 34 4 35 113 36 18 37 19 38 20 39 27 40 21 41 22 42 26 43
REMARK SMILES IDX 23 45 25 46 24 47 36 48 37 49 38 50 39 51 40 52 41 53 42 54
REMARK SMILES IDX 43 56 44 57 45 58 106 59 46 60 105 61 47 62 48 63 49 64
REMARK SMILES IDX 99 65 50 66 104 67 98 68 100 69 51 70 103 71 97 72 96 73
REMARK SMILES IDX 52 75 84 76 64 77 83 78 65 79 68 80 82 81 101 82 66 83 67 84
REMARK SMILES IDX 81 86 102 87 69 88 53 89 54 90 62 91 55 92 61 93 63 94 60 95
REMARK SMILES IDX 56 96 57 97 58 98 59 99 85 100 86 101 94 102 87 103 93 104
REMARK SMILES IDX 95 105 92 106 88 107 89 108 90 109 91 110 70 111 71 112
REMARK SMILES IDX 79 113 72 114 78 115 80 116 77 117 73 118 74 119 75 120
REMARK SMILES IDX 76 121
REMARK H PARENT 34 5 30 10 16 15 21 44 41 55 100 74 68 85
REMARK Flexibility Score: inf
ROOT
ATOM      1  C   UNL A   1      34.553  34.991  32.184  1.00  0.00     0.116 C 
ENDROOT
BRANCH   1   2
ATOM      2  N   UNL A   1      33.733  35.849  31.338  1.00  0.00    -0.355 N 
ATOM      3  C   UNL A   1      33.217  35.630  30.091  1.00  0.00     0.239 C 
ATOM      4  O   UNL A   1      32.329  36.396  29.696  1.00  0.00    -0.273 OA
ATOM      5  H   UNL A   1      33.516  36.728  31.726  1.00  0.00     0.163 HD
BRANCH   3   6
ATOM      6  C   UNL A   1      33.562  34.389  29.249  1.00  0.00     0.216 C 
BRANCH   6   7
ATOM      7  N   UNL A   1      34.940  34.230  28.855  1.00  0.00    -0.345 N 
ATOM      8  C   UNL A   1      35.714  33.163  28.568  1.00  0.00     0.243 C 
ATOM      9  O   UNL A   1      36.779  33.451  28.002  1.00  0.00    -0.273 OA
ATOM     10  H   UNL A   1      35.421  35.086  28.780  1.00  0.00     0.164 HD
BRANCH   8  11
ATOM     11  C   UNL A   1      35.430  31.667  28.918  1.00  0.00     0.176 C 
BRANCH  11  12
ATOM     12  N   UNL A   1      35.487  31.157  30.334  1.00  0.00    -0.337 N 
ATOM     13  C   UNL A   1      36.483  30.939  31.278  1.00  0.00     0.293 C 
ATOM     14  O   UNL A   1      36.200  30.400  32.345  1.00  0.00    -0.265 OA
ATOM     15  H   UNL A   1      34.594  30.920  30.677  1.00  0.00     0.164 HD
BRANCH  13  16
ATOM     16  C   UNL A   1      37.921  31.380  31.019  1.00  0.00     0.252 C 
ATOM     17  O   UNL A   1      38.061  32.597  30.883  1.00  0.00    -0.283 OA
BRANCH  16  18
ATOM     18  C   UNL A   1      39.111  30.513  30.896  1.00  0.00     0.054 A 
ATOM     19  N   UNL A   1      40.887  29.111  31.065  1.00  0.00    -0.240 N 
ATOM     20  C   UNL A   1      40.251  30.232  31.660  1.00  0.00     0.117 A 
ATOM     21  C   UNL A   1      39.927  28.558  30.202  1.00  0.00     0.065 A 
ATOM     22  C   UNL A   1      39.279  29.694  29.746  1.00  0.00     0.012 A 
ATOM     23  C   UNL A   1      39.878  27.348  29.495  1.00  0.00     0.028 A 
ATOM     24  C   UNL A   1      38.877  29.749  28.408  1.00  0.00     0.011 A 
ATOM     25  C   UNL A   1      39.427  27.418  28.169  1.00  0.00     0.002 A 
ATOM     26  C   UNL A   1      39.012  28.621  27.609  1.00  0.00     0.001 A 
BRANCH  19  27
ATOM     27  S   UNL A   1      42.469  29.225  30.240  1.00  0.00     0.268 S 
ATOM     28  O   UNL A   1      43.453  28.992  31.279  1.00  0.00    -0.201 OA
ATOM     29  O   UNL A   1      42.384  30.500  29.538  1.00  0.00    -0.201 OA
BRANCH  27  30
ATOM     30  C   UNL A   1      42.845  28.121  28.919  1.00  0.00     0.088 A 
ATOM     31  C   UNL A   1      43.678  26.044  25.231  1.00  0.00     0.044 C 
ATOM     32  C   UNL A   1      43.438  26.750  26.533  1.00  0.00    -0.051 A 
ATOM     33  C   UNL A   1      43.061  28.086  26.480  1.00  0.00     0.005 A 
ATOM     34  C   UNL A   1      43.528  26.113  27.790  1.00  0.00     0.005 A 
ATOM     35  C   UNL A   1      42.786  28.758  27.658  1.00  0.00     0.022 A 
ATOM     36  C   UNL A   1      43.232  26.793  28.995  1.00  0.00     0.022 A 
ENDBRANCH  27  30
ENDBRANCH  19  27
ENDBRANCH  16  18
ENDBRANCH  13  16
ENDBRANCH  11  12
BRANCH  11  37
ATOM     37  C   UNL A   1      35.744  30.615  27.805  1.00  0.00     0.072 C 
BRANCH  37  38
ATOM     38  C   UNL A   1      34.589  29.928  27.123  1.00  0.00    -0.020 A 
ATOM     39  C   UNL A   1      34.578  28.598  26.750  1.00  0.00     0.087 A 
ATOM     40  C   UNL A   1      33.297  30.453  26.755  1.00  0.00     0.003 A 
ATOM     41  N   UNL A   1      33.414  28.338  26.085  1.00  0.00    -0.361 N 
ATOM     42  C   UNL A   1      32.626  29.457  26.044  1.00  0.00     0.046 A 
ATOM     43  C   UNL A   1      32.642  31.693  26.908  1.00  0.00     0.010 A 
ATOM     44  H   UNL A   1      33.177  27.468  25.689  1.00  0.00     0.166 HD
ATOM     45  C   UNL A   1      31.388  29.653  25.421  1.00  0.00     0.026 A 
ATOM     46  C   UNL A   1      31.387  31.898  26.313  1.00  0.00     0.001 A 
ATOM     47  C   UNL A   1      30.778  30.897  25.563  1.00  0.00     0.002 A 
ENDBRANCH  37  38
ENDBRANCH  11  37
ENDBRANCH   8  11
ENDBRANCH   6   7
ENDBRANCH   3   6
ENDBRANCH   1   2
BRANCH   1  48
ATOM     48  C   UNL A   1      34.727  35.523  33.607  1.00  0.00     0.021 C 
BRANCH  48  49
ATOM     49  C   UNL A   1      35.428  34.613  34.626  1.00  0.00     0.002 C 
BRANCH  49  50
ATOM     50  C   UNL A   1      36.170  33.346  34.163  1.00  0.00     0.002 C 
BRANCH  50  51
ATOM     51  C   UNL A   1      37.698  33.253  34.234  1.00  0.00     0.021 C 
BRANCH  51  52
ATOM     52  C   UNL A   1      38.479  34.531  34.532  1.00  0.00     0.116 C 
BRANCH  52  53
ATOM     53  N   UNL A   1      39.721  34.343  35.277  1.00  0.00    -0.352 N 
ATOM     54  C   UNL A   1      41.030  34.275  34.808  1.00  0.00     0.251 C 
ATOM     55  H   UNL A   1      39.617  34.251  36.251  1.00  0.00     0.163 HD
ATOM     56  O   UNL A   1      41.966  34.019  35.543  1.00  0.00    -0.269 OA
BRANCH  54  57
ATOM     57  C   UNL A   1      41.301  34.695  33.407  1.00  0.00     0.039 A 
ATOM     58  C   UNL A   1      40.754  33.899  32.391  1.00  0.00     0.014 A 
ATOM     59  C   UNL A   1      42.279  35.634  33.112  1.00  0.00     0.014 A 
ATOM     60  C   UNL A   1      41.388  33.842  31.152  1.00  0.00     0.010 A 
ATOM     61  C   UNL A   1      42.976  35.494  31.929  1.00  0.00     0.010 A 
ATOM     62  C   UNL A   1      42.574  34.548  30.983  1.00  0.00    -0.014 A 
BRANCH  62  63
ATOM     63  C   UNL A   1      43.522  34.304  29.904  1.00  0.00     0.031 A 
ATOM     64  C   UNL A   1      44.716  33.475  30.140  1.00  0.00     0.074 A 
ATOM     65  C   UNL A   1      43.250  34.760  28.663  1.00  0.00     0.049 A 
ATOM     66  N   UNL A   1      45.760  33.480  29.388  1.00  0.00    -0.248 NA
ATOM     67  C   UNL A   1      44.839  32.588  31.290  1.00  0.00     0.031 C 
ATOM     68  C   UNL A   1      43.917  34.407  27.413  1.00  0.00     0.029 A 
ATOM     69  N   UNL A   1      42.463  35.862  28.335  1.00  0.00    -0.354 N 
ATOM     70  C   UNL A   1      46.569  32.440  29.777  1.00  0.00     0.074 A 
ATOM     71  C   UNL A   1      45.978  31.951  31.001  1.00  0.00     0.031 C 
ATOM     72  C   UNL A   1      43.757  35.415  26.540  1.00  0.00     0.029 A 
ATOM     73  C   UNL A   1      43.103  36.500  27.250  1.00  0.00     0.049 A 
ATOM     74  H   UNL A   1      41.628  36.143  28.774  1.00  0.00     0.167 HD
ATOM     75  C   UNL A   1      47.583  32.049  28.955  1.00  0.00     0.034 A 
ATOM     76  C   UNL A   1      43.580  37.774  27.384  1.00  0.00     0.034 A 
ATOM     77  C   UNL A   1      47.704  32.931  27.794  1.00  0.00     0.049 A 
ATOM     78  C   UNL A   1      45.086  37.886  27.216  1.00  0.00     0.074 A 
ATOM     79  C   UNL A   1      47.294  32.869  26.472  1.00  0.00     0.029 A 
ATOM     80  N   UNL A   1      48.101  34.236  28.007  1.00  0.00    -0.354 N 
ATOM     81  N   UNL A   1      45.884  36.869  27.034  1.00  0.00    -0.248 NA
ATOM     82  C   UNL A   1      45.821  39.147  27.319  1.00  0.00     0.031 C 
ATOM     83  C   UNL A   1      47.419  34.177  25.910  1.00  0.00     0.029 A 
ATOM     84  C   UNL A   1      47.930  35.018  26.883  1.00  0.00     0.049 A 
ATOM     85  H   UNL A   1      48.465  34.570  28.859  1.00  0.00     0.167 HD
ATOM     86  C   UNL A   1      47.188  37.293  27.054  1.00  0.00     0.074 A 
ATOM     87  C   UNL A   1      47.097  38.732  27.231  1.00  0.00     0.031 C 
ATOM     88  C   UNL A   1      48.247  36.434  26.970  1.00  0.00     0.034 A 
BRANCH  75  89
ATOM     89  C   UNL A   1      48.342  30.751  29.078  1.00  0.00     0.023 A 
ATOM     90  C   UNL A   1      47.916  29.645  28.314  1.00  0.00     0.031 A 
ATOM     91  C   UNL A   1      49.446  30.515  29.919  1.00  0.00     0.131 A 
ATOM     92  C   UNL A   1      48.502  28.377  28.466  1.00  0.00     0.055 A 
ATOM     93  C   UNL A   1      49.993  29.239  30.115  1.00  0.00     0.041 A 
ATOM     94  F   UNL A   1      50.086  31.511  30.544  1.00  0.00    -0.206 F 
ATOM     95  C   UNL A   1      49.515  28.157  29.394  1.00  0.00     0.022 A 
BRANCH  92  96
ATOM     96  S   UNL A   1      47.921  27.013  27.421  1.00  0.00     0.124 S 
ATOM     97  O   UNL A   1      46.763  27.603  26.758  1.00  0.00    -0.237 OA
ATOM     98  O   UNL A   1      49.084  26.752  26.581  1.00  0.00    -0.237 OA
ATOM     99  O   UNL A   1      47.609  25.959  28.386  1.00  0.00    -0.744 OA
ENDBRANCH  92  96
ENDBRANCH  75  89
BRANCH  76 100
ATOM    100  C   UNL A   1      42.718  38.594  28.294  1.00  0.00     0.023 A 
ATOM    101  C   UNL A   1      43.243  38.865  29.581  1.00  0.00     0.031 A 
ATOM    102  C   UNL A   1      41.715  39.442  27.809  1.00  0.00     0.131 A 
ATOM    103  C   UNL A   1      42.941  40.073  30.226  1.00  0.00     0.055 A 
ATOM    104  C   UNL A   1      41.332  40.590  28.515  1.00  0.00     0.041 A 
ATOM    105  F   UNL A   1      41.194  39.259  26.587  1.00  0.00    -0.206 F 
ATOM    106  C   UNL A   1      41.987  40.942  29.698  1.00  0.00     0.022 A 
BRANCH 103 107
ATOM    107  S   UNL A   1      44.058  40.638  31.551  1.00  0.00     0.124 S 
ATOM    108  O   UNL A   1      45.189  41.162  30.796  1.00  0.00    -0.237 OA
ATOM    109  O   UNL A   1      43.244  41.629  32.252  1.00  0.00    -0.237 OA
ATOM    110  O   UNL A   1      44.324  39.429  32.330  1.00  0.00    -0.744 OA
ENDBRANCH 103 107
ENDBRANCH  76 100
BRANCH  88 111
ATOM    111  C   UNL A   1      49.687  36.880  26.999  1.00  0.00     0.023 A 
ATOM    112  C   UNL A   1      50.327  37.237  28.195  1.00  0.00     0.031 A 
ATOM    113  C   UNL A   1      50.443  37.037  25.814  1.00  0.00     0.131 A 
ATOM    114  C   UNL A   1      51.670  37.654  28.192  1.00  0.00     0.055 A 
ATOM    115  C   UNL A   1      51.745  37.542  25.806  1.00  0.00     0.041 A 
ATOM    116  F   UNL A   1      49.970  36.661  24.617  1.00  0.00    -0.206 F 
ATOM    117  C   UNL A   1      52.374  37.842  27.003  1.00  0.00     0.022 A 
BRANCH 114 118
ATOM    118  S   UNL A   1      52.515  37.854  29.781  1.00  0.00     0.124 S 
ATOM    119  O   UNL A   1      51.419  37.766  30.739  1.00  0.00    -0.237 OA
ATOM    120  O   UNL A   1      53.438  36.722  29.767  1.00  0.00    -0.237 OA
ATOM    121  O   UNL A   1      53.146  39.168  29.674  1.00  0.00    -0.744 OA
ENDBRANCH 114 118
ENDBRANCH  88 111
ENDBRANCH  62  63
ENDBRANCH  54  57
ENDBRANCH  52  53
ENDBRANCH  51  52
ENDBRANCH  50  51
ENDBRANCH  49  50
ENDBRANCH  48  49
ENDBRANCH   1  48
TORSDOF 25
ENDMDL
