MODEL 1
REMARK VINA RESULT:     -11.2      0.000      0.000
REMARK SMILES C[C@]1(CNC(=O)N2CCOC[C@H]2C(=O)NCCCCCCNC(=O)c2ccc(-c3c4nc(c(-c5cc(S(=O)(=O)[O-])ccc5F)c5ccc([nH]5)c(-c5cc(S(=O)(=O)[O-])ccc5F)c5nc(c(-c6cc(S(=O)(=O)[O-])ccc6F)c6ccc3[nH]6)C=C5)C=C4)cc2)CCCO1
REMARK SMILES IDX 18 1 17 2 16 3 15 4 13 5 14 6 12 8 7 9 8 10 9 11 11 12 10 13
REMARK SMILES IDX 5 14 4 15 6 17 3 18 2 19 1 20 88 21 91 22 89 23 90 24 19 25
REMARK SMILES IDX 20 26 21 27 22 28 23 29 24 31 25 32 26 33 87 34 27 35 86 36
REMARK SMILES IDX 28 37 29 38 30 39 80 40 31 41 85 42 79 43 81 44 32 45 84 46
REMARK SMILES IDX 78 47 77 48 33 50 65 51 45 52 64 53 46 54 49 55 63 56 82 57
REMARK SMILES IDX 47 58 48 59 62 61 83 62 50 63 34 64 35 65 43 66 36 67 42 68
REMARK SMILES IDX 44 69 41 70 37 71 38 72 39 73 40 74 66 75 67 76 75 77 68 78
REMARK SMILES IDX 74 79 76 80 73 81 69 82 70 83 71 84 72 85 51 86 52 87 60 88
REMARK SMILES IDX 53 89 59 90 61 91 58 92 54 93 55 94 56 95 57 96
REMARK H PARENT 15 7 4 16 22 30 81 49 49 60
REMARK Flexibility Score: inf
ROOT
ATOM      1  C   UNL A   1      36.794  21.788  24.205  1.00  0.00     0.002 C 
ENDROOT
BRANCH   1   2
ATOM      2  C   UNL A   1      37.401  22.962  24.973  1.00  0.00     0.021 C 
BRANCH   2   3
ATOM      3  C   UNL A   1      36.481  23.550  26.053  1.00  0.00     0.116 C 
BRANCH   3   4
ATOM      4  N   UNL A   1      35.532  24.506  25.500  1.00  0.00    -0.354 N 
ATOM      5  C   UNL A   1      34.238  24.465  25.086  1.00  0.00     0.245 C 
ATOM      6  O   UNL A   1      33.769  25.576  24.792  1.00  0.00    -0.273 OA
ATOM      7  H   UNL A   1      35.925  25.402  25.401  1.00  0.00     0.163 HD
BRANCH   5   8
ATOM      8  C   UNL A   1      33.325  23.207  24.997  1.00  0.00     0.202 C 
ATOM      9  N   UNL A   1      32.910  22.532  26.245  1.00  0.00    -0.308 N 
ATOM     10  C   UNL A   1      31.782  23.166  26.887  1.00  0.00     0.151 C 
ATOM     11  C   UNL A   1      30.603  23.196  25.913  1.00  0.00     0.182 C 
ATOM     12  C   UNL A   1      32.111  23.381  24.066  1.00  0.00     0.195 C 
ATOM     13  O   UNL A   1      30.942  23.915  24.714  1.00  0.00    -0.377 OA
BRANCH   9  14
ATOM     14  C   UNL A   1      33.524  21.369  26.610  1.00  0.00     0.318 C 
ATOM     15  N   UNL A   1      33.270  20.199  25.979  1.00  0.00    -0.335 N 
ATOM     16  H   UNL A   1      33.542  19.414  26.507  1.00  0.00     0.165 HD
ATOM     17  O   UNL A   1      34.366  21.336  27.510  1.00  0.00    -0.249 OA
BRANCH  15  18
ATOM     18  C   UNL A   1      32.683  19.840  24.690  1.00  0.00     0.152 C 
BRANCH  18  19
ATOM     19  C   UNL A   1      32.801  18.341  24.307  1.00  0.00     0.083 C 
ATOM     20  C   UNL A   1      32.348  18.135  22.858  1.00  0.00     0.044 C 
ATOM     21  C   UNL A   1      34.232  17.825  24.517  1.00  0.00     0.039 C 
ATOM     22  O   UNL A   1      31.967  17.519  25.150  1.00  0.00    -0.373 OA
ATOM     23  C   UNL A   1      34.024  16.371  24.857  1.00  0.00     0.031 C 
ATOM     24  C   UNL A   1      32.727  16.406  25.633  1.00  0.00     0.161 C 
ENDBRANCH  18  19
ENDBRANCH  15  18
ENDBRANCH   9  14
ENDBRANCH   5   8
ENDBRANCH   3   4
ENDBRANCH   2   3
ENDBRANCH   1   2
BRANCH   1  25
ATOM     25  C   UNL A   1      36.816  20.452  24.954  1.00  0.00     0.002 C 
BRANCH  25  26
ATOM     26  C   UNL A   1      38.144  19.685  24.918  1.00  0.00     0.021 C 
BRANCH  26  27
ATOM     27  C   UNL A   1      39.119  20.011  26.049  1.00  0.00     0.116 C 
BRANCH  27  28
ATOM     28  N   UNL A   1      40.304  19.171  26.005  1.00  0.00    -0.352 N 
ATOM     29  C   UNL A   1      41.632  19.520  26.002  1.00  0.00     0.251 C 
ATOM     30  H   UNL A   1      40.127  18.204  25.972  1.00  0.00     0.163 HD
ATOM     31  O   UNL A   1      42.477  18.678  25.709  1.00  0.00    -0.269 OA
BRANCH  29  32
ATOM     32  C   UNL A   1      42.043  20.900  26.340  1.00  0.00     0.039 A 
ATOM     33  C   UNL A   1      42.278  21.229  27.677  1.00  0.00     0.014 A 
ATOM     34  C   UNL A   1      42.150  21.879  25.348  1.00  0.00     0.014 A 
ATOM     35  C   UNL A   1      42.672  22.527  28.015  1.00  0.00     0.010 A 
ATOM     36  C   UNL A   1      42.604  23.155  25.678  1.00  0.00     0.010 A 
ATOM     37  C   UNL A   1      42.864  23.494  27.015  1.00  0.00    -0.014 A 
BRANCH  37  38
ATOM     38  C   UNL A   1      43.312  24.872  27.347  1.00  0.00     0.031 A 
ATOM     39  C   UNL A   1      42.353  25.833  27.998  1.00  0.00     0.074 A 
ATOM     40  C   UNL A   1      44.554  25.275  27.011  1.00  0.00     0.049 A 
ATOM     41  N   UNL A   1      42.505  27.105  28.261  1.00  0.00    -0.248 NA
ATOM     42  C   UNL A   1      41.037  25.295  28.376  1.00  0.00     0.031 C 
ATOM     43  C   UNL A   1      45.563  24.439  26.356  1.00  0.00     0.029 A 
ATOM     44  N   UNL A   1      45.176  26.488  27.160  1.00  0.00    -0.354 N 
ATOM     45  C   UNL A   1      41.305  27.522  28.829  1.00  0.00     0.074 A 
ATOM     46  C   UNL A   1      40.415  26.381  28.813  1.00  0.00     0.031 C 
ATOM     47  C   UNL A   1      46.679  25.163  26.170  1.00  0.00     0.029 A 
ATOM     48  C   UNL A   1      46.453  26.524  26.648  1.00  0.00     0.049 A 
ATOM     49  H   UNL A   1      44.749  27.262  27.594  1.00  0.00     0.167 HD
ATOM     50  C   UNL A   1      40.984  28.737  29.338  1.00  0.00     0.034 A 
ATOM     51  C   UNL A   1      47.333  27.540  26.557  1.00  0.00     0.034 A 
ATOM     52  C   UNL A   1      41.887  29.862  29.359  1.00  0.00     0.049 A 
ATOM     53  C   UNL A   1      46.942  28.891  27.108  1.00  0.00     0.074 A 
ATOM     54  C   UNL A   1      41.673  31.131  29.869  1.00  0.00     0.029 A 
ATOM     55  N   UNL A   1      43.180  29.853  28.851  1.00  0.00    -0.354 N 
ATOM     56  N   UNL A   1      45.810  29.260  27.662  1.00  0.00    -0.248 NA
ATOM     57  C   UNL A   1      47.950  29.957  27.035  1.00  0.00     0.031 C 
ATOM     58  C   UNL A   1      42.813  31.903  29.621  1.00  0.00     0.029 A 
ATOM     59  C   UNL A   1      43.767  31.097  29.021  1.00  0.00     0.049 A 
ATOM     60  H   UNL A   1      43.615  29.076  28.432  1.00  0.00     0.167 HD
ATOM     61  C   UNL A   1      45.988  30.589  28.038  1.00  0.00     0.074 A 
ATOM     62  C   UNL A   1      47.338  30.951  27.660  1.00  0.00     0.031 C 
ATOM     63  C   UNL A   1      45.117  31.436  28.643  1.00  0.00     0.034 A 
BRANCH  50  64
ATOM     64  C   UNL A   1      39.595  28.912  29.901  1.00  0.00     0.023 A 
ATOM     65  C   UNL A   1      38.539  29.401  29.111  1.00  0.00     0.031 A 
ATOM     66  C   UNL A   1      39.321  28.595  31.242  1.00  0.00     0.131 A 
ATOM     67  C   UNL A   1      37.278  29.617  29.683  1.00  0.00     0.055 A 
ATOM     68  C   UNL A   1      38.043  28.740  31.786  1.00  0.00     0.041 A 
ATOM     69  F   UNL A   1      40.293  28.144  32.052  1.00  0.00    -0.206 F 
ATOM     70  C   UNL A   1      37.014  29.266  31.008  1.00  0.00     0.022 A 
BRANCH  67  71
ATOM     71  S   UNL A   1      36.019  30.479  28.703  1.00  0.00     0.124 S 
ATOM     72  O   UNL A   1      35.387  31.323  29.715  1.00  0.00    -0.237 OA
ATOM     73  O   UNL A   1      36.820  31.174  27.701  1.00  0.00    -0.237 OA
ATOM     74  O   UNL A   1      35.182  29.396  28.193  1.00  0.00    -0.744 OA
ENDBRANCH  67  71
ENDBRANCH  50  64
BRANCH  51  75
ATOM     75  C   UNL A   1      48.662  27.345  25.907  1.00  0.00     0.023 A 
ATOM     76  C   UNL A   1      48.850  27.622  24.545  1.00  0.00     0.031 A 
ATOM     77  C   UNL A   1      49.748  26.809  26.624  1.00  0.00     0.131 A 
ATOM     78  C   UNL A   1      50.066  27.299  23.924  1.00  0.00     0.055 A 
ATOM     79  C   UNL A   1      50.978  26.549  26.017  1.00  0.00     0.041 A 
ATOM     80  F   UNL A   1      49.627  26.529  27.932  1.00  0.00    -0.206 F 
ATOM     81  C   UNL A   1      51.136  26.777  24.654  1.00  0.00     0.022 A 
BRANCH  78  82
ATOM     82  S   UNL A   1      50.188  27.457  22.121  1.00  0.00     0.124 S 
ATOM     83  O   UNL A   1      51.628  27.356  21.912  1.00  0.00    -0.237 OA
ATOM     84  O   UNL A   1      49.392  26.321  21.666  1.00  0.00    -0.237 OA
ATOM     85  O   UNL A   1      49.607  28.771  21.855  1.00  0.00    -0.744 OA
ENDBRANCH  78  82
ENDBRANCH  51  75
BRANCH  63  86
ATOM     86  C   UNL A   1      45.626  32.813  28.987  1.00  0.00     0.023 A 
ATOM     87  C   UNL A   1      45.545  33.882  28.078  1.00  0.00     0.031 A 
ATOM     88  C   UNL A   1      46.207  33.055  30.244  1.00  0.00     0.131 A 
ATOM     89  C   UNL A   1      46.088  35.130  28.418  1.00  0.00     0.055 A 
ATOM     90  C   UNL A   1      46.693  34.314  30.600  1.00  0.00     0.041 A 
ATOM     91  F   UNL A   1      46.309  32.070  31.151  1.00  0.00    -0.206 F 
ATOM     92  C   UNL A   1      46.646  35.357  29.679  1.00  0.00     0.022 A 
BRANCH  89  93
ATOM     93  S   UNL A   1      46.129  36.434  27.158  1.00  0.00     0.124 S 
ATOM     94  O   UNL A   1      44.731  36.848  27.104  1.00  0.00    -0.237 OA
ATOM     95  O   UNL A   1      47.058  37.398  27.737  1.00  0.00    -0.237 OA
ATOM     96  O   UNL A   1      46.618  35.743  25.965  1.00  0.00    -0.744 OA
ENDBRANCH  89  93
ENDBRANCH  63  86
ENDBRANCH  37  38
ENDBRANCH  29  32
ENDBRANCH  27  28
ENDBRANCH  26  27
ENDBRANCH  25  26
ENDBRANCH   1  25
TORSDOF 19
ENDMDL
MODEL 2
REMARK VINA RESULT:     -11.2      1.377      7.581
REMARK SMILES C[C@]1(CNC(=O)N2CCOC[C@H]2C(=O)NCCCCCCNC(=O)c2ccc(-c3c4nc(c(-c5cc(S(=O)(=O)[O-])ccc5F)c5ccc([nH]5)c(-c5cc(S(=O)(=O)[O-])ccc5F)c5nc(c(-c6cc(S(=O)(=O)[O-])ccc6F)c6ccc3[nH]6)C=C5)C=C4)cc2)CCCO1
REMARK SMILES IDX 18 1 17 2 16 3 15 4 13 5 14 6 12 8 7 9 8 10 9 11 11 12 10 13
REMARK SMILES IDX 5 14 4 15 6 17 3 18 2 19 1 20 88 21 91 22 89 23 90 24 19 25
REMARK SMILES IDX 20 26 21 27 22 28 23 29 24 31 25 32 26 33 87 34 27 35 86 36
REMARK SMILES IDX 28 37 29 38 30 39 80 40 31 41 85 42 79 43 81 44 32 45 84 46
REMARK SMILES IDX 78 47 77 48 33 50 65 51 45 52 64 53 46 54 49 55 63 56 82 57
REMARK SMILES IDX 47 58 48 59 62 61 83 62 50 63 34 64 35 65 43 66 36 67 42 68
REMARK SMILES IDX 44 69 41 70 37 71 38 72 39 73 40 74 66 75 67 76 75 77 68 78
REMARK SMILES IDX 74 79 76 80 73 81 69 82 70 83 71 84 72 85 51 86 52 87 60 88
REMARK SMILES IDX 53 89 59 90 61 91 58 92 54 93 55 94 56 95 57 96
REMARK H PARENT 15 7 4 16 22 30 81 49 49 60
REMARK Flexibility Score: inf
ROOT
ATOM      1  C   UNL A   1      36.975  21.871  24.242  1.00  0.00     0.002 C 
ENDROOT
BRANCH   1   2
ATOM      2  C   UNL A   1      37.429  23.079  25.060  1.00  0.00     0.021 C 
BRANCH   2   3
ATOM      3  C   UNL A   1      36.369  23.613  26.035  1.00  0.00     0.116 C 
BRANCH   3   4
ATOM      4  N   UNL A   1      35.448  24.535  25.386  1.00  0.00    -0.354 N 
ATOM      5  C   UNL A   1      34.158  24.481  24.958  1.00  0.00     0.245 C 
ATOM      6  O   UNL A   1      33.715  25.570  24.560  1.00  0.00    -0.273 OA
ATOM      7  H   UNL A   1      35.859  25.411  25.215  1.00  0.00     0.163 HD
BRANCH   5   8
ATOM      8  C   UNL A   1      33.222  23.238  24.966  1.00  0.00     0.202 C 
ATOM      9  N   UNL A   1      32.874  22.609  26.258  1.00  0.00    -0.308 N 
ATOM     10  C   UNL A   1      31.798  23.283  26.947  1.00  0.00     0.151 C 
ATOM     11  C   UNL A   1      30.562  23.303  26.046  1.00  0.00     0.182 C 
ATOM     12  C   UNL A   1      31.956  23.403  24.105  1.00  0.00     0.195 C 
ATOM     13  O   UNL A   1      30.837  23.977  24.806  1.00  0.00    -0.377 OA
BRANCH   9  14
ATOM     14  C   UNL A   1      33.491  21.448  26.622  1.00  0.00     0.318 C 
ATOM     15  N   UNL A   1      33.167  20.260  26.061  1.00  0.00    -0.335 N 
ATOM     16  H   UNL A   1      33.463  19.490  26.598  1.00  0.00     0.165 HD
ATOM     17  O   UNL A   1      34.399  21.431  27.456  1.00  0.00    -0.249 OA
BRANCH  15  18
ATOM     18  C   UNL A   1      32.476  19.864  24.835  1.00  0.00     0.152 C 
BRANCH  18  19
ATOM     19  C   UNL A   1      32.786  18.427  24.339  1.00  0.00     0.083 C 
ATOM     20  C   UNL A   1      32.358  18.276  22.876  1.00  0.00     0.044 C 
ATOM     21  C   UNL A   1      34.273  18.087  24.517  1.00  0.00     0.039 C 
ATOM     22  O   UNL A   1      32.070  17.442  25.111  1.00  0.00    -0.373 OA
ATOM     23  C   UNL A   1      34.258  16.596  24.743  1.00  0.00     0.031 C 
ATOM     24  C   UNL A   1      32.971  16.402  25.512  1.00  0.00     0.161 C 
ENDBRANCH  18  19
ENDBRANCH  15  18
ENDBRANCH   9  14
ENDBRANCH   5   8
ENDBRANCH   3   4
ENDBRANCH   2   3
ENDBRANCH   1   2
BRANCH   1  25
ATOM     25  C   UNL A   1      36.996  20.539  25.000  1.00  0.00     0.002 C 
BRANCH  25  26
ATOM     26  C   UNL A   1      38.323  19.769  24.964  1.00  0.00     0.021 C 
BRANCH  26  27
ATOM     27  C   UNL A   1      39.330  20.152  26.048  1.00  0.00     0.116 C 
BRANCH  27  28
ATOM     28  N   UNL A   1      40.488  19.274  26.049  1.00  0.00    -0.352 N 
ATOM     29  C   UNL A   1      41.826  19.580  26.027  1.00  0.00     0.251 C 
ATOM     30  H   UNL A   1      40.281  18.312  26.068  1.00  0.00     0.163 HD
ATOM     31  O   UNL A   1      42.644  18.698  25.781  1.00  0.00    -0.269 OA
BRANCH  29  32
ATOM     32  C   UNL A   1      42.281  20.963  26.292  1.00  0.00     0.039 A 
ATOM     33  C   UNL A   1      42.510  21.819  25.212  1.00  0.00     0.014 A 
ATOM     34  C   UNL A   1      42.525  21.400  27.596  1.00  0.00     0.014 A 
ATOM     35  C   UNL A   1      42.934  23.131  25.442  1.00  0.00     0.010 A 
ATOM     36  C   UNL A   1      42.888  22.726  27.828  1.00  0.00     0.010 A 
ATOM     37  C   UNL A   1      43.100  23.603  26.754  1.00  0.00    -0.014 A 
BRANCH  37  38
ATOM     38  C   UNL A   1      43.522  25.003  27.025  1.00  0.00     0.031 A 
ATOM     39  C   UNL A   1      44.955  25.409  26.801  1.00  0.00     0.074 A 
ATOM     40  C   UNL A   1      42.636  25.887  27.525  1.00  0.00     0.049 A 
ATOM     41  N   UNL A   1      45.550  26.539  27.084  1.00  0.00    -0.248 NA
ATOM     42  C   UNL A   1      45.841  24.396  26.206  1.00  0.00     0.031 C 
ATOM     43  C   UNL A   1      41.227  25.602  27.805  1.00  0.00     0.029 A 
ATOM     44  N   UNL A   1      42.788  27.198  27.899  1.00  0.00    -0.354 N 
ATOM     45  C   UNL A   1      46.879  26.373  26.709  1.00  0.00     0.074 A 
ATOM     46  C   UNL A   1      47.014  25.011  26.236  1.00  0.00     0.031 C 
ATOM     47  C   UNL A   1      40.644  26.708  28.296  1.00  0.00     0.029 A 
ATOM     48  C   UNL A   1      41.643  27.765  28.411  1.00  0.00     0.049 A 
ATOM     49  H   UNL A   1      43.637  27.688  27.810  1.00  0.00     0.167 HD
ATOM     50  C   UNL A   1      47.888  27.279  26.733  1.00  0.00     0.034 A 
ATOM     51  C   UNL A   1      41.429  28.991  28.930  1.00  0.00     0.034 A 
ATOM     52  C   UNL A   1      47.735  28.637  27.195  1.00  0.00     0.049 A 
ATOM     53  C   UNL A   1      42.575  29.974  28.970  1.00  0.00     0.074 A 
ATOM     54  C   UNL A   1      48.683  29.644  27.244  1.00  0.00     0.029 A 
ATOM     55  N   UNL A   1      46.555  29.181  27.685  1.00  0.00    -0.354 N 
ATOM     56  N   UNL A   1      43.820  29.805  28.589  1.00  0.00    -0.248 NA
ATOM     57  C   UNL A   1      42.284  31.314  29.496  1.00  0.00     0.031 C 
ATOM     58  C   UNL A   1      48.093  30.778  27.812  1.00  0.00     0.029 A 
ATOM     59  C   UNL A   1      46.756  30.503  28.052  1.00  0.00     0.049 A 
ATOM     60  H   UNL A   1      45.700  28.699  27.760  1.00  0.00     0.167 HD
ATOM     61  C   UNL A   1      44.448  31.031  28.793  1.00  0.00     0.074 A 
ATOM     62  C   UNL A   1      43.442  31.931  29.318  1.00  0.00     0.031 C 
ATOM     63  C   UNL A   1      45.738  31.386  28.567  1.00  0.00     0.034 A 
BRANCH  50  64
ATOM     64  C   UNL A   1      49.245  26.823  26.259  1.00  0.00     0.023 A 
ATOM     65  C   UNL A   1      49.788  27.273  25.042  1.00  0.00     0.031 A 
ATOM     66  C   UNL A   1      50.007  25.923  27.025  1.00  0.00     0.131 A 
ATOM     67  C   UNL A   1      51.020  26.775  24.597  1.00  0.00     0.055 A 
ATOM     68  C   UNL A   1      51.269  25.491  26.614  1.00  0.00     0.041 A 
ATOM     69  F   UNL A   1      49.533  25.442  28.186  1.00  0.00    -0.206 F 
ATOM     70  C   UNL A   1      51.778  25.908  25.386  1.00  0.00     0.022 A 
BRANCH  67  71
ATOM     71  S   UNL A   1      51.564  27.184  22.916  1.00  0.00     0.124 S 
ATOM     72  O   UNL A   1      50.399  26.788  22.127  1.00  0.00    -0.237 OA
ATOM     73  O   UNL A   1      51.816  28.618  23.006  1.00  0.00    -0.237 OA
ATOM     74  O   UNL A   1      52.749  26.351  22.727  1.00  0.00    -0.744 OA
ENDBRANCH  67  71
ENDBRANCH  50  64
BRANCH  51  75
ATOM     75  C   UNL A   1      40.091  29.367  29.474  1.00  0.00     0.023 A 
ATOM     76  C   UNL A   1      39.850  29.383  30.856  1.00  0.00     0.031 A 
ATOM     77  C   UNL A   1      39.011  29.646  28.616  1.00  0.00     0.131 A 
ATOM     78  C   UNL A   1      38.551  29.603  31.340  1.00  0.00     0.055 A 
ATOM     79  C   UNL A   1      37.734  29.927  29.103  1.00  0.00     0.041 A 
ATOM     80  F   UNL A   1      39.184  29.648  27.285  1.00  0.00    -0.206 F 
ATOM     81  C   UNL A   1      37.494  29.888  30.473  1.00  0.00     0.022 A 
BRANCH  78  82
ATOM     82  S   UNL A   1      38.238  29.387  33.113  1.00  0.00     0.124 S 
ATOM     83  O   UNL A   1      37.348  28.232  33.118  1.00  0.00    -0.237 OA
ATOM     84  O   UNL A   1      39.584  29.162  33.631  1.00  0.00    -0.237 OA
ATOM     85  O   UNL A   1      37.623  30.653  33.506  1.00  0.00    -0.744 OA
ENDBRANCH  78  82
ENDBRANCH  51  75
BRANCH  63  86
ATOM     86  C   UNL A   1      46.111  32.823  28.828  1.00  0.00     0.023 A 
ATOM     87  C   UNL A   1      45.791  33.848  27.922  1.00  0.00     0.031 A 
ATOM     88  C   UNL A   1      46.804  33.169  30.002  1.00  0.00     0.131 A 
ATOM     89  C   UNL A   1      46.212  35.162  28.177  1.00  0.00     0.055 A 
ATOM     90  C   UNL A   1      47.170  34.486  30.278  1.00  0.00     0.041 A 
ATOM     91  F   UNL A   1      47.134  32.228  30.902  1.00  0.00    -0.206 F 
ATOM     92  C   UNL A   1      46.886  35.490  29.357  1.00  0.00     0.022 A 
BRANCH  89  93
ATOM     93  S   UNL A   1      45.941  36.425  26.904  1.00  0.00     0.124 S 
ATOM     94  O   UNL A   1      46.610  37.586  27.481  1.00  0.00    -0.237 OA
ATOM     95  O   UNL A   1      46.584  35.834  25.736  1.00  0.00    -0.237 OA
ATOM     96  O   UNL A   1      44.484  36.524  26.824  1.00  0.00    -0.744 OA
ENDBRANCH  89  93
ENDBRANCH  63  86
ENDBRANCH  37  38
ENDBRANCH  29  32
ENDBRANCH  27  28
ENDBRANCH  26  27
ENDBRANCH  25  26
ENDBRANCH   1  25
TORSDOF 19
ENDMDL
MODEL 3
REMARK VINA RESULT:     -11.1      6.110     11.055
REMARK SMILES C[C@]1(CNC(=O)N2CCOC[C@H]2C(=O)NCCCCCCNC(=O)c2ccc(-c3c4nc(c(-c5cc(S(=O)(=O)[O-])ccc5F)c5ccc([nH]5)c(-c5cc(S(=O)(=O)[O-])ccc5F)c5nc(c(-c6cc(S(=O)(=O)[O-])ccc6F)c6ccc3[nH]6)C=C5)C=C4)cc2)CCCO1
REMARK SMILES IDX 18 1 17 2 16 3 15 4 13 5 14 6 12 8 7 9 8 10 9 11 11 12 10 13
REMARK SMILES IDX 5 14 4 15 6 17 3 18 2 19 1 20 88 21 91 22 89 23 90 24 19 25
REMARK SMILES IDX 20 26 21 27 22 28 23 29 24 31 25 32 26 33 87 34 27 35 86 36
REMARK SMILES IDX 28 37 29 38 30 39 80 40 31 41 85 42 79 43 81 44 32 45 84 46
REMARK SMILES IDX 78 47 77 48 33 50 65 51 45 52 64 53 46 54 49 55 63 56 82 57
REMARK SMILES IDX 47 58 48 59 62 61 83 62 50 63 34 64 35 65 43 66 36 67 42 68
REMARK SMILES IDX 44 69 41 70 37 71 38 72 39 73 40 74 66 75 67 76 75 77 68 78
REMARK SMILES IDX 74 79 76 80 73 81 69 82 70 83 71 84 72 85 51 86 52 87 60 88
REMARK SMILES IDX 53 89 59 90 61 91 58 92 54 93 55 94 56 95 57 96
REMARK H PARENT 15 7 4 16 22 30 81 49 49 60
REMARK Flexibility Score: inf
ROOT
ATOM      1  C   UNL A   1      32.887  29.574  25.989  1.00  0.00     0.002 C 
ENDROOT
BRANCH   1   2
ATOM      2  C   UNL A   1      33.482  28.954  24.725  1.00  0.00     0.021 C 
BRANCH   2   3
ATOM      3  C   UNL A   1      33.418  27.420  24.687  1.00  0.00     0.116 C 
BRANCH   3   4
ATOM      4  N   UNL A   1      33.570  26.902  23.335  1.00  0.00    -0.354 N 
ATOM      5  C   UNL A   1      33.471  25.682  22.743  1.00  0.00     0.245 C 
ATOM      6  O   UNL A   1      33.561  25.714  21.506  1.00  0.00    -0.273 OA
ATOM      7  H   UNL A   1      33.803  27.608  22.691  1.00  0.00     0.163 HD
BRANCH   5   8
ATOM      8  C   UNL A   1      33.220  24.318  23.451  1.00  0.00     0.202 C 
ATOM      9  N   UNL A   1      34.267  23.767  24.338  1.00  0.00    -0.308 N 
ATOM     10  C   UNL A   1      34.243  24.332  25.667  1.00  0.00     0.151 C 
ATOM     11  C   UNL A   1      32.869  24.084  26.292  1.00  0.00     0.182 C 
ATOM     12  C   UNL A   1      31.844  24.213  24.135  1.00  0.00     0.195 C 
ATOM     13  O   UNL A   1      31.825  24.675  25.498  1.00  0.00    -0.377 OA
BRANCH   9  14
ATOM     14  C   UNL A   1      35.055  22.749  23.885  1.00  0.00     0.318 C 
ATOM     15  N   UNL A   1      35.067  21.534  24.482  1.00  0.00    -0.335 N 
ATOM     16  H   UNL A   1      35.863  21.003  24.251  1.00  0.00     0.165 HD
ATOM     17  O   UNL A   1      35.770  22.878  22.889  1.00  0.00    -0.249 OA
BRANCH  15  18
ATOM     18  C   UNL A   1      34.161  20.834  25.391  1.00  0.00     0.152 C 
BRANCH  18  19
ATOM     19  C   UNL A   1      33.347  19.679  24.749  1.00  0.00     0.083 C 
ATOM     20  C   UNL A   1      32.483  20.220  23.606  1.00  0.00     0.044 C 
ATOM     21  C   UNL A   1      34.271  18.555  24.258  1.00  0.00     0.039 C 
ATOM     22  O   UNL A   1      32.468  19.061  25.712  1.00  0.00    -0.373 OA
ATOM     23  C   UNL A   1      33.417  17.321  24.405  1.00  0.00     0.031 C 
ATOM     24  C   UNL A   1      32.609  17.638  25.643  1.00  0.00     0.161 C 
ENDBRANCH  18  19
ENDBRANCH  15  18
ENDBRANCH   9  14
ENDBRANCH   5   8
ENDBRANCH   3   4
ENDBRANCH   2   3
ENDBRANCH   1   2
BRANCH   1  25
ATOM     25  C   UNL A   1      31.591  30.363  25.767  1.00  0.00     0.002 C 
BRANCH  25  26
ATOM     26  C   UNL A   1      31.438  31.645  26.594  1.00  0.00     0.021 C 
BRANCH  26  27
ATOM     27  C   UNL A   1      32.731  32.196  27.193  1.00  0.00     0.116 C 
BRANCH  27  28
ATOM     28  N   UNL A   1      32.632  33.615  27.490  1.00  0.00    -0.352 N 
ATOM     29  C   UNL A   1      33.272  34.363  28.448  1.00  0.00     0.251 C 
ATOM     30  H   UNL A   1      32.011  34.118  26.916  1.00  0.00     0.163 HD
ATOM     31  O   UNL A   1      32.868  35.495  28.700  1.00  0.00    -0.269 OA
BRANCH  29  32
ATOM     32  C   UNL A   1      34.433  33.808  29.176  1.00  0.00     0.039 A 
ATOM     33  C   UNL A   1      34.212  32.891  30.207  1.00  0.00     0.014 A 
ATOM     34  C   UNL A   1      35.733  34.223  28.875  1.00  0.00     0.014 A 
ATOM     35  C   UNL A   1      35.298  32.351  30.902  1.00  0.00     0.010 A 
ATOM     36  C   UNL A   1      36.818  33.638  29.526  1.00  0.00     0.010 A 
ATOM     37  C   UNL A   1      36.612  32.700  30.549  1.00  0.00    -0.014 A 
BRANCH  37  38
ATOM     38  C   UNL A   1      37.783  32.116  31.255  1.00  0.00     0.031 A 
ATOM     39  C   UNL A   1      38.570  31.008  30.607  1.00  0.00     0.074 A 
ATOM     40  C   UNL A   1      38.099  32.538  32.495  1.00  0.00     0.049 A 
ATOM     41  N   UNL A   1      39.546  30.288  31.097  1.00  0.00    -0.248 NA
ATOM     42  C   UNL A   1      38.188  30.646  29.233  1.00  0.00     0.031 C 
ATOM     43  C   UNL A   1      37.394  33.588  33.234  1.00  0.00     0.029 A 
ATOM     44  N   UNL A   1      39.083  32.130  33.360  1.00  0.00    -0.354 N 
ATOM     45  C   UNL A   1      39.890  29.384  30.098  1.00  0.00     0.074 A 
ATOM     46  C   UNL A   1      38.976  29.607  28.998  1.00  0.00     0.031 C 
ATOM     47  C   UNL A   1      37.976  33.747  34.434  1.00  0.00     0.029 A 
ATOM     48  C   UNL A   1      39.062  32.782  34.572  1.00  0.00     0.049 A 
ATOM     49  H   UNL A   1      39.743  31.435  33.134  1.00  0.00     0.167 HD
ATOM     50  C   UNL A   1      40.891  28.469  30.089  1.00  0.00     0.034 A 
ATOM     51  C   UNL A   1      39.820  32.609  35.673  1.00  0.00     0.034 A 
ATOM     52  C   UNL A   1      41.803  28.267  31.189  1.00  0.00     0.049 A 
ATOM     53  C   UNL A   1      40.911  31.566  35.648  1.00  0.00     0.074 A 
ATOM     54  C   UNL A   1      42.864  27.383  31.278  1.00  0.00     0.029 A 
ATOM     55  N   UNL A   1      41.764  28.961  32.391  1.00  0.00    -0.354 N 
ATOM     56  N   UNL A   1      41.236  30.735  34.684  1.00  0.00    -0.248 NA
ATOM     57  C   UNL A   1      41.745  31.447  36.851  1.00  0.00     0.031 C 
ATOM     58  C   UNL A   1      43.432  27.505  32.551  1.00  0.00     0.029 A 
ATOM     59  C   UNL A   1      42.772  28.515  33.231  1.00  0.00     0.049 A 
ATOM     60  H   UNL A   1      41.116  29.668  32.613  1.00  0.00     0.167 HD
ATOM     61  C   UNL A   1      42.338  30.024  35.153  1.00  0.00     0.074 A 
ATOM     62  C   UNL A   1      42.628  30.532  36.477  1.00  0.00     0.031 C 
ATOM     63  C   UNL A   1      43.049  29.041  34.546  1.00  0.00     0.034 A 
BRANCH  50  64
ATOM     64  C   UNL A   1      41.040  27.611  28.857  1.00  0.00     0.023 A 
ATOM     65  C   UNL A   1      42.074  27.831  27.929  1.00  0.00     0.031 A 
ATOM     66  C   UNL A   1      40.136  26.565  28.599  1.00  0.00     0.131 A 
ATOM     67  C   UNL A   1      42.141  27.061  26.760  1.00  0.00     0.055 A 
ATOM     68  C   UNL A   1      40.255  25.751  27.471  1.00  0.00     0.041 A 
ATOM     69  F   UNL A   1      39.116  26.319  29.438  1.00  0.00    -0.206 F 
ATOM     70  C   UNL A   1      41.256  26.005  26.536  1.00  0.00     0.022 A 
BRANCH  67  71
ATOM     71  S   UNL A   1      43.330  27.538  25.476  1.00  0.00     0.124 S 
ATOM     72  O   UNL A   1      44.060  26.289  25.274  1.00  0.00    -0.237 OA
ATOM     73  O   UNL A   1      42.462  27.955  24.381  1.00  0.00    -0.237 OA
ATOM     74  O   UNL A   1      44.101  28.609  26.106  1.00  0.00    -0.744 OA
ENDBRANCH  67  71
ENDBRANCH  50  64
BRANCH  51  75
ATOM     75  C   UNL A   1      39.575  33.418  36.904  1.00  0.00     0.023 A 
ATOM     76  C   UNL A   1      38.890  32.875  38.002  1.00  0.00     0.031 A 
ATOM     77  C   UNL A   1      39.959  34.770  36.972  1.00  0.00     0.131 A 
ATOM     78  C   UNL A   1      38.549  33.693  39.090  1.00  0.00     0.055 A 
ATOM     79  C   UNL A   1      39.674  35.564  38.084  1.00  0.00     0.041 A 
ATOM     80  F   UNL A   1      40.620  35.340  35.952  1.00  0.00    -0.206 F 
ATOM     81  C   UNL A   1      38.948  35.030  39.144  1.00  0.00     0.022 A 
BRANCH  78  82
ATOM     82  S   UNL A   1      37.468  33.016  40.379  1.00  0.00     0.124 S 
ATOM     83  O   UNL A   1      37.453  34.101  41.353  1.00  0.00    -0.237 OA
ATOM     84  O   UNL A   1      36.226  32.795  39.644  1.00  0.00    -0.237 OA
ATOM     85  O   UNL A   1      38.164  31.804  40.803  1.00  0.00    -0.744 OA
ENDBRANCH  78  82
ENDBRANCH  51  75
BRANCH  63  86
ATOM     86  C   UNL A   1      44.246  28.500  35.288  1.00  0.00     0.023 A 
ATOM     87  C   UNL A   1      44.121  27.499  36.267  1.00  0.00     0.031 A 
ATOM     88  C   UNL A   1      45.530  29.003  35.014  1.00  0.00     0.131 A 
ATOM     89  C   UNL A   1      45.254  27.071  36.975  1.00  0.00     0.055 A 
ATOM     90  C   UNL A   1      46.661  28.532  35.680  1.00  0.00     0.041 A 
ATOM     91  F   UNL A   1      45.706  29.960  34.087  1.00  0.00    -0.206 F 
ATOM     92  C   UNL A   1      46.526  27.570  36.677  1.00  0.00     0.022 A 
BRANCH  89  93
ATOM     93  S   UNL A   1      45.032  25.912  38.352  1.00  0.00     0.124 S 
ATOM     94  O   UNL A   1      44.227  24.862  37.738  1.00  0.00    -0.237 OA
ATOM     95  O   UNL A   1      46.407  25.551  38.680  1.00  0.00    -0.237 OA
ATOM     96  O   UNL A   1      44.343  26.710  39.365  1.00  0.00    -0.744 OA
ENDBRANCH  89  93
ENDBRANCH  63  86
ENDBRANCH  37  38
ENDBRANCH  29  32
ENDBRANCH  27  28
ENDBRANCH  26  27
ENDBRANCH  25  26
ENDBRANCH   1  25
TORSDOF 19
ENDMDL
