MODEL 1
REMARK VINA RESULT:      -7.5      0.000      0.000
REMARK SMILES CC(C)C[C@H](NC(=O)[C@H](Cc1ccccc1)NC(=O)CNC(=O)C[NH3+])C(=O)NCCCCCCNC(=O)c1ccc(-c2c3nc(c(-c4cc(S(=O)(=O)[O-])ccc4F)c4ccc([nH]4)c(-c4cc(S(=O)(=O)[O-])ccc4F)c4nc(c(-c5cc(S(=O)(=O)[O-])ccc5F)c5ccc2[nH]5)C=C4)C=C3)cc1
REMARK SMILES IDX 29 1 28 2 26 3 27 4 5 6 4 7 2 8 1 9 3 10 6 11 7 12 8 14 9 15
REMARK SMILES IDX 17 16 18 17 19 19 20 20 21 21 22 22 23 24 24 25 25 26 10 30
REMARK SMILES IDX 11 31 12 32 16 33 13 34 15 35 14 36 30 37 31 38 32 39 33 40
REMARK SMILES IDX 34 41 35 42 36 43 37 45 38 46 39 47 100 48 40 49 99 50 41 51
REMARK SMILES IDX 42 52 43 53 93 54 44 55 98 56 92 57 94 58 45 59 97 60 91 61
REMARK SMILES IDX 90 62 46 64 78 65 58 66 77 67 59 68 62 69 76 70 95 71 60 72
REMARK SMILES IDX 61 73 75 75 96 76 63 77 47 78 48 79 56 80 49 81 55 82 57 83
REMARK SMILES IDX 54 84 50 85 51 86 52 87 53 88 79 89 80 90 88 91 81 92 87 93
REMARK SMILES IDX 89 94 86 95 82 96 83 97 84 98 85 99 64 100 65 101 73 102
REMARK SMILES IDX 66 103 72 104 74 105 71 106 67 107 68 108 69 109 70 110
REMARK H PARENT 28 5 6 13 17 18 21 23 25 27 25 28 25 29 35 44 94 63 62 74
REMARK Flexibility Score: inf
ROOT
ATOM      1  C   UNL A   1      41.172  28.566  29.734  1.00  0.00     0.116 C 
ENDROOT
BRANCH   1   2
ATOM      2  N   UNL A   1      42.278  27.818  30.319  1.00  0.00    -0.354 N 
ATOM      3  C   UNL A   1      43.260  27.032  29.757  1.00  0.00     0.242 C 
ATOM      4  O   UNL A   1      44.249  26.865  30.492  1.00  0.00    -0.273 OA
ATOM      5  H   UNL A   1      42.334  27.888  31.299  1.00  0.00     0.163 HD
BRANCH   3   6
ATOM      6  C   UNL A   1      43.271  26.280  28.334  1.00  0.00     0.171 C 
BRANCH   6   7
ATOM      7  C   UNL A   1      44.553  25.529  27.995  1.00  0.00     0.038 C 
BRANCH   7   8
ATOM      8  C   UNL A   1      45.189  25.931  26.664  1.00  0.00    -0.015 C 
ATOM      9  C   UNL A   1      45.698  27.363  26.786  1.00  0.00     0.007 C 
ATOM     10  C   UNL A   1      45.961  24.979  25.751  1.00  0.00     0.007 C 
ENDBRANCH   7   8
ENDBRANCH   6   7
BRANCH   6  11
ATOM     11  N   UNL A   1      42.538  26.894  27.203  1.00  0.00    -0.343 N 
ATOM     12  C   UNL A   1      41.323  26.528  26.614  1.00  0.00     0.243 C 
ATOM     13  H   UNL A   1      42.973  27.681  26.804  1.00  0.00     0.164 HD
ATOM     14  O   UNL A   1      40.538  27.432  26.315  1.00  0.00    -0.273 OA
BRANCH  12  15
ATOM     15  C   UNL A   1      41.101  25.048  26.114  1.00  0.00     0.175 C 
BRANCH  15  16
ATOM     16  N   UNL A   1      42.141  24.211  25.334  1.00  0.00    -0.342 N 
ATOM     17  C   UNL A   1      42.837  23.013  25.302  1.00  0.00     0.240 C 
ATOM     18  H   UNL A   1      42.418  24.737  24.549  1.00  0.00     0.164 HD
ATOM     19  O   UNL A   1      43.551  22.970  24.270  1.00  0.00    -0.273 OA
BRANCH  17  20
ATOM     20  C   UNL A   1      42.785  21.523  26.143  1.00  0.00     0.216 C 
BRANCH  20  21
ATOM     21  N   UNL A   1      43.081  19.963  26.022  1.00  0.00    -0.342 N 
ATOM     22  C   UNL A   1      43.901  18.880  25.800  1.00  0.00     0.275 C 
ATOM     23  H   UNL A   1      42.206  19.550  26.207  1.00  0.00     0.164 HD
ATOM     24  O   UNL A   1      43.350  17.849  26.254  1.00  0.00    -0.268 OA
BRANCH  22  25
ATOM     25  C   UNL A   1      45.389  18.570  25.256  1.00  0.00     0.360 C 
BRANCH  25  26
ATOM     26  N   UNL A   1      46.621  18.592  26.082  1.00  0.00    -0.350 N 
ATOM     27  H   UNL A   1      46.608  19.410  26.691  1.00  0.00     0.344 HD
ATOM     28  H   UNL A   1      47.438  18.634  25.473  1.00  0.00     0.344 HD
ATOM     29  H   UNL A   1      46.665  17.746  26.651  1.00  0.00     0.344 HD
ENDBRANCH  25  26
ENDBRANCH  22  25
ENDBRANCH  20  21
ENDBRANCH  17  20
ENDBRANCH  15  16
BRANCH  15  30
ATOM     30  C   UNL A   1      40.305  24.153  27.121  1.00  0.00     0.070 C 
BRANCH  30  31
ATOM     31  C   UNL A   1      39.081  23.445  26.526  1.00  0.00    -0.045 A 
ATOM     32  C   UNL A   1      37.869  24.126  26.338  1.00  0.00     0.004 A 
ATOM     33  C   UNL A   1      39.147  22.096  26.127  1.00  0.00     0.004 A 
ATOM     34  C   UNL A   1      36.763  23.480  25.765  1.00  0.00     0.000 A 
ATOM     35  C   UNL A   1      38.047  21.459  25.536  1.00  0.00     0.000 A 
ATOM     36  C   UNL A   1      36.854  22.151  25.355  1.00  0.00     0.000 A 
ENDBRANCH  30  31
ENDBRANCH  15  30
ENDBRANCH  12  15
ENDBRANCH   6  11
ENDBRANCH   3   6
ENDBRANCH   1   2
BRANCH   1  37
ATOM     37  C   UNL A   1      40.022  29.109  30.593  1.00  0.00     0.021 C 
BRANCH  37  38
ATOM     38  C   UNL A   1      39.985  30.634  30.886  1.00  0.00     0.002 C 
BRANCH  38  39
ATOM     39  C   UNL A   1      38.669  31.339  31.268  1.00  0.00     0.002 C 
BRANCH  39  40
ATOM     40  C   UNL A   1      38.489  32.072  32.612  1.00  0.00     0.021 C 
BRANCH  40  41
ATOM     41  C   UNL A   1      37.643  31.439  33.716  1.00  0.00     0.116 C 
BRANCH  41  42
ATOM     42  N   UNL A   1      38.099  31.935  35.001  1.00  0.00    -0.352 N 
ATOM     43  C   UNL A   1      39.048  31.361  35.814  1.00  0.00     0.251 C 
ATOM     44  H   UNL A   1      37.686  32.768  35.324  1.00  0.00     0.163 HD
ATOM     45  O   UNL A   1      38.867  31.371  37.029  1.00  0.00    -0.269 OA
BRANCH  43  46
ATOM     46  C   UNL A   1      40.303  30.791  35.250  1.00  0.00     0.039 A 
ATOM     47  C   UNL A   1      41.459  31.581  35.251  1.00  0.00     0.014 A 
ATOM     48  C   UNL A   1      40.314  29.562  34.582  1.00  0.00     0.014 A 
ATOM     49  C   UNL A   1      42.606  31.156  34.572  1.00  0.00     0.010 A 
ATOM     50  C   UNL A   1      41.476  29.118  33.936  1.00  0.00     0.010 A 
ATOM     51  C   UNL A   1      42.626  29.922  33.901  1.00  0.00    -0.014 A 
BRANCH  51  52
ATOM     52  C   UNL A   1      43.840  29.496  33.147  1.00  0.00     0.031 A 
ATOM     53  C   UNL A   1      44.714  28.376  33.653  1.00  0.00     0.074 A 
ATOM     54  C   UNL A   1      44.159  30.120  31.996  1.00  0.00     0.049 A 
ATOM     55  N   UNL A   1      45.781  27.845  33.110  1.00  0.00    -0.248 NA
ATOM     56  C   UNL A   1      44.351  27.794  34.952  1.00  0.00     0.031 C 
ATOM     57  C   UNL A   1      43.415  31.237  31.412  1.00  0.00     0.029 A 
ATOM     58  N   UNL A   1      45.182  29.901  31.107  1.00  0.00    -0.354 N 
ATOM     59  C   UNL A   1      46.223  26.871  34.002  1.00  0.00     0.074 A 
ATOM     60  C   UNL A   1      45.337  26.930  35.147  1.00  0.00     0.031 C 
ATOM     61  C   UNL A   1      43.983  31.579  30.245  1.00  0.00     0.029 A 
ATOM     62  C   UNL A   1      45.150  30.734  30.013  1.00  0.00     0.049 A 
ATOM     63  H   UNL A   1      45.873  29.212  31.239  1.00  0.00     0.167 HD
ATOM     64  C   UNL A   1      47.256  25.999  33.870  1.00  0.00     0.034 A 
ATOM     65  C   UNL A   1      45.964  30.808  28.941  1.00  0.00     0.034 A 
ATOM     66  C   UNL A   1      48.129  25.948  32.719  1.00  0.00     0.049 A 
ATOM     67  C   UNL A   1      47.118  29.846  28.828  1.00  0.00     0.074 A 
ATOM     68  C   UNL A   1      49.158  25.059  32.453  1.00  0.00     0.029 A 
ATOM     69  N   UNL A   1      48.089  26.832  31.647  1.00  0.00    -0.354 N 
ATOM     70  N   UNL A   1      47.480  28.887  29.648  1.00  0.00    -0.248 NA
ATOM     71  C   UNL A   1      47.964  29.973  27.635  1.00  0.00     0.031 C 
ATOM     72  C   UNL A   1      49.787  25.452  31.266  1.00  0.00     0.029 A 
ATOM     73  C   UNL A   1      49.102  26.537  30.743  1.00  0.00     0.049 A 
ATOM     74  H   UNL A   1      47.437  27.561  31.543  1.00  0.00     0.167 HD
ATOM     75  C   UNL A   1      48.585  28.281  29.056  1.00  0.00     0.074 A 
ATOM     76  C   UNL A   1      48.809  28.967  27.799  1.00  0.00     0.031 C 
ATOM     77  C   UNL A   1      49.345  27.250  29.509  1.00  0.00     0.034 A 
BRANCH  64  78
ATOM     78  C   UNL A   1      47.520  25.052  35.024  1.00  0.00     0.023 A 
ATOM     79  C   UNL A   1      48.358  25.401  36.097  1.00  0.00     0.031 A 
ATOM     80  C   UNL A   1      46.945  23.767  35.035  1.00  0.00     0.131 A 
ATOM     81  C   UNL A   1      48.669  24.455  37.084  1.00  0.00     0.055 A 
ATOM     82  C   UNL A   1      47.189  22.858  36.067  1.00  0.00     0.041 A 
ATOM     83  F   UNL A   1      46.149  23.365  34.032  1.00  0.00    -0.206 F 
ATOM     84  C   UNL A   1      48.071  23.191  37.091  1.00  0.00     0.022 A 
BRANCH  81  85
ATOM     85  S   UNL A   1      49.993  24.820  38.271  1.00  0.00     0.124 S 
ATOM     86  O   UNL A   1      49.576  24.014  39.428  1.00  0.00    -0.237 OA
ATOM     87  O   UNL A   1      51.185  24.327  37.565  1.00  0.00    -0.237 OA
ATOM     88  O   UNL A   1      49.919  26.245  38.454  1.00  0.00    -0.744 OA
ENDBRANCH  81  85
ENDBRANCH  64  78
BRANCH  65  89
ATOM     89  C   UNL A   1      45.718  31.827  27.881  1.00  0.00     0.023 A 
ATOM     90  C   UNL A   1      46.373  33.069  27.908  1.00  0.00     0.031 A 
ATOM     91  C   UNL A   1      44.802  31.586  26.842  1.00  0.00     0.131 A 
ATOM     92  C   UNL A   1      46.074  34.038  26.938  1.00  0.00     0.055 A 
ATOM     93  C   UNL A   1      44.546  32.534  25.851  1.00  0.00     0.041 A 
ATOM     94  F   UNL A   1      44.152  30.414  26.769  1.00  0.00    -0.206 F 
ATOM     95  C   UNL A   1      45.176  33.775  25.902  1.00  0.00     0.022 A 
BRANCH  92  96
ATOM     96  S   UNL A   1      46.829  35.680  27.090  1.00  0.00     0.124 S 
ATOM     97  O   UNL A   1      47.964  35.573  26.181  1.00  0.00    -0.237 OA
ATOM     98  O   UNL A   1      45.742  36.555  26.659  1.00  0.00    -0.237 OA
ATOM     99  O   UNL A   1      47.170  35.768  28.509  1.00  0.00    -0.744 OA
ENDBRANCH  92  96
ENDBRANCH  65  89
BRANCH  77 100
ATOM    100  C   UNL A   1      50.479  26.798  28.617  1.00  0.00     0.023 A 
ATOM    101  C   UNL A   1      51.771  27.344  28.733  1.00  0.00     0.031 A 
ATOM    102  C   UNL A   1      50.256  25.847  27.605  1.00  0.00     0.131 A 
ATOM    103  C   UNL A   1      52.767  26.994  27.809  1.00  0.00     0.055 A 
ATOM    104  C   UNL A   1      51.270  25.450  26.732  1.00  0.00     0.041 A 
ATOM    105  F   UNL A   1      49.044  25.294  27.441  1.00  0.00    -0.206 F 
ATOM    106  C   UNL A   1      52.530  26.038  26.819  1.00  0.00     0.022 A 
BRANCH 103 107
ATOM    107  S   UNL A   1      54.338  27.898  27.840  1.00  0.00     0.124 S 
ATOM    108  O   UNL A   1      54.046  28.982  28.772  1.00  0.00    -0.237 OA
ATOM    109  O   UNL A   1      55.273  26.884  28.316  1.00  0.00    -0.237 OA
ATOM    110  O   UNL A   1      54.525  28.310  26.450  1.00  0.00    -0.744 OA
ENDBRANCH 103 107
ENDBRANCH  77 100
ENDBRANCH  51  52
ENDBRANCH  43  46
ENDBRANCH  41  42
ENDBRANCH  40  41
ENDBRANCH  39  40
ENDBRANCH  38  39
ENDBRANCH  37  38
ENDBRANCH   1  37
TORSDOF 27
ENDMDL
MODEL 2
REMARK VINA RESULT:      -7.1      7.069     13.621
REMARK SMILES CC(C)C[C@H](NC(=O)[C@H](Cc1ccccc1)NC(=O)CNC(=O)C[NH3+])C(=O)NCCCCCCNC(=O)c1ccc(-c2c3nc(c(-c4cc(S(=O)(=O)[O-])ccc4F)c4ccc([nH]4)c(-c4cc(S(=O)(=O)[O-])ccc4F)c4nc(c(-c5cc(S(=O)(=O)[O-])ccc5F)c5ccc2[nH]5)C=C4)C=C3)cc1
REMARK SMILES IDX 29 1 28 2 26 3 27 4 5 6 4 7 2 8 1 9 3 10 6 11 7 12 8 14 9 15
REMARK SMILES IDX 17 16 18 17 19 19 20 20 21 21 22 22 23 24 24 25 25 26 10 30
REMARK SMILES IDX 11 31 12 32 16 33 13 34 15 35 14 36 30 37 31 38 32 39 33 40
REMARK SMILES IDX 34 41 35 42 36 43 37 45 38 46 39 47 100 48 40 49 99 50 41 51
REMARK SMILES IDX 42 52 43 53 93 54 44 55 98 56 92 57 94 58 45 59 97 60 91 61
REMARK SMILES IDX 90 62 46 64 78 65 58 66 77 67 59 68 62 69 76 70 95 71 60 72
REMARK SMILES IDX 61 73 75 75 96 76 63 77 47 78 48 79 56 80 49 81 55 82 57 83
REMARK SMILES IDX 54 84 50 85 51 86 52 87 53 88 79 89 80 90 88 91 81 92 87 93
REMARK SMILES IDX 89 94 86 95 82 96 83 97 84 98 85 99 64 100 65 101 73 102
REMARK SMILES IDX 66 103 72 104 74 105 71 106 67 107 68 108 69 109 70 110
REMARK H PARENT 28 5 6 13 17 18 21 23 25 27 25 28 25 29 35 44 94 63 62 74
REMARK Flexibility Score: inf
ROOT
ATOM      1  C   UNL A   1      43.370  26.247  29.727  1.00  0.00     0.116 C 
ENDROOT
BRANCH   1   2
ATOM      2  N   UNL A   1      43.313  24.800  29.565  1.00  0.00    -0.354 N 
ATOM      3  C   UNL A   1      43.228  23.999  28.448  1.00  0.00     0.242 C 
ATOM      4  O   UNL A   1      43.582  22.824  28.646  1.00  0.00    -0.273 OA
ATOM      5  H   UNL A   1      43.339  24.301  30.413  1.00  0.00     0.163 HD
BRANCH   3   6
ATOM      6  C   UNL A   1      42.697  24.363  26.972  1.00  0.00     0.171 C 
BRANCH   6   7
ATOM      7  C   UNL A   1      43.632  25.220  26.127  1.00  0.00     0.038 C 
BRANCH   7   8
ATOM      8  C   UNL A   1      44.673  24.429  25.335  1.00  0.00    -0.015 C 
ATOM      9  C   UNL A   1      45.907  24.244  26.211  1.00  0.00     0.007 C 
ATOM     10  C   UNL A   1      44.342  23.323  24.333  1.00  0.00     0.007 C 
ENDBRANCH   7   8
ENDBRANCH   6   7
BRANCH   6  11
ATOM     11  N   UNL A   1      41.243  24.565  26.773  1.00  0.00    -0.343 N 
ATOM     12  C   UNL A   1      40.169  23.716  27.061  1.00  0.00     0.243 C 
ATOM     13  H   UNL A   1      40.994  25.431  26.377  1.00  0.00     0.164 HD
ATOM     14  O   UNL A   1      39.161  24.220  27.561  1.00  0.00    -0.273 OA
BRANCH  12  15
ATOM     15  C   UNL A   1      40.163  22.236  26.512  1.00  0.00     0.175 C 
BRANCH  15  16
ATOM     16  N   UNL A   1      38.938  21.528  25.888  1.00  0.00    -0.342 N 
ATOM     17  C   UNL A   1      37.575  21.616  25.656  1.00  0.00     0.240 C 
ATOM     18  H   UNL A   1      39.251  20.678  25.501  1.00  0.00     0.164 HD
ATOM     19  O   UNL A   1      37.196  20.618  24.997  1.00  0.00    -0.273 OA
BRANCH  17  20
ATOM     20  C   UNL A   1      36.363  22.815  25.811  1.00  0.00     0.216 C 
BRANCH  20  21
ATOM     21  N   UNL A   1      34.921  23.266  25.305  1.00  0.00    -0.342 N 
ATOM     22  C   UNL A   1      33.649  23.757  25.495  1.00  0.00     0.275 C 
ATOM     23  H   UNL A   1      34.962  23.110  24.334  1.00  0.00     0.164 HD
ATOM     24  O   UNL A   1      33.193  24.143  24.393  1.00  0.00    -0.268 OA
BRANCH  22  25
ATOM     25  C   UNL A   1      32.643  24.096  26.710  1.00  0.00     0.360 C 
BRANCH  25  26
ATOM     26  N   UNL A   1      31.204  24.425  26.560  1.00  0.00    -0.350 N 
ATOM     27  H   UNL A   1      30.933  24.327  25.582  1.00  0.00     0.344 HD
ATOM     28  H   UNL A   1      31.041  25.384  26.864  1.00  0.00     0.344 HD
ATOM     29  H   UNL A   1      30.648  23.788  27.131  1.00  0.00     0.344 HD
ENDBRANCH  25  26
ENDBRANCH  22  25
ENDBRANCH  20  21
ENDBRANCH  17  20
ENDBRANCH  15  16
BRANCH  15  30
ATOM     30  C   UNL A   1      41.480  21.831  25.772  1.00  0.00     0.070 C 
BRANCH  30  31
ATOM     31  C   UNL A   1      42.088  20.497  26.222  1.00  0.00    -0.045 A 
ATOM     32  C   UNL A   1      41.685  19.883  27.418  1.00  0.00     0.004 A 
ATOM     33  C   UNL A   1      43.050  19.836  25.435  1.00  0.00     0.004 A 
ATOM     34  C   UNL A   1      42.223  18.646  27.808  1.00  0.00     0.000 A 
ATOM     35  C   UNL A   1      43.572  18.592  25.817  1.00  0.00     0.000 A 
ATOM     36  C   UNL A   1      43.158  17.997  27.004  1.00  0.00     0.000 A 
ENDBRANCH  30  31
ENDBRANCH  15  30
ENDBRANCH  12  15
ENDBRANCH   6  11
ENDBRANCH   3   6
ENDBRANCH   1   2
BRANCH   1  37
ATOM     37  C   UNL A   1      42.234  27.158  29.242  1.00  0.00     0.021 C 
BRANCH  37  38
ATOM     38  C   UNL A   1      41.684  28.227  30.226  1.00  0.00     0.002 C 
BRANCH  38  39
ATOM     39  C   UNL A   1      40.233  28.735  30.121  1.00  0.00     0.002 C 
BRANCH  39  40
ATOM     40  C   UNL A   1      39.875  30.071  29.440  1.00  0.00     0.021 C 
BRANCH  40  41
ATOM     41  C   UNL A   1      39.076  31.124  30.206  1.00  0.00     0.116 C 
BRANCH  41  42
ATOM     42  N   UNL A   1      37.753  30.598  30.487  1.00  0.00    -0.352 N 
ATOM     43  C   UNL A   1      37.311  30.080  31.682  1.00  0.00     0.251 C 
ATOM     44  H   UNL A   1      37.105  30.614  29.745  1.00  0.00     0.163 HD
ATOM     45  O   UNL A   1      36.576  29.096  31.661  1.00  0.00    -0.269 OA
BRANCH  43  46
ATOM     46  C   UNL A   1      37.657  30.727  32.977  1.00  0.00     0.039 A 
ATOM     47  C   UNL A   1      37.053  31.948  33.301  1.00  0.00     0.014 A 
ATOM     48  C   UNL A   1      38.680  30.230  33.793  1.00  0.00     0.014 A 
ATOM     49  C   UNL A   1      37.484  32.674  34.417  1.00  0.00     0.010 A 
ATOM     50  C   UNL A   1      39.082  30.939  34.933  1.00  0.00     0.010 A 
ATOM     51  C   UNL A   1      38.508  32.182  35.242  1.00  0.00    -0.014 A 
BRANCH  51  52
ATOM     52  C   UNL A   1      38.986  32.983  36.406  1.00  0.00     0.031 A 
ATOM     53  C   UNL A   1      40.128  33.958  36.259  1.00  0.00     0.074 A 
ATOM     54  C   UNL A   1      38.389  32.835  37.604  1.00  0.00     0.049 A 
ATOM     55  N   UNL A   1      40.649  34.767  37.148  1.00  0.00    -0.248 NA
ATOM     56  C   UNL A   1      40.784  34.011  34.945  1.00  0.00     0.031 C 
ATOM     57  C   UNL A   1      37.294  31.906  37.887  1.00  0.00     0.029 A 
ATOM     58  N   UNL A   1      38.606  33.467  38.803  1.00  0.00    -0.354 N 
ATOM     59  C   UNL A   1      41.697  35.421  36.506  1.00  0.00     0.074 A 
ATOM     60  C   UNL A   1      41.770  34.867  35.169  1.00  0.00     0.031 C 
ATOM     61  C   UNL A   1      36.911  32.056  39.165  1.00  0.00     0.029 A 
ATOM     62  C   UNL A   1      37.753  33.063  39.803  1.00  0.00     0.049 A 
ATOM     63  H   UNL A   1      39.307  34.146  38.935  1.00  0.00     0.167 HD
ATOM     64  C   UNL A   1      42.508  36.403  36.980  1.00  0.00     0.034 A 
ATOM     65  C   UNL A   1      37.654  33.459  41.088  1.00  0.00     0.034 A 
ATOM     66  C   UNL A   1      42.420  36.951  38.315  1.00  0.00     0.049 A 
ATOM     67  C   UNL A   1      38.581  34.532  41.598  1.00  0.00     0.074 A 
ATOM     68  C   UNL A   1      43.143  37.993  38.871  1.00  0.00     0.029 A 
ATOM     69  N   UNL A   1      41.568  36.490  39.312  1.00  0.00    -0.354 N 
ATOM     70  N   UNL A   1      39.521  35.188  40.957  1.00  0.00    -0.248 NA
ATOM     71  C   UNL A   1      38.420  34.925  43.003  1.00  0.00     0.031 C 
ATOM     72  C   UNL A   1      42.786  38.110  40.220  1.00  0.00     0.029 A 
ATOM     73  C   UNL A   1      41.780  37.196  40.489  1.00  0.00     0.049 A 
ATOM     74  H   UNL A   1      40.909  35.768  39.200  1.00  0.00     0.167 HD
ATOM     75  C   UNL A   1      40.049  36.088  41.879  1.00  0.00     0.074 A 
ATOM     76  C   UNL A   1      39.302  35.907  43.108  1.00  0.00     0.031 C 
ATOM     77  C   UNL A   1      41.058  36.984  41.724  1.00  0.00     0.034 A 
BRANCH  64  78
ATOM     78  C   UNL A   1      43.589  36.921  36.053  1.00  0.00     0.023 A 
ATOM     79  C   UNL A   1      43.348  37.957  35.134  1.00  0.00     0.031 A 
ATOM     80  C   UNL A   1      44.875  36.348  36.069  1.00  0.00     0.131 A 
ATOM     81  C   UNL A   1      44.340  38.327  34.213  1.00  0.00     0.055 A 
ATOM     82  C   UNL A   1      45.887  36.782  35.209  1.00  0.00     0.041 A 
ATOM     83  F   UNL A   1      45.166  35.344  36.910  1.00  0.00    -0.206 F 
ATOM     84  C   UNL A   1      45.618  37.763  34.260  1.00  0.00     0.022 A 
BRANCH  81  85
ATOM     85  S   UNL A   1      43.902  39.431  32.841  1.00  0.00     0.124 S 
ATOM     86  O   UNL A   1      42.732  40.131  33.394  1.00  0.00    -0.237 OA
ATOM     87  O   UNL A   1      45.114  40.252  32.707  1.00  0.00    -0.237 OA
ATOM     88  O   UNL A   1      43.625  38.540  31.746  1.00  0.00    -0.744 OA
ENDBRANCH  81  85
ENDBRANCH  64  78
BRANCH  65  89
ATOM     89  C   UNL A   1      36.637  32.844  41.987  1.00  0.00     0.023 A 
ATOM     90  C   UNL A   1      35.343  33.378  42.086  1.00  0.00     0.031 A 
ATOM     91  C   UNL A   1      36.954  31.729  42.784  1.00  0.00     0.131 A 
ATOM     92  C   UNL A   1      34.425  32.824  42.990  1.00  0.00     0.055 A 
ATOM     93  C   UNL A   1      36.021  31.150  43.645  1.00  0.00     0.041 A 
ATOM     94  F   UNL A   1      38.177  31.178  42.724  1.00  0.00    -0.206 F 
ATOM     95  C   UNL A   1      34.750  31.705  43.760  1.00  0.00     0.022 A 
BRANCH  92  96
ATOM     96  S   UNL A   1      32.814  33.631  43.197  1.00  0.00     0.124 S 
ATOM     97  O   UNL A   1      32.160  33.321  41.931  1.00  0.00    -0.237 OA
ATOM     98  O   UNL A   1      32.284  32.954  44.376  1.00  0.00    -0.237 OA
ATOM     99  O   UNL A   1      33.161  35.038  43.392  1.00  0.00    -0.744 OA
ENDBRANCH  92  96
ENDBRANCH  65  89
BRANCH  77 100
ATOM    100  C   UNL A   1      41.391  37.848  42.920  1.00  0.00     0.023 A 
ATOM    101  C   UNL A   1      42.326  37.437  43.887  1.00  0.00     0.031 A 
ATOM    102  C   UNL A   1      40.728  39.072  43.124  1.00  0.00     0.131 A 
ATOM    103  C   UNL A   1      42.519  38.203  45.047  1.00  0.00     0.055 A 
ATOM    104  C   UNL A   1      40.975  39.865  44.245  1.00  0.00     0.041 A 
ATOM    105  F   UNL A   1      39.822  39.514  42.238  1.00  0.00    -0.206 F 
ATOM    106  C   UNL A   1      41.861  39.423  45.225  1.00  0.00     0.022 A 
BRANCH 103 107
ATOM    107  S   UNL A   1      43.544  37.522  46.379  1.00  0.00     0.124 S 
ATOM    108  O   UNL A   1      44.118  38.728  46.967  1.00  0.00    -0.237 OA
ATOM    109  O   UNL A   1      42.563  36.819  47.199  1.00  0.00    -0.237 OA
ATOM    110  O   UNL A   1      44.494  36.662  45.676  1.00  0.00    -0.744 OA
ENDBRANCH 103 107
ENDBRANCH  77 100
ENDBRANCH  51  52
ENDBRANCH  43  46
ENDBRANCH  41  42
ENDBRANCH  40  41
ENDBRANCH  39  40
ENDBRANCH  38  39
ENDBRANCH  37  38
ENDBRANCH   1  37
TORSDOF 27
ENDMDL
MODEL 3
REMARK VINA RESULT:      -7.0      3.560      8.239
REMARK SMILES CC(C)C[C@H](NC(=O)[C@H](Cc1ccccc1)NC(=O)CNC(=O)C[NH3+])C(=O)NCCCCCCNC(=O)c1ccc(-c2c3nc(c(-c4cc(S(=O)(=O)[O-])ccc4F)c4ccc([nH]4)c(-c4cc(S(=O)(=O)[O-])ccc4F)c4nc(c(-c5cc(S(=O)(=O)[O-])ccc5F)c5ccc2[nH]5)C=C4)C=C3)cc1
REMARK SMILES IDX 29 1 28 2 26 3 27 4 5 6 4 7 2 8 1 9 3 10 6 11 7 12 8 14 9 15
REMARK SMILES IDX 17 16 18 17 19 19 20 20 21 21 22 22 23 24 24 25 25 26 10 30
REMARK SMILES IDX 11 31 12 32 16 33 13 34 15 35 14 36 30 37 31 38 32 39 33 40
REMARK SMILES IDX 34 41 35 42 36 43 37 45 38 46 39 47 100 48 40 49 99 50 41 51
REMARK SMILES IDX 42 52 43 53 93 54 44 55 98 56 92 57 94 58 45 59 97 60 91 61
REMARK SMILES IDX 90 62 46 64 78 65 58 66 77 67 59 68 62 69 76 70 95 71 60 72
REMARK SMILES IDX 61 73 75 75 96 76 63 77 47 78 48 79 56 80 49 81 55 82 57 83
REMARK SMILES IDX 54 84 50 85 51 86 52 87 53 88 79 89 80 90 88 91 81 92 87 93
REMARK SMILES IDX 89 94 86 95 82 96 83 97 84 98 85 99 64 100 65 101 73 102
REMARK SMILES IDX 66 103 72 104 74 105 71 106 67 107 68 108 69 109 70 110
REMARK H PARENT 28 5 6 13 17 18 21 23 25 27 25 28 25 29 35 44 94 63 62 74
REMARK Flexibility Score: inf
ROOT
ATOM      1  C   UNL A   1      41.989  28.188  31.388  1.00  0.00     0.116 C 
ENDROOT
BRANCH   1   2
ATOM      2  N   UNL A   1      41.720  27.677  30.049  1.00  0.00    -0.354 N 
ATOM      3  C   UNL A   1      42.540  27.120  29.093  1.00  0.00     0.242 C 
ATOM      4  O   UNL A   1      41.930  26.455  28.237  1.00  0.00    -0.273 OA
ATOM      5  H   UNL A   1      40.777  27.744  29.778  1.00  0.00     0.163 HD
BRANCH   3   6
ATOM      6  C   UNL A   1      44.134  27.255  28.915  1.00  0.00     0.171 C 
BRANCH   6   7
ATOM      7  C   UNL A   1      44.599  27.922  27.627  1.00  0.00     0.038 C 
BRANCH   7   8
ATOM      8  C   UNL A   1      45.640  29.025  27.825  1.00  0.00    -0.015 C 
ATOM      9  C   UNL A   1      44.996  30.160  28.613  1.00  0.00     0.007 C 
ATOM     10  C   UNL A   1      47.135  28.778  28.030  1.00  0.00     0.007 C 
ENDBRANCH   7   8
ENDBRANCH   6   7
BRANCH   6  11
ATOM     11  N   UNL A   1      45.001  26.186  29.464  1.00  0.00    -0.343 N 
ATOM     12  C   UNL A   1      45.896  25.331  28.814  1.00  0.00     0.243 C 
ATOM     13  H   UNL A   1      44.937  26.059  30.438  1.00  0.00     0.164 HD
ATOM     14  O   UNL A   1      46.981  25.117  29.360  1.00  0.00    -0.273 OA
BRANCH  12  15
ATOM     15  C   UNL A   1      45.415  24.474  27.579  1.00  0.00     0.175 C 
BRANCH  15  16
ATOM     16  N   UNL A   1      44.079  24.678  26.826  1.00  0.00    -0.342 N 
ATOM     17  C   UNL A   1      43.191  24.117  25.923  1.00  0.00     0.240 C 
ATOM     18  H   UNL A   1      43.717  25.553  27.095  1.00  0.00     0.164 HD
ATOM     19  O   UNL A   1      42.203  24.877  25.779  1.00  0.00    -0.273 OA
BRANCH  17  20
ATOM     20  C   UNL A   1      42.979  22.593  25.172  1.00  0.00     0.216 C 
BRANCH  20  21
ATOM     21  N   UNL A   1      42.923  21.023  25.434  1.00  0.00    -0.342 N 
ATOM     22  C   UNL A   1      43.475  19.763  25.478  1.00  0.00     0.275 C 
ATOM     23  H   UNL A   1      41.991  20.873  25.717  1.00  0.00     0.164 HD
ATOM     24  O   UNL A   1      42.741  19.020  26.171  1.00  0.00    -0.268 OA
BRANCH  22  25
ATOM     25  C   UNL A   1      44.826  19.008  25.020  1.00  0.00     0.360 C 
BRANCH  25  26
ATOM     26  N   UNL A   1      45.790  18.351  25.937  1.00  0.00    -0.350 N 
ATOM     27  H   UNL A   1      45.949  17.391  25.632  1.00  0.00     0.344 HD
ATOM     28  H   UNL A   1      45.411  18.349  26.884  1.00  0.00     0.344 HD
ATOM     29  H   UNL A   1      46.673  18.862  25.926  1.00  0.00     0.344 HD
ENDBRANCH  25  26
ENDBRANCH  22  25
ENDBRANCH  20  21
ENDBRANCH  17  20
ENDBRANCH  15  16
BRANCH  15  30
ATOM     30  C   UNL A   1      46.563  24.094  26.588  1.00  0.00     0.070 C 
BRANCH  30  31
ATOM     31  C   UNL A   1      47.283  25.287  25.947  1.00  0.00    -0.045 A 
ATOM     32  C   UNL A   1      46.624  26.130  25.038  1.00  0.00     0.004 A 
ATOM     33  C   UNL A   1      48.619  25.588  26.273  1.00  0.00     0.004 A 
ATOM     34  C   UNL A   1      47.280  27.238  24.480  1.00  0.00     0.000 A 
ATOM     35  C   UNL A   1      49.266  26.707  25.729  1.00  0.00     0.000 A 
ATOM     36  C   UNL A   1      48.596  27.533  24.831  1.00  0.00     0.000 A 
ENDBRANCH  30  31
ENDBRANCH  15  30
ENDBRANCH  12  15
ENDBRANCH   6  11
ENDBRANCH   3   6
ENDBRANCH   1   2
BRANCH   1  37
ATOM     37  C   UNL A   1      42.425  27.262  32.531  1.00  0.00     0.021 C 
BRANCH  37  38
ATOM     38  C   UNL A   1      41.808  27.494  33.938  1.00  0.00     0.002 C 
BRANCH  38  39
ATOM     39  C   UNL A   1      42.546  27.050  35.215  1.00  0.00     0.002 C 
BRANCH  39  40
ATOM     40  C   UNL A   1      42.095  25.832  36.045  1.00  0.00     0.021 C 
BRANCH  40  41
ATOM     41  C   UNL A   1      42.273  24.422  35.486  1.00  0.00     0.116 C 
BRANCH  41  42
ATOM     42  N   UNL A   1      43.364  23.772  36.186  1.00  0.00    -0.352 N 
ATOM     43  C   UNL A   1      44.612  23.487  35.681  1.00  0.00     0.251 C 
ATOM     44  H   UNL A   1      43.195  23.508  37.119  1.00  0.00     0.163 HD
ATOM     45  O   UNL A   1      45.140  22.421  35.986  1.00  0.00    -0.269 OA
BRANCH  43  46
ATOM     46  C   UNL A   1      45.342  24.468  34.833  1.00  0.00     0.039 A 
ATOM     47  C   UNL A   1      46.122  25.447  35.459  1.00  0.00     0.014 A 
ATOM     48  C   UNL A   1      45.141  24.532  33.449  1.00  0.00     0.014 A 
ATOM     49  C   UNL A   1      46.676  26.493  34.711  1.00  0.00     0.010 A 
ATOM     50  C   UNL A   1      45.730  25.557  32.696  1.00  0.00     0.010 A 
ATOM     51  C   UNL A   1      46.481  26.564  33.322  1.00  0.00    -0.014 A 
BRANCH  51  52
ATOM     52  C   UNL A   1      47.043  27.704  32.542  1.00  0.00     0.031 A 
ATOM     53  C   UNL A   1      46.340  29.038  32.504  1.00  0.00     0.074 A 
ATOM     54  C   UNL A   1      48.194  27.539  31.863  1.00  0.00     0.049 A 
ATOM     55  N   UNL A   1      46.702  30.151  31.914  1.00  0.00    -0.248 NA
ATOM     56  C   UNL A   1      45.051  29.124  33.202  1.00  0.00     0.031 C 
ATOM     57  C   UNL A   1      48.957  26.292  31.793  1.00  0.00     0.029 A 
ATOM     58  N   UNL A   1      48.931  28.421  31.112  1.00  0.00    -0.354 N 
ATOM     59  C   UNL A   1      45.684  31.067  32.164  1.00  0.00     0.074 A 
ATOM     60  C   UNL A   1      44.665  30.357  32.909  1.00  0.00     0.031 C 
ATOM     61  C   UNL A   1      50.071  26.499  31.073  1.00  0.00     0.029 A 
ATOM     62  C   UNL A   1      50.087  27.880  30.600  1.00  0.00     0.049 A 
ATOM     63  H   UNL A   1      48.657  29.354  30.954  1.00  0.00     0.167 HD
ATOM     64  C   UNL A   1      45.614  32.380  31.820  1.00  0.00     0.034 A 
ATOM     65  C   UNL A   1      51.054  28.431  29.840  1.00  0.00     0.034 A 
ATOM     66  C   UNL A   1      46.643  33.077  31.080  1.00  0.00     0.049 A 
ATOM     67  C   UNL A   1      50.943  29.883  29.450  1.00  0.00     0.074 A 
ATOM     68  C   UNL A   1      46.704  34.420  30.743  1.00  0.00     0.029 A 
ATOM     69  N   UNL A   1      47.782  32.487  30.547  1.00  0.00    -0.354 N 
ATOM     70  N   UNL A   1      50.007  30.752  29.752  1.00  0.00    -0.248 NA
ATOM     71  C   UNL A   1      52.031  30.427  28.628  1.00  0.00     0.031 C 
ATOM     72  C   UNL A   1      47.835  34.623  29.943  1.00  0.00     0.029 A 
ATOM     73  C   UNL A   1      48.527  33.427  29.846  1.00  0.00     0.049 A 
ATOM     74  H   UNL A   1      48.026  31.539  30.651  1.00  0.00     0.167 HD
ATOM     75  C   UNL A   1      50.406  31.954  29.173  1.00  0.00     0.074 A 
ATOM     76  C   UNL A   1      51.680  31.699  28.529  1.00  0.00     0.031 C 
ATOM     77  C   UNL A   1      49.778  33.159  29.174  1.00  0.00     0.034 A 
BRANCH  64  78
ATOM     78  C   UNL A   1      44.362  33.137  32.212  1.00  0.00     0.023 A 
ATOM     79  C   UNL A   1      43.184  33.073  31.448  1.00  0.00     0.031 A 
ATOM     80  C   UNL A   1      44.356  33.960  33.354  1.00  0.00     0.131 A 
ATOM     81  C   UNL A   1      42.085  33.879  31.779  1.00  0.00     0.055 A 
ATOM     82  C   UNL A   1      43.228  34.694  33.729  1.00  0.00     0.041 A 
ATOM     83  F   UNL A   1      45.453  34.078  34.118  1.00  0.00    -0.206 F 
ATOM     84  C   UNL A   1      42.089  34.672  32.930  1.00  0.00     0.022 A 
BRANCH  81  85
ATOM     85  S   UNL A   1      40.707  34.019  30.605  1.00  0.00     0.124 S 
ATOM     86  O   UNL A   1      40.509  32.613  30.222  1.00  0.00    -0.237 OA
ATOM     87  O   UNL A   1      39.644  34.592  31.444  1.00  0.00    -0.237 OA
ATOM     88  O   UNL A   1      41.214  34.875  29.566  1.00  0.00    -0.744 OA
ENDBRANCH  81  85
ENDBRANCH  64  78
BRANCH  65  89
ATOM     89  C   UNL A   1      52.218  27.613  29.396  1.00  0.00     0.023 A 
ATOM     90  C   UNL A   1      52.249  27.034  28.117  1.00  0.00     0.031 A 
ATOM     91  C   UNL A   1      53.304  27.372  30.256  1.00  0.00     0.131 A 
ATOM     92  C   UNL A   1      53.323  26.212  27.747  1.00  0.00     0.055 A 
ATOM     93  C   UNL A   1      54.395  26.595  29.865  1.00  0.00     0.041 A 
ATOM     94  F   UNL A   1      53.325  27.905  31.488  1.00  0.00    -0.206 F 
ATOM     95  C   UNL A   1      54.403  25.999  28.607  1.00  0.00     0.022 A 
BRANCH  92  96
ATOM     96  S   UNL A   1      53.257  25.364  26.146  1.00  0.00     0.124 S 
ATOM     97  O   UNL A   1      53.235  26.486  25.214  1.00  0.00    -0.237 OA
ATOM     98  O   UNL A   1      54.484  24.573  26.169  1.00  0.00    -0.237 OA
ATOM     99  O   UNL A   1      52.019  24.591  26.220  1.00  0.00    -0.744 OA
ENDBRANCH  92  96
ENDBRANCH  65  89
BRANCH  77 100
ATOM    100  C   UNL A   1      50.484  34.294  28.466  1.00  0.00     0.023 A 
ATOM    101  C   UNL A   1      50.226  34.594  27.116  1.00  0.00     0.031 A 
ATOM    102  C   UNL A   1      51.463  35.052  29.133  1.00  0.00     0.131 A 
ATOM    103  C   UNL A   1      50.987  35.571  26.456  1.00  0.00     0.055 A 
ATOM    104  C   UNL A   1      52.169  36.071  28.491  1.00  0.00     0.041 A 
ATOM    105  F   UNL A   1      51.757  34.809  30.420  1.00  0.00    -0.206 F 
ATOM    106  C   UNL A   1      51.946  36.323  27.139  1.00  0.00     0.022 A 
BRANCH 103 107
ATOM    107  S   UNL A   1      50.796  35.758  24.662  1.00  0.00     0.124 S 
ATOM    108  O   UNL A   1      51.609  36.939  24.392  1.00  0.00    -0.237 OA
ATOM    109  O   UNL A   1      51.323  34.493  24.159  1.00  0.00    -0.237 OA
ATOM    110  O   UNL A   1      49.357  35.942  24.488  1.00  0.00    -0.744 OA
ENDBRANCH 103 107
ENDBRANCH  77 100
ENDBRANCH  51  52
ENDBRANCH  43  46
ENDBRANCH  41  42
ENDBRANCH  40  41
ENDBRANCH  39  40
ENDBRANCH  38  39
ENDBRANCH  37  38
ENDBRANCH   1  37
TORSDOF 27
ENDMDL
