MODEL 1
REMARK VINA RESULT:      -9.9      0.000      0.000
REMARK SMILES CCN(CCC#N)C(=O)c1ccncc1/C=C/C(=O)NCCCCCCNC(=O)c1ccc(-c2c3nc(c(-c4cc(S(=O)(=O)[O-])ccc4F)c4ccc([nH]4)c(-c4cc(S(=O)(=O)[O-])ccc4F)c4nc(c(-c5cc(S(=O)(=O)[O-])ccc5F)c5ccc2[nH]5)C=C4)C=C3)cc1
REMARK SMILES IDX 22 1 21 2 20 3 18 4 19 5 17 7 16 8 15 9 10 10 11 11 12 12
REMARK SMILES IDX 14 13 13 14 8 15 9 16 3 17 2 18 1 19 4 20 5 21 6 22 7 23
REMARK SMILES IDX 23 24 24 25 25 26 26 27 27 28 28 29 29 31 30 32 31 33 92 34
REMARK SMILES IDX 32 35 91 36 33 37 34 38 35 39 85 40 36 41 90 42 84 43 86 44
REMARK SMILES IDX 37 45 89 46 83 47 82 48 38 50 70 51 50 52 69 53 51 54 54 55
REMARK SMILES IDX 68 56 87 57 52 58 53 59 67 61 88 62 55 63 39 64 40 65 48 66
REMARK SMILES IDX 41 67 47 68 49 69 46 70 42 71 43 72 44 73 45 74 71 75 72 76
REMARK SMILES IDX 80 77 73 78 79 79 81 80 78 81 74 82 75 83 76 84 77 85 56 86
REMARK SMILES IDX 57 87 65 88 58 89 64 90 66 91 63 92 59 93 60 94 61 95 62 96
REMARK H PARENT 20 6 27 30 86 49 54 60
REMARK Flexibility Score: inf
ROOT
ATOM      1  C   UNL A   1      31.910  28.018  23.112  1.00  0.00     0.021 C 
ENDROOT
BRANCH   1   2
ATOM      2  C   UNL A   1      31.483  26.633  22.630  1.00  0.00     0.116 C 
BRANCH   2   3
ATOM      3  N   UNL A   1      31.928  26.446  21.263  1.00  0.00    -0.353 N 
ATOM      4  C   UNL A   1      32.701  25.477  20.716  1.00  0.00     0.244 C 
ATOM      5  O   UNL A   1      32.982  25.526  19.519  1.00  0.00    -0.270 OA
ATOM      6  H   UNL A   1      31.618  27.133  20.630  1.00  0.00     0.163 HD
BRANCH   4   7
ATOM      7  C   UNL A   1      33.095  24.281  21.499  1.00  0.00     0.072 C 
ATOM      8  C   UNL A   1      32.567  23.834  22.652  1.00  0.00     0.016 C 
BRANCH   8   9
ATOM      9  C   UNL A   1      32.951  22.528  23.218  1.00  0.00     0.006 A 
ATOM     10  C   UNL A   1      34.140  22.304  23.929  1.00  0.00     0.050 A 
ATOM     11  C   UNL A   1      34.305  21.118  24.644  1.00  0.00     0.034 A 
ATOM     12  C   UNL A   1      33.390  20.103  24.468  1.00  0.00     0.112 A 
ATOM     13  C   UNL A   1      32.094  21.431  23.111  1.00  0.00     0.119 A 
ATOM     14  N   UNL A   1      32.301  20.222  23.687  1.00  0.00    -0.264 NA
BRANCH  10  15
ATOM     15  C   UNL A   1      35.228  23.306  24.044  1.00  0.00     0.254 C 
ATOM     16  O   UNL A   1      35.836  23.600  23.018  1.00  0.00    -0.269 OA
BRANCH  15  17
ATOM     17  N   UNL A   1      35.516  23.878  25.299  1.00  0.00    -0.338 N 
BRANCH  17  18
ATOM     18  C   UNL A   1      36.891  23.739  25.808  1.00  0.00     0.116 C 
ATOM     19  C   UNL A   1      37.603  22.491  25.305  1.00  0.00     0.027 C 
ENDBRANCH  17  18
BRANCH  17  20
ATOM     20  C   UNL A   1      34.540  24.516  26.212  1.00  0.00     0.135 C 
BRANCH  20  21
ATOM     21  C   UNL A   1      33.708  25.655  25.590  1.00  0.00     0.141 C 
BRANCH  21  22
ATOM     22  C   UNL A   1      32.340  25.735  26.117  1.00  0.00     0.064 C 
ATOM     23  N   UNL A   1      31.255  25.812  26.519  1.00  0.00    -0.198 NA
ENDBRANCH  21  22
ENDBRANCH  20  21
ENDBRANCH  17  20
ENDBRANCH  15  17
ENDBRANCH  10  15
ENDBRANCH   8   9
ENDBRANCH   4   7
ENDBRANCH   2   3
ENDBRANCH   1   2
BRANCH   1  24
ATOM     24  C   UNL A   1      30.962  28.592  24.171  1.00  0.00     0.002 C 
BRANCH  24  25
ATOM     25  C   UNL A   1      31.656  29.469  25.221  1.00  0.00     0.002 C 
BRANCH  25  26
ATOM     26  C   UNL A   1      33.172  29.272  25.304  1.00  0.00     0.021 C 
BRANCH  26  27
ATOM     27  C   UNL A   1      33.723  29.416  26.715  1.00  0.00     0.116 C 
BRANCH  27  28
ATOM     28  N   UNL A   1      33.741  30.812  27.129  1.00  0.00    -0.352 N 
ATOM     29  C   UNL A   1      34.565  31.426  28.037  1.00  0.00     0.251 C 
ATOM     30  H   UNL A   1      33.072  31.392  26.700  1.00  0.00     0.163 HD
ATOM     31  O   UNL A   1      34.267  32.520  28.503  1.00  0.00    -0.269 OA
BRANCH  29  32
ATOM     32  C   UNL A   1      35.809  30.743  28.444  1.00  0.00     0.039 A 
ATOM     33  C   UNL A   1      37.031  31.177  27.933  1.00  0.00     0.014 A 
ATOM     34  C   UNL A   1      35.753  29.679  29.350  1.00  0.00     0.014 A 
ATOM     35  C   UNL A   1      38.211  30.576  28.376  1.00  0.00     0.010 A 
ATOM     36  C   UNL A   1      36.930  29.146  29.855  1.00  0.00     0.010 A 
ATOM     37  C   UNL A   1      38.171  29.579  29.365  1.00  0.00    -0.014 A 
BRANCH  37  38
ATOM     38  C   UNL A   1      39.411  28.948  29.885  1.00  0.00     0.031 A 
ATOM     39  C   UNL A   1      40.060  29.500  31.124  1.00  0.00     0.074 A 
ATOM     40  C   UNL A   1      39.982  27.932  29.210  1.00  0.00     0.049 A 
ATOM     41  N   UNL A   1      41.200  29.174  31.676  1.00  0.00    -0.248 NA
ATOM     42  C   UNL A   1      39.348  30.587  31.813  1.00  0.00     0.031 C 
ATOM     43  C   UNL A   1      39.452  27.324  27.988  1.00  0.00     0.029 A 
ATOM     44  N   UNL A   1      41.137  27.232  29.453  1.00  0.00    -0.354 N 
ATOM     45  C   UNL A   1      41.344  30.021  32.770  1.00  0.00     0.074 A 
ATOM     46  C   UNL A   1      40.214  30.923  32.756  1.00  0.00     0.031 C 
ATOM     47  C   UNL A   1      40.264  26.326  27.607  1.00  0.00     0.029 A 
ATOM     48  C   UNL A   1      41.404  26.261  28.516  1.00  0.00     0.049 A 
ATOM     49  H   UNL A   1      41.722  27.410  30.225  1.00  0.00     0.167 HD
ATOM     50  C   UNL A   1      42.318  30.026  33.713  1.00  0.00     0.034 A 
ATOM     51  C   UNL A   1      42.457  25.427  28.393  1.00  0.00     0.034 A 
ATOM     52  C   UNL A   1      43.436  29.116  33.710  1.00  0.00     0.049 A 
ATOM     53  C   UNL A   1      43.564  25.499  29.415  1.00  0.00     0.074 A 
ATOM     54  C   UNL A   1      44.460  29.009  34.634  1.00  0.00     0.029 A 
ATOM     55  N   UNL A   1      43.683  28.161  32.731  1.00  0.00    -0.354 N 
ATOM     56  N   UNL A   1      43.675  26.288  30.459  1.00  0.00    -0.248 NA
ATOM     57  C   UNL A   1      44.686  24.565  29.247  1.00  0.00     0.031 C 
ATOM     58  C   UNL A   1      45.373  28.059  34.168  1.00  0.00     0.029 A 
ATOM     59  C   UNL A   1      44.865  27.492  33.010  1.00  0.00     0.049 A 
ATOM     60  H   UNL A   1      43.105  27.984  31.955  1.00  0.00     0.167 HD
ATOM     61  C   UNL A   1      44.855  25.911  31.097  1.00  0.00     0.074 A 
ATOM     62  C   UNL A   1      45.416  24.824  30.322  1.00  0.00     0.031 C 
ATOM     63  C   UNL A   1      45.416  26.409  32.227  1.00  0.00     0.034 A 
BRANCH  50  64
ATOM     64  C   UNL A   1      42.229  31.070  34.800  1.00  0.00     0.023 A 
ATOM     65  C   UNL A   1      42.833  32.333  34.664  1.00  0.00     0.031 A 
ATOM     66  C   UNL A   1      41.553  30.793  36.001  1.00  0.00     0.131 A 
ATOM     67  C   UNL A   1      42.823  33.233  35.738  1.00  0.00     0.055 A 
ATOM     68  C   UNL A   1      41.462  31.732  37.030  1.00  0.00     0.041 A 
ATOM     69  F   UNL A   1      40.980  29.596  36.204  1.00  0.00    -0.206 F 
ATOM     70  C   UNL A   1      42.115  32.956  36.909  1.00  0.00     0.022 A 
BRANCH  67  71
ATOM     71  S   UNL A   1      43.892  34.696  35.648  1.00  0.00     0.124 S 
ATOM     72  O   UNL A   1      44.962  34.223  34.774  1.00  0.00    -0.237 OA
ATOM     73  O   UNL A   1      43.002  35.702  35.081  1.00  0.00    -0.237 OA
ATOM     74  O   UNL A   1      44.285  34.918  37.037  1.00  0.00    -0.744 OA
ENDBRANCH  67  71
ENDBRANCH  50  64
BRANCH  51  75
ATOM     75  C   UNL A   1      42.530  24.464  27.255  1.00  0.00     0.023 A 
ATOM     76  C   UNL A   1      41.973  23.179  27.361  1.00  0.00     0.031 A 
ATOM     77  C   UNL A   1      43.208  24.791  26.067  1.00  0.00     0.131 A 
ATOM     78  C   UNL A   1      42.153  22.251  26.324  1.00  0.00     0.055 A 
ATOM     79  C   UNL A   1      43.324  23.887  25.009  1.00  0.00     0.041 A 
ATOM     80  F   UNL A   1      43.765  26.003  25.913  1.00  0.00    -0.206 F 
ATOM     81  C   UNL A   1      42.808  22.601  25.141  1.00  0.00     0.022 A 
BRANCH  78  82
ATOM     82  S   UNL A   1      41.623  20.537  26.594  1.00  0.00     0.124 S 
ATOM     83  O   UNL A   1      42.219  19.862  25.446  1.00  0.00    -0.237 OA
ATOM     84  O   UNL A   1      42.216  20.240  27.894  1.00  0.00    -0.237 OA
ATOM     85  O   UNL A   1      40.165  20.627  26.579  1.00  0.00    -0.744 OA
ENDBRANCH  78  82
ENDBRANCH  51  75
BRANCH  63  86
ATOM     86  C   UNL A   1      46.670  25.738  32.739  1.00  0.00     0.023 A 
ATOM     87  C   UNL A   1      47.938  26.009  32.199  1.00  0.00     0.031 A 
ATOM     88  C   UNL A   1      46.587  24.820  33.802  1.00  0.00     0.131 A 
ATOM     89  C   UNL A   1      49.064  25.329  32.689  1.00  0.00     0.055 A 
ATOM     90  C   UNL A   1      47.719  24.203  34.334  1.00  0.00     0.041 A 
ATOM     91  F   UNL A   1      45.400  24.515  34.352  1.00  0.00    -0.206 F 
ATOM     92  C   UNL A   1      48.966  24.448  33.768  1.00  0.00     0.022 A 
BRANCH  89  93
ATOM     93  S   UNL A   1      50.649  25.541  31.833  1.00  0.00     0.124 S 
ATOM     94  O   UNL A   1      51.567  25.763  32.946  1.00  0.00    -0.237 OA
ATOM     95  O   UNL A   1      50.797  24.271  31.130  1.00  0.00    -0.237 OA
ATOM     96  O   UNL A   1      50.423  26.702  30.974  1.00  0.00    -0.744 OA
ENDBRANCH  89  93
ENDBRANCH  63  86
ENDBRANCH  37  38
ENDBRANCH  29  32
ENDBRANCH  27  28
ENDBRANCH  26  27
ENDBRANCH  25  26
ENDBRANCH  24  25
ENDBRANCH   1  24
TORSDOF 23
ENDMDL
MODEL 2
REMARK VINA RESULT:      -9.8      1.721      2.918
REMARK SMILES CCN(CCC#N)C(=O)c1ccncc1/C=C/C(=O)NCCCCCCNC(=O)c1ccc(-c2c3nc(c(-c4cc(S(=O)(=O)[O-])ccc4F)c4ccc([nH]4)c(-c4cc(S(=O)(=O)[O-])ccc4F)c4nc(c(-c5cc(S(=O)(=O)[O-])ccc5F)c5ccc2[nH]5)C=C4)C=C3)cc1
REMARK SMILES IDX 22 1 21 2 20 3 18 4 19 5 17 7 16 8 15 9 10 10 11 11 12 12
REMARK SMILES IDX 14 13 13 14 8 15 9 16 3 17 2 18 1 19 4 20 5 21 6 22 7 23
REMARK SMILES IDX 23 24 24 25 25 26 26 27 27 28 28 29 29 31 30 32 31 33 92 34
REMARK SMILES IDX 32 35 91 36 33 37 34 38 35 39 85 40 36 41 90 42 84 43 86 44
REMARK SMILES IDX 37 45 89 46 83 47 82 48 38 50 70 51 50 52 69 53 51 54 54 55
REMARK SMILES IDX 68 56 87 57 52 58 53 59 67 61 88 62 55 63 39 64 40 65 48 66
REMARK SMILES IDX 41 67 47 68 49 69 46 70 42 71 43 72 44 73 45 74 71 75 72 76
REMARK SMILES IDX 80 77 73 78 79 79 81 80 78 81 74 82 75 83 76 84 77 85 56 86
REMARK SMILES IDX 57 87 65 88 58 89 64 90 66 91 63 92 59 93 60 94 61 95 62 96
REMARK H PARENT 20 6 27 30 86 49 54 60
REMARK Flexibility Score: inf
ROOT
ATOM      1  C   UNL A   1      30.650  27.038  24.257  1.00  0.00     0.021 C 
ENDROOT
BRANCH   1   2
ATOM      2  C   UNL A   1      31.354  25.726  23.916  1.00  0.00     0.116 C 
BRANCH   2   3
ATOM      3  N   UNL A   1      31.841  25.788  22.552  1.00  0.00    -0.353 N 
ATOM      4  C   UNL A   1      32.991  25.320  22.007  1.00  0.00     0.244 C 
ATOM      5  O   UNL A   1      33.218  25.508  20.813  1.00  0.00    -0.270 OA
ATOM      6  H   UNL A   1      31.239  26.241  21.918  1.00  0.00     0.163 HD
BRANCH   4   7
ATOM      7  C   UNL A   1      33.912  24.462  22.790  1.00  0.00     0.072 C 
ATOM      8  C   UNL A   1      33.603  23.574  23.751  1.00  0.00     0.016 C 
BRANCH   8   9
ATOM      9  C   UNL A   1      34.619  22.667  24.314  1.00  0.00     0.006 A 
ATOM     10  C   UNL A   1      34.356  21.343  24.702  1.00  0.00     0.050 A 
ATOM     11  C   UNL A   1      35.416  20.482  24.982  1.00  0.00     0.034 A 
ATOM     12  C   UNL A   1      36.689  21.002  25.076  1.00  0.00     0.112 A 
ATOM     13  C   UNL A   1      35.945  23.083  24.443  1.00  0.00     0.119 A 
ATOM     14  N   UNL A   1      36.973  22.297  24.845  1.00  0.00    -0.264 NA
BRANCH  10  15
ATOM     15  C   UNL A   1      32.993  20.760  24.755  1.00  0.00     0.254 C 
ATOM     16  O   UNL A   1      32.163  21.327  25.460  1.00  0.00    -0.269 OA
BRANCH  15  17
ATOM     17  N   UNL A   1      32.705  19.602  24.005  1.00  0.00    -0.338 N 
BRANCH  17  18
ATOM     18  C   UNL A   1      32.293  19.787  22.603  1.00  0.00     0.116 C 
ATOM     19  C   UNL A   1      31.817  21.199  22.291  1.00  0.00     0.027 C 
ENDBRANCH  17  18
BRANCH  17  20
ATOM     20  C   UNL A   1      32.671  18.214  24.521  1.00  0.00     0.135 C 
BRANCH  20  21
ATOM     21  C   UNL A   1      33.518  17.200  23.727  1.00  0.00     0.141 C 
BRANCH  21  22
ATOM     22  C   UNL A   1      34.281  16.280  24.581  1.00  0.00     0.064 C 
ATOM     23  N   UNL A   1      34.900  15.568  25.254  1.00  0.00    -0.198 NA
ENDBRANCH  21  22
ENDBRANCH  20  21
ENDBRANCH  17  20
ENDBRANCH  15  17
ENDBRANCH  10  15
ENDBRANCH   8   9
ENDBRANCH   4   7
ENDBRANCH   2   3
ENDBRANCH   1   2
BRANCH   1  24
ATOM     24  C   UNL A   1      31.471  27.919  25.205  1.00  0.00     0.002 C 
BRANCH  24  25
ATOM     25  C   UNL A   1      32.891  27.402  25.467  1.00  0.00     0.002 C 
BRANCH  25  26
ATOM     26  C   UNL A   1      33.825  28.428  26.112  1.00  0.00     0.021 C 
BRANCH  26  27
ATOM     27  C   UNL A   1      33.284  29.003  27.413  1.00  0.00     0.116 C 
BRANCH  27  28
ATOM     28  N   UNL A   1      33.429  30.452  27.446  1.00  0.00    -0.352 N 
ATOM     29  C   UNL A   1      34.405  31.202  28.051  1.00  0.00     0.251 C 
ATOM     30  H   UNL A   1      32.734  30.961  26.969  1.00  0.00     0.163 HD
ATOM     31  O   UNL A   1      34.231  32.399  28.251  1.00  0.00    -0.269 OA
BRANCH  29  32
ATOM     32  C   UNL A   1      35.660  30.540  28.459  1.00  0.00     0.039 A 
ATOM     33  C   UNL A   1      36.831  30.784  27.742  1.00  0.00     0.014 A 
ATOM     34  C   UNL A   1      35.668  29.689  29.568  1.00  0.00     0.014 A 
ATOM     35  C   UNL A   1      38.029  30.214  28.174  1.00  0.00     0.010 A 
ATOM     36  C   UNL A   1      36.874  29.199  30.047  1.00  0.00     0.010 A 
ATOM     37  C   UNL A   1      38.065  29.445  29.349  1.00  0.00    -0.014 A 
BRANCH  37  38
ATOM     38  C   UNL A   1      39.332  28.857  29.856  1.00  0.00     0.031 A 
ATOM     39  C   UNL A   1      40.020  29.487  31.036  1.00  0.00     0.074 A 
ATOM     40  C   UNL A   1      39.890  27.809  29.220  1.00  0.00     0.049 A 
ATOM     41  N   UNL A   1      41.184  29.205  31.561  1.00  0.00    -0.248 NA
ATOM     42  C   UNL A   1      39.321  30.604  31.688  1.00  0.00     0.031 C 
ATOM     43  C   UNL A   1      39.322  27.128  28.055  1.00  0.00     0.029 A 
ATOM     44  N   UNL A   1      41.062  27.137  29.458  1.00  0.00    -0.354 N 
ATOM     45  C   UNL A   1      41.359  30.114  32.599  1.00  0.00     0.074 A 
ATOM     46  C   UNL A   1      40.218  31.002  32.577  1.00  0.00     0.031 C 
ATOM     47  C   UNL A   1      40.131  26.117  27.701  1.00  0.00     0.029 A 
ATOM     48  C   UNL A   1      41.305  26.116  28.568  1.00  0.00     0.049 A 
ATOM     49  H   UNL A   1      41.673  27.365  30.195  1.00  0.00     0.167 HD
ATOM     50  C   UNL A   1      42.368  30.184  33.503  1.00  0.00     0.034 A 
ATOM     51  C   UNL A   1      42.363  25.287  28.453  1.00  0.00     0.034 A 
ATOM     52  C   UNL A   1      43.495  29.286  33.509  1.00  0.00     0.049 A 
ATOM     53  C   UNL A   1      43.507  25.429  29.426  1.00  0.00     0.074 A 
ATOM     54  C   UNL A   1      44.555  29.244  34.398  1.00  0.00     0.029 A 
ATOM     55  N   UNL A   1      43.718  28.279  32.578  1.00  0.00    -0.354 N 
ATOM     56  N   UNL A   1      43.647  26.278  30.418  1.00  0.00    -0.248 NA
ATOM     57  C   UNL A   1      44.633  24.499  29.269  1.00  0.00     0.031 C 
ATOM     58  C   UNL A   1      45.461  28.278  33.953  1.00  0.00     0.029 A 
ATOM     59  C   UNL A   1      44.918  27.640  32.849  1.00  0.00     0.049 A 
ATOM     60  H   UNL A   1      43.112  28.052  31.835  1.00  0.00     0.167 HD
ATOM     61  C   UNL A   1      44.855  25.951  31.031  1.00  0.00     0.074 A 
ATOM     62  C   UNL A   1      45.399  24.827  30.298  1.00  0.00     0.031 C 
ATOM     63  C   UNL A   1      45.452  26.519  32.109  1.00  0.00     0.034 A 
BRANCH  50  64
ATOM     64  C   UNL A   1      42.306  31.288  34.531  1.00  0.00     0.023 A 
ATOM     65  C   UNL A   1      42.729  32.596  34.236  1.00  0.00     0.031 A 
ATOM     66  C   UNL A   1      41.843  31.025  35.832  1.00  0.00     0.131 A 
ATOM     67  C   UNL A   1      42.761  33.566  35.248  1.00  0.00     0.055 A 
ATOM     68  C   UNL A   1      41.786  32.021  36.809  1.00  0.00     0.041 A 
ATOM     69  F   UNL A   1      41.453  29.791  36.184  1.00  0.00    -0.206 F 
ATOM     70  C   UNL A   1      42.263  33.298  36.524  1.00  0.00     0.022 A 
BRANCH  67  71
ATOM     71  S   UNL A   1      43.623  35.128  34.919  1.00  0.00     0.124 S 
ATOM     72  O   UNL A   1      44.987  34.664  34.678  1.00  0.00    -0.237 OA
ATOM     73  O   UNL A   1      42.908  35.644  33.758  1.00  0.00    -0.237 OA
ATOM     74  O   UNL A   1      43.441  35.886  36.155  1.00  0.00    -0.744 OA
ENDBRANCH  67  71
ENDBRANCH  50  64
BRANCH  51  75
ATOM     75  C   UNL A   1      42.405  24.261  27.370  1.00  0.00     0.023 A 
ATOM     76  C   UNL A   1      41.767  23.020  27.527  1.00  0.00     0.031 A 
ATOM     77  C   UNL A   1      43.132  24.481  26.187  1.00  0.00     0.131 A 
ATOM     78  C   UNL A   1      41.916  22.028  26.546  1.00  0.00     0.055 A 
ATOM     79  C   UNL A   1      43.219  23.516  25.182  1.00  0.00     0.041 A 
ATOM     80  F   UNL A   1      43.767  25.648  25.985  1.00  0.00    -0.206 F 
ATOM     81  C   UNL A   1      42.621  22.273  25.366  1.00  0.00     0.022 A 
BRANCH  78  82
ATOM     82  S   UNL A   1      41.274  20.366  26.892  1.00  0.00     0.124 S 
ATOM     83  O   UNL A   1      42.433  19.535  26.585  1.00  0.00    -0.237 OA
ATOM     84  O   UNL A   1      40.911  20.470  28.301  1.00  0.00    -0.237 OA
ATOM     85  O   UNL A   1      40.151  20.238  25.966  1.00  0.00    -0.744 OA
ENDBRANCH  78  82
ENDBRANCH  51  75
BRANCH  63  86
ATOM     86  C   UNL A   1      46.732  25.891  32.610  1.00  0.00     0.023 A 
ATOM     87  C   UNL A   1      46.738  24.880  33.585  1.00  0.00     0.031 A 
ATOM     88  C   UNL A   1      47.968  26.309  32.083  1.00  0.00     0.131 A 
ATOM     89  C   UNL A   1      47.959  24.357  34.040  1.00  0.00     0.055 A 
ATOM     90  C   UNL A   1      49.173  25.733  32.486  1.00  0.00     0.041 A 
ATOM     91  F   UNL A   1      48.024  27.277  31.155  1.00  0.00    -0.206 F 
ATOM     92  C   UNL A   1      49.173  24.760  33.480  1.00  0.00     0.022 A 
BRANCH  89  93
ATOM     93  S   UNL A   1      47.946  23.211  35.446  1.00  0.00     0.124 S 
ATOM     94  O   UNL A   1      47.713  21.929  34.789  1.00  0.00    -0.237 OA
ATOM     95  O   UNL A   1      49.274  23.401  36.017  1.00  0.00    -0.237 OA
ATOM     96  O   UNL A   1      46.841  23.694  36.272  1.00  0.00    -0.744 OA
ENDBRANCH  89  93
ENDBRANCH  63  86
ENDBRANCH  37  38
ENDBRANCH  29  32
ENDBRANCH  27  28
ENDBRANCH  26  27
ENDBRANCH  25  26
ENDBRANCH  24  25
ENDBRANCH   1  24
TORSDOF 23
ENDMDL
MODEL 3
REMARK VINA RESULT:      -9.1      6.058      7.512
REMARK SMILES CCN(CCC#N)C(=O)c1ccncc1/C=C/C(=O)NCCCCCCNC(=O)c1ccc(-c2c3nc(c(-c4cc(S(=O)(=O)[O-])ccc4F)c4ccc([nH]4)c(-c4cc(S(=O)(=O)[O-])ccc4F)c4nc(c(-c5cc(S(=O)(=O)[O-])ccc5F)c5ccc2[nH]5)C=C4)C=C3)cc1
REMARK SMILES IDX 22 1 21 2 20 3 18 4 19 5 17 7 16 8 15 9 10 10 11 11 12 12
REMARK SMILES IDX 14 13 13 14 8 15 9 16 3 17 2 18 1 19 4 20 5 21 6 22 7 23
REMARK SMILES IDX 23 24 24 25 25 26 26 27 27 28 28 29 29 31 30 32 31 33 92 34
REMARK SMILES IDX 32 35 91 36 33 37 34 38 35 39 85 40 36 41 90 42 84 43 86 44
REMARK SMILES IDX 37 45 89 46 83 47 82 48 38 50 70 51 50 52 69 53 51 54 54 55
REMARK SMILES IDX 68 56 87 57 52 58 53 59 67 61 88 62 55 63 39 64 40 65 48 66
REMARK SMILES IDX 41 67 47 68 49 69 46 70 42 71 43 72 44 73 45 74 71 75 72 76
REMARK SMILES IDX 80 77 73 78 79 79 81 80 78 81 74 82 75 83 76 84 77 85 56 86
REMARK SMILES IDX 57 87 65 88 58 89 64 90 66 91 63 92 59 93 60 94 61 95 62 96
REMARK H PARENT 20 6 27 30 86 49 54 60
REMARK Flexibility Score: inf
ROOT
ATOM      1  C   UNL A   1      34.083  31.112  27.711  1.00  0.00     0.021 C 
ENDROOT
BRANCH   1   2
ATOM      2  C   UNL A   1      34.172  29.657  27.256  1.00  0.00     0.116 C 
BRANCH   2   3
ATOM      3  N   UNL A   1      33.039  28.922  27.783  1.00  0.00    -0.353 N 
ATOM      4  C   UNL A   1      32.222  28.020  27.186  1.00  0.00     0.244 C 
ATOM      5  O   UNL A   1      31.290  27.530  27.822  1.00  0.00    -0.270 OA
ATOM      6  H   UNL A   1      32.829  29.108  28.726  1.00  0.00     0.163 HD
BRANCH   4   7
ATOM      7  C   UNL A   1      32.518  27.504  25.828  1.00  0.00     0.072 C 
ATOM      8  C   UNL A   1      33.037  26.310  25.490  1.00  0.00     0.016 C 
BRANCH   8   9
ATOM      9  C   UNL A   1      33.108  25.875  24.083  1.00  0.00     0.006 A 
ATOM     10  C   UNL A   1      33.337  24.547  23.687  1.00  0.00     0.050 A 
ATOM     11  C   UNL A   1      33.135  24.179  22.357  1.00  0.00     0.034 A 
ATOM     12  C   UNL A   1      32.919  25.166  21.419  1.00  0.00     0.112 A 
ATOM     13  C   UNL A   1      32.891  26.787  23.049  1.00  0.00     0.119 A 
ATOM     14  N   UNL A   1      32.826  26.471  21.732  1.00  0.00    -0.264 NA
BRANCH  10  15
ATOM     15  C   UNL A   1      33.707  23.463  24.628  1.00  0.00     0.254 C 
ATOM     16  O   UNL A   1      34.749  23.599  25.266  1.00  0.00    -0.269 OA
BRANCH  15  17
ATOM     17  N   UNL A   1      32.867  22.340  24.759  1.00  0.00    -0.338 N 
BRANCH  17  18
ATOM     18  C   UNL A   1      33.235  21.126  24.009  1.00  0.00     0.116 C 
ATOM     19  C   UNL A   1      32.632  19.852  24.582  1.00  0.00     0.027 C 
ENDBRANCH  17  18
BRANCH  17  20
ATOM     20  C   UNL A   1      31.584  22.291  25.498  1.00  0.00     0.135 C 
BRANCH  20  21
ATOM     21  C   UNL A   1      31.492  23.234  26.714  1.00  0.00     0.141 C 
BRANCH  21  22
ATOM     22  C   UNL A   1      30.429  24.240  26.593  1.00  0.00     0.064 C 
ATOM     23  N   UNL A   1      29.578  25.021  26.487  1.00  0.00    -0.198 NA
ENDBRANCH  21  22
ENDBRANCH  20  21
ENDBRANCH  17  20
ENDBRANCH  15  17
ENDBRANCH  10  15
ENDBRANCH   8   9
ENDBRANCH   4   7
ENDBRANCH   2   3
ENDBRANCH   1   2
BRANCH   1  24
ATOM     24  C   UNL A   1      35.460  31.761  27.885  1.00  0.00     0.002 C 
BRANCH  24  25
ATOM     25  C   UNL A   1      35.441  33.058  28.704  1.00  0.00     0.002 C 
BRANCH  25  26
ATOM     26  C   UNL A   1      34.630  32.973  29.999  1.00  0.00     0.021 C 
BRANCH  26  27
ATOM     27  C   UNL A   1      35.492  32.786  31.240  1.00  0.00     0.116 C 
BRANCH  27  28
ATOM     28  N   UNL A   1      35.532  31.387  31.642  1.00  0.00    -0.352 N 
ATOM     29  C   UNL A   1      36.538  30.472  31.463  1.00  0.00     0.251 C 
ATOM     30  H   UNL A   1      34.730  31.053  32.105  1.00  0.00     0.163 HD
ATOM     31  O   UNL A   1      36.312  29.272  31.577  1.00  0.00    -0.269 OA
BRANCH  29  32
ATOM     32  C   UNL A   1      37.890  30.959  31.125  1.00  0.00     0.039 A 
ATOM     33  C   UNL A   1      38.723  31.435  32.136  1.00  0.00     0.014 A 
ATOM     34  C   UNL A   1      38.329  30.924  29.798  1.00  0.00     0.014 A 
ATOM     35  C   UNL A   1      40.026  31.826  31.823  1.00  0.00     0.010 A 
ATOM     36  C   UNL A   1      39.651  31.228  29.504  1.00  0.00     0.010 A 
ATOM     37  C   UNL A   1      40.510  31.694  30.511  1.00  0.00    -0.014 A 
BRANCH  37  38
ATOM     38  C   UNL A   1      41.903  32.065  30.154  1.00  0.00     0.031 A 
ATOM     39  C   UNL A   1      42.208  33.474  29.727  1.00  0.00     0.074 A 
ATOM     40  C   UNL A   1      42.869  31.126  30.148  1.00  0.00     0.049 A 
ATOM     41  N   UNL A   1      43.324  33.975  29.265  1.00  0.00    -0.248 NA
ATOM     42  C   UNL A   1      41.099  34.439  29.796  1.00  0.00     0.031 C 
ATOM     43  C   UNL A   1      42.687  29.723  30.527  1.00  0.00     0.029 A 
ATOM     44  N   UNL A   1      44.196  31.207  29.808  1.00  0.00    -0.354 N 
ATOM     45  C   UNL A   1      43.050  35.309  28.982  1.00  0.00     0.074 A 
ATOM     46  C   UNL A   1      41.644  35.515  29.252  1.00  0.00     0.031 C 
ATOM     47  C   UNL A   1      43.863  29.086  30.426  1.00  0.00     0.029 A 
ATOM     48  C   UNL A   1      44.869  30.012  29.916  1.00  0.00     0.049 A 
ATOM     49  H   UNL A   1      44.625  32.042  29.512  1.00  0.00     0.167 HD
ATOM     50  C   UNL A   1      43.900  36.277  28.560  1.00  0.00     0.034 A 
ATOM     51  C   UNL A   1      46.146  29.696  29.619  1.00  0.00     0.034 A 
ATOM     52  C   UNL A   1      45.299  36.050  28.300  1.00  0.00     0.049 A 
ATOM     53  C   UNL A   1      47.056  30.774  29.084  1.00  0.00     0.074 A 
ATOM     54  C   UNL A   1      46.259  36.966  27.904  1.00  0.00     0.029 A 
ATOM     55  N   UNL A   1      45.940  34.822  28.400  1.00  0.00    -0.354 N 
ATOM     56  N   UNL A   1      46.789  32.038  28.845  1.00  0.00    -0.248 NA
ATOM     57  C   UNL A   1      48.441  30.386  28.784  1.00  0.00     0.031 C 
ATOM     58  C   UNL A   1      47.452  36.277  27.674  1.00  0.00     0.029 A 
ATOM     59  C   UNL A   1      47.271  34.950  28.032  1.00  0.00     0.049 A 
ATOM     60  H   UNL A   1      45.513  33.983  28.689  1.00  0.00     0.167 HD
ATOM     61  C   UNL A   1      47.986  32.604  28.412  1.00  0.00     0.074 A 
ATOM     62  C   UNL A   1      48.974  31.545  28.426  1.00  0.00     0.031 C 
ATOM     63  C   UNL A   1      48.248  33.885  28.049  1.00  0.00     0.034 A 
BRANCH  50  64
ATOM     64  C   UNL A   1      43.326  37.654  28.325  1.00  0.00     0.023 A 
ATOM     65  C   UNL A   1      43.388  38.658  29.306  1.00  0.00     0.031 A 
ATOM     66  C   UNL A   1      42.684  37.961  27.112  1.00  0.00     0.131 A 
ATOM     67  C   UNL A   1      42.746  39.886  29.093  1.00  0.00     0.055 A 
ATOM     68  C   UNL A   1      42.133  39.220  26.868  1.00  0.00     0.041 A 
ATOM     69  F   UNL A   1      42.567  37.036  26.147  1.00  0.00    -0.206 F 
ATOM     70  C   UNL A   1      42.146  40.187  27.869  1.00  0.00     0.022 A 
BRANCH  67  71
ATOM     71  S   UNL A   1      42.557  41.017  30.499  1.00  0.00     0.124 S 
ATOM     72  O   UNL A   1      42.739  40.111  31.630  1.00  0.00    -0.237 OA
ATOM     73  O   UNL A   1      43.628  41.981  30.274  1.00  0.00    -0.237 OA
ATOM     74  O   UNL A   1      41.202  41.538  30.339  1.00  0.00    -0.744 OA
ENDBRANCH  67  71
ENDBRANCH  50  64
BRANCH  51  75
ATOM     75  C   UNL A   1      46.642  28.300  29.801  1.00  0.00     0.023 A 
ATOM     76  C   UNL A   1      46.543  27.360  28.763  1.00  0.00     0.031 A 
ATOM     77  C   UNL A   1      47.167  27.868  31.031  1.00  0.00     0.131 A 
ATOM     78  C   UNL A   1      46.909  26.024  28.991  1.00  0.00     0.055 A 
ATOM     79  C   UNL A   1      47.596  26.555  31.232  1.00  0.00     0.041 A 
ATOM     80  F   UNL A   1      47.280  28.724  32.061  1.00  0.00    -0.206 F 
ATOM     81  C   UNL A   1      47.453  25.619  30.213  1.00  0.00     0.022 A 
BRANCH  78  82
ATOM     82  S   UNL A   1      46.551  24.796  27.705  1.00  0.00     0.124 S 
ATOM     83  O   UNL A   1      45.751  23.824  28.444  1.00  0.00    -0.237 OA
ATOM     84  O   UNL A   1      45.838  25.595  26.715  1.00  0.00    -0.237 OA
ATOM     85  O   UNL A   1      47.876  24.334  27.298  1.00  0.00    -0.744 OA
ENDBRANCH  78  82
ENDBRANCH  51  75
BRANCH  63  86
ATOM     86  C   UNL A   1      49.676  34.235  27.703  1.00  0.00     0.023 A 
ATOM     87  C   UNL A   1      50.194  34.072  26.408  1.00  0.00     0.031 A 
ATOM     88  C   UNL A   1      50.527  34.758  28.694  1.00  0.00     0.131 A 
ATOM     89  C   UNL A   1      51.540  34.380  26.150  1.00  0.00     0.055 A 
ATOM     90  C   UNL A   1      51.842  35.132  28.414  1.00  0.00     0.041 A 
ATOM     91  F   UNL A   1      50.089  34.928  29.952  1.00  0.00    -0.206 F 
ATOM     92  C   UNL A   1      52.358  34.931  27.139  1.00  0.00     0.022 A 
BRANCH  89  93
ATOM     93  S   UNL A   1      52.234  33.960  24.529  1.00  0.00     0.124 S 
ATOM     94  O   UNL A   1      51.417  32.817  24.136  1.00  0.00    -0.237 OA
ATOM     95  O   UNL A   1      52.020  35.187  23.769  1.00  0.00    -0.237 OA
ATOM     96  O   UNL A   1      53.633  33.651  24.824  1.00  0.00    -0.744 OA
ENDBRANCH  89  93
ENDBRANCH  63  86
ENDBRANCH  37  38
ENDBRANCH  29  32
ENDBRANCH  27  28
ENDBRANCH  26  27
ENDBRANCH  25  26
ENDBRANCH  24  25
ENDBRANCH   1  24
TORSDOF 23
ENDMDL
