MODEL 1
REMARK VINA RESULT:     -12.0      0.000      0.000
REMARK SMILES C[C@@H](C(=O)NCCCCCCNC(=O)c1ccc(-c2c3nc(c(-c4cc(S(=O)(=O)[O-])ccc4F)c4ccc([nH]4)c(-c4cc(S(=O)(=O)[O-])ccc4F)c4nc(c(-c5cc(S(=O)(=O)[O-])ccc5F)c5ccc2[nH]5)C=C4)C=C3)cc1)c1ccc2c3cc(Cl)ccc3n(C(=O)c3ccc(Cl)cc3)c2c1
REMARK SMILES IDX 8 1 7 2 6 3 5 4 3 5 4 6 2 8 1 9 78 10 79 11 100 12 80 13
REMARK SMILES IDX 99 14 81 15 89 16 82 17 88 18 83 19 87 20 84 21 86 22 85 23
REMARK SMILES IDX 90 24 91 25 92 26 93 27 98 28 94 29 97 30 95 31 96 32 9 33
REMARK SMILES IDX 10 34 11 35 12 36 13 37 14 39 15 40 16 41 77 42 17 43 76 44
REMARK SMILES IDX 18 45 19 46 20 47 70 48 21 49 75 50 69 51 71 52 22 53 74 54
REMARK SMILES IDX 68 55 67 56 23 58 55 59 35 60 54 61 36 62 39 63 53 64 72 65
REMARK SMILES IDX 37 66 38 67 52 69 73 70 40 71 24 72 25 73 33 74 26 75 32 76
REMARK SMILES IDX 34 77 31 78 27 79 28 80 29 81 30 82 56 83 57 84 65 85 58 86
REMARK SMILES IDX 64 87 66 88 63 89 59 90 60 91 61 92 62 93 41 94 42 95 50 96
REMARK SMILES IDX 43 97 49 98 51 99 48 100 44 101 45 102 46 103 47 104
REMARK H PARENT 5 7 12 38 71 57 39 68
REMARK Flexibility Score: inf
ROOT
ATOM      1  C   UNL A   1      38.152  23.670  26.169  1.00  0.00     0.002 C 
ENDROOT
BRANCH   1   2
ATOM      2  C   UNL A   1      37.249  22.936  25.169  1.00  0.00     0.021 C 
BRANCH   2   3
ATOM      3  C   UNL A   1      35.763  22.974  25.533  1.00  0.00     0.116 C 
BRANCH   3   4
ATOM      4  N   UNL A   1      34.976  22.382  24.474  1.00  0.00    -0.356 N 
ATOM      5  C   UNL A   1      33.625  22.263  24.349  1.00  0.00     0.227 C 
ATOM      6  O   UNL A   1      33.223  21.557  23.421  1.00  0.00    -0.274 OA
ATOM      7  H   UNL A   1      35.498  22.008  23.728  1.00  0.00     0.163 HD
BRANCH   5   8
ATOM      8  C   UNL A   1      32.704  23.046  25.298  1.00  0.00     0.105 C 
ATOM      9  C   UNL A   1      31.521  22.246  25.851  1.00  0.00     0.023 C 
BRANCH   8  10
ATOM     10  C   UNL A   1      32.123  24.316  24.689  1.00  0.00    -0.034 A 
ATOM     11  C   UNL A   1      31.544  24.317  23.418  1.00  0.00     0.005 A 
ATOM     12  C   UNL A   1      32.067  25.476  25.476  1.00  0.00     0.032 A 
ATOM     13  C   UNL A   1      30.884  25.445  22.935  1.00  0.00     0.011 A 
ATOM     14  C   UNL A   1      31.435  26.628  24.970  1.00  0.00     0.057 A 
ATOM     15  C   UNL A   1      30.809  26.605  23.730  1.00  0.00     0.008 A 
ATOM     16  N   UNL A   1      31.261  27.903  25.537  1.00  0.00    -0.276 N 
ATOM     17  C   UNL A   1      30.213  27.873  23.531  1.00  0.00     0.009 A 
ATOM     18  C   UNL A   1      30.587  28.701  24.600  1.00  0.00     0.057 A 
ATOM     19  C   UNL A   1      29.440  28.384  22.467  1.00  0.00     0.031 A 
ATOM     20  C   UNL A   1      30.327  30.085  24.533  1.00  0.00     0.029 A 
ATOM     21  C   UNL A   1      29.134  29.738  22.441  1.00  0.00     0.041 A 
ATOM     22  C   UNL A   1      29.597  30.583  23.442  1.00  0.00     0.023 A 
ATOM     23  Cl  UNL A   1      28.217  30.368  21.128  1.00  0.00    -0.084 Cl
BRANCH  16  24
ATOM     24  C   UNL A   1      31.782  28.252  26.814  1.00  0.00     0.262 C 
ATOM     25  O   UNL A   1      31.199  27.753  27.781  1.00  0.00    -0.268 OA
BRANCH  24  26
ATOM     26  C   UNL A   1      32.900  29.175  27.177  1.00  0.00     0.040 A 
ATOM     27  C   UNL A   1      32.579  30.548  27.264  1.00  0.00     0.015 A 
ATOM     28  C   UNL A   1      34.242  28.802  27.290  1.00  0.00     0.015 A 
ATOM     29  C   UNL A   1      33.559  31.520  27.475  1.00  0.00     0.021 A 
ATOM     30  C   UNL A   1      35.225  29.777  27.534  1.00  0.00     0.021 A 
ATOM     31  C   UNL A   1      34.881  31.128  27.619  1.00  0.00     0.041 A 
ATOM     32  Cl  UNL A   1      36.098  32.316  27.873  1.00  0.00    -0.084 Cl
ENDBRANCH  24  26
ENDBRANCH  16  24
ENDBRANCH   8  10
ENDBRANCH   5   8
ENDBRANCH   3   4
ENDBRANCH   2   3
ENDBRANCH   1   2
BRANCH   1  33
ATOM     33  C   UNL A   1      39.410  22.899  26.577  1.00  0.00     0.002 C 
BRANCH  33  34
ATOM     34  C   UNL A   1      39.509  21.492  25.988  1.00  0.00     0.021 C 
BRANCH  34  35
ATOM     35  C   UNL A   1      40.091  20.455  26.941  1.00  0.00     0.116 C 
BRANCH  35  36
ATOM     36  N   UNL A   1      41.043  19.586  26.273  1.00  0.00    -0.352 N 
ATOM     37  C   UNL A   1      42.282  19.888  25.761  1.00  0.00     0.251 C 
ATOM     38  H   UNL A   1      40.762  18.647  26.172  1.00  0.00     0.163 HD
ATOM     39  O   UNL A   1      42.849  19.093  25.023  1.00  0.00    -0.269 OA
BRANCH  37  40
ATOM     40  C   UNL A   1      42.906  21.188  26.090  1.00  0.00     0.039 A 
ATOM     41  C   UNL A   1      43.095  22.123  25.070  1.00  0.00     0.014 A 
ATOM     42  C   UNL A   1      43.291  21.488  27.400  1.00  0.00     0.014 A 
ATOM     43  C   UNL A   1      43.606  23.384  25.378  1.00  0.00     0.010 A 
ATOM     44  C   UNL A   1      43.731  22.771  27.716  1.00  0.00     0.010 A 
ATOM     45  C   UNL A   1      43.887  23.735  26.709  1.00  0.00    -0.014 A 
BRANCH  45  46
ATOM     46  C   UNL A   1      44.315  25.115  27.063  1.00  0.00     0.031 A 
ATOM     47  C   UNL A   1      43.341  26.078  27.686  1.00  0.00     0.074 A 
ATOM     48  C   UNL A   1      45.571  25.511  26.771  1.00  0.00     0.049 A 
ATOM     49  N   UNL A   1      43.517  27.333  28.011  1.00  0.00    -0.248 NA
ATOM     50  C   UNL A   1      41.987  25.571  27.961  1.00  0.00     0.031 C 
ATOM     51  C   UNL A   1      46.593  24.676  26.133  1.00  0.00     0.029 A 
ATOM     52  N   UNL A   1      46.205  26.714  26.962  1.00  0.00    -0.354 N 
ATOM     53  C   UNL A   1      42.297  27.770  28.518  1.00  0.00     0.074 A 
ATOM     54  C   UNL A   1      41.377  26.659  28.413  1.00  0.00     0.031 C 
ATOM     55  C   UNL A   1      47.728  25.382  26.011  1.00  0.00     0.029 A 
ATOM     56  C   UNL A   1      47.504  26.736  26.506  1.00  0.00     0.049 A 
ATOM     57  H   UNL A   1      45.771  27.489  27.386  1.00  0.00     0.167 HD
ATOM     58  C   UNL A   1      41.983  28.982  29.038  1.00  0.00     0.034 A 
ATOM     59  C   UNL A   1      48.407  27.738  26.471  1.00  0.00     0.034 A 
ATOM     60  C   UNL A   1      42.918  30.075  29.148  1.00  0.00     0.049 A 
ATOM     61  C   UNL A   1      48.014  29.086  27.024  1.00  0.00     0.074 A 
ATOM     62  C   UNL A   1      42.719  31.320  29.721  1.00  0.00     0.029 A 
ATOM     63  N   UNL A   1      44.221  30.065  28.666  1.00  0.00    -0.354 N 
ATOM     64  N   UNL A   1      46.875  29.458  27.564  1.00  0.00    -0.248 NA
ATOM     65  C   UNL A   1      49.029  30.147  26.972  1.00  0.00     0.031 C 
ATOM     66  C   UNL A   1      43.867  32.089  29.511  1.00  0.00     0.029 A 
ATOM     67  C   UNL A   1      44.819  31.297  28.889  1.00  0.00     0.049 A 
ATOM     68  H   UNL A   1      44.655  29.297  28.230  1.00  0.00     0.167 HD
ATOM     69  C   UNL A   1      47.054  30.787  27.945  1.00  0.00     0.074 A 
ATOM     70  C   UNL A   1      48.413  31.139  27.597  1.00  0.00     0.031 C 
ATOM     71  C   UNL A   1      46.174  31.638  28.530  1.00  0.00     0.034 A 
BRANCH  58  72
ATOM     72  C   UNL A   1      40.566  29.207  29.504  1.00  0.00     0.023 A 
ATOM     73  C   UNL A   1      40.228  29.247  30.867  1.00  0.00     0.031 A 
ATOM     74  C   UNL A   1      39.540  29.421  28.565  1.00  0.00     0.131 A 
ATOM     75  C   UNL A   1      38.894  29.450  31.252  1.00  0.00     0.055 A 
ATOM     76  C   UNL A   1      38.228  29.695  28.955  1.00  0.00     0.041 A 
ATOM     77  F   UNL A   1      39.799  29.371  27.248  1.00  0.00    -0.206 F 
ATOM     78  C   UNL A   1      37.897  29.703  30.305  1.00  0.00     0.022 A 
BRANCH  75  79
ATOM     79  S   UNL A   1      38.457  29.278  33.004  1.00  0.00     0.124 S 
ATOM     80  O   UNL A   1      39.678  28.697  33.556  1.00  0.00    -0.237 OA
ATOM     81  O   UNL A   1      38.171  30.654  33.394  1.00  0.00    -0.237 OA
ATOM     82  O   UNL A   1      37.303  28.383  32.983  1.00  0.00    -0.744 OA
ENDBRANCH  75  79
ENDBRANCH  58  72
BRANCH  59  83
ATOM     83  C   UNL A   1      49.758  27.533  25.867  1.00  0.00     0.023 A 
ATOM     84  C   UNL A   1      50.029  27.929  24.548  1.00  0.00     0.031 A 
ATOM     85  C   UNL A   1      50.772  26.857  26.571  1.00  0.00     0.131 A 
ATOM     86  C   UNL A   1      51.251  27.581  23.950  1.00  0.00     0.055 A 
ATOM     87  C   UNL A   1      52.013  26.579  25.995  1.00  0.00     0.041 A 
ATOM     88  F   UNL A   1      50.570  26.453  27.836  1.00  0.00    -0.206 F 
ATOM     89  C   UNL A   1      52.250  26.924  24.669  1.00  0.00     0.022 A 
BRANCH  86  90
ATOM     90  S   UNL A   1      51.458  27.876  22.171  1.00  0.00     0.124 S 
ATOM     91  O   UNL A   1      52.910  27.899  22.044  1.00  0.00    -0.237 OA
ATOM     92  O   UNL A   1      50.781  26.720  21.593  1.00  0.00    -0.237 OA
ATOM     93  O   UNL A   1      50.791  29.159  21.960  1.00  0.00    -0.744 OA
ENDBRANCH  86  90
ENDBRANCH  59  83
BRANCH  71  94
ATOM     94  C   UNL A   1      46.678  33.022  28.868  1.00  0.00     0.023 A 
ATOM     95  C   UNL A   1      46.499  34.109  27.995  1.00  0.00     0.031 A 
ATOM     96  C   UNL A   1      47.359  33.251  30.077  1.00  0.00     0.131 A 
ATOM     97  C   UNL A   1      47.049  35.359  28.313  1.00  0.00     0.055 A 
ATOM     98  C   UNL A   1      47.842  34.514  30.421  1.00  0.00     0.041 A 
ATOM     99  F   UNL A   1      47.563  32.249  30.948  1.00  0.00    -0.206 F 
ATOM    100  C   UNL A   1      47.703  35.573  29.530  1.00  0.00     0.022 A 
BRANCH  97 101
ATOM    101  S   UNL A   1      46.993  36.677  27.069  1.00  0.00     0.124 S 
ATOM    102  O   UNL A   1      46.083  37.638  27.686  1.00  0.00    -0.237 OA
ATOM    103  O   UNL A   1      48.391  37.088  26.984  1.00  0.00    -0.237 OA
ATOM    104  O   UNL A   1      46.471  36.005  25.880  1.00  0.00    -0.744 OA
ENDBRANCH  97 101
ENDBRANCH  71  94
ENDBRANCH  45  46
ENDBRANCH  37  40
ENDBRANCH  35  36
ENDBRANCH  34  35
ENDBRANCH  33  34
ENDBRANCH   1  33
TORSDOF 19
ENDMDL
MODEL 2
REMARK VINA RESULT:     -11.7      0.873      7.368
REMARK SMILES C[C@@H](C(=O)NCCCCCCNC(=O)c1ccc(-c2c3nc(c(-c4cc(S(=O)(=O)[O-])ccc4F)c4ccc([nH]4)c(-c4cc(S(=O)(=O)[O-])ccc4F)c4nc(c(-c5cc(S(=O)(=O)[O-])ccc5F)c5ccc2[nH]5)C=C4)C=C3)cc1)c1ccc2c3cc(Cl)ccc3n(C(=O)c3ccc(Cl)cc3)c2c1
REMARK SMILES IDX 8 1 7 2 6 3 5 4 3 5 4 6 2 8 1 9 78 10 79 11 100 12 80 13
REMARK SMILES IDX 99 14 81 15 89 16 82 17 88 18 83 19 87 20 84 21 86 22 85 23
REMARK SMILES IDX 90 24 91 25 92 26 93 27 98 28 94 29 97 30 95 31 96 32 9 33
REMARK SMILES IDX 10 34 11 35 12 36 13 37 14 39 15 40 16 41 77 42 17 43 76 44
REMARK SMILES IDX 18 45 19 46 20 47 70 48 21 49 75 50 69 51 71 52 22 53 74 54
REMARK SMILES IDX 68 55 67 56 23 58 55 59 35 60 54 61 36 62 39 63 53 64 72 65
REMARK SMILES IDX 37 66 38 67 52 69 73 70 40 71 24 72 25 73 33 74 26 75 32 76
REMARK SMILES IDX 34 77 31 78 27 79 28 80 29 81 30 82 56 83 57 84 65 85 58 86
REMARK SMILES IDX 64 87 66 88 63 89 59 90 60 91 61 92 62 93 41 94 42 95 50 96
REMARK SMILES IDX 43 97 49 98 51 99 48 100 44 101 45 102 46 103 47 104
REMARK H PARENT 5 7 12 38 71 57 39 68
REMARK Flexibility Score: inf
ROOT
ATOM      1  C   UNL A   1      38.401  22.750  26.113  1.00  0.00     0.002 C 
ENDROOT
BRANCH   1   2
ATOM      2  C   UNL A   1      37.597  21.904  25.117  1.00  0.00     0.021 C 
BRANCH   2   3
ATOM      3  C   UNL A   1      36.103  22.237  25.088  1.00  0.00     0.116 C 
BRANCH   3   4
ATOM      4  N   UNL A   1      35.711  22.646  23.757  1.00  0.00    -0.356 N 
ATOM      5  C   UNL A   1      34.539  23.183  23.315  1.00  0.00     0.227 C 
ATOM      6  O   UNL A   1      34.410  23.279  22.093  1.00  0.00    -0.274 OA
ATOM      7  H   UNL A   1      36.398  22.516  23.063  1.00  0.00     0.163 HD
BRANCH   5   8
ATOM      8  C   UNL A   1      33.506  23.687  24.335  1.00  0.00     0.105 C 
ATOM      9  C   UNL A   1      32.454  22.654  24.749  1.00  0.00     0.023 C 
BRANCH   8  10
ATOM     10  C   UNL A   1      32.741  24.925  23.880  1.00  0.00    -0.034 A 
ATOM     11  C   UNL A   1      32.165  25.001  22.610  1.00  0.00     0.005 A 
ATOM     12  C   UNL A   1      32.517  25.955  24.805  1.00  0.00     0.032 A 
ATOM     13  C   UNL A   1      31.344  26.072  22.262  1.00  0.00     0.011 A 
ATOM     14  C   UNL A   1      31.720  27.057  24.438  1.00  0.00     0.057 A 
ATOM     15  C   UNL A   1      31.101  27.099  23.195  1.00  0.00     0.008 A 
ATOM     16  N   UNL A   1      31.363  28.211  25.158  1.00  0.00    -0.276 N 
ATOM     17  C   UNL A   1      30.324  28.281  23.147  1.00  0.00     0.009 A 
ATOM     18  C   UNL A   1      30.575  29.013  24.317  1.00  0.00     0.057 A 
ATOM     19  C   UNL A   1      29.482  28.803  22.144  1.00  0.00     0.031 A 
ATOM     20  C   UNL A   1      30.114  30.341  24.421  1.00  0.00     0.029 A 
ATOM     21  C   UNL A   1      28.979  30.090  22.283  1.00  0.00     0.041 A 
ATOM     22  C   UNL A   1      29.315  30.860  23.389  1.00  0.00     0.023 A 
ATOM     23  Cl  UNL A   1      27.975  30.739  21.045  1.00  0.00    -0.084 Cl
BRANCH  16  24
ATOM     24  C   UNL A   1      31.830  28.468  26.476  1.00  0.00     0.262 C 
ATOM     25  O   UNL A   1      31.249  27.854  27.377  1.00  0.00    -0.268 OA
BRANCH  24  26
ATOM     26  C   UNL A   1      32.887  29.410  26.955  1.00  0.00     0.040 A 
ATOM     27  C   UNL A   1      32.488  30.750  27.162  1.00  0.00     0.015 A 
ATOM     28  C   UNL A   1      34.244  29.100  27.069  1.00  0.00     0.015 A 
ATOM     29  C   UNL A   1      33.408  31.748  27.490  1.00  0.00     0.021 A 
ATOM     30  C   UNL A   1      35.166  30.098  27.432  1.00  0.00     0.021 A 
ATOM     31  C   UNL A   1      34.746  31.415  27.633  1.00  0.00     0.041 A 
ATOM     32  Cl  UNL A   1      35.890  32.635  28.032  1.00  0.00    -0.084 Cl
ENDBRANCH  24  26
ENDBRANCH  16  24
ENDBRANCH   8  10
ENDBRANCH   5   8
ENDBRANCH   3   4
ENDBRANCH   2   3
ENDBRANCH   1   2
BRANCH   1  33
ATOM     33  C   UNL A   1      39.671  22.079  26.640  1.00  0.00     0.002 C 
BRANCH  33  34
ATOM     34  C   UNL A   1      40.023  20.759  25.950  1.00  0.00     0.021 C 
BRANCH  34  35
ATOM     35  C   UNL A   1      40.886  19.826  26.791  1.00  0.00     0.116 C 
BRANCH  35  36
ATOM     36  N   UNL A   1      42.068  19.392  26.067  1.00  0.00    -0.352 N 
ATOM     37  C   UNL A   1      43.100  20.144  25.560  1.00  0.00     0.251 C 
ATOM     38  H   UNL A   1      42.140  18.420  25.918  1.00  0.00     0.163 HD
ATOM     39  O   UNL A   1      43.894  19.643  24.776  1.00  0.00    -0.269 OA
BRANCH  37  40
ATOM     40  C   UNL A   1      43.223  21.565  25.953  1.00  0.00     0.039 A 
ATOM     41  C   UNL A   1      43.485  21.874  27.289  1.00  0.00     0.014 A 
ATOM     42  C   UNL A   1      43.094  22.586  25.006  1.00  0.00     0.014 A 
ATOM     43  C   UNL A   1      43.686  23.204  27.662  1.00  0.00     0.010 A 
ATOM     44  C   UNL A   1      43.368  23.903  25.366  1.00  0.00     0.010 A 
ATOM     45  C   UNL A   1      43.673  24.225  26.696  1.00  0.00    -0.014 A 
BRANCH  45  46
ATOM     46  C   UNL A   1      44.007  25.628  27.062  1.00  0.00     0.031 A 
ATOM     47  C   UNL A   1      45.414  26.140  26.909  1.00  0.00     0.074 A 
ATOM     48  C   UNL A   1      43.048  26.421  27.581  1.00  0.00     0.049 A 
ATOM     49  N   UNL A   1      45.903  27.311  27.226  1.00  0.00    -0.248 NA
ATOM     50  C   UNL A   1      46.405  25.209  26.346  1.00  0.00     0.031 C 
ATOM     51  C   UNL A   1      41.655  26.022  27.811  1.00  0.00     0.029 A 
ATOM     52  N   UNL A   1      43.090  27.722  28.020  1.00  0.00    -0.354 N 
ATOM     53  C   UNL A   1      47.257  27.256  26.912  1.00  0.00     0.074 A 
ATOM     54  C   UNL A   1      47.521  25.920  26.424  1.00  0.00     0.031 C 
ATOM     55  C   UNL A   1      40.976  27.061  28.319  1.00  0.00     0.029 A 
ATOM     56  C   UNL A   1      41.890  28.183  28.509  1.00  0.00     0.049 A 
ATOM     57  H   UNL A   1      43.905  28.274  27.985  1.00  0.00     0.167 HD
ATOM     58  C   UNL A   1      48.189  28.237  27.007  1.00  0.00     0.034 A 
ATOM     59  C   UNL A   1      41.564  29.367  29.068  1.00  0.00     0.034 A 
ATOM     60  C   UNL A   1      47.904  29.569  27.482  1.00  0.00     0.049 A 
ATOM     61  C   UNL A   1      42.632  30.426  29.193  1.00  0.00     0.074 A 
ATOM     62  C   UNL A   1      48.760  30.656  27.553  1.00  0.00     0.029 A 
ATOM     63  N   UNL A   1      46.681  29.998  27.980  1.00  0.00    -0.354 N 
ATOM     64  N   UNL A   1      43.893  30.377  28.824  1.00  0.00    -0.248 NA
ATOM     65  C   UNL A   1      42.234  31.703  29.800  1.00  0.00     0.031 C 
ATOM     66  C   UNL A   1      48.082  31.711  28.170  1.00  0.00     0.029 A 
ATOM     67  C   UNL A   1      46.774  31.315  28.402  1.00  0.00     0.049 A 
ATOM     68  H   UNL A   1      45.867  29.446  28.028  1.00  0.00     0.167 HD
ATOM     69  C   UNL A   1      44.424  31.628  29.127  1.00  0.00     0.074 A 
ATOM     70  C   UNL A   1      43.344  32.415  29.681  1.00  0.00     0.031 C 
ATOM     71  C   UNL A   1      45.690  32.087  28.961  1.00  0.00     0.034 A 
BRANCH  58  72
ATOM     72  C   UNL A   1      49.608  27.907  26.618  1.00  0.00     0.023 A 
ATOM     73  C   UNL A   1      50.121  28.210  25.345  1.00  0.00     0.031 A 
ATOM     74  C   UNL A   1      50.475  27.309  27.551  1.00  0.00     0.131 A 
ATOM     75  C   UNL A   1      51.445  27.876  25.026  1.00  0.00     0.055 A 
ATOM     76  C   UNL A   1      51.812  27.044  27.252  1.00  0.00     0.041 A 
ATOM     77  F   UNL A   1      50.034  26.975  28.775  1.00  0.00    -0.206 F 
ATOM     78  C   UNL A   1      52.303  27.321  25.980  1.00  0.00     0.022 A 
BRANCH  75  79
ATOM     79  S   UNL A   1      52.007  28.080  23.313  1.00  0.00     0.124 S 
ATOM     80  O   UNL A   1      53.439  28.300  23.497  1.00  0.00    -0.237 OA
ATOM     81  O   UNL A   1      51.628  26.810  22.704  1.00  0.00    -0.237 OA
ATOM     82  O   UNL A   1      51.260  29.245  22.844  1.00  0.00    -0.744 OA
ENDBRANCH  75  79
ENDBRANCH  58  72
BRANCH  59  83
ATOM     83  C   UNL A   1      40.185  29.619  29.583  1.00  0.00     0.023 A 
ATOM     84  C   UNL A   1      39.917  29.623  30.962  1.00  0.00     0.031 A 
ATOM     85  C   UNL A   1      39.098  29.772  28.703  1.00  0.00     0.131 A 
ATOM     86  C   UNL A   1      38.592  29.701  31.417  1.00  0.00     0.055 A 
ATOM     87  C   UNL A   1      37.788  29.923  29.164  1.00  0.00     0.041 A 
ATOM     88  F   UNL A   1      39.292  29.775  27.375  1.00  0.00    -0.206 F 
ATOM     89  C   UNL A   1      37.527  29.867  30.529  1.00  0.00     0.022 A 
BRANCH  86  90
ATOM     90  S   UNL A   1      38.266  29.437  33.184  1.00  0.00     0.124 S 
ATOM     91  O   UNL A   1      39.614  29.247  33.705  1.00  0.00    -0.237 OA
ATOM     92  O   UNL A   1      37.602  30.682  33.556  1.00  0.00    -0.237 OA
ATOM     93  O   UNL A   1      37.416  28.249  33.198  1.00  0.00    -0.744 OA
ENDBRANCH  86  90
ENDBRANCH  59  83
BRANCH  71  94
ATOM     94  C   UNL A   1      45.958  33.523  29.346  1.00  0.00     0.023 A 
ATOM     95  C   UNL A   1      45.849  34.572  28.416  1.00  0.00     0.031 A 
ATOM     96  C   UNL A   1      46.340  33.844  30.661  1.00  0.00     0.131 A 
ATOM     97  C   UNL A   1      46.180  35.881  28.796  1.00  0.00     0.055 A 
ATOM     98  C   UNL A   1      46.599  35.158  31.052  1.00  0.00     0.041 A 
ATOM     99  F   UNL A   1      46.463  32.883  31.591  1.00  0.00    -0.206 F 
ATOM    100  C   UNL A   1      46.535  36.183  30.114  1.00  0.00     0.022 A 
BRANCH  97 101
ATOM    101  S   UNL A   1      46.243  37.168  27.520  1.00  0.00     0.124 S 
ATOM    102  O   UNL A   1      44.912  37.073  26.928  1.00  0.00    -0.237 OA
ATOM    103  O   UNL A   1      46.507  38.371  28.303  1.00  0.00    -0.237 OA
ATOM    104  O   UNL A   1      47.340  36.739  26.654  1.00  0.00    -0.744 OA
ENDBRANCH  97 101
ENDBRANCH  71  94
ENDBRANCH  45  46
ENDBRANCH  37  40
ENDBRANCH  35  36
ENDBRANCH  34  35
ENDBRANCH  33  34
ENDBRANCH   1  33
TORSDOF 19
ENDMDL
MODEL 3
REMARK VINA RESULT:     -11.6      5.442      9.258
REMARK SMILES C[C@@H](C(=O)NCCCCCCNC(=O)c1ccc(-c2c3nc(c(-c4cc(S(=O)(=O)[O-])ccc4F)c4ccc([nH]4)c(-c4cc(S(=O)(=O)[O-])ccc4F)c4nc(c(-c5cc(S(=O)(=O)[O-])ccc5F)c5ccc2[nH]5)C=C4)C=C3)cc1)c1ccc2c3cc(Cl)ccc3n(C(=O)c3ccc(Cl)cc3)c2c1
REMARK SMILES IDX 8 1 7 2 6 3 5 4 3 5 4 6 2 8 1 9 78 10 79 11 100 12 80 13
REMARK SMILES IDX 99 14 81 15 89 16 82 17 88 18 83 19 87 20 84 21 86 22 85 23
REMARK SMILES IDX 90 24 91 25 92 26 93 27 98 28 94 29 97 30 95 31 96 32 9 33
REMARK SMILES IDX 10 34 11 35 12 36 13 37 14 39 15 40 16 41 77 42 17 43 76 44
REMARK SMILES IDX 18 45 19 46 20 47 70 48 21 49 75 50 69 51 71 52 22 53 74 54
REMARK SMILES IDX 68 55 67 56 23 58 55 59 35 60 54 61 36 62 39 63 53 64 72 65
REMARK SMILES IDX 37 66 38 67 52 69 73 70 40 71 24 72 25 73 33 74 26 75 32 76
REMARK SMILES IDX 34 77 31 78 27 79 28 80 29 81 30 82 56 83 57 84 65 85 58 86
REMARK SMILES IDX 64 87 66 88 63 89 59 90 60 91 61 92 62 93 41 94 42 95 50 96
REMARK SMILES IDX 43 97 49 98 51 99 48 100 44 101 45 102 46 103 47 104
REMARK H PARENT 5 7 12 38 71 57 39 68
REMARK Flexibility Score: inf
ROOT
ATOM      1  C   UNL A   1      33.208  30.222  27.276  1.00  0.00     0.002 C 
ENDROOT
BRANCH   1   2
ATOM      2  C   UNL A   1      32.094  29.223  26.938  1.00  0.00     0.021 C 
BRANCH   2   3
ATOM      3  C   UNL A   1      32.454  27.767  27.246  1.00  0.00     0.116 C 
BRANCH   3   4
ATOM      4  N   UNL A   1      31.276  26.932  27.145  1.00  0.00    -0.356 N 
ATOM      5  C   UNL A   1      30.930  26.019  26.195  1.00  0.00     0.227 C 
ATOM      6  O   UNL A   1      29.783  25.571  26.262  1.00  0.00    -0.274 OA
ATOM      7  H   UNL A   1      30.625  27.041  27.876  1.00  0.00     0.163 HD
BRANCH   5   8
ATOM      8  C   UNL A   1      31.976  25.561  25.167  1.00  0.00     0.105 C 
ATOM      9  C   UNL A   1      31.639  25.896  23.712  1.00  0.00     0.023 C 
BRANCH   8  10
ATOM     10  C   UNL A   1      32.272  24.066  25.210  1.00  0.00    -0.034 A 
ATOM     11  C   UNL A   1      31.261  23.127  25.425  1.00  0.00     0.005 A 
ATOM     12  C   UNL A   1      33.571  23.628  24.910  1.00  0.00     0.032 A 
ATOM     13  C   UNL A   1      31.518  21.763  25.312  1.00  0.00     0.011 A 
ATOM     14  C   UNL A   1      33.839  22.247  24.837  1.00  0.00     0.057 A 
ATOM     15  C   UNL A   1      32.816  21.320  24.992  1.00  0.00     0.008 A 
ATOM     16  N   UNL A   1      35.036  21.557  24.578  1.00  0.00    -0.276 N 
ATOM     17  C   UNL A   1      33.376  20.034  24.800  1.00  0.00     0.009 A 
ATOM     18  C   UNL A   1      34.763  20.182  24.651  1.00  0.00     0.057 A 
ATOM     19  C   UNL A   1      32.792  18.750  24.818  1.00  0.00     0.031 A 
ATOM     20  C   UNL A   1      35.593  19.043  24.681  1.00  0.00     0.029 A 
ATOM     21  C   UNL A   1      33.614  17.632  24.783  1.00  0.00     0.041 A 
ATOM     22  C   UNL A   1      34.995  17.774  24.748  1.00  0.00     0.023 A 
ATOM     23  Cl  UNL A   1      32.904  16.065  24.835  1.00  0.00    -0.084 Cl
BRANCH  16  24
ATOM     24  C   UNL A   1      36.275  22.223  24.365  1.00  0.00     0.262 C 
ATOM     25  O   UNL A   1      36.499  22.571  23.202  1.00  0.00    -0.268 OA
BRANCH  24  26
ATOM     26  C   UNL A   1      37.380  22.527  25.324  1.00  0.00     0.040 A 
ATOM     27  C   UNL A   1      37.411  23.837  25.853  1.00  0.00     0.015 A 
ATOM     28  C   UNL A   1      38.444  21.671  25.617  1.00  0.00     0.015 A 
ATOM     29  C   UNL A   1      38.461  24.278  26.662  1.00  0.00     0.021 A 
ATOM     30  C   UNL A   1      39.486  22.104  26.458  1.00  0.00     0.021 A 
ATOM     31  C   UNL A   1      39.492  23.403  26.970  1.00  0.00     0.041 A 
ATOM     32  Cl  UNL A   1      40.792  23.935  27.960  1.00  0.00    -0.084 Cl
ENDBRANCH  24  26
ENDBRANCH  16  24
ENDBRANCH   8  10
ENDBRANCH   5   8
ENDBRANCH   3   4
ENDBRANCH   2   3
ENDBRANCH   1   2
BRANCH   1  33
ATOM     33  C   UNL A   1      34.613  29.617  27.323  1.00  0.00     0.002 C 
BRANCH  33  34
ATOM     34  C   UNL A   1      35.664  30.507  27.987  1.00  0.00     0.021 C 
BRANCH  34  35
ATOM     35  C   UNL A   1      36.203  29.961  29.304  1.00  0.00     0.116 C 
BRANCH  35  36
ATOM     36  N   UNL A   1      35.741  30.741  30.438  1.00  0.00    -0.352 N 
ATOM     37  C   UNL A   1      36.310  30.884  31.681  1.00  0.00     0.251 C 
ATOM     38  H   UNL A   1      34.901  31.236  30.298  1.00  0.00     0.163 HD
ATOM     39  O   UNL A   1      35.667  31.388  32.592  1.00  0.00    -0.269 OA
BRANCH  37  40
ATOM     40  C   UNL A   1      37.691  30.405  31.907  1.00  0.00     0.039 A 
ATOM     41  C   UNL A   1      37.883  29.112  32.398  1.00  0.00     0.014 A 
ATOM     42  C   UNL A   1      38.790  31.221  31.625  1.00  0.00     0.014 A 
ATOM     43  C   UNL A   1      39.179  28.614  32.539  1.00  0.00     0.010 A 
ATOM     44  C   UNL A   1      40.078  30.698  31.697  1.00  0.00     0.010 A 
ATOM     45  C   UNL A   1      40.286  29.386  32.148  1.00  0.00    -0.014 A 
BRANCH  45  46
ATOM     46  C   UNL A   1      41.662  28.821  32.179  1.00  0.00     0.031 A 
ATOM     47  C   UNL A   1      42.549  29.043  33.374  1.00  0.00     0.074 A 
ATOM     48  C   UNL A   1      42.126  28.155  31.102  1.00  0.00     0.049 A 
ATOM     49  N   UNL A   1      43.791  28.676  33.557  1.00  0.00    -0.248 NA
ATOM     50  C   UNL A   1      41.972  29.791  34.503  1.00  0.00     0.031 C 
ATOM     51  C   UNL A   1      41.369  27.910  29.870  1.00  0.00     0.029 A 
ATOM     52  N   UNL A   1      43.343  27.566  30.859  1.00  0.00    -0.354 N 
ATOM     53  C   UNL A   1      44.149  29.155  34.813  1.00  0.00     0.074 A 
ATOM     54  C   UNL A   1      43.007  29.880  35.327  1.00  0.00     0.031 C 
ATOM     55  C   UNL A   1      42.127  27.203  29.018  1.00  0.00     0.029 A 
ATOM     56  C   UNL A   1      43.443  26.991  29.613  1.00  0.00     0.049 A 
ATOM     57  H   UNL A   1      44.075  27.556  31.517  1.00  0.00     0.167 HD
ATOM     58  C   UNL A   1      45.317  28.989  35.481  1.00  0.00     0.034 A 
ATOM     59  C   UNL A   1      44.482  26.380  29.007  1.00  0.00     0.034 A 
ATOM     60  C   UNL A   1      46.441  28.250  34.959  1.00  0.00     0.049 A 
ATOM     61  C   UNL A   1      45.782  26.243  29.764  1.00  0.00     0.074 A 
ATOM     62  C   UNL A   1      47.645  27.965  35.582  1.00  0.00     0.029 A 
ATOM     63  N   UNL A   1      46.512  27.691  33.690  1.00  0.00    -0.354 N 
ATOM     64  N   UNL A   1      46.077  26.643  30.980  1.00  0.00    -0.248 NA
ATOM     65  C   UNL A   1      46.885  25.566  29.070  1.00  0.00     0.031 C 
ATOM     66  C   UNL A   1      48.472  27.312  34.665  1.00  0.00     0.029 A 
ATOM     67  C   UNL A   1      47.754  27.105  33.497  1.00  0.00     0.049 A 
ATOM     68  H   UNL A   1      45.787  27.710  33.024  1.00  0.00     0.167 HD
ATOM     69  C   UNL A   1      47.389  26.234  31.205  1.00  0.00     0.074 A 
ATOM     70  C   UNL A   1      47.817  25.536  30.012  1.00  0.00     0.031 C 
ATOM     71  C   UNL A   1      48.171  26.417  32.299  1.00  0.00     0.034 A 
BRANCH  58  72
ATOM     72  C   UNL A   1      45.458  29.638  36.835  1.00  0.00     0.023 A 
ATOM     73  C   UNL A   1      45.405  28.893  38.026  1.00  0.00     0.031 A 
ATOM     74  C   UNL A   1      45.684  31.023  36.935  1.00  0.00     0.131 A 
ATOM     75  C   UNL A   1      45.532  29.542  39.263  1.00  0.00     0.055 A 
ATOM     76  C   UNL A   1      45.882  31.651  38.165  1.00  0.00     0.041 A 
ATOM     77  F   UNL A   1      45.721  31.789  35.833  1.00  0.00    -0.206 F 
ATOM     78  C   UNL A   1      45.798  30.912  39.340  1.00  0.00     0.022 A 
BRANCH  75  79
ATOM     79  S   UNL A   1      45.241  28.589  40.780  1.00  0.00     0.124 S 
ATOM     80  O   UNL A   1      44.335  29.471  41.512  1.00  0.00    -0.237 OA
ATOM     81  O   UNL A   1      44.657  27.355  40.269  1.00  0.00    -0.237 OA
ATOM     82  O   UNL A   1      46.575  28.455  41.361  1.00  0.00    -0.744 OA
ENDBRANCH  75  79
ENDBRANCH  58  72
BRANCH  59  83
ATOM     83  C   UNL A   1      44.366  25.876  27.606  1.00  0.00     0.023 A 
ATOM     84  C   UNL A   1      43.975  24.554  27.342  1.00  0.00     0.031 A 
ATOM     85  C   UNL A   1      44.731  26.684  26.513  1.00  0.00     0.131 A 
ATOM     86  C   UNL A   1      44.029  24.056  26.030  1.00  0.00     0.055 A 
ATOM     87  C   UNL A   1      44.712  26.205  25.201  1.00  0.00     0.041 A 
ATOM     88  F   UNL A   1      45.114  27.956  26.703  1.00  0.00    -0.206 F 
ATOM     89  C   UNL A   1      44.379  24.877  24.956  1.00  0.00     0.022 A 
BRANCH  86  90
ATOM     90  S   UNL A   1      43.773  22.279  25.768  1.00  0.00     0.124 S 
ATOM     91  O   UNL A   1      45.114  21.839  25.402  1.00  0.00    -0.237 OA
ATOM     92  O   UNL A   1      43.289  21.848  27.075  1.00  0.00    -0.237 OA
ATOM     93  O   UNL A   1      42.785  22.234  24.692  1.00  0.00    -0.744 OA
ENDBRANCH  86  90
ENDBRANCH  59  83
BRANCH  71  94
ATOM     94  C   UNL A   1      49.554  25.812  32.264  1.00  0.00     0.023 A 
ATOM     95  C   UNL A   1      49.785  24.472  32.621  1.00  0.00     0.031 A 
ATOM     96  C   UNL A   1      50.660  26.593  31.882  1.00  0.00     0.131 A 
ATOM     97  C   UNL A   1      51.095  23.971  32.649  1.00  0.00     0.055 A 
ATOM     98  C   UNL A   1      51.952  26.069  31.843  1.00  0.00     0.041 A 
ATOM     99  F   UNL A   1      50.500  27.880  31.535  1.00  0.00    -0.206 F 
ATOM    100  C   UNL A   1      52.178  24.755  32.243  1.00  0.00     0.022 A 
BRANCH  97 101
ATOM    101  S   UNL A   1      51.378  22.312  33.324  1.00  0.00     0.124 S 
ATOM    102  O   UNL A   1      51.997  22.610  34.612  1.00  0.00    -0.237 OA
ATOM    103  O   UNL A   1      50.027  21.762  33.378  1.00  0.00    -0.237 OA
ATOM    104  O   UNL A   1      52.262  21.688  32.341  1.00  0.00    -0.744 OA
ENDBRANCH  97 101
ENDBRANCH  71  94
ENDBRANCH  45  46
ENDBRANCH  37  40
ENDBRANCH  35  36
ENDBRANCH  34  35
ENDBRANCH  33  34
ENDBRANCH   1  33
TORSDOF 19
ENDMDL
