MODEL 1
REMARK VINA RESULT:     -10.5      0.000      0.000
REMARK SMILES CCCC[C@H](C(=O)NCCCCCCNC(=O)c1ccc(-c2c3nc(c(-c4cc(S(=O)(=O)[O-])ccc4F)c4ccc([nH]4)c(-c4cc(S(=O)(=O)[O-])ccc4F)c4nc(c(-c5cc(S(=O)(=O)[O-])ccc5F)c5ccc2[nH]5)C=C4)C=C3)cc1)[C@H](O)c1ccc(C(F)(F)F)cc1
REMARK SMILES IDX 11 1 10 2 9 3 8 4 6 5 7 6 5 8 4 9 3 10 2 11 1 12 81 13 83 14
REMARK SMILES IDX 84 15 92 16 85 17 91 18 86 19 87 20 88 21 89 22 90 23 82 24
REMARK SMILES IDX 12 26 13 27 14 28 15 29 16 30 17 32 18 33 19 34 80 35 20 36
REMARK SMILES IDX 79 37 21 38 22 39 23 40 73 41 24 42 78 43 72 44 74 45 25 46
REMARK SMILES IDX 77 47 71 48 70 49 26 51 58 52 38 53 57 54 39 55 42 56 56 57
REMARK SMILES IDX 75 58 40 59 41 60 55 62 76 63 43 64 27 65 28 66 36 67 29 68
REMARK SMILES IDX 35 69 37 70 34 71 30 72 31 73 32 74 33 75 59 76 60 77 68 78
REMARK SMILES IDX 61 79 67 80 69 81 66 82 62 83 63 84 64 85 65 86 44 87 45 88
REMARK SMILES IDX 53 89 46 90 52 91 54 92 51 93 47 94 48 95 49 96 50 97
REMARK H PARENT 8 7 82 25 15 31 74 50 42 61
REMARK Flexibility Score: inf
ROOT
ATOM      1  C   UNL A   1      32.186  22.408  24.046  1.00  0.00     0.002 C 
ENDROOT
BRANCH   1   2
ATOM      2  C   UNL A   1      30.970  23.320  24.236  1.00  0.00     0.021 C 
BRANCH   2   3
ATOM      3  C   UNL A   1      30.637  24.269  23.070  1.00  0.00     0.116 C 
BRANCH   3   4
ATOM      4  N   UNL A   1      31.867  24.609  22.365  1.00  0.00    -0.356 N 
ATOM      5  C   UNL A   1      32.685  25.695  22.408  1.00  0.00     0.226 C 
ATOM      6  O   UNL A   1      33.406  25.859  21.418  1.00  0.00    -0.275 OA
ATOM      7  H   UNL A   1      32.165  23.915  21.735  1.00  0.00     0.163 HD
BRANCH   5   8
ATOM      8  C   UNL A   1      32.742  26.657  23.606  1.00  0.00     0.111 C 
BRANCH   8   9
ATOM      9  C   UNL A   1      33.970  26.242  24.483  1.00  0.00     0.016 C 
BRANCH   9  10
ATOM     10  C   UNL A   1      33.661  26.066  25.974  1.00  0.00     0.001 C 
BRANCH  10  11
ATOM     11  C   UNL A   1      32.291  26.567  26.434  1.00  0.00    -0.003 C 
ATOM     12  C   UNL A   1      32.341  27.894  27.176  1.00  0.00     0.004 C 
ENDBRANCH  10  11
ENDBRANCH   9  10
ENDBRANCH   8   9
BRANCH   8  13
ATOM     13  C   UNL A   1      32.821  28.124  23.070  1.00  0.00     0.157 C 
BRANCH  13  14
ATOM     14  C   UNL A   1      31.498  28.859  23.212  1.00  0.00    -0.019 A 
ATOM     15  C   UNL A   1      30.444  28.666  22.305  1.00  0.00     0.007 A 
ATOM     16  C   UNL A   1      31.329  29.792  24.237  1.00  0.00     0.007 A 
ATOM     17  C   UNL A   1      29.297  29.464  22.362  1.00  0.00     0.013 A 
ATOM     18  C   UNL A   1      30.202  30.615  24.274  1.00  0.00     0.013 A 
ATOM     19  C   UNL A   1      29.192  30.488  23.312  1.00  0.00     0.056 A 
BRANCH  19  20
ATOM     20  C   UNL A   1      28.044  31.470  23.300  1.00  0.00     0.416 C 
ATOM     21  F   UNL A   1      27.090  31.203  24.233  1.00  0.00    -0.166 F 
ATOM     22  F   UNL A   1      28.446  32.750  23.509  1.00  0.00    -0.166 F 
ATOM     23  F   UNL A   1      27.400  31.469  22.097  1.00  0.00    -0.166 F 
ENDBRANCH  19  20
ENDBRANCH  13  14
BRANCH  13  24
ATOM     24  O   UNL A   1      33.815  28.918  23.723  1.00  0.00    -0.388 OA
ATOM     25  H   UNL A   1      34.322  29.412  23.060  1.00  0.00     0.211 HD
ENDBRANCH  13  24
ENDBRANCH   8  13
ENDBRANCH   5   8
ENDBRANCH   3   4
ENDBRANCH   2   3
ENDBRANCH   1   2
BRANCH   1  26
ATOM     26  C   UNL A   1      33.130  22.293  25.249  1.00  0.00     0.002 C 
BRANCH  26  27
ATOM     27  C   UNL A   1      34.616  22.595  25.002  1.00  0.00     0.021 C 
BRANCH  27  28
ATOM     28  C   UNL A   1      35.577  22.290  26.155  1.00  0.00     0.116 C 
BRANCH  28  29
ATOM     29  N   UNL A   1      36.572  21.298  25.796  1.00  0.00    -0.352 N 
ATOM     30  C   UNL A   1      37.941  21.384  25.725  1.00  0.00     0.251 C 
ATOM     31  H   UNL A   1      36.204  20.414  25.565  1.00  0.00     0.163 HD
ATOM     32  O   UNL A   1      38.552  20.472  25.168  1.00  0.00    -0.269 OA
BRANCH  30  33
ATOM     33  C   UNL A   1      38.697  22.532  26.289  1.00  0.00     0.039 A 
ATOM     34  C   UNL A   1      38.317  23.826  25.909  1.00  0.00     0.014 A 
ATOM     35  C   UNL A   1      39.834  22.365  27.085  1.00  0.00     0.014 A 
ATOM     36  C   UNL A   1      39.055  24.937  26.331  1.00  0.00     0.010 A 
ATOM     37  C   UNL A   1      40.541  23.481  27.554  1.00  0.00     0.010 A 
ATOM     38  C   UNL A   1      40.173  24.779  27.165  1.00  0.00    -0.014 A 
BRANCH  38  39
ATOM     39  C   UNL A   1      40.985  25.960  27.579  1.00  0.00     0.031 A 
ATOM     40  C   UNL A   1      40.366  27.059  28.408  1.00  0.00     0.074 A 
ATOM     41  C   UNL A   1      42.278  26.057  27.209  1.00  0.00     0.049 A 
ATOM     42  N   UNL A   1      40.899  28.173  28.844  1.00  0.00    -0.248 NA
ATOM     43  C   UNL A   1      38.953  26.888  28.774  1.00  0.00     0.031 C 
ATOM     44  C   UNL A   1      42.997  25.078  26.392  1.00  0.00     0.029 A 
ATOM     45  N   UNL A   1      43.219  27.025  27.469  1.00  0.00    -0.354 N 
ATOM     46  C   UNL A   1      39.885  28.840  29.527  1.00  0.00     0.074 A 
ATOM     47  C   UNL A   1      38.694  28.028  29.396  1.00  0.00     0.031 C 
ATOM     48  C   UNL A   1      44.268  25.484  26.236  1.00  0.00     0.029 A 
ATOM     49  C   UNL A   1      44.449  26.768  26.909  1.00  0.00     0.049 A 
ATOM     50  H   UNL A   1      43.030  27.828  28.007  1.00  0.00     0.167 HD
ATOM     51  C   UNL A   1      39.945  30.009  30.217  1.00  0.00     0.034 A 
ATOM     52  C   UNL A   1      45.592  27.485  26.926  1.00  0.00     0.034 A 
ATOM     53  C   UNL A   1      41.141  30.807  30.353  1.00  0.00     0.049 A 
ATOM     54  C   UNL A   1      45.631  28.788  27.685  1.00  0.00     0.074 A 
ATOM     55  C   UNL A   1      41.316  31.988  31.056  1.00  0.00     0.029 A 
ATOM     56  N   UNL A   1      42.368  30.510  29.774  1.00  0.00    -0.354 N 
ATOM     57  N   UNL A   1      44.671  29.387  28.353  1.00  0.00    -0.248 NA
ATOM     58  C   UNL A   1      46.914  29.503  27.708  1.00  0.00     0.031 C 
ATOM     59  C   UNL A   1      42.627  32.434  30.855  1.00  0.00     0.029 A 
ATOM     60  C   UNL A   1      43.295  31.494  30.087  1.00  0.00     0.049 A 
ATOM     61  H   UNL A   1      42.554  29.717  29.222  1.00  0.00     0.167 HD
ATOM     62  C   UNL A   1      45.248  30.528  28.904  1.00  0.00     0.074 A 
ATOM     63  C   UNL A   1      46.640  30.526  28.503  1.00  0.00     0.031 C 
ATOM     64  C   UNL A   1      44.680  31.488  29.679  1.00  0.00     0.034 A 
BRANCH  51  65
ATOM     65  C   UNL A   1      38.667  30.505  30.853  1.00  0.00     0.023 A 
ATOM     66  C   UNL A   1      37.749  31.302  30.146  1.00  0.00     0.031 A 
ATOM     67  C   UNL A   1      38.369  30.195  32.193  1.00  0.00     0.131 A 
ATOM     68  C   UNL A   1      36.624  31.826  30.799  1.00  0.00     0.055 A 
ATOM     69  C   UNL A   1      37.204  30.650  32.814  1.00  0.00     0.041 A 
ATOM     70  F   UNL A   1      39.213  29.452  32.926  1.00  0.00    -0.206 F 
ATOM     71  C   UNL A   1      36.331  31.484  32.122  1.00  0.00     0.022 A 
BRANCH  68  72
ATOM     72  S   UNL A   1      35.624  33.074  29.945  1.00  0.00     0.124 S 
ATOM     73  O   UNL A   1      34.823  33.612  31.043  1.00  0.00    -0.237 OA
ATOM     74  O   UNL A   1      36.640  33.971  29.398  1.00  0.00    -0.237 OA
ATOM     75  O   UNL A   1      34.878  32.302  28.958  1.00  0.00    -0.744 OA
ENDBRANCH  68  72
ENDBRANCH  51  65
BRANCH  52  76
ATOM     76  C   UNL A   1      46.800  27.000  26.200  1.00  0.00     0.023 A 
ATOM     77  C   UNL A   1      47.844  26.350  26.880  1.00  0.00     0.031 A 
ATOM     78  C   UNL A   1      46.954  27.226  24.821  1.00  0.00     0.131 A 
ATOM     79  C   UNL A   1      49.015  25.997  26.192  1.00  0.00     0.055 A 
ATOM     80  C   UNL A   1      48.098  26.824  24.130  1.00  0.00     0.041 A 
ATOM     81  F   UNL A   1      45.985  27.840  24.121  1.00  0.00    -0.206 F 
ATOM     82  C   UNL A   1      49.144  26.218  24.819  1.00  0.00     0.022 A 
BRANCH  79  83
ATOM     83  S   UNL A   1      50.408  25.322  27.138  1.00  0.00     0.124 S 
ATOM     84  O   UNL A   1      51.354  24.991  26.080  1.00  0.00    -0.237 OA
ATOM     85  O   UNL A   1      50.767  26.449  27.992  1.00  0.00    -0.237 OA
ATOM     86  O   UNL A   1      49.824  24.177  27.834  1.00  0.00    -0.744 OA
ENDBRANCH  79  83
ENDBRANCH  52  76
BRANCH  64  87
ATOM     87  C   UNL A   1      45.586  32.583  30.191  1.00  0.00     0.023 A 
ATOM     88  C   UNL A   1      46.282  32.465  31.407  1.00  0.00     0.031 A 
ATOM     89  C   UNL A   1      45.734  33.774  29.458  1.00  0.00     0.131 A 
ATOM     90  C   UNL A   1      47.044  33.543  31.884  1.00  0.00     0.055 A 
ATOM     91  C   UNL A   1      46.541  34.820  29.908  1.00  0.00     0.041 A 
ATOM     92  F   UNL A   1      45.092  33.942  28.290  1.00  0.00    -0.206 F 
ATOM     93  C   UNL A   1      47.190  34.714  31.135  1.00  0.00     0.022 A 
BRANCH  90  94
ATOM     94  S   UNL A   1      47.765  33.435  33.546  1.00  0.00     0.124 S 
ATOM     95  O   UNL A   1      47.452  34.748  34.100  1.00  0.00    -0.237 OA
ATOM     96  O   UNL A   1      47.041  32.308  34.126  1.00  0.00    -0.237 OA
ATOM     97  O   UNL A   1      49.184  33.192  33.289  1.00  0.00    -0.744 OA
ENDBRANCH  90  94
ENDBRANCH  64  87
ENDBRANCH  38  39
ENDBRANCH  30  33
ENDBRANCH  28  29
ENDBRANCH  27  28
ENDBRANCH  26  27
ENDBRANCH   1  26
TORSDOF 23
ENDMDL
MODEL 2
REMARK VINA RESULT:     -10.4      3.054      4.009
REMARK SMILES CCCC[C@H](C(=O)NCCCCCCNC(=O)c1ccc(-c2c3nc(c(-c4cc(S(=O)(=O)[O-])ccc4F)c4ccc([nH]4)c(-c4cc(S(=O)(=O)[O-])ccc4F)c4nc(c(-c5cc(S(=O)(=O)[O-])ccc5F)c5ccc2[nH]5)C=C4)C=C3)cc1)[C@H](O)c1ccc(C(F)(F)F)cc1
REMARK SMILES IDX 11 1 10 2 9 3 8 4 6 5 7 6 5 8 4 9 3 10 2 11 1 12 81 13 83 14
REMARK SMILES IDX 84 15 92 16 85 17 91 18 86 19 87 20 88 21 89 22 90 23 82 24
REMARK SMILES IDX 12 26 13 27 14 28 15 29 16 30 17 32 18 33 19 34 80 35 20 36
REMARK SMILES IDX 79 37 21 38 22 39 23 40 73 41 24 42 78 43 72 44 74 45 25 46
REMARK SMILES IDX 77 47 71 48 70 49 26 51 58 52 38 53 57 54 39 55 42 56 56 57
REMARK SMILES IDX 75 58 40 59 41 60 55 62 76 63 43 64 27 65 28 66 36 67 29 68
REMARK SMILES IDX 35 69 37 70 34 71 30 72 31 73 32 74 33 75 59 76 60 77 68 78
REMARK SMILES IDX 61 79 67 80 69 81 66 82 62 83 63 84 64 85 65 86 44 87 45 88
REMARK SMILES IDX 53 89 46 90 52 91 54 92 51 93 47 94 48 95 49 96 50 97
REMARK H PARENT 8 7 82 25 15 31 74 50 42 61
REMARK Flexibility Score: inf
ROOT
ATOM      1  C   UNL A   1      36.183  22.330  25.063  1.00  0.00     0.002 C 
ENDROOT
BRANCH   1   2
ATOM      2  C   UNL A   1      35.122  21.693  25.966  1.00  0.00     0.021 C 
BRANCH   2   3
ATOM      3  C   UNL A   1      33.747  21.426  25.326  1.00  0.00     0.116 C 
BRANCH   3   4
ATOM      4  N   UNL A   1      32.703  21.732  26.296  1.00  0.00    -0.356 N 
ATOM      5  C   UNL A   1      31.987  22.858  26.558  1.00  0.00     0.226 C 
ATOM      6  O   UNL A   1      31.479  22.918  27.682  1.00  0.00    -0.275 OA
ATOM      7  H   UNL A   1      32.468  20.971  26.875  1.00  0.00     0.163 HD
BRANCH   5   8
ATOM      8  C   UNL A   1      31.791  23.986  25.532  1.00  0.00     0.111 C 
BRANCH   8   9
ATOM      9  C   UNL A   1      31.220  23.339  24.226  1.00  0.00     0.016 C 
BRANCH   9  10
ATOM     10  C   UNL A   1      32.085  23.546  22.977  1.00  0.00     0.001 C 
BRANCH  10  11
ATOM     11  C   UNL A   1      33.038  24.742  23.018  1.00  0.00    -0.003 C 
ATOM     12  C   UNL A   1      32.666  25.855  22.051  1.00  0.00     0.004 C 
ENDBRANCH  10  11
ENDBRANCH   9  10
ENDBRANCH   8   9
BRANCH   8  13
ATOM     13  C   UNL A   1      30.857  25.075  26.153  1.00  0.00     0.157 C 
BRANCH  13  14
ATOM     14  C   UNL A   1      30.587  26.218  25.188  1.00  0.00    -0.019 A 
ATOM     15  C   UNL A   1      31.345  27.400  25.213  1.00  0.00     0.007 A 
ATOM     16  C   UNL A   1      29.529  26.128  24.283  1.00  0.00     0.007 A 
ATOM     17  C   UNL A   1      30.983  28.498  24.426  1.00  0.00     0.013 A 
ATOM     18  C   UNL A   1      29.142  27.234  23.523  1.00  0.00     0.013 A 
ATOM     19  C   UNL A   1      29.840  28.444  23.617  1.00  0.00     0.056 A 
BRANCH  19  20
ATOM     20  C   UNL A   1      29.328  29.660  22.880  1.00  0.00     0.416 C 
ATOM     21  F   UNL A   1      29.740  29.724  21.585  1.00  0.00    -0.166 F 
ATOM     22  F   UNL A   1      27.973  29.731  22.863  1.00  0.00    -0.166 F 
ATOM     23  F   UNL A   1      29.759  30.815  23.466  1.00  0.00    -0.166 F 
ENDBRANCH  19  20
ENDBRANCH  13  14
BRANCH  13  24
ATOM     24  O   UNL A   1      29.586  24.567  26.568  1.00  0.00    -0.388 OA
ATOM     25  H   UNL A   1      28.988  25.308  26.758  1.00  0.00     0.211 HD
ENDBRANCH  13  24
ENDBRANCH   8  13
ENDBRANCH   5   8
ENDBRANCH   3   4
ENDBRANCH   2   3
ENDBRANCH   1   2
BRANCH   1  26
ATOM     26  C   UNL A   1      37.019  21.356  24.223  1.00  0.00     0.002 C 
BRANCH  26  27
ATOM     27  C   UNL A   1      37.803  20.275  24.982  1.00  0.00     0.021 C 
BRANCH  27  28
ATOM     28  C   UNL A   1      38.933  20.762  25.893  1.00  0.00     0.116 C 
BRANCH  28  29
ATOM     29  N   UNL A   1      39.972  19.765  26.064  1.00  0.00    -0.352 N 
ATOM     30  C   UNL A   1      41.335  19.897  26.161  1.00  0.00     0.251 C 
ATOM     31  H   UNL A   1      39.644  18.838  26.122  1.00  0.00     0.163 HD
ATOM     32  O   UNL A   1      42.025  18.881  26.067  1.00  0.00    -0.269 OA
BRANCH  30  33
ATOM     33  C   UNL A   1      41.997  21.211  26.369  1.00  0.00     0.039 A 
ATOM     34  C   UNL A   1      42.260  21.618  27.684  1.00  0.00     0.014 A 
ATOM     35  C   UNL A   1      42.257  22.096  25.319  1.00  0.00     0.014 A 
ATOM     36  C   UNL A   1      42.791  22.886  27.943  1.00  0.00     0.010 A 
ATOM     37  C   UNL A   1      42.841  23.345  25.574  1.00  0.00     0.010 A 
ATOM     38  C   UNL A   1      43.094  23.764  26.890  1.00  0.00    -0.014 A 
BRANCH  38  39
ATOM     39  C   UNL A   1      43.618  25.133  27.169  1.00  0.00     0.031 A 
ATOM     40  C   UNL A   1      42.726  26.178  27.790  1.00  0.00     0.074 A 
ATOM     41  C   UNL A   1      44.893  25.447  26.859  1.00  0.00     0.049 A 
ATOM     42  N   UNL A   1      42.988  27.428  28.085  1.00  0.00    -0.248 NA
ATOM     43  C   UNL A   1      41.350  25.767  28.100  1.00  0.00     0.031 C 
ATOM     44  C   UNL A   1      45.858  24.539  26.237  1.00  0.00     0.029 A 
ATOM     45  N   UNL A   1      45.597  26.616  27.024  1.00  0.00    -0.354 N 
ATOM     46  C   UNL A   1      41.808  27.954  28.606  1.00  0.00     0.074 A 
ATOM     47  C   UNL A   1      40.817  26.901  28.531  1.00  0.00     0.031 C 
ATOM     48  C   UNL A   1      47.031  25.177  26.092  1.00  0.00     0.029 A 
ATOM     49  C   UNL A   1      46.896  26.549  26.576  1.00  0.00     0.049 A 
ATOM     50  H   UNL A   1      45.208  27.426  27.426  1.00  0.00     0.167 HD
ATOM     51  C   UNL A   1      41.577  29.191  29.117  1.00  0.00     0.034 A 
ATOM     52  C   UNL A   1      47.868  27.484  26.550  1.00  0.00     0.034 A 
ATOM     53  C   UNL A   1      42.574  30.232  29.199  1.00  0.00     0.049 A 
ATOM     54  C   UNL A   1      47.584  28.856  27.108  1.00  0.00     0.074 A 
ATOM     55  C   UNL A   1      42.451  31.507  29.728  1.00  0.00     0.029 A 
ATOM     56  N   UNL A   1      43.880  30.123  28.738  1.00  0.00    -0.354 N 
ATOM     57  N   UNL A   1      46.471  29.326  27.626  1.00  0.00    -0.248 NA
ATOM     58  C   UNL A   1      48.693  29.819  27.095  1.00  0.00     0.031 C 
ATOM     59  C   UNL A   1      43.660  32.185  29.534  1.00  0.00     0.029 A 
ATOM     60  C   UNL A   1      44.564  31.312  28.952  1.00  0.00     0.049 A 
ATOM     61  H   UNL A   1      44.265  29.319  28.321  1.00  0.00     0.167 HD
ATOM     62  C   UNL A   1      46.762  30.625  28.034  1.00  0.00     0.074 A 
ATOM     63  C   UNL A   1      48.155  30.860  27.714  1.00  0.00     0.031 C 
ATOM     64  C   UNL A   1      45.952  31.540  28.626  1.00  0.00     0.034 A 
BRANCH  51  65
ATOM     65  C   UNL A   1      40.177  29.490  29.601  1.00  0.00     0.023 A 
ATOM     66  C   UNL A   1      39.865  29.553  30.971  1.00  0.00     0.031 A 
ATOM     67  C   UNL A   1      39.131  29.693  28.681  1.00  0.00     0.131 A 
ATOM     68  C   UNL A   1      38.536  29.734  31.381  1.00  0.00     0.055 A 
ATOM     69  C   UNL A   1      37.824  29.956  29.097  1.00  0.00     0.041 A 
ATOM     70  F   UNL A   1      39.361  29.628  27.361  1.00  0.00    -0.206 F 
ATOM     71  C   UNL A   1      37.516  29.961  30.454  1.00  0.00     0.022 A 
BRANCH  68  72
ATOM     72  S   UNL A   1      38.131  29.524  33.137  1.00  0.00     0.124 S 
ATOM     73  O   UNL A   1      37.540  30.822  33.459  1.00  0.00    -0.237 OA
ATOM     74  O   UNL A   1      37.208  28.391  33.114  1.00  0.00    -0.237 OA
ATOM     75  O   UNL A   1      39.423  29.262  33.760  1.00  0.00    -0.744 OA
ENDBRANCH  68  72
ENDBRANCH  51  65
BRANCH  52  76
ATOM     76  C   UNL A   1      49.206  27.169  25.970  1.00  0.00     0.023 A 
ATOM     77  C   UNL A   1      49.516  27.500  24.641  1.00  0.00     0.031 A 
ATOM     78  C   UNL A   1      50.175  26.484  26.723  1.00  0.00     0.131 A 
ATOM     79  C   UNL A   1      50.743  27.100  24.088  1.00  0.00     0.055 A 
ATOM     80  C   UNL A   1      51.416  26.136  26.185  1.00  0.00     0.041 A 
ATOM     81  F   UNL A   1      49.931  26.147  28.000  1.00  0.00    -0.206 F 
ATOM     82  C   UNL A   1      51.700  26.431  24.856  1.00  0.00     0.022 A 
BRANCH  79  83
ATOM     83  S   UNL A   1      51.036  27.388  22.322  1.00  0.00     0.124 S 
ATOM     84  O   UNL A   1      52.285  26.668  22.105  1.00  0.00    -0.237 OA
ATOM     85  O   UNL A   1      49.843  26.803  21.719  1.00  0.00    -0.237 OA
ATOM     86  O   UNL A   1      51.129  28.844  22.225  1.00  0.00    -0.744 OA
ENDBRANCH  79  83
ENDBRANCH  52  76
BRANCH  64  87
ATOM     87  C   UNL A   1      46.575  32.858  29.018  1.00  0.00     0.023 A 
ATOM     88  C   UNL A   1      46.635  33.947  28.130  1.00  0.00     0.031 A 
ATOM     89  C   UNL A   1      47.141  33.016  30.296  1.00  0.00     0.131 A 
ATOM     90  C   UNL A   1      47.301  35.124  28.510  1.00  0.00     0.055 A 
ATOM     91  C   UNL A   1      47.749  34.210  30.689  1.00  0.00     0.041 A 
ATOM     92  F   UNL A   1      47.114  32.010  31.185  1.00  0.00    -0.206 F 
ATOM     93  C   UNL A   1      47.845  35.266  29.789  1.00  0.00     0.022 A 
BRANCH  90  94
ATOM     94  S   UNL A   1      47.533  36.432  27.274  1.00  0.00     0.124 S 
ATOM     95  O   UNL A   1      46.621  37.467  27.751  1.00  0.00    -0.237 OA
ATOM     96  O   UNL A   1      48.957  36.729  27.400  1.00  0.00    -0.237 OA
ATOM     97  O   UNL A   1      47.144  35.792  26.020  1.00  0.00    -0.744 OA
ENDBRANCH  90  94
ENDBRANCH  64  87
ENDBRANCH  38  39
ENDBRANCH  30  33
ENDBRANCH  28  29
ENDBRANCH  27  28
ENDBRANCH  26  27
ENDBRANCH   1  26
TORSDOF 23
ENDMDL
MODEL 3
REMARK VINA RESULT:     -10.4      2.799      8.172
REMARK SMILES CCCC[C@H](C(=O)NCCCCCCNC(=O)c1ccc(-c2c3nc(c(-c4cc(S(=O)(=O)[O-])ccc4F)c4ccc([nH]4)c(-c4cc(S(=O)(=O)[O-])ccc4F)c4nc(c(-c5cc(S(=O)(=O)[O-])ccc5F)c5ccc2[nH]5)C=C4)C=C3)cc1)[C@H](O)c1ccc(C(F)(F)F)cc1
REMARK SMILES IDX 11 1 10 2 9 3 8 4 6 5 7 6 5 8 4 9 3 10 2 11 1 12 81 13 83 14
REMARK SMILES IDX 84 15 92 16 85 17 91 18 86 19 87 20 88 21 89 22 90 23 82 24
REMARK SMILES IDX 12 26 13 27 14 28 15 29 16 30 17 32 18 33 19 34 80 35 20 36
REMARK SMILES IDX 79 37 21 38 22 39 23 40 73 41 24 42 78 43 72 44 74 45 25 46
REMARK SMILES IDX 77 47 71 48 70 49 26 51 58 52 38 53 57 54 39 55 42 56 56 57
REMARK SMILES IDX 75 58 40 59 41 60 55 62 76 63 43 64 27 65 28 66 36 67 29 68
REMARK SMILES IDX 35 69 37 70 34 71 30 72 31 73 32 74 33 75 59 76 60 77 68 78
REMARK SMILES IDX 61 79 67 80 69 81 66 82 62 83 63 84 64 85 65 86 44 87 45 88
REMARK SMILES IDX 53 89 46 90 52 91 54 92 51 93 47 94 48 95 49 96 50 97
REMARK H PARENT 8 7 82 25 15 31 74 50 42 61
REMARK Flexibility Score: inf
ROOT
ATOM      1  C   UNL A   1      33.150  22.910  23.439  1.00  0.00     0.002 C 
ENDROOT
BRANCH   1   2
ATOM      2  C   UNL A   1      31.736  22.936  24.025  1.00  0.00     0.021 C 
BRANCH   2   3
ATOM      3  C   UNL A   1      30.691  23.765  23.257  1.00  0.00     0.116 C 
BRANCH   3   4
ATOM      4  N   UNL A   1      31.367  24.840  22.541  1.00  0.00    -0.356 N 
ATOM      5  C   UNL A   1      31.236  26.194  22.569  1.00  0.00     0.226 C 
ATOM      6  O   UNL A   1      31.657  26.791  21.573  1.00  0.00    -0.275 OA
ATOM      7  H   UNL A   1      32.057  24.523  21.914  1.00  0.00     0.163 HD
BRANCH   5   8
ATOM      8  C   UNL A   1      30.628  26.953  23.760  1.00  0.00     0.111 C 
BRANCH   8   9
ATOM      9  C   UNL A   1      29.080  27.010  23.539  1.00  0.00     0.016 C 
BRANCH   9  10
ATOM     10  C   UNL A   1      28.539  28.394  23.158  1.00  0.00     0.001 C 
BRANCH  10  11
ATOM     11  C   UNL A   1      29.592  29.459  22.848  1.00  0.00    -0.003 C 
ATOM     12  C   UNL A   1      29.109  30.539  21.892  1.00  0.00     0.004 C 
ENDBRANCH  10  11
ENDBRANCH   9  10
ENDBRANCH   8   9
BRANCH   8  13
ATOM     13  C   UNL A   1      31.046  26.232  25.082  1.00  0.00     0.157 C 
BRANCH  13  14
ATOM     14  C   UNL A   1      32.070  27.030  25.873  1.00  0.00    -0.019 A 
ATOM     15  C   UNL A   1      31.685  28.004  26.809  1.00  0.00     0.007 A 
ATOM     16  C   UNL A   1      33.433  26.838  25.637  1.00  0.00     0.007 A 
ATOM     17  C   UNL A   1      32.638  28.834  27.410  1.00  0.00     0.013 A 
ATOM     18  C   UNL A   1      34.382  27.689  26.207  1.00  0.00     0.013 A 
ATOM     19  C   UNL A   1      33.991  28.723  27.067  1.00  0.00     0.056 A 
BRANCH  19  20
ATOM     20  C   UNL A   1      35.023  29.705  27.572  1.00  0.00     0.416 C 
ATOM     21  F   UNL A   1      35.371  29.507  28.873  1.00  0.00    -0.166 F 
ATOM     22  F   UNL A   1      36.173  29.674  26.852  1.00  0.00    -0.166 F 
ATOM     23  F   UNL A   1      34.566  30.988  27.498  1.00  0.00    -0.166 F 
ENDBRANCH  19  20
ENDBRANCH  13  14
BRANCH  13  24
ATOM     24  O   UNL A   1      29.950  25.969  25.961  1.00  0.00    -0.388 OA
ATOM     25  H   UNL A   1      29.805  25.012  26.022  1.00  0.00     0.211 HD
ENDBRANCH  13  24
ENDBRANCH   8  13
ENDBRANCH   5   8
ENDBRANCH   3   4
ENDBRANCH   2   3
ENDBRANCH   1   2
BRANCH   1  26
ATOM     26  C   UNL A   1      34.176  22.063  24.203  1.00  0.00     0.002 C 
BRANCH  26  27
ATOM     27  C   UNL A   1      35.400  22.796  24.773  1.00  0.00     0.021 C 
BRANCH  27  28
ATOM     28  C   UNL A   1      35.962  22.264  26.095  1.00  0.00     0.116 C 
BRANCH  28  29
ATOM     29  N   UNL A   1      37.032  21.307  25.895  1.00  0.00    -0.352 N 
ATOM     30  C   UNL A   1      38.395  21.469  25.907  1.00  0.00     0.251 C 
ATOM     31  H   UNL A   1      36.730  20.386  25.721  1.00  0.00     0.163 HD
ATOM     32  O   UNL A   1      39.093  20.550  25.477  1.00  0.00    -0.269 OA
BRANCH  30  33
ATOM     33  C   UNL A   1      39.046  22.705  26.414  1.00  0.00     0.039 A 
ATOM     34  C   UNL A   1      38.648  23.933  25.869  1.00  0.00     0.014 A 
ATOM     35  C   UNL A   1      40.111  22.677  27.320  1.00  0.00     0.014 A 
ATOM     36  C   UNL A   1      39.295  25.118  26.237  1.00  0.00     0.010 A 
ATOM     37  C   UNL A   1      40.722  23.870  27.731  1.00  0.00     0.010 A 
ATOM     38  C   UNL A   1      40.336  25.102  27.179  1.00  0.00    -0.014 A 
BRANCH  38  39
ATOM     39  C   UNL A   1      41.056  26.359  27.538  1.00  0.00     0.031 A 
ATOM     40  C   UNL A   1      42.460  26.601  27.043  1.00  0.00     0.074 A 
ATOM     41  C   UNL A   1      40.457  27.284  28.315  1.00  0.00     0.049 A 
ATOM     42  N   UNL A   1      43.258  27.616  27.266  1.00  0.00    -0.248 NA
ATOM     43  C   UNL A   1      43.050  25.550  26.202  1.00  0.00     0.031 C 
ATOM     44  C   UNL A   1      39.111  27.170  28.879  1.00  0.00     0.029 A 
ATOM     45  N   UNL A   1      40.902  28.504  28.768  1.00  0.00    -0.354 N 
ATOM     46  C   UNL A   1      44.447  27.322  26.603  1.00  0.00     0.074 A 
ATOM     47  C   UNL A   1      44.280  26.008  26.018  1.00  0.00     0.031 C 
ATOM     48  C   UNL A   1      38.833  28.279  29.582  1.00  0.00     0.029 A 
ATOM     49  C   UNL A   1      39.990  29.171  29.553  1.00  0.00     0.049 A 
ATOM     50  H   UNL A   1      41.791  28.867  28.550  1.00  0.00     0.167 HD
ATOM     51  C   UNL A   1      45.565  28.082  26.475  1.00  0.00     0.034 A 
ATOM     52  C   UNL A   1      40.075  30.360  30.184  1.00  0.00     0.034 A 
ATOM     53  C   UNL A   1      45.719  29.397  27.052  1.00  0.00     0.049 A 
ATOM     54  C   UNL A   1      41.332  31.181  30.040  1.00  0.00     0.074 A 
ATOM     55  C   UNL A   1      46.797  30.262  26.955  1.00  0.00     0.029 A 
ATOM     56  N   UNL A   1      44.770  30.039  27.837  1.00  0.00    -0.354 N 
ATOM     57  N   UNL A   1      42.434  30.901  29.382  1.00  0.00    -0.248 NA
ATOM     58  C   UNL A   1      41.350  32.487  30.712  1.00  0.00     0.031 C 
ATOM     59  C   UNL A   1      46.524  31.398  27.726  1.00  0.00     0.029 A 
ATOM     60  C   UNL A   1      45.246  31.277  28.246  1.00  0.00     0.049 A 
ATOM     61  H   UNL A   1      43.888  29.671  28.070  1.00  0.00     0.167 HD
ATOM     62  C   UNL A   1      43.258  32.014  29.531  1.00  0.00     0.074 A 
ATOM     63  C   UNL A   1      42.522  32.972  30.328  1.00  0.00     0.031 C 
ATOM     64  C   UNL A   1      44.508  32.227  29.045  1.00  0.00     0.034 A 
BRANCH  51  65
ATOM     65  C   UNL A   1      46.721  27.491  25.701  1.00  0.00     0.023 A 
ATOM     66  C   UNL A   1      47.052  27.936  24.410  1.00  0.00     0.031 A 
ATOM     67  C   UNL A   1      47.491  26.450  26.253  1.00  0.00     0.131 A 
ATOM     68  C   UNL A   1      48.067  27.296  23.684  1.00  0.00     0.055 A 
ATOM     69  C   UNL A   1      48.555  25.872  25.558  1.00  0.00     0.041 A 
ATOM     70  F   UNL A   1      47.214  25.969  27.475  1.00  0.00    -0.206 F 
ATOM     71  C   UNL A   1      48.839  26.283  24.259  1.00  0.00     0.022 A 
BRANCH  68  72
ATOM     72  S   UNL A   1      48.272  27.703  21.929  1.00  0.00     0.124 S 
ATOM     73  O   UNL A   1      48.587  26.395  21.358  1.00  0.00    -0.237 OA
ATOM     74  O   UNL A   1      46.964  28.253  21.579  1.00  0.00    -0.237 OA
ATOM     75  O   UNL A   1      49.372  28.660  21.923  1.00  0.00    -0.744 OA
ENDBRANCH  68  72
ENDBRANCH  51  65
BRANCH  52  76
ATOM     76  C   UNL A   1      38.942  30.856  31.018  1.00  0.00     0.023 A 
ATOM     77  C   UNL A   1      37.898  31.606  30.451  1.00  0.00     0.031 A 
ATOM     78  C   UNL A   1      38.915  30.632  32.405  1.00  0.00     0.131 A 
ATOM     79  C   UNL A   1      36.900  32.149  31.274  1.00  0.00     0.055 A 
ATOM     80  C   UNL A   1      37.890  31.129  33.213  1.00  0.00     0.041 A 
ATOM     81  F   UNL A   1      39.886  29.918  32.997  1.00  0.00    -0.206 F 
ATOM     82  C   UNL A   1      36.882  31.905  32.650  1.00  0.00     0.022 A 
BRANCH  79  83
ATOM     83  S   UNL A   1      35.670  33.257  30.533  1.00  0.00     0.124 S 
ATOM     84  O   UNL A   1      35.381  34.164  31.637  1.00  0.00    -0.237 OA
ATOM     85  O   UNL A   1      36.412  33.826  29.412  1.00  0.00    -0.237 OA
ATOM     86  O   UNL A   1      34.580  32.356  30.162  1.00  0.00    -0.744 OA
ENDBRANCH  79  83
ENDBRANCH  52  76
BRANCH  64  87
ATOM     87  C   UNL A   1      45.130  33.575  29.317  1.00  0.00     0.023 A 
ATOM     88  C   UNL A   1      45.104  34.612  28.368  1.00  0.00     0.031 A 
ATOM     89  C   UNL A   1      45.781  33.817  30.541  1.00  0.00     0.131 A 
ATOM     90  C   UNL A   1      45.770  35.820  28.631  1.00  0.00     0.055 A 
ATOM     91  C   UNL A   1      46.390  35.041  30.821  1.00  0.00     0.041 A 
ATOM     92  F   UNL A   1      45.837  32.863  31.485  1.00  0.00    -0.206 F 
ATOM     93  C   UNL A   1      46.400  36.045  29.858  1.00  0.00     0.022 A 
BRANCH  90  94
ATOM     94  S   UNL A   1      45.888  37.058  27.310  1.00  0.00     0.124 S 
ATOM     95  O   UNL A   1      46.866  37.994  27.856  1.00  0.00    -0.237 OA
ATOM     96  O   UNL A   1      46.335  36.259  26.174  1.00  0.00    -0.237 OA
ATOM     97  O   UNL A   1      44.526  37.577  27.204  1.00  0.00    -0.744 OA
ENDBRANCH  90  94
ENDBRANCH  64  87
ENDBRANCH  38  39
ENDBRANCH  30  33
ENDBRANCH  28  29
ENDBRANCH  27  28
ENDBRANCH  26  27
ENDBRANCH   1  26
TORSDOF 23
ENDMDL
