MODEL 1
REMARK VINA RESULT:     -11.5      0.000      0.000
REMARK SMILES C[C@H](C(=O)NCCCCCCNC(=O)c1ccc(-c2c3nc(c(-c4cc(S(=O)(=O)[O-])ccc4F)c4ccc([nH]4)c(-c4cc(S(=O)(=O)[O-])ccc4F)c4nc(c(-c5cc(S(=O)(=O)[O-])ccc5F)c5ccc2[nH]5)C=C4)C=C3)cc1)c1ccc2c(c1)OCCO2
REMARK SMILES IDX 9 1 8 2 7 3 6 4 5 5 3 6 4 7 2 9 1 10 78 11 79 12 83 13 80 14
REMARK SMILES IDX 82 15 81 16 84 17 87 18 85 19 86 20 10 21 11 22 12 23 13 24
REMARK SMILES IDX 14 26 15 27 16 28 77 29 17 30 76 31 18 32 19 33 20 34 70 35
REMARK SMILES IDX 21 36 75 37 69 38 71 39 22 40 74 41 68 42 67 43 23 45 55 46
REMARK SMILES IDX 35 47 54 48 36 49 39 50 53 51 72 52 37 53 38 54 52 56 73 57
REMARK SMILES IDX 40 58 24 59 25 60 33 61 26 62 32 63 34 64 31 65 27 66 28 67
REMARK SMILES IDX 29 68 30 69 56 70 57 71 65 72 58 73 64 74 66 75 63 76 59 77
REMARK SMILES IDX 60 78 61 79 62 80 41 81 42 82 50 83 43 84 49 85 51 86 48 87
REMARK SMILES IDX 44 88 45 89 46 90 47 91
REMARK H PARENT 5 8 12 25 71 44 39 55
REMARK Flexibility Score: inf
ROOT
ATOM      1  C   UNL A   1      31.429  30.486  25.958  1.00  0.00     0.002 C 
ENDROOT
BRANCH   1   2
ATOM      2  C   UNL A   1      32.783  29.813  26.181  1.00  0.00     0.002 C 
BRANCH   2   3
ATOM      3  C   UNL A   1      32.747  28.576  27.081  1.00  0.00     0.021 C 
BRANCH   3   4
ATOM      4  C   UNL A   1      31.412  27.834  27.087  1.00  0.00     0.116 C 
BRANCH   4   5
ATOM      5  N   UNL A   1      31.523  26.511  26.511  1.00  0.00    -0.356 N 
ATOM      6  C   UNL A   1      31.731  26.143  25.221  1.00  0.00     0.227 C 
ATOM      7  O   UNL A   1      31.805  24.936  24.972  1.00  0.00    -0.274 OA
ATOM      8  H   UNL A   1      31.434  25.767  27.150  1.00  0.00     0.163 HD
BRANCH   6   9
ATOM      9  C   UNL A   1      31.855  27.177  24.111  1.00  0.00     0.105 C 
ATOM     10  C   UNL A   1      33.024  26.870  23.173  1.00  0.00     0.023 C 
BRANCH   9  11
ATOM     11  C   UNL A   1      30.555  27.600  23.434  1.00  0.00    -0.032 A 
ATOM     12  C   UNL A   1      29.317  27.042  23.815  1.00  0.00     0.008 A 
ATOM     13  C   UNL A   1      30.555  28.734  22.609  1.00  0.00     0.055 A 
ATOM     14  C   UNL A   1      28.118  27.691  23.516  1.00  0.00     0.051 A 
ATOM     15  C   UNL A   1      29.378  29.430  22.403  1.00  0.00     0.161 A 
ATOM     16  C   UNL A   1      28.177  28.935  22.907  1.00  0.00     0.161 A 
ATOM     17  O   UNL A   1      29.504  30.681  21.864  1.00  0.00    -0.486 OA
ATOM     18  O   UNL A   1      27.083  29.763  23.010  1.00  0.00    -0.486 OA
ATOM     19  C   UNL A   1      28.536  31.603  22.381  1.00  0.00     0.271 C 
ATOM     20  C   UNL A   1      27.615  31.023  23.452  1.00  0.00     0.271 C 
ENDBRANCH   9  11
ENDBRANCH   6   9
ENDBRANCH   4   5
ENDBRANCH   3   4
ENDBRANCH   2   3
ENDBRANCH   1   2
BRANCH   1  21
ATOM     21  C   UNL A   1      31.329  31.916  26.491  1.00  0.00     0.021 C 
BRANCH  21  22
ATOM     22  C   UNL A   1      32.663  32.545  26.873  1.00  0.00     0.116 C 
BRANCH  22  23
ATOM     23  N   UNL A   1      32.494  33.841  27.508  1.00  0.00    -0.352 N 
ATOM     24  C   UNL A   1      33.193  34.379  28.560  1.00  0.00     0.251 C 
ATOM     25  H   UNL A   1      31.782  34.409  27.135  1.00  0.00     0.163 HD
ATOM     26  O   UNL A   1      32.791  35.403  29.108  1.00  0.00    -0.269 OA
BRANCH  24  27
ATOM     27  C   UNL A   1      34.413  33.698  29.041  1.00  0.00     0.039 A 
ATOM     28  C   UNL A   1      35.662  34.250  28.747  1.00  0.00     0.014 A 
ATOM     29  C   UNL A   1      34.317  32.534  29.810  1.00  0.00     0.014 A 
ATOM     30  C   UNL A   1      36.814  33.670  29.283  1.00  0.00     0.010 A 
ATOM     31  C   UNL A   1      35.459  32.007  30.404  1.00  0.00     0.010 A 
ATOM     32  C   UNL A   1      36.719  32.568  30.147  1.00  0.00    -0.014 A 
BRANCH  32  33
ATOM     33  C   UNL A   1      37.922  31.976  30.790  1.00  0.00     0.031 A 
ATOM     34  C   UNL A   1      38.708  30.915  30.072  1.00  0.00     0.074 A 
ATOM     35  C   UNL A   1      38.250  32.324  32.050  1.00  0.00     0.049 A 
ATOM     36  N   UNL A   1      39.702  30.183  30.504  1.00  0.00    -0.248 NA
ATOM     37  C   UNL A   1      38.292  30.615  28.695  1.00  0.00     0.031 C 
ATOM     38  C   UNL A   1      37.538  33.311  32.865  1.00  0.00     0.029 A 
ATOM     39  N   UNL A   1      39.249  31.871  32.876  1.00  0.00    -0.354 N 
ATOM     40  C   UNL A   1      40.016  29.320  29.459  1.00  0.00     0.074 A 
ATOM     41  C   UNL A   1      39.061  29.579  28.403  1.00  0.00     0.031 C 
ATOM     42  C   UNL A   1      38.125  33.391  34.070  1.00  0.00     0.029 A 
ATOM     43  C   UNL A   1      39.219  32.425  34.135  1.00  0.00     0.049 A 
ATOM     44  H   UNL A   1      39.923  31.211  32.594  1.00  0.00     0.167 HD
ATOM     45  C   UNL A   1      41.022  28.411  29.383  1.00  0.00     0.034 A 
ATOM     46  C   UNL A   1      39.963  32.166  35.229  1.00  0.00     0.034 A 
ATOM     47  C   UNL A   1      41.964  28.173  30.449  1.00  0.00     0.049 A 
ATOM     48  C   UNL A   1      41.056  31.131  35.139  1.00  0.00     0.074 A 
ATOM     49  C   UNL A   1      43.060  27.329  30.458  1.00  0.00     0.029 A 
ATOM     50  N   UNL A   1      41.910  28.765  31.707  1.00  0.00    -0.354 N 
ATOM     51  N   UNL A   1      41.383  30.365  34.125  1.00  0.00    -0.248 NA
ATOM     52  C   UNL A   1      41.883  30.931  36.336  1.00  0.00     0.031 C 
ATOM     53  C   UNL A   1      43.617  27.346  31.742  1.00  0.00     0.029 A 
ATOM     54  C   UNL A   1      42.928  28.272  32.510  1.00  0.00     0.049 A 
ATOM     55  H   UNL A   1      41.247  29.437  31.986  1.00  0.00     0.167 HD
ATOM     56  C   UNL A   1      42.474  29.613  34.552  1.00  0.00     0.074 A 
ATOM     57  C   UNL A   1      42.750  30.021  35.914  1.00  0.00     0.031 C 
ATOM     58  C   UNL A   1      43.188  28.677  33.873  1.00  0.00     0.034 A 
BRANCH  45  59
ATOM     59  C   UNL A   1      41.114  27.586  28.118  1.00  0.00     0.023 A 
ATOM     60  C   UNL A   1      40.729  26.233  28.086  1.00  0.00     0.031 A 
ATOM     61  C   UNL A   1      41.648  28.141  26.942  1.00  0.00     0.131 A 
ATOM     62  C   UNL A   1      40.983  25.458  26.945  1.00  0.00     0.055 A 
ATOM     63  C   UNL A   1      41.803  27.389  25.776  1.00  0.00     0.041 A 
ATOM     64  F   UNL A   1      42.052  29.421  26.911  1.00  0.00    -0.206 F 
ATOM     65  C   UNL A   1      41.492  26.033  25.779  1.00  0.00     0.022 A 
BRANCH  62  66
ATOM     66  S   UNL A   1      40.822  23.655  27.075  1.00  0.00     0.124 S 
ATOM     67  O   UNL A   1      41.332  23.410  28.422  1.00  0.00    -0.237 OA
ATOM     68  O   UNL A   1      39.391  23.453  26.886  1.00  0.00    -0.237 OA
ATOM     69  O   UNL A   1      41.673  23.157  25.997  1.00  0.00    -0.744 OA
ENDBRANCH  62  66
ENDBRANCH  45  59
BRANCH  46  70
ATOM     70  C   UNL A   1      39.675  32.876  36.508  1.00  0.00     0.023 A 
ATOM     71  C   UNL A   1      38.715  32.395  37.412  1.00  0.00     0.031 A 
ATOM     72  C   UNL A   1      40.364  34.056  36.842  1.00  0.00     0.131 A 
ATOM     73  C   UNL A   1      38.450  33.108  38.593  1.00  0.00     0.055 A 
ATOM     74  C   UNL A   1      40.134  34.733  38.041  1.00  0.00     0.041 A 
ATOM     75  F   UNL A   1      41.296  34.555  36.015  1.00  0.00    -0.206 F 
ATOM     76  C   UNL A   1      39.164  34.263  38.920  1.00  0.00     0.022 A 
BRANCH  73  77
ATOM     77  S   UNL A   1      37.111  32.536  39.675  1.00  0.00     0.124 S 
ATOM     78  O   UNL A   1      37.569  31.198  40.032  1.00  0.00    -0.237 OA
ATOM     79  O   UNL A   1      37.137  33.531  40.743  1.00  0.00    -0.237 OA
ATOM     80  O   UNL A   1      35.932  32.584  38.812  1.00  0.00    -0.744 OA
ENDBRANCH  73  77
ENDBRANCH  46  70
BRANCH  58  81
ATOM     81  C   UNL A   1      44.375  28.063  34.576  1.00  0.00     0.023 A 
ATOM     82  C   UNL A   1      44.266  26.889  35.340  1.00  0.00     0.031 A 
ATOM     83  C   UNL A   1      45.645  28.656  34.451  1.00  0.00     0.131 A 
ATOM     84  C   UNL A   1      45.401  26.363  35.978  1.00  0.00     0.055 A 
ATOM     85  C   UNL A   1      46.781  28.096  35.037  1.00  0.00     0.041 A 
ATOM     86  F   UNL A   1      45.807  29.781  33.737  1.00  0.00    -0.206 F 
ATOM     87  C   UNL A   1      46.660  26.948  35.814  1.00  0.00     0.022 A 
BRANCH  84  88
ATOM     88  S   UNL A   1      45.204  24.939  37.085  1.00  0.00     0.124 S 
ATOM     89  O   UNL A   1      45.608  23.831  36.226  1.00  0.00    -0.237 OA
ATOM     90  O   UNL A   1      46.114  25.264  38.178  1.00  0.00    -0.237 OA
ATOM     91  O   UNL A   1      43.784  24.968  37.432  1.00  0.00    -0.744 OA
ENDBRANCH  84  88
ENDBRANCH  58  81
ENDBRANCH  32  33
ENDBRANCH  24  27
ENDBRANCH  22  23
ENDBRANCH  21  22
ENDBRANCH   1  21
TORSDOF 17
ENDMDL
MODEL 2
REMARK VINA RESULT:     -11.3      6.544     11.851
REMARK SMILES C[C@H](C(=O)NCCCCCCNC(=O)c1ccc(-c2c3nc(c(-c4cc(S(=O)(=O)[O-])ccc4F)c4ccc([nH]4)c(-c4cc(S(=O)(=O)[O-])ccc4F)c4nc(c(-c5cc(S(=O)(=O)[O-])ccc5F)c5ccc2[nH]5)C=C4)C=C3)cc1)c1ccc2c(c1)OCCO2
REMARK SMILES IDX 9 1 8 2 7 3 6 4 5 5 3 6 4 7 2 9 1 10 78 11 79 12 83 13 80 14
REMARK SMILES IDX 82 15 81 16 84 17 87 18 85 19 86 20 10 21 11 22 12 23 13 24
REMARK SMILES IDX 14 26 15 27 16 28 77 29 17 30 76 31 18 32 19 33 20 34 70 35
REMARK SMILES IDX 21 36 75 37 69 38 71 39 22 40 74 41 68 42 67 43 23 45 55 46
REMARK SMILES IDX 35 47 54 48 36 49 39 50 53 51 72 52 37 53 38 54 52 56 73 57
REMARK SMILES IDX 40 58 24 59 25 60 33 61 26 62 32 63 34 64 31 65 27 66 28 67
REMARK SMILES IDX 29 68 30 69 56 70 57 71 65 72 58 73 64 74 66 75 63 76 59 77
REMARK SMILES IDX 60 78 61 79 62 80 41 81 42 82 50 83 43 84 49 85 51 86 48 87
REMARK SMILES IDX 44 88 45 89 46 90 47 91
REMARK H PARENT 5 8 12 25 71 44 39 55
REMARK Flexibility Score: inf
ROOT
ATOM      1  C   UNL A   1      37.175  21.588  24.509  1.00  0.00     0.002 C 
ENDROOT
BRANCH   1   2
ATOM      2  C   UNL A   1      37.436  22.831  25.359  1.00  0.00     0.002 C 
BRANCH   2   3
ATOM      3  C   UNL A   1      36.336  23.893  25.301  1.00  0.00     0.021 C 
BRANCH   3   4
ATOM      4  C   UNL A   1      35.323  23.698  24.176  1.00  0.00     0.116 C 
BRANCH   4   5
ATOM      5  N   UNL A   1      33.971  23.977  24.607  1.00  0.00    -0.356 N 
ATOM      6  C   UNL A   1      33.120  23.213  25.339  1.00  0.00     0.227 C 
ATOM      7  O   UNL A   1      32.006  23.678  25.598  1.00  0.00    -0.274 OA
ATOM      8  H   UNL A   1      33.614  24.852  24.328  1.00  0.00     0.163 HD
BRANCH   6   9
ATOM      9  C   UNL A   1      33.513  21.822  25.816  1.00  0.00     0.105 C 
ATOM     10  C   UNL A   1      33.526  21.725  27.343  1.00  0.00     0.023 C 
BRANCH   9  11
ATOM     11  C   UNL A   1      32.870  20.650  25.082  1.00  0.00    -0.032 A 
ATOM     12  C   UNL A   1      32.470  20.763  23.734  1.00  0.00     0.008 A 
ATOM     13  C   UNL A   1      32.910  19.376  25.667  1.00  0.00     0.055 A 
ATOM     14  C   UNL A   1      32.274  19.624  22.949  1.00  0.00     0.051 A 
ATOM     15  C   UNL A   1      32.818  18.253  24.866  1.00  0.00     0.161 A 
ATOM     16  C   UNL A   1      32.559  18.385  23.503  1.00  0.00     0.161 A 
ATOM     17  O   UNL A   1      33.179  17.068  25.446  1.00  0.00    -0.486 OA
ATOM     18  O   UNL A   1      32.802  17.332  22.653  1.00  0.00    -0.486 OA
ATOM     19  C   UNL A   1      33.828  16.179  24.527  1.00  0.00     0.271 C 
ATOM     20  C   UNL A   1      34.030  16.753  23.126  1.00  0.00     0.271 C 
ENDBRANCH   9  11
ENDBRANCH   6   9
ENDBRANCH   4   5
ENDBRANCH   3   4
ENDBRANCH   2   3
ENDBRANCH   1   2
BRANCH   1  21
ATOM     21  C   UNL A   1      37.830  20.308  25.028  1.00  0.00     0.021 C 
BRANCH  21  22
ATOM     22  C   UNL A   1      38.926  20.531  26.063  1.00  0.00     0.116 C 
BRANCH  22  23
ATOM     23  N   UNL A   1      39.912  19.464  26.055  1.00  0.00    -0.352 N 
ATOM     24  C   UNL A   1      41.279  19.557  26.115  1.00  0.00     0.251 C 
ATOM     25  H   UNL A   1      39.549  18.549  25.998  1.00  0.00     0.163 HD
ATOM     26  O   UNL A   1      41.976  18.570  25.893  1.00  0.00    -0.269 OA
BRANCH  24  27
ATOM     27  C   UNL A   1      41.901  20.863  26.419  1.00  0.00     0.039 A 
ATOM     28  C   UNL A   1      42.130  21.767  25.380  1.00  0.00     0.014 A 
ATOM     29  C   UNL A   1      42.226  21.203  27.736  1.00  0.00     0.014 A 
ATOM     30  C   UNL A   1      42.622  23.042  25.672  1.00  0.00     0.010 A 
ATOM     31  C   UNL A   1      42.642  22.497  28.031  1.00  0.00     0.010 A 
ATOM     32  C   UNL A   1      42.845  23.430  27.002  1.00  0.00    -0.014 A 
BRANCH  32  33
ATOM     33  C   UNL A   1      43.299  24.803  27.348  1.00  0.00     0.031 A 
ATOM     34  C   UNL A   1      42.343  25.764  27.999  1.00  0.00     0.074 A 
ATOM     35  C   UNL A   1      44.533  25.211  26.996  1.00  0.00     0.049 A 
ATOM     36  N   UNL A   1      42.496  27.037  28.262  1.00  0.00    -0.248 NA
ATOM     37  C   UNL A   1      41.026  25.226  28.368  1.00  0.00     0.031 C 
ATOM     38  C   UNL A   1      45.535  24.382  26.322  1.00  0.00     0.029 A 
ATOM     39  N   UNL A   1      45.149  26.432  27.130  1.00  0.00    -0.354 N 
ATOM     40  C   UNL A   1      41.287  27.456  28.807  1.00  0.00     0.074 A 
ATOM     41  C   UNL A   1      40.396  26.317  28.772  1.00  0.00     0.031 C 
ATOM     42  C   UNL A   1      46.639  25.116  26.107  1.00  0.00     0.029 A 
ATOM     43  C   UNL A   1      46.407  26.480  26.576  1.00  0.00     0.049 A 
ATOM     44  H   UNL A   1      44.729  27.200  27.580  1.00  0.00     0.167 HD
ATOM     45  C   UNL A   1      40.960  28.675  29.307  1.00  0.00     0.034 A 
ATOM     46  C   UNL A   1      47.266  27.509  26.430  1.00  0.00     0.034 A 
ATOM     47  C   UNL A   1      41.868  29.796  29.334  1.00  0.00     0.049 A 
ATOM     48  C   UNL A   1      46.876  28.865  26.963  1.00  0.00     0.074 A 
ATOM     49  C   UNL A   1      41.670  31.053  29.877  1.00  0.00     0.029 A 
ATOM     50  N   UNL A   1      43.142  29.803  28.775  1.00  0.00    -0.354 N 
ATOM     51  N   UNL A   1      45.753  29.234  27.533  1.00  0.00    -0.248 NA
ATOM     52  C   UNL A   1      47.871  29.938  26.841  1.00  0.00     0.031 C 
ATOM     53  C   UNL A   1      42.784  31.843  29.573  1.00  0.00     0.029 A 
ATOM     54  C   UNL A   1      43.721  31.054  28.923  1.00  0.00     0.049 A 
ATOM     55  H   UNL A   1      43.571  29.031  28.339  1.00  0.00     0.167 HD
ATOM     56  C   UNL A   1      45.917  30.576  27.864  1.00  0.00     0.074 A 
ATOM     57  C   UNL A   1      47.250  30.948  27.434  1.00  0.00     0.031 C 
ATOM     58  C   UNL A   1      45.048  31.419  28.479  1.00  0.00     0.034 A 
BRANCH  45  59
ATOM     59  C   UNL A   1      39.549  28.856  29.823  1.00  0.00     0.023 A 
ATOM     60  C   UNL A   1      38.555  29.490  29.055  1.00  0.00     0.031 A 
ATOM     61  C   UNL A   1      39.206  28.440  31.121  1.00  0.00     0.131 A 
ATOM     62  C   UNL A   1      37.310  29.786  29.627  1.00  0.00     0.055 A 
ATOM     63  C   UNL A   1      37.929  28.647  31.648  1.00  0.00     0.041 A 
ATOM     64  F   UNL A   1      40.113  27.845  31.913  1.00  0.00    -0.206 F 
ATOM     65  C   UNL A   1      36.979  29.344  30.909  1.00  0.00     0.022 A 
BRANCH  62  66
ATOM     66  S   UNL A   1      36.205  30.924  28.745  1.00  0.00     0.124 S 
ATOM     67  O   UNL A   1      35.217  31.233  29.776  1.00  0.00    -0.237 OA
ATOM     68  O   UNL A   1      37.104  32.011  28.374  1.00  0.00    -0.237 OA
ATOM     69  O   UNL A   1      35.702  30.121  27.634  1.00  0.00    -0.744 OA
ENDBRANCH  62  66
ENDBRANCH  45  59
BRANCH  46  70
ATOM     70  C   UNL A   1      48.560  27.301  25.721  1.00  0.00     0.023 A 
ATOM     71  C   UNL A   1      48.670  27.471  24.332  1.00  0.00     0.031 A 
ATOM     72  C   UNL A   1      49.714  26.924  26.433  1.00  0.00     0.131 A 
ATOM     73  C   UNL A   1      49.901  27.236  23.695  1.00  0.00     0.055 A 
ATOM     74  C   UNL A   1      50.946  26.742  25.803  1.00  0.00     0.041 A 
ATOM     75  F   UNL A   1      49.664  26.754  27.764  1.00  0.00    -0.206 F 
ATOM     76  C   UNL A   1      51.041  26.890  24.424  1.00  0.00     0.022 A 
BRANCH  73  77
ATOM     77  S   UNL A   1      49.978  27.333  21.886  1.00  0.00     0.124 S 
ATOM     78  O   UNL A   1      49.556  28.708  21.644  1.00  0.00    -0.237 OA
ATOM     79  O   UNL A   1      51.383  27.037  21.625  1.00  0.00    -0.237 OA
ATOM     80  O   UNL A   1      49.036  26.303  21.450  1.00  0.00    -0.744 OA
ENDBRANCH  73  77
ENDBRANCH  46  70
BRANCH  58  81
ATOM     81  C   UNL A   1      45.527  32.821  28.773  1.00  0.00     0.023 A 
ATOM     82  C   UNL A   1      45.228  33.905  27.930  1.00  0.00     0.031 A 
ATOM     83  C   UNL A   1      46.275  33.075  29.937  1.00  0.00     0.131 A 
ATOM     84  C   UNL A   1      45.704  35.188  28.246  1.00  0.00     0.055 A 
ATOM     85  C   UNL A   1      46.695  34.362  30.277  1.00  0.00     0.041 A 
ATOM     86  F   UNL A   1      46.595  32.076  30.775  1.00  0.00    -0.206 F 
ATOM     87  C   UNL A   1      46.417  35.425  29.425  1.00  0.00     0.022 A 
BRANCH  84  88
ATOM     88  S   UNL A   1      45.438  36.538  27.064  1.00  0.00     0.124 S 
ATOM     89  O   UNL A   1      46.586  36.390  26.174  1.00  0.00    -0.237 OA
ATOM     90  O   UNL A   1      44.139  36.202  26.491  1.00  0.00    -0.237 OA
ATOM     91  O   UNL A   1      45.455  37.736  27.901  1.00  0.00    -0.744 OA
ENDBRANCH  84  88
ENDBRANCH  58  81
ENDBRANCH  32  33
ENDBRANCH  24  27
ENDBRANCH  22  23
ENDBRANCH  21  22
ENDBRANCH   1  21
TORSDOF 17
ENDMDL
MODEL 3
REMARK VINA RESULT:     -11.1      2.225      2.573
REMARK SMILES C[C@H](C(=O)NCCCCCCNC(=O)c1ccc(-c2c3nc(c(-c4cc(S(=O)(=O)[O-])ccc4F)c4ccc([nH]4)c(-c4cc(S(=O)(=O)[O-])ccc4F)c4nc(c(-c5cc(S(=O)(=O)[O-])ccc5F)c5ccc2[nH]5)C=C4)C=C3)cc1)c1ccc2c(c1)OCCO2
REMARK SMILES IDX 9 1 8 2 7 3 6 4 5 5 3 6 4 7 2 9 1 10 78 11 79 12 83 13 80 14
REMARK SMILES IDX 82 15 81 16 84 17 87 18 85 19 86 20 10 21 11 22 12 23 13 24
REMARK SMILES IDX 14 26 15 27 16 28 77 29 17 30 76 31 18 32 19 33 20 34 70 35
REMARK SMILES IDX 21 36 75 37 69 38 71 39 22 40 74 41 68 42 67 43 23 45 55 46
REMARK SMILES IDX 35 47 54 48 36 49 39 50 53 51 72 52 37 53 38 54 52 56 73 57
REMARK SMILES IDX 40 58 24 59 25 60 33 61 26 62 32 63 34 64 31 65 27 66 28 67
REMARK SMILES IDX 29 68 30 69 56 70 57 71 65 72 58 73 64 74 66 75 63 76 59 77
REMARK SMILES IDX 60 78 61 79 62 80 41 81 42 82 50 83 43 84 49 85 51 86 48 87
REMARK SMILES IDX 44 88 45 89 46 90 47 91
REMARK H PARENT 5 8 12 25 71 44 39 55
REMARK Flexibility Score: inf
ROOT
ATOM      1  C   UNL A   1      33.901  28.782  25.973  1.00  0.00     0.002 C 
ENDROOT
BRANCH   1   2
ATOM      2  C   UNL A   1      33.269  27.482  26.468  1.00  0.00     0.002 C 
BRANCH   2   3
ATOM      3  C   UNL A   1      33.632  26.239  25.653  1.00  0.00     0.021 C 
BRANCH   3   4
ATOM      4  C   UNL A   1      32.444  25.543  24.992  1.00  0.00     0.116 C 
BRANCH   4   5
ATOM      5  N   UNL A   1      32.625  25.396  23.564  1.00  0.00    -0.356 N 
ATOM      6  C   UNL A   1      32.512  26.321  22.577  1.00  0.00     0.227 C 
ATOM      7  O   UNL A   1      32.733  25.957  21.418  1.00  0.00    -0.274 OA
ATOM      8  H   UNL A   1      32.866  24.490  23.263  1.00  0.00     0.163 HD
BRANCH   6   9
ATOM      9  C   UNL A   1      32.113  27.759  22.879  1.00  0.00     0.105 C 
ATOM     10  C   UNL A   1      33.165  28.758  22.391  1.00  0.00     0.023 C 
BRANCH   9  11
ATOM     11  C   UNL A   1      30.662  28.132  22.593  1.00  0.00    -0.032 A 
ATOM     12  C   UNL A   1      29.596  27.442  23.207  1.00  0.00     0.008 A 
ATOM     13  C   UNL A   1      30.387  29.329  21.917  1.00  0.00     0.055 A 
ATOM     14  C   UNL A   1      28.324  28.015  23.284  1.00  0.00     0.051 A 
ATOM     15  C   UNL A   1      29.159  29.942  22.083  1.00  0.00     0.161 A 
ATOM     16  C   UNL A   1      28.155  29.308  22.813  1.00  0.00     0.161 A 
ATOM     17  O   UNL A   1      29.071  31.241  21.664  1.00  0.00    -0.486 OA
ATOM     18  O   UNL A   1      27.077  30.031  23.269  1.00  0.00    -0.486 OA
ATOM     19  C   UNL A   1      28.215  32.032  22.498  1.00  0.00     0.271 C 
ATOM     20  C   UNL A   1      27.631  31.287  23.696  1.00  0.00     0.271 C 
ENDBRANCH   9  11
ENDBRANCH   6   9
ENDBRANCH   4   5
ENDBRANCH   3   4
ENDBRANCH   2   3
ENDBRANCH   1   2
BRANCH   1  21
ATOM     21  C   UNL A   1      32.911  29.919  25.716  1.00  0.00     0.021 C 
BRANCH  21  22
ATOM     22  C   UNL A   1      32.217  30.450  26.965  1.00  0.00     0.116 C 
BRANCH  22  23
ATOM     23  N   UNL A   1      32.136  31.900  26.970  1.00  0.00    -0.352 N 
ATOM     24  C   UNL A   1      32.995  32.807  27.540  1.00  0.00     0.251 C 
ATOM     25  H   UNL A   1      31.358  32.286  26.504  1.00  0.00     0.163 HD
ATOM     26  O   UNL A   1      32.675  33.990  27.628  1.00  0.00    -0.269 OA
BRANCH  24  27
ATOM     27  C   UNL A   1      34.293  32.338  28.069  1.00  0.00     0.039 A 
ATOM     28  C   UNL A   1      35.408  33.174  27.978  1.00  0.00     0.014 A 
ATOM     29  C   UNL A   1      34.395  31.086  28.685  1.00  0.00     0.014 A 
ATOM     30  C   UNL A   1      36.613  32.781  28.566  1.00  0.00     0.010 A 
ATOM     31  C   UNL A   1      35.573  30.734  29.335  1.00  0.00     0.010 A 
ATOM     32  C   UNL A   1      36.694  31.577  29.283  1.00  0.00    -0.014 A 
BRANCH  32  33
ATOM     33  C   UNL A   1      37.942  31.168  29.981  1.00  0.00     0.031 A 
ATOM     34  C   UNL A   1      38.859  30.161  29.345  1.00  0.00     0.074 A 
ATOM     35  C   UNL A   1      38.201  31.631  31.220  1.00  0.00     0.049 A 
ATOM     36  N   UNL A   1      39.920  29.576  29.838  1.00  0.00    -0.248 NA
ATOM     37  C   UNL A   1      38.510  29.728  27.984  1.00  0.00     0.031 C 
ATOM     38  C   UNL A   1      37.364  32.579  31.957  1.00  0.00     0.029 A 
ATOM     39  N   UNL A   1      39.226  31.348  32.088  1.00  0.00    -0.354 N 
ATOM     40  C   UNL A   1      40.353  28.691  28.857  1.00  0.00     0.074 A 
ATOM     41  C   UNL A   1      39.398  28.771  27.772  1.00  0.00     0.031 C 
ATOM     42  C   UNL A   1      37.912  32.802  33.163  1.00  0.00     0.029 A 
ATOM     43  C   UNL A   1      39.106  31.974  33.307  1.00  0.00     0.049 A 
ATOM     44  H   UNL A   1      39.977  30.754  31.860  1.00  0.00     0.167 HD
ATOM     45  C   UNL A   1      41.456  27.900  28.855  1.00  0.00     0.034 A 
ATOM     46  C   UNL A   1      39.851  31.872  34.426  1.00  0.00     0.034 A 
ATOM     47  C   UNL A   1      42.396  27.840  29.948  1.00  0.00     0.049 A 
ATOM     48  C   UNL A   1      41.056  30.965  34.420  1.00  0.00     0.074 A 
ATOM     49  C   UNL A   1      43.581  27.129  30.027  1.00  0.00     0.029 A 
ATOM     50  N   UNL A   1      42.248  28.500  31.163  1.00  0.00    -0.354 N 
ATOM     51  N   UNL A   1      41.490  30.179  33.463  1.00  0.00    -0.248 NA
ATOM     52  C   UNL A   1      41.874  30.938  35.639  1.00  0.00     0.031 C 
ATOM     53  C   UNL A   1      44.103  27.291  31.315  1.00  0.00     0.029 A 
ATOM     54  C   UNL A   1      43.297  28.179  32.011  1.00  0.00     0.049 A 
ATOM     55  H   UNL A   1      41.507  29.108  31.388  1.00  0.00     0.167 HD
ATOM     56  C   UNL A   1      42.649  29.585  33.955  1.00  0.00     0.074 A 
ATOM     57  C   UNL A   1      42.847  30.109  35.291  1.00  0.00     0.031 C 
ATOM     58  C   UNL A   1      43.479  28.697  33.349  1.00  0.00     0.034 A 
BRANCH  45  59
ATOM     59  C   UNL A   1      41.670  27.013  27.648  1.00  0.00     0.023 A 
ATOM     60  C   UNL A   1      41.322  25.649  27.660  1.00  0.00     0.031 A 
ATOM     61  C   UNL A   1      42.280  27.521  26.488  1.00  0.00     0.131 A 
ATOM     62  C   UNL A   1      41.686  24.823  26.587  1.00  0.00     0.055 A 
ATOM     63  C   UNL A   1      42.546  26.713  25.380  1.00  0.00     0.041 A 
ATOM     64  F   UNL A   1      42.653  28.808  26.418  1.00  0.00    -0.206 F 
ATOM     65  C   UNL A   1      42.270  25.351  25.434  1.00  0.00     0.022 A 
BRANCH  62  66
ATOM     66  S   UNL A   1      41.561  23.026  26.802  1.00  0.00     0.124 S 
ATOM     67  O   UNL A   1      42.474  22.799  27.920  1.00  0.00    -0.237 OA
ATOM     68  O   UNL A   1      40.143  22.840  27.087  1.00  0.00    -0.237 OA
ATOM     69  O   UNL A   1      42.017  22.494  25.520  1.00  0.00    -0.744 OA
ENDBRANCH  62  66
ENDBRANCH  45  59
BRANCH  46  70
ATOM     70  C   UNL A   1      39.456  32.623  35.652  1.00  0.00     0.023 A 
ATOM     71  C   UNL A   1      39.856  33.953  35.858  1.00  0.00     0.031 A 
ATOM     72  C   UNL A   1      38.665  32.012  36.642  1.00  0.00     0.131 A 
ATOM     73  C   UNL A   1      39.488  34.618  37.039  1.00  0.00     0.055 A 
ATOM     74  C   UNL A   1      38.259  32.693  37.790  1.00  0.00     0.041 A 
ATOM     75  F   UNL A   1      38.250  30.744  36.491  1.00  0.00    -0.206 F 
ATOM     76  C   UNL A   1      38.680  34.002  37.997  1.00  0.00     0.022 A 
BRANCH  73  77
ATOM     77  S   UNL A   1      40.134  36.287  37.337  1.00  0.00     0.124 S 
ATOM     78  O   UNL A   1      40.019  36.889  36.014  1.00  0.00    -0.237 OA
ATOM     79  O   UNL A   1      39.216  36.790  38.354  1.00  0.00    -0.237 OA
ATOM     80  O   UNL A   1      41.499  36.046  37.799  1.00  0.00    -0.744 OA
ENDBRANCH  73  77
ENDBRANCH  46  70
BRANCH  58  81
ATOM     81  C   UNL A   1      44.713  28.269  34.107  1.00  0.00     0.023 A 
ATOM     82  C   UNL A   1      45.858  29.080  34.190  1.00  0.00     0.031 A 
ATOM     83  C   UNL A   1      44.726  27.035  34.783  1.00  0.00     0.131 A 
ATOM     84  C   UNL A   1      46.982  28.631  34.903  1.00  0.00     0.055 A 
ATOM     85  C   UNL A   1      45.823  26.621  35.540  1.00  0.00     0.041 A 
ATOM     86  F   UNL A   1      43.662  26.218  34.734  1.00  0.00    -0.206 F 
ATOM     87  C   UNL A   1      46.962  27.417  35.596  1.00  0.00     0.022 A 
BRANCH  84  88
ATOM     88  S   UNL A   1      48.500  29.623  34.863  1.00  0.00     0.124 S 
ATOM     89  O   UNL A   1      48.965  29.521  36.242  1.00  0.00    -0.237 OA
ATOM     90  O   UNL A   1      49.303  28.925  33.865  1.00  0.00    -0.237 OA
ATOM     91  O   UNL A   1      48.032  30.950  34.464  1.00  0.00    -0.744 OA
ENDBRANCH  84  88
ENDBRANCH  58  81
ENDBRANCH  32  33
ENDBRANCH  24  27
ENDBRANCH  22  23
ENDBRANCH  21  22
ENDBRANCH   1  21
TORSDOF 17
ENDMDL
