MODEL 1
REMARK VINA RESULT:     -13.2      0.000      0.000
REMARK SMILES Cc1c(C(=O)NCCCCCCNC(=O)c2ccc(-c3c4nc(c(-c5cc(S(=O)(=O)[O-])ccc5F)c5ccc([nH]5)c(-c5cc(S(=O)(=O)[O-])ccc5F)c5nc(c(-c6cc(S(=O)(=O)[O-])ccc6F)c6ccc3[nH]6)C=C5)C=C4)cc2)nnn1-c1cccc2c1CC[N@@H+](C)C2
REMARK SMILES IDX 10 1 9 2 8 3 7 4 6 5 4 6 5 7 3 9 1 10 2 11 81 12 79 13 80 14
REMARK SMILES IDX 82 15 83 16 87 17 84 18 86 19 88 20 85 21 92 22 89 23 90 24
REMARK SMILES IDX 91 25 11 27 12 28 13 29 14 30 15 32 16 33 17 34 78 35 18 36
REMARK SMILES IDX 77 37 19 38 20 39 21 40 71 41 22 42 76 43 70 44 72 45 23 46
REMARK SMILES IDX 75 47 69 48 68 49 24 51 56 52 36 53 55 54 37 55 40 56 54 57
REMARK SMILES IDX 73 58 38 59 39 60 53 62 74 63 41 64 25 65 26 66 34 67 27 68
REMARK SMILES IDX 33 69 35 70 32 71 28 72 29 73 30 74 31 75 57 76 58 77 66 78
REMARK SMILES IDX 59 79 65 80 67 81 64 82 60 83 61 84 62 85 63 86 42 87 43 88
REMARK SMILES IDX 51 89 44 90 50 91 52 92 49 93 45 94 46 95 47 96 48 97
REMARK H PARENT 6 8 90 26 13 31 72 50 40 61
REMARK Flexibility Score: inf
ROOT
ATOM      1  C   UNL A   1      33.022  28.931  27.389  1.00  0.00     0.002 C 
ENDROOT
BRANCH   1   2
ATOM      2  C   UNL A   1      31.825  28.653  26.463  1.00  0.00     0.002 C 
BRANCH   2   3
ATOM      3  C   UNL A   1      31.703  29.578  25.247  1.00  0.00     0.021 C 
BRANCH   3   4
ATOM      4  C   UNL A   1      31.549  28.820  23.928  1.00  0.00     0.116 C 
BRANCH   4   5
ATOM      5  N   UNL A   1      32.712  28.991  23.101  1.00  0.00    -0.351 N 
ATOM      6  C   UNL A   1      33.580  28.115  22.512  1.00  0.00     0.273 C 
ATOM      7  O   UNL A   1      34.389  28.640  21.739  1.00  0.00    -0.267 OA
ATOM      8  H   UNL A   1      32.928  29.935  22.923  1.00  0.00     0.163 HD
BRANCH   6   9
ATOM      9  C   UNL A   1      33.567  26.661  22.704  1.00  0.00     0.173 A 
ATOM     10  C   UNL A   1      34.018  25.916  25.236  1.00  0.00     0.069 C 
ATOM     11  C   UNL A   1      33.760  25.791  23.777  1.00  0.00     0.075 A 
ATOM     12  N   UNL A   1      33.762  24.533  23.188  1.00  0.00    -0.217 N 
ATOM     13  N   UNL A   1      33.417  25.892  21.560  1.00  0.00    -0.124 NA
ATOM     14  N   UNL A   1      33.544  24.617  21.867  1.00  0.00    -0.061 NA
BRANCH  12  15
ATOM     15  C   UNL A   1      34.392  23.393  23.719  1.00  0.00     0.071 A 
ATOM     16  C   UNL A   1      35.734  23.198  23.359  1.00  0.00     0.029 A 
ATOM     17  C   UNL A   1      33.739  22.546  24.621  1.00  0.00    -0.008 A 
ATOM     18  C   UNL A   1      36.464  22.174  23.947  1.00  0.00     0.003 A 
ATOM     19  C   UNL A   1      34.488  21.487  25.172  1.00  0.00     0.012 A 
ATOM     20  C   UNL A   1      32.272  22.667  24.982  1.00  0.00     0.099 C 
ATOM     21  C   UNL A   1      35.849  21.331  24.867  1.00  0.00     0.010 A 
ATOM     22  C   UNL A   1      33.772  20.434  25.987  1.00  0.00     0.299 C 
ATOM     23  C   UNL A   1      31.626  21.358  25.510  1.00  0.00     0.267 C 
ATOM     24  N   UNL A   1      32.445  20.138  25.413  1.00  0.00    -0.333 N 
ATOM     25  C   UNL A   1      32.549  19.663  24.022  1.00  0.00     0.333 C 
ATOM     26  H   UNL A   1      32.002  19.382  25.935  1.00  0.00     0.348 HD
ENDBRANCH  12  15
ENDBRANCH   6   9
ENDBRANCH   4   5
ENDBRANCH   3   4
ENDBRANCH   2   3
ENDBRANCH   1   2
BRANCH   1  27
ATOM     27  C   UNL A   1      34.219  29.662  26.761  1.00  0.00     0.021 C 
BRANCH  27  28
ATOM     28  C   UNL A   1      35.547  29.309  27.409  1.00  0.00     0.116 C 
BRANCH  28  29
ATOM     29  N   UNL A   1      35.583  29.671  28.832  1.00  0.00    -0.352 N 
ATOM     30  C   UNL A   1      36.525  29.362  29.805  1.00  0.00     0.251 C 
ATOM     31  H   UNL A   1      34.823  30.214  29.144  1.00  0.00     0.163 HD
ATOM     32  O   UNL A   1      36.227  29.394  30.984  1.00  0.00    -0.269 OA
BRANCH  30  33
ATOM     33  C   UNL A   1      37.893  29.011  29.373  1.00  0.00     0.039 A 
ATOM     34  C   UNL A   1      38.551  29.631  28.306  1.00  0.00     0.014 A 
ATOM     35  C   UNL A   1      38.531  28.025  30.106  1.00  0.00     0.014 A 
ATOM     36  C   UNL A   1      39.859  29.234  28.015  1.00  0.00     0.010 A 
ATOM     37  C   UNL A   1      39.882  27.924  30.052  1.00  0.00     0.010 A 
ATOM     38  C   UNL A   1      40.503  28.359  28.900  1.00  0.00    -0.014 A 
BRANCH  38  39
ATOM     39  C   UNL A   1      41.874  27.902  28.757  1.00  0.00     0.031 A 
ATOM     40  C   UNL A   1      41.984  26.680  27.936  1.00  0.00     0.074 A 
ATOM     41  C   UNL A   1      42.928  28.702  29.040  1.00  0.00     0.049 A 
ATOM     42  N   UNL A   1      42.166  25.478  28.366  1.00  0.00    -0.248 NA
ATOM     43  C   UNL A   1      41.604  26.750  26.515  1.00  0.00     0.031 C 
ATOM     44  C   UNL A   1      42.930  30.084  29.540  1.00  0.00     0.029 A 
ATOM     45  N   UNL A   1      44.248  28.480  28.816  1.00  0.00    -0.354 N 
ATOM     46  C   UNL A   1      42.241  24.696  27.224  1.00  0.00     0.074 A 
ATOM     47  C   UNL A   1      41.580  25.453  26.199  1.00  0.00     0.031 C 
ATOM     48  C   UNL A   1      44.153  30.633  29.354  1.00  0.00     0.029 A 
ATOM     49  C   UNL A   1      45.056  29.616  28.843  1.00  0.00     0.049 A 
ATOM     50  H   UNL A   1      44.609  27.580  28.647  1.00  0.00     0.167 HD
ATOM     51  C   UNL A   1      43.128  23.664  27.145  1.00  0.00     0.034 A 
ATOM     52  C   UNL A   1      46.349  29.705  28.413  1.00  0.00     0.034 A 
ATOM     53  C   UNL A   1      43.700  23.388  28.452  1.00  0.00     0.049 A 
ATOM     54  C   UNL A   1      46.883  28.311  28.452  1.00  0.00     0.074 A 
ATOM     55  C   UNL A   1      43.165  23.118  29.699  1.00  0.00     0.029 A 
ATOM     56  N   UNL A   1      44.993  23.814  28.695  1.00  0.00    -0.354 N 
ATOM     57  N   UNL A   1      47.000  27.628  29.562  1.00  0.00    -0.248 NA
ATOM     58  C   UNL A   1      46.749  27.500  27.247  1.00  0.00     0.031 C 
ATOM     59  C   UNL A   1      43.941  23.904  30.603  1.00  0.00     0.029 A 
ATOM     60  C   UNL A   1      44.985  24.498  29.889  1.00  0.00     0.049 A 
ATOM     61  H   UNL A   1      45.775  23.658  28.120  1.00  0.00     0.167 HD
ATOM     62  C   UNL A   1      46.511  26.362  29.265  1.00  0.00     0.074 A 
ATOM     63  C   UNL A   1      46.449  26.319  27.801  1.00  0.00     0.031 C 
ATOM     64  C   UNL A   1      45.894  25.587  30.211  1.00  0.00     0.034 A 
BRANCH  51  65
ATOM     65  C   UNL A   1      43.785  23.172  25.872  1.00  0.00     0.023 A 
ATOM     66  C   UNL A   1      43.709  21.789  25.628  1.00  0.00     0.031 A 
ATOM     67  C   UNL A   1      44.685  23.888  25.051  1.00  0.00     0.131 A 
ATOM     68  C   UNL A   1      44.580  21.165  24.721  1.00  0.00     0.055 A 
ATOM     69  C   UNL A   1      45.500  23.271  24.097  1.00  0.00     0.041 A 
ATOM     70  F   UNL A   1      44.904  25.201  25.166  1.00  0.00    -0.206 F 
ATOM     71  C   UNL A   1      45.479  21.896  23.953  1.00  0.00     0.022 A 
BRANCH  68  72
ATOM     72  S   UNL A   1      44.641  19.358  24.714  1.00  0.00     0.124 S 
ATOM     73  O   UNL A   1      45.872  19.107  25.456  1.00  0.00    -0.237 OA
ATOM     74  O   UNL A   1      43.397  19.015  25.393  1.00  0.00    -0.237 OA
ATOM     75  O   UNL A   1      44.689  19.029  23.291  1.00  0.00    -0.744 OA
ENDBRANCH  68  72
ENDBRANCH  51  65
BRANCH  52  76
ATOM     76  C   UNL A   1      46.962  30.834  27.631  1.00  0.00     0.023 A 
ATOM     77  C   UNL A   1      46.215  31.900  27.071  1.00  0.00     0.031 A 
ATOM     78  C   UNL A   1      48.369  30.996  27.617  1.00  0.00     0.131 A 
ATOM     79  C   UNL A   1      46.875  33.041  26.533  1.00  0.00     0.055 A 
ATOM     80  C   UNL A   1      49.011  32.118  27.085  1.00  0.00     0.041 A 
ATOM     81  F   UNL A   1      49.183  30.104  28.201  1.00  0.00    -0.206 F 
ATOM     82  C   UNL A   1      48.266  33.151  26.548  1.00  0.00     0.022 A 
BRANCH  79  83
ATOM     83  S   UNL A   1      45.933  34.465  25.881  1.00  0.00     0.124 S 
ATOM     84  O   UNL A   1      45.152  33.855  24.811  1.00  0.00    -0.237 OA
ATOM     85  O   UNL A   1      45.192  34.919  27.051  1.00  0.00    -0.237 OA
ATOM     86  O   UNL A   1      46.977  35.388  25.428  1.00  0.00    -0.744 OA
ENDBRANCH  79  83
ENDBRANCH  52  76
BRANCH  64  87
ATOM     87  C   UNL A   1      45.972  25.989  31.677  1.00  0.00     0.023 A 
ATOM     88  C   UNL A   1      44.901  26.497  32.449  1.00  0.00     0.031 A 
ATOM     89  C   UNL A   1      47.169  25.687  32.355  1.00  0.00     0.131 A 
ATOM     90  C   UNL A   1      45.057  26.683  33.840  1.00  0.00     0.055 A 
ATOM     91  C   UNL A   1      47.310  25.847  33.733  1.00  0.00     0.041 A 
ATOM     92  F   UNL A   1      48.218  25.179  31.688  1.00  0.00    -0.206 F 
ATOM     93  C   UNL A   1      46.255  26.351  34.481  1.00  0.00     0.022 A 
BRANCH  90  94
ATOM     94  S   UNL A   1      43.711  27.386  34.853  1.00  0.00     0.124 S 
ATOM     95  O   UNL A   1      43.775  28.813  34.561  1.00  0.00    -0.237 OA
ATOM     96  O   UNL A   1      42.535  26.682  34.349  1.00  0.00    -0.237 OA
ATOM     97  O   UNL A   1      44.092  27.028  36.221  1.00  0.00    -0.744 OA
ENDBRANCH  90  94
ENDBRANCH  64  87
ENDBRANCH  38  39
ENDBRANCH  30  33
ENDBRANCH  28  29
ENDBRANCH  27  28
ENDBRANCH   1  27
TORSDOF 17
ENDMDL
MODEL 2
REMARK VINA RESULT:     -13.1      3.889      8.814
REMARK SMILES Cc1c(C(=O)NCCCCCCNC(=O)c2ccc(-c3c4nc(c(-c5cc(S(=O)(=O)[O-])ccc5F)c5ccc([nH]5)c(-c5cc(S(=O)(=O)[O-])ccc5F)c5nc(c(-c6cc(S(=O)(=O)[O-])ccc6F)c6ccc3[nH]6)C=C5)C=C4)cc2)nnn1-c1cccc2c1CC[N@@H+](C)C2
REMARK SMILES IDX 10 1 9 2 8 3 7 4 6 5 4 6 5 7 3 9 1 10 2 11 81 12 79 13 80 14
REMARK SMILES IDX 82 15 83 16 87 17 84 18 86 19 88 20 85 21 92 22 89 23 90 24
REMARK SMILES IDX 91 25 11 27 12 28 13 29 14 30 15 32 16 33 17 34 78 35 18 36
REMARK SMILES IDX 77 37 19 38 20 39 21 40 71 41 22 42 76 43 70 44 72 45 23 46
REMARK SMILES IDX 75 47 69 48 68 49 24 51 56 52 36 53 55 54 37 55 40 56 54 57
REMARK SMILES IDX 73 58 38 59 39 60 53 62 74 63 41 64 25 65 26 66 34 67 27 68
REMARK SMILES IDX 33 69 35 70 32 71 28 72 29 73 30 74 31 75 57 76 58 77 66 78
REMARK SMILES IDX 59 79 65 80 67 81 64 82 60 83 61 84 62 85 63 86 42 87 43 88
REMARK SMILES IDX 51 89 44 90 50 91 52 92 49 93 45 94 46 95 47 96 48 97
REMARK H PARENT 6 8 90 26 13 31 72 50 40 61
REMARK Flexibility Score: inf
ROOT
ATOM      1  C   UNL A   1      36.361  22.110  25.479  1.00  0.00     0.002 C 
ENDROOT
BRANCH   1   2
ATOM      2  C   UNL A   1      35.177  21.761  24.560  1.00  0.00     0.002 C 
BRANCH   2   3
ATOM      3  C   UNL A   1      34.412  20.484  24.926  1.00  0.00     0.021 C 
BRANCH   3   4
ATOM      4  C   UNL A   1      33.037  20.760  25.536  1.00  0.00     0.116 C 
BRANCH   4   5
ATOM      5  N   UNL A   1      33.163  21.213  26.893  1.00  0.00    -0.351 N 
ATOM      6  C   UNL A   1      32.771  22.352  27.541  1.00  0.00     0.273 C 
ATOM      7  O   UNL A   1      32.926  22.321  28.767  1.00  0.00    -0.267 OA
ATOM      8  H   UNL A   1      33.627  20.572  27.478  1.00  0.00     0.163 HD
BRANCH   6   9
ATOM      9  C   UNL A   1      32.166  23.521  26.895  1.00  0.00     0.173 A 
ATOM     10  C   UNL A   1      33.944  25.088  25.647  1.00  0.00     0.069 C 
ATOM     11  C   UNL A   1      32.632  24.614  26.163  1.00  0.00     0.075 A 
ATOM     12  N   UNL A   1      31.507  25.413  26.007  1.00  0.00    -0.217 N 
ATOM     13  N   UNL A   1      30.805  23.696  27.091  1.00  0.00    -0.124 NA
ATOM     14  N   UNL A   1      30.427  24.840  26.558  1.00  0.00    -0.061 NA
BRANCH  12  15
ATOM     15  C   UNL A   1      31.527  26.803  25.795  1.00  0.00     0.071 A 
ATOM     16  C   UNL A   1      31.579  27.609  26.943  1.00  0.00     0.029 A 
ATOM     17  C   UNL A   1      31.574  27.350  24.507  1.00  0.00    -0.008 A 
ATOM     18  C   UNL A   1      31.737  28.982  26.815  1.00  0.00     0.003 A 
ATOM     19  C   UNL A   1      31.691  28.750  24.402  1.00  0.00     0.012 A 
ATOM     20  C   UNL A   1      31.442  26.531  23.239  1.00  0.00     0.099 C 
ATOM     21  C   UNL A   1      31.813  29.551  25.548  1.00  0.00     0.010 A 
ATOM     22  C   UNL A   1      31.540  29.394  23.043  1.00  0.00     0.299 C 
ATOM     23  C   UNL A   1      30.955  27.331  22.000  1.00  0.00     0.267 C 
ATOM     24  N   UNL A   1      30.501  28.709  22.250  1.00  0.00    -0.333 N 
ATOM     25  C   UNL A   1      29.193  28.737  22.929  1.00  0.00     0.333 C 
ATOM     26  H   UNL A   1      30.367  29.195  21.363  1.00  0.00     0.348 HD
ENDBRANCH  12  15
ENDBRANCH   6   9
ENDBRANCH   4   5
ENDBRANCH   3   4
ENDBRANCH   2   3
ENDBRANCH   1   2
BRANCH   1  27
ATOM     27  C   UNL A   1      37.211  23.323  25.071  1.00  0.00     0.021 C 
BRANCH  27  28
ATOM     28  C   UNL A   1      38.064  23.869  26.204  1.00  0.00     0.116 C 
BRANCH  28  29
ATOM     29  N   UNL A   1      38.963  22.850  26.760  1.00  0.00    -0.352 N 
ATOM     30  C   UNL A   1      40.198  22.997  27.378  1.00  0.00     0.251 C 
ATOM     31  H   UNL A   1      38.642  21.922  26.683  1.00  0.00     0.163 HD
ATOM     32  O   UNL A   1      40.979  22.064  27.427  1.00  0.00    -0.269 OA
BRANCH  30  33
ATOM     33  C   UNL A   1      40.531  24.303  27.984  1.00  0.00     0.039 A 
ATOM     34  C   UNL A   1      41.834  24.696  28.308  1.00  0.00     0.014 A 
ATOM     35  C   UNL A   1      39.469  25.163  28.202  1.00  0.00     0.014 A 
ATOM     36  C   UNL A   1      42.024  25.971  28.845  1.00  0.00     0.010 A 
ATOM     37  C   UNL A   1      39.709  26.488  28.363  1.00  0.00     0.010 A 
ATOM     38  C   UNL A   1      40.935  26.852  28.879  1.00  0.00    -0.014 A 
BRANCH  38  39
ATOM     39  C   UNL A   1      40.994  28.221  29.358  1.00  0.00     0.031 A 
ATOM     40  C   UNL A   1      41.987  29.037  28.631  1.00  0.00     0.074 A 
ATOM     41  C   UNL A   1      40.012  28.754  30.121  1.00  0.00     0.049 A 
ATOM     42  N   UNL A   1      43.157  29.379  29.050  1.00  0.00    -0.248 NA
ATOM     43  C   UNL A   1      41.772  29.292  27.197  1.00  0.00     0.031 C 
ATOM     44  C   UNL A   1      38.782  28.120  30.619  1.00  0.00     0.029 A 
ATOM     45  N   UNL A   1      39.845  30.043  30.513  1.00  0.00    -0.354 N 
ATOM     46  C   UNL A   1      43.684  30.166  28.038  1.00  0.00     0.074 A 
ATOM     47  C   UNL A   1      42.957  29.803  26.855  1.00  0.00     0.031 C 
ATOM     48  C   UNL A   1      37.915  29.074  31.031  1.00  0.00     0.029 A 
ATOM     49  C   UNL A   1      38.562  30.372  30.949  1.00  0.00     0.049 A 
ATOM     50  H   UNL A   1      40.579  30.698  30.493  1.00  0.00     0.167 HD
ATOM     51  C   UNL A   1      44.425  31.272  28.331  1.00  0.00     0.034 A 
ATOM     52  C   UNL A   1      38.072  31.629  31.158  1.00  0.00     0.034 A 
ATOM     53  C   UNL A   1      44.766  31.292  29.744  1.00  0.00     0.049 A 
ATOM     54  C   UNL A   1      39.267  32.496  31.382  1.00  0.00     0.074 A 
ATOM     55  C   UNL A   1      45.374  30.390  30.600  1.00  0.00     0.029 A 
ATOM     56  N   UNL A   1      44.071  32.160  30.565  1.00  0.00    -0.354 N 
ATOM     57  N   UNL A   1      40.078  32.335  32.397  1.00  0.00    -0.248 NA
ATOM     58  C   UNL A   1      39.865  33.139  30.218  1.00  0.00     0.031 C 
ATOM     59  C   UNL A   1      44.584  30.429  31.787  1.00  0.00     0.029 A 
ATOM     60  C   UNL A   1      43.628  31.439  31.650  1.00  0.00     0.049 A 
ATOM     61  H   UNL A   1      43.919  33.118  30.404  1.00  0.00     0.167 HD
ATOM     62  C   UNL A   1      41.356  32.432  31.862  1.00  0.00     0.074 A 
ATOM     63  C   UNL A   1      41.161  33.011  30.529  1.00  0.00     0.031 C 
ATOM     64  C   UNL A   1      42.414  31.743  32.392  1.00  0.00     0.034 A 
BRANCH  51  65
ATOM     65  C   UNL A   1      44.505  32.521  27.480  1.00  0.00     0.023 A 
ATOM     66  C   UNL A   1      43.846  33.658  27.981  1.00  0.00     0.031 A 
ATOM     67  C   UNL A   1      44.928  32.606  26.134  1.00  0.00     0.131 A 
ATOM     68  C   UNL A   1      43.518  34.734  27.141  1.00  0.00     0.055 A 
ATOM     69  C   UNL A   1      44.663  33.711  25.321  1.00  0.00     0.041 A 
ATOM     70  F   UNL A   1      45.542  31.608  25.491  1.00  0.00    -0.206 F 
ATOM     71  C   UNL A   1      43.920  34.769  25.811  1.00  0.00     0.022 A 
BRANCH  68  72
ATOM     72  S   UNL A   1      42.388  35.993  27.781  1.00  0.00     0.124 S 
ATOM     73  O   UNL A   1      42.925  36.210  29.120  1.00  0.00    -0.237 OA
ATOM     74  O   UNL A   1      42.580  37.078  26.825  1.00  0.00    -0.237 OA
ATOM     75  O   UNL A   1      41.086  35.334  27.727  1.00  0.00    -0.744 OA
ENDBRANCH  68  72
ENDBRANCH  51  65
BRANCH  52  76
ATOM     76  C   UNL A   1      36.706  32.137  30.785  1.00  0.00     0.023 A 
ATOM     77  C   UNL A   1      35.919  32.964  31.624  1.00  0.00     0.031 A 
ATOM     78  C   UNL A   1      36.239  31.989  29.456  1.00  0.00     0.131 A 
ATOM     79  C   UNL A   1      34.737  33.583  31.127  1.00  0.00     0.055 A 
ATOM     80  C   UNL A   1      35.076  32.597  28.975  1.00  0.00     0.041 A 
ATOM     81  F   UNL A   1      36.944  31.311  28.538  1.00  0.00    -0.206 F 
ATOM     82  C   UNL A   1      34.324  33.406  29.805  1.00  0.00     0.022 A 
BRANCH  79  83
ATOM     83  S   UNL A   1      33.750  34.720  32.164  1.00  0.00     0.124 S 
ATOM     84  O   UNL A   1      32.791  35.257  31.206  1.00  0.00    -0.237 OA
ATOM     85  O   UNL A   1      33.218  33.832  33.190  1.00  0.00    -0.237 OA
ATOM     86  O   UNL A   1      34.739  35.686  32.649  1.00  0.00    -0.744 OA
ENDBRANCH  79  83
ENDBRANCH  52  76
BRANCH  64  87
ATOM     87  C   UNL A   1      42.265  31.067  33.748  1.00  0.00     0.023 A 
ATOM     88  C   UNL A   1      42.008  29.691  33.957  1.00  0.00     0.031 A 
ATOM     89  C   UNL A   1      42.557  31.847  34.882  1.00  0.00     0.131 A 
ATOM     90  C   UNL A   1      42.049  29.154  35.262  1.00  0.00     0.055 A 
ATOM     91  C   UNL A   1      42.623  31.308  36.166  1.00  0.00     0.041 A 
ATOM     92  F   UNL A   1      42.834  33.156  34.755  1.00  0.00    -0.206 F 
ATOM     93  C   UNL A   1      42.364  29.958  36.361  1.00  0.00     0.022 A 
BRANCH  90  94
ATOM     94  S   UNL A   1      41.670  27.395  35.568  1.00  0.00     0.124 S 
ATOM     95  O   UNL A   1      40.787  27.040  34.463  1.00  0.00    -0.237 OA
ATOM     96  O   UNL A   1      42.993  26.779  35.554  1.00  0.00    -0.237 OA
ATOM     97  O   UNL A   1      41.023  27.411  36.882  1.00  0.00    -0.744 OA
ENDBRANCH  90  94
ENDBRANCH  64  87
ENDBRANCH  38  39
ENDBRANCH  30  33
ENDBRANCH  28  29
ENDBRANCH  27  28
ENDBRANCH   1  27
TORSDOF 17
ENDMDL
MODEL 3
REMARK VINA RESULT:     -13.0      2.353      6.977
REMARK SMILES Cc1c(C(=O)NCCCCCCNC(=O)c2ccc(-c3c4nc(c(-c5cc(S(=O)(=O)[O-])ccc5F)c5ccc([nH]5)c(-c5cc(S(=O)(=O)[O-])ccc5F)c5nc(c(-c6cc(S(=O)(=O)[O-])ccc6F)c6ccc3[nH]6)C=C5)C=C4)cc2)nnn1-c1cccc2c1CC[N@@H+](C)C2
REMARK SMILES IDX 10 1 9 2 8 3 7 4 6 5 4 6 5 7 3 9 1 10 2 11 81 12 79 13 80 14
REMARK SMILES IDX 82 15 83 16 87 17 84 18 86 19 88 20 85 21 92 22 89 23 90 24
REMARK SMILES IDX 91 25 11 27 12 28 13 29 14 30 15 32 16 33 17 34 78 35 18 36
REMARK SMILES IDX 77 37 19 38 20 39 21 40 71 41 22 42 76 43 70 44 72 45 23 46
REMARK SMILES IDX 75 47 69 48 68 49 24 51 56 52 36 53 55 54 37 55 40 56 54 57
REMARK SMILES IDX 73 58 38 59 39 60 53 62 74 63 41 64 25 65 26 66 34 67 27 68
REMARK SMILES IDX 33 69 35 70 32 71 28 72 29 73 30 74 31 75 57 76 58 77 66 78
REMARK SMILES IDX 59 79 65 80 67 81 64 82 60 83 61 84 62 85 63 86 42 87 43 88
REMARK SMILES IDX 51 89 44 90 50 91 52 92 49 93 45 94 46 95 47 96 48 97
REMARK H PARENT 6 8 90 26 13 31 72 50 40 61
REMARK Flexibility Score: inf
ROOT
ATOM      1  C   UNL A   1      32.293  29.568  26.523  1.00  0.00     0.002 C 
ENDROOT
BRANCH   1   2
ATOM      2  C   UNL A   1      32.258  29.516  24.985  1.00  0.00     0.002 C 
BRANCH   2   3
ATOM      3  C   UNL A   1      30.984  28.921  24.374  1.00  0.00     0.021 C 
BRANCH   3   4
ATOM      4  C   UNL A   1      31.098  28.673  22.869  1.00  0.00     0.116 C 
BRANCH   4   5
ATOM      5  N   UNL A   1      32.470  28.719  22.447  1.00  0.00    -0.351 N 
ATOM      6  C   UNL A   1      33.377  27.757  22.101  1.00  0.00     0.273 C 
ATOM      7  O   UNL A   1      34.438  28.195  21.642  1.00  0.00    -0.267 OA
ATOM      8  H   UNL A   1      32.832  29.633  22.395  1.00  0.00     0.163 HD
BRANCH   6   9
ATOM      9  C   UNL A   1      33.148  26.311  22.199  1.00  0.00     0.173 A 
ATOM     10  C   UNL A   1      32.321  25.524  24.622  1.00  0.00     0.069 C 
ATOM     11  C   UNL A   1      32.749  25.426  23.201  1.00  0.00     0.075 A 
ATOM     12  N   UNL A   1      32.908  24.174  22.620  1.00  0.00    -0.217 N 
ATOM     13  N   UNL A   1      33.470  25.562  21.078  1.00  0.00    -0.124 NA
ATOM     14  N   UNL A   1      33.327  24.280  21.350  1.00  0.00    -0.061 NA
BRANCH  12  15
ATOM     15  C   UNL A   1      33.120  22.977  23.327  1.00  0.00     0.071 A 
ATOM     16  C   UNL A   1      32.086  22.029  23.274  1.00  0.00     0.029 A 
ATOM     17  C   UNL A   1      34.330  22.714  23.980  1.00  0.00    -0.008 A 
ATOM     18  C   UNL A   1      32.274  20.771  23.831  1.00  0.00     0.003 A 
ATOM     19  C   UNL A   1      34.481  21.446  24.576  1.00  0.00     0.012 A 
ATOM     20  C   UNL A   1      35.443  23.730  24.133  1.00  0.00     0.099 C 
ATOM     21  C   UNL A   1      33.476  20.472  24.464  1.00  0.00     0.010 A 
ATOM     22  C   UNL A   1      35.680  21.195  25.461  1.00  0.00     0.299 C 
ATOM     23  C   UNL A   1      36.403  23.464  25.324  1.00  0.00     0.267 C 
ATOM     24  N   UNL A   1      36.007  22.394  26.256  1.00  0.00    -0.333 N 
ATOM     25  C   UNL A   1      34.876  22.806  27.107  1.00  0.00     0.333 C 
ATOM     26  H   UNL A   1      36.776  22.189  26.893  1.00  0.00     0.348 HD
ENDBRANCH  12  15
ENDBRANCH   6   9
ENDBRANCH   4   5
ENDBRANCH   3   4
ENDBRANCH   2   3
ENDBRANCH   1   2
BRANCH   1  27
ATOM     27  C   UNL A   1      33.258  28.597  27.220  1.00  0.00     0.021 C 
BRANCH  27  28
ATOM     28  C   UNL A   1      34.661  29.157  27.383  1.00  0.00     0.116 C 
BRANCH  28  29
ATOM     29  N   UNL A   1      34.676  30.625  27.372  1.00  0.00    -0.352 N 
ATOM     30  C   UNL A   1      35.545  31.510  27.998  1.00  0.00     0.251 C 
ATOM     31  H   UNL A   1      33.962  31.046  26.841  1.00  0.00     0.163 HD
ATOM     32  O   UNL A   1      35.206  32.658  28.214  1.00  0.00    -0.269 OA
BRANCH  30  33
ATOM     33  C   UNL A   1      36.888  31.026  28.379  1.00  0.00     0.039 A 
ATOM     34  C   UNL A   1      37.713  31.678  29.301  1.00  0.00     0.014 A 
ATOM     35  C   UNL A   1      37.304  29.847  27.784  1.00  0.00     0.014 A 
ATOM     36  C   UNL A   1      38.949  31.102  29.604  1.00  0.00     0.010 A 
ATOM     37  C   UNL A   1      38.305  29.131  28.354  1.00  0.00     0.010 A 
ATOM     38  C   UNL A   1      39.233  29.826  29.102  1.00  0.00    -0.014 A 
BRANCH  38  39
ATOM     39  C   UNL A   1      40.450  29.083  29.374  1.00  0.00     0.031 A 
ATOM     40  C   UNL A   1      40.645  28.817  30.813  1.00  0.00     0.074 A 
ATOM     41  C   UNL A   1      41.115  28.418  28.401  1.00  0.00     0.049 A 
ATOM     42  N   UNL A   1      41.451  29.434  31.607  1.00  0.00    -0.248 NA
ATOM     43  C   UNL A   1      39.674  27.953  31.506  1.00  0.00     0.031 C 
ATOM     44  C   UNL A   1      40.804  28.327  26.967  1.00  0.00     0.029 A 
ATOM     45  N   UNL A   1      42.163  27.564  28.518  1.00  0.00    -0.354 N 
ATOM     46  C   UNL A   1      41.302  28.801  32.832  1.00  0.00     0.074 A 
ATOM     47  C   UNL A   1      40.017  28.165  32.779  1.00  0.00     0.031 C 
ATOM     48  C   UNL A   1      41.492  27.299  26.417  1.00  0.00     0.029 A 
ATOM     49  C   UNL A   1      42.385  26.738  27.417  1.00  0.00     0.049 A 
ATOM     50  H   UNL A   1      42.728  27.531  29.324  1.00  0.00     0.167 HD
ATOM     51  C   UNL A   1      42.381  28.577  33.634  1.00  0.00     0.034 A 
ATOM     52  C   UNL A   1      43.198  25.642  27.373  1.00  0.00     0.034 A 
ATOM     53  C   UNL A   1      43.536  29.313  33.146  1.00  0.00     0.049 A 
ATOM     54  C   UNL A   1      44.187  25.830  28.477  1.00  0.00     0.074 A 
ATOM     55  C   UNL A   1      43.768  30.642  32.837  1.00  0.00     0.029 A 
ATOM     56  N   UNL A   1      44.520  28.607  32.480  1.00  0.00    -0.354 N 
ATOM     57  N   UNL A   1      45.045  26.819  28.499  1.00  0.00    -0.248 NA
ATOM     58  C   UNL A   1      43.854  25.281  29.786  1.00  0.00     0.031 C 
ATOM     59  C   UNL A   1      44.493  30.605  31.608  1.00  0.00     0.029 A 
ATOM     60  C   UNL A   1      44.784  29.272  31.306  1.00  0.00     0.049 A 
ATOM     61  H   UNL A   1      44.952  27.779  32.789  1.00  0.00     0.167 HD
ATOM     62  C   UNL A   1      45.009  27.303  29.800  1.00  0.00     0.074 A 
ATOM     63  C   UNL A   1      44.319  26.263  30.568  1.00  0.00     0.031 C 
ATOM     64  C   UNL A   1      45.237  28.624  30.085  1.00  0.00     0.034 A 
BRANCH  51  65
ATOM     65  C   UNL A   1      42.531  27.414  34.592  1.00  0.00     0.023 A 
ATOM     66  C   UNL A   1      43.360  26.361  34.168  1.00  0.00     0.031 A 
ATOM     67  C   UNL A   1      41.735  27.144  35.729  1.00  0.00     0.131 A 
ATOM     68  C   UNL A   1      43.281  25.092  34.763  1.00  0.00     0.055 A 
ATOM     69  C   UNL A   1      41.714  25.898  36.363  1.00  0.00     0.041 A 
ATOM     70  F   UNL A   1      40.870  28.019  36.248  1.00  0.00    -0.206 F 
ATOM     71  C   UNL A   1      42.461  24.850  35.858  1.00  0.00     0.022 A 
BRANCH  68  72
ATOM     72  S   UNL A   1      44.131  23.721  33.946  1.00  0.00     0.124 S 
ATOM     73  O   UNL A   1      45.434  24.315  33.663  1.00  0.00    -0.237 OA
ATOM     74  O   UNL A   1      44.101  22.693  34.980  1.00  0.00    -0.237 OA
ATOM     75  O   UNL A   1      43.296  23.457  32.776  1.00  0.00    -0.744 OA
ENDBRANCH  68  72
ENDBRANCH  51  65
BRANCH  52  76
ATOM     76  C   UNL A   1      42.904  24.328  26.704  1.00  0.00     0.023 A 
ATOM     77  C   UNL A   1      43.880  23.553  26.030  1.00  0.00     0.031 A 
ATOM     78  C   UNL A   1      41.658  23.691  26.923  1.00  0.00     0.131 A 
ATOM     79  C   UNL A   1      43.585  22.225  25.610  1.00  0.00     0.055 A 
ATOM     80  C   UNL A   1      41.373  22.388  26.505  1.00  0.00     0.041 A 
ATOM     81  F   UNL A   1      40.685  24.281  27.633  1.00  0.00    -0.206 F 
ATOM     82  C   UNL A   1      42.339  21.644  25.854  1.00  0.00     0.022 A 
BRANCH  79  83
ATOM     83  S   UNL A   1      44.852  21.176  24.812  1.00  0.00     0.124 S 
ATOM     84  O   UNL A   1      46.091  21.731  25.341  1.00  0.00    -0.237 OA
ATOM     85  O   UNL A   1      44.490  19.839  25.267  1.00  0.00    -0.237 OA
ATOM     86  O   UNL A   1      44.637  21.409  23.381  1.00  0.00    -0.744 OA
ENDBRANCH  79  83
ENDBRANCH  52  76
BRANCH  64  87
ATOM     87  C   UNL A   1      45.801  29.536  29.005  1.00  0.00     0.023 A 
ATOM     88  C   UNL A   1      45.062  30.486  28.262  1.00  0.00     0.031 A 
ATOM     89  C   UNL A   1      47.200  29.540  28.845  1.00  0.00     0.131 A 
ATOM     90  C   UNL A   1      45.729  31.385  27.400  1.00  0.00     0.055 A 
ATOM     91  C   UNL A   1      47.857  30.446  28.014  1.00  0.00     0.041 A 
ATOM     92  F   UNL A   1      47.966  28.681  29.538  1.00  0.00    -0.206 F 
ATOM     93  C   UNL A   1      47.122  31.371  27.284  1.00  0.00     0.022 A 
BRANCH  90  94
ATOM     94  S   UNL A   1      44.797  32.584  26.388  1.00  0.00     0.124 S 
ATOM     95  O   UNL A   1      44.277  33.528  27.371  1.00  0.00    -0.237 OA
ATOM     96  O   UNL A   1      45.822  33.100  25.485  1.00  0.00    -0.237 OA
ATOM     97  O   UNL A   1      43.776  31.759  25.738  1.00  0.00    -0.744 OA
ENDBRANCH  90  94
ENDBRANCH  64  87
ENDBRANCH  38  39
ENDBRANCH  30  33
ENDBRANCH  28  29
ENDBRANCH  27  28
ENDBRANCH   1  27
TORSDOF 17
ENDMDL
