MODEL 1
REMARK VINA RESULT:     -11.8      0.000      0.000
REMARK SMILES C[C@@H]1CC[C@H](C)[N@H+]1Cc1cc2c(cc1Cl)C=C(C(=O)NCCCCCCNC(=O)c1ccc(-c3c4nc(c(-c5cc(S(=O)(=O)[O-])ccc5F)c5ccc([nH]5)c(-c5cc(S(=O)(=O)[O-])ccc5F)c5nc(c(-c6cc(S(=O)(=O)[O-])ccc6F)c6ccc3[nH]6)C=C5)C=C4)cc1)[C@@H](C(F)(F)F)O2
REMARK SMILES IDX 24 1 23 2 22 3 21 4 20 5 18 6 19 7 17 9 9 10 10 11 14 12
REMARK SMILES IDX 11 13 13 14 15 15 12 16 98 17 16 18 93 19 8 20 7 21 6 22
REMARK SMILES IDX 5 23 4 24 3 25 2 26 1 28 94 29 95 30 96 31 97 32 25 33 26 34
REMARK SMILES IDX 27 35 28 36 29 38 30 39 31 40 92 41 32 42 91 43 33 44 34 45
REMARK SMILES IDX 35 46 85 47 36 48 90 49 84 50 86 51 37 52 89 53 83 54 82 55
REMARK SMILES IDX 38 57 70 58 50 59 69 60 51 61 54 62 68 63 87 64 52 65 53 66
REMARK SMILES IDX 67 68 88 69 55 70 39 71 40 72 48 73 41 74 47 75 49 76 46 77
REMARK SMILES IDX 42 78 43 79 44 80 45 81 71 82 72 83 80 84 73 85 79 86 81 87
REMARK SMILES IDX 78 88 74 89 75 90 76 91 77 92 56 93 57 94 65 95 58 96 64 97
REMARK SMILES IDX 66 98 63 99 59 100 60 101 61 102 62 103
REMARK H PARENT 20 8 7 27 27 37 86 56 54 67
REMARK Flexibility Score: inf
ROOT
ATOM      1  C   UNL A   1      40.739  21.836  27.621  1.00  0.00     0.002 C 
ENDROOT
BRANCH   1   2
ATOM      2  C   UNL A   1      39.692  22.710  26.920  1.00  0.00     0.002 C 
BRANCH   2   3
ATOM      3  C   UNL A   1      38.793  21.978  25.918  1.00  0.00     0.021 C 
BRANCH   3   4
ATOM      4  C   UNL A   1      37.510  22.729  25.578  1.00  0.00     0.116 C 
BRANCH   4   5
ATOM      5  N   UNL A   1      36.368  22.147  26.258  1.00  0.00    -0.352 N 
ATOM      6  C   UNL A   1      35.033  22.341  26.292  1.00  0.00     0.251 C 
ATOM      7  O   UNL A   1      34.414  21.592  27.057  1.00  0.00    -0.270 OA
ATOM      8  H   UNL A   1      36.641  21.412  26.853  1.00  0.00     0.163 HD
BRANCH   6   9
ATOM      9  C   UNL A   1      34.286  23.350  25.488  1.00  0.00     0.067 C 
ATOM     10  C   UNL A   1      32.093  27.603  23.872  1.00  0.00     0.029 A 
ATOM     11  C   UNL A   1      32.480  26.398  23.256  1.00  0.00     0.058 A 
ATOM     12  C   UNL A   1      32.309  27.726  25.257  1.00  0.00     0.050 A 
ATOM     13  C   UNL A   1      33.122  25.400  23.984  1.00  0.00     0.128 A 
ATOM     14  C   UNL A   1      33.047  26.764  25.958  1.00  0.00     0.033 A 
ATOM     15  Cl  UNL A   1      31.609  28.986  26.214  1.00  0.00    -0.084 Cl
ATOM     16  C   UNL A   1      33.469  25.604  25.315  1.00  0.00     0.019 A 
ATOM     17  O   UNL A   1      33.406  24.232  23.337  1.00  0.00    -0.475 OA
ATOM     18  C   UNL A   1      34.249  24.590  26.010  1.00  0.00     0.025 C 
ATOM     19  C   UNL A   1      33.537  23.070  24.212  1.00  0.00     0.314 C 
BRANCH  10  20
ATOM     20  C   UNL A   1      31.475  28.685  23.005  1.00  0.00     0.301 C 
BRANCH  20  21
ATOM     21  N   UNL A   1      30.063  29.013  23.256  1.00  0.00    -0.327 N 
ATOM     22  C   UNL A   1      28.770  27.071  24.090  1.00  0.00     0.075 C 
ATOM     23  C   UNL A   1      29.066  27.987  22.910  1.00  0.00     0.181 C 
ATOM     24  C   UNL A   1      27.824  28.774  22.490  1.00  0.00     0.071 C 
ATOM     25  C   UNL A   1      28.414  30.021  21.871  1.00  0.00     0.071 C 
ATOM     26  C   UNL A   1      29.613  30.318  22.761  1.00  0.00     0.181 C 
ATOM     27  H   UNL A   1      30.096  29.055  24.274  1.00  0.00     0.348 HD
ATOM     28  C   UNL A   1      29.252  31.202  23.952  1.00  0.00     0.075 C 
ENDBRANCH  20  21
ENDBRANCH  10  20
BRANCH  19  29
ATOM     29  C   UNL A   1      32.157  22.435  24.485  1.00  0.00     0.429 C 
ATOM     30  F   UNL A   1      32.255  21.088  24.574  1.00  0.00    -0.167 F 
ATOM     31  F   UNL A   1      31.622  22.861  25.656  1.00  0.00    -0.167 F 
ATOM     32  F   UNL A   1      31.252  22.717  23.522  1.00  0.00    -0.167 F 
ENDBRANCH  19  29
ENDBRANCH   6   9
ENDBRANCH   4   5
ENDBRANCH   3   4
ENDBRANCH   2   3
ENDBRANCH   1   2
BRANCH   1  33
ATOM     33  C   UNL A   1      40.879  20.413  27.076  1.00  0.00     0.021 C 
BRANCH  33  34
ATOM     34  C   UNL A   1      42.228  19.759  27.339  1.00  0.00     0.116 C 
BRANCH  34  35
ATOM     35  N   UNL A   1      42.858  19.273  26.122  1.00  0.00    -0.352 N 
ATOM     36  C   UNL A   1      43.623  19.963  25.207  1.00  0.00     0.251 C 
ATOM     37  H   UNL A   1      42.717  18.319  25.925  1.00  0.00     0.163 HD
ATOM     38  O   UNL A   1      43.941  19.440  24.154  1.00  0.00    -0.269 OA
BRANCH  36  39
ATOM     39  C   UNL A   1      44.016  21.359  25.510  1.00  0.00     0.039 A 
ATOM     40  C   UNL A   1      45.101  21.622  26.348  1.00  0.00     0.014 A 
ATOM     41  C   UNL A   1      43.258  22.409  24.988  1.00  0.00     0.014 A 
ATOM     42  C   UNL A   1      45.317  22.917  26.803  1.00  0.00     0.010 A 
ATOM     43  C   UNL A   1      43.539  23.723  25.376  1.00  0.00     0.010 A 
ATOM     44  C   UNL A   1      44.535  23.983  26.330  1.00  0.00    -0.014 A 
BRANCH  44  45
ATOM     45  C   UNL A   1      44.781  25.354  26.853  1.00  0.00     0.031 A 
ATOM     46  C   UNL A   1      46.126  26.012  26.697  1.00  0.00     0.074 A 
ATOM     47  C   UNL A   1      43.759  26.031  27.413  1.00  0.00     0.049 A 
ATOM     48  N   UNL A   1      46.490  27.225  27.029  1.00  0.00    -0.248 NA
ATOM     49  C   UNL A   1      47.205  25.211  26.098  1.00  0.00     0.031 C 
ATOM     50  C   UNL A   1      42.415  25.490  27.617  1.00  0.00     0.029 A 
ATOM     51  N   UNL A   1      43.674  27.318  27.883  1.00  0.00    -0.354 N 
ATOM     52  C   UNL A   1      47.837  27.326  26.700  1.00  0.00     0.074 A 
ATOM     53  C   UNL A   1      48.238  26.041  26.173  1.00  0.00     0.031 C 
ATOM     54  C   UNL A   1      41.623  26.455  28.103  1.00  0.00     0.029 A 
ATOM     55  C   UNL A   1      42.415  27.664  28.317  1.00  0.00     0.049 A 
ATOM     56  H   UNL A   1      44.441  27.935  27.907  1.00  0.00     0.167 HD
ATOM     57  C   UNL A   1      48.658  28.398  26.812  1.00  0.00     0.034 A 
ATOM     58  C   UNL A   1      41.945  28.820  28.830  1.00  0.00     0.034 A 
ATOM     59  C   UNL A   1      48.236  29.682  27.316  1.00  0.00     0.049 A 
ATOM     60  C   UNL A   1      42.881  29.994  28.948  1.00  0.00     0.074 A 
ATOM     61  C   UNL A   1      48.987  30.837  27.440  1.00  0.00     0.029 A 
ATOM     62  N   UNL A   1      46.959  29.986  27.769  1.00  0.00    -0.354 N 
ATOM     63  N   UNL A   1      44.138  30.085  28.585  1.00  0.00    -0.248 NA
ATOM     64  C   UNL A   1      42.338  31.224  29.538  1.00  0.00     0.031 C 
ATOM     65  C   UNL A   1      48.186  31.818  28.026  1.00  0.00     0.029 A 
ATOM     66  C   UNL A   1      46.910  31.304  28.193  1.00  0.00     0.049 A 
ATOM     67  H   UNL A   1      46.201  29.358  27.786  1.00  0.00     0.167 HD
ATOM     68  C   UNL A   1      44.529  31.390  28.876  1.00  0.00     0.074 A 
ATOM     69  C   UNL A   1      43.365  32.057  29.421  1.00  0.00     0.031 C 
ATOM     70  C   UNL A   1      45.741  31.974  28.712  1.00  0.00     0.034 A 
BRANCH  57  71
ATOM     71  C   UNL A   1      50.098  28.263  26.380  1.00  0.00     0.023 A 
ATOM     72  C   UNL A   1      50.451  28.493  25.036  1.00  0.00     0.031 A 
ATOM     73  C   UNL A   1      51.086  27.773  27.251  1.00  0.00     0.131 A 
ATOM     74  C   UNL A   1      51.746  28.192  24.593  1.00  0.00     0.055 A 
ATOM     75  C   UNL A   1      52.388  27.516  26.814  1.00  0.00     0.041 A 
ATOM     76  F   UNL A   1      50.801  27.537  28.542  1.00  0.00    -0.206 F 
ATOM     77  C   UNL A   1      52.718  27.712  25.476  1.00  0.00     0.022 A 
BRANCH  74  78
ATOM     78  S   UNL A   1      52.198  28.341  22.843  1.00  0.00     0.124 S 
ATOM     79  O   UNL A   1      53.478  29.041  22.923  1.00  0.00    -0.237 OA
ATOM     80  O   UNL A   1      52.275  26.943  22.428  1.00  0.00    -0.237 OA
ATOM     81  O   UNL A   1      51.104  29.112  22.262  1.00  0.00    -0.744 OA
ENDBRANCH  74  78
ENDBRANCH  57  71
BRANCH  58  82
ATOM     82  C   UNL A   1      40.501  28.917  29.199  1.00  0.00     0.023 A 
ATOM     83  C   UNL A   1      40.096  28.895  30.546  1.00  0.00     0.031 A 
ATOM     84  C   UNL A   1      39.504  28.919  28.210  1.00  0.00     0.131 A 
ATOM     85  C   UNL A   1      38.735  28.797  30.864  1.00  0.00     0.055 A 
ATOM     86  C   UNL A   1      38.146  28.903  28.532  1.00  0.00     0.041 A 
ATOM     87  F   UNL A   1      39.839  28.924  26.910  1.00  0.00    -0.206 F 
ATOM     88  C   UNL A   1      37.756  28.820  29.866  1.00  0.00     0.022 A 
BRANCH  85  89
ATOM     89  S   UNL A   1      38.201  28.485  32.569  1.00  0.00     0.124 S 
ATOM     90  O   UNL A   1      39.214  29.196  33.341  1.00  0.00    -0.237 OA
ATOM     91  O   UNL A   1      36.867  29.082  32.577  1.00  0.00    -0.237 OA
ATOM     92  O   UNL A   1      38.228  27.030  32.677  1.00  0.00    -0.744 OA
ENDBRANCH  85  89
ENDBRANCH  58  82
BRANCH  70  93
ATOM     93  C   UNL A   1      45.904  33.426  29.099  1.00  0.00     0.023 A 
ATOM     94  C   UNL A   1      45.595  34.437  28.168  1.00  0.00     0.031 A 
ATOM     95  C   UNL A   1      46.500  33.803  30.314  1.00  0.00     0.131 A 
ATOM     96  C   UNL A   1      45.918  35.769  28.450  1.00  0.00     0.055 A 
ATOM     97  C   UNL A   1      46.774  35.139  30.613  1.00  0.00     0.041 A 
ATOM     98  F   UNL A   1      46.828  32.876  31.229  1.00  0.00    -0.206 F 
ATOM     99  C   UNL A   1      46.497  36.127  29.673  1.00  0.00     0.022 A 
BRANCH  96 100
ATOM    100  S   UNL A   1      45.693  37.071  27.208  1.00  0.00     0.124 S 
ATOM    101  O   UNL A   1      46.628  36.656  26.164  1.00  0.00    -0.237 OA
ATOM    102  O   UNL A   1      44.279  36.934  26.868  1.00  0.00    -0.237 OA
ATOM    103  O   UNL A   1      46.052  38.297  27.912  1.00  0.00    -0.744 OA
ENDBRANCH  96 100
ENDBRANCH  70  93
ENDBRANCH  44  45
ENDBRANCH  36  39
ENDBRANCH  34  35
ENDBRANCH  33  34
ENDBRANCH   1  33
TORSDOF 19
ENDMDL
MODEL 2
REMARK VINA RESULT:     -11.6      1.468      7.555
REMARK SMILES C[C@@H]1CC[C@H](C)[N@H+]1Cc1cc2c(cc1Cl)C=C(C(=O)NCCCCCCNC(=O)c1ccc(-c3c4nc(c(-c5cc(S(=O)(=O)[O-])ccc5F)c5ccc([nH]5)c(-c5cc(S(=O)(=O)[O-])ccc5F)c5nc(c(-c6cc(S(=O)(=O)[O-])ccc6F)c6ccc3[nH]6)C=C5)C=C4)cc1)[C@@H](C(F)(F)F)O2
REMARK SMILES IDX 24 1 23 2 22 3 21 4 20 5 18 6 19 7 17 9 9 10 10 11 14 12
REMARK SMILES IDX 11 13 13 14 15 15 12 16 98 17 16 18 93 19 8 20 7 21 6 22
REMARK SMILES IDX 5 23 4 24 3 25 2 26 1 28 94 29 95 30 96 31 97 32 25 33 26 34
REMARK SMILES IDX 27 35 28 36 29 38 30 39 31 40 92 41 32 42 91 43 33 44 34 45
REMARK SMILES IDX 35 46 85 47 36 48 90 49 84 50 86 51 37 52 89 53 83 54 82 55
REMARK SMILES IDX 38 57 70 58 50 59 69 60 51 61 54 62 68 63 87 64 52 65 53 66
REMARK SMILES IDX 67 68 88 69 55 70 39 71 40 72 48 73 41 74 47 75 49 76 46 77
REMARK SMILES IDX 42 78 43 79 44 80 45 81 71 82 72 83 80 84 73 85 79 86 81 87
REMARK SMILES IDX 78 88 74 89 75 90 76 91 77 92 56 93 57 94 65 95 58 96 64 97
REMARK SMILES IDX 66 98 63 99 59 100 60 101 61 102 62 103
REMARK H PARENT 20 8 7 27 27 37 86 56 54 67
REMARK Flexibility Score: inf
ROOT
ATOM      1  C   UNL A   1      40.689  22.095  27.586  1.00  0.00     0.002 C 
ENDROOT
BRANCH   1   2
ATOM      2  C   UNL A   1      40.162  23.049  26.506  1.00  0.00     0.002 C 
BRANCH   2   3
ATOM      3  C   UNL A   1      38.868  23.789  26.862  1.00  0.00     0.021 C 
BRANCH   3   4
ATOM      4  C   UNL A   1      37.797  23.713  25.779  1.00  0.00     0.116 C 
BRANCH   4   5
ATOM      5  N   UNL A   1      36.720  22.824  26.173  1.00  0.00    -0.352 N 
ATOM      6  C   UNL A   1      35.382  22.756  26.003  1.00  0.00     0.251 C 
ATOM      7  O   UNL A   1      34.834  21.791  26.547  1.00  0.00    -0.270 OA
ATOM      8  H   UNL A   1      37.055  22.067  26.705  1.00  0.00     0.163 HD
BRANCH   6   9
ATOM      9  C   UNL A   1      34.560  23.724  25.223  1.00  0.00     0.067 C 
ATOM     10  C   UNL A   1      32.088  27.849  23.681  1.00  0.00     0.029 A 
ATOM     11  C   UNL A   1      32.531  26.672  23.049  1.00  0.00     0.058 A 
ATOM     12  C   UNL A   1      32.327  27.978  25.061  1.00  0.00     0.050 A 
ATOM     13  C   UNL A   1      33.245  25.709  23.756  1.00  0.00     0.128 A 
ATOM     14  C   UNL A   1      33.135  27.057  25.740  1.00  0.00     0.033 A 
ATOM     15  Cl  UNL A   1      31.577  29.190  26.041  1.00  0.00    -0.084 Cl
ATOM     16  C   UNL A   1      33.610  25.927  25.081  1.00  0.00     0.019 A 
ATOM     17  O   UNL A   1      33.583  24.563  23.096  1.00  0.00    -0.475 OA
ATOM     18  C   UNL A   1      34.463  24.957  25.752  1.00  0.00     0.025 C 
ATOM     19  C   UNL A   1      33.801  23.407  23.962  1.00  0.00     0.314 C 
BRANCH  10  20
ATOM     20  C   UNL A   1      31.389  28.898  22.834  1.00  0.00     0.301 C 
BRANCH  20  21
ATOM     21  N   UNL A   1      29.980  29.180  23.154  1.00  0.00    -0.327 N 
ATOM     22  C   UNL A   1      28.771  27.177  23.970  1.00  0.00     0.075 C 
ATOM     23  C   UNL A   1      28.996  28.141  22.813  1.00  0.00     0.181 C 
ATOM     24  C   UNL A   1      27.718  28.909  22.472  1.00  0.00     0.071 C 
ATOM     25  C   UNL A   1      28.251  30.193  21.874  1.00  0.00     0.071 C 
ATOM     26  C   UNL A   1      29.479  30.489  22.724  1.00  0.00     0.181 C 
ATOM     27  H   UNL A   1      30.055  29.187  24.171  1.00  0.00     0.348 HD
ATOM     28  C   UNL A   1      29.146  31.322  23.960  1.00  0.00     0.075 C 
ENDBRANCH  20  21
ENDBRANCH  10  20
BRANCH  19  29
ATOM     29  C   UNL A   1      32.467  22.691  24.261  1.00  0.00     0.429 C 
ATOM     30  F   UNL A   1      32.642  21.351  24.326  1.00  0.00    -0.167 F 
ATOM     31  F   UNL A   1      31.940  23.069  25.453  1.00  0.00    -0.167 F 
ATOM     32  F   UNL A   1      31.520  22.935  23.326  1.00  0.00    -0.167 F 
ENDBRANCH  19  29
ENDBRANCH   6   9
ENDBRANCH   4   5
ENDBRANCH   3   4
ENDBRANCH   2   3
ENDBRANCH   1   2
BRANCH   1  33
ATOM     33  C   UNL A   1      40.809  20.629  27.166  1.00  0.00     0.021 C 
BRANCH  33  34
ATOM     34  C   UNL A   1      42.140  19.974  27.508  1.00  0.00     0.116 C 
BRANCH  34  35
ATOM     35  N   UNL A   1      42.765  19.348  26.355  1.00  0.00    -0.352 N 
ATOM     36  C   UNL A   1      43.550  19.919  25.377  1.00  0.00     0.251 C 
ATOM     37  H   UNL A   1      42.603  18.382  26.259  1.00  0.00     0.163 HD
ATOM     38  O   UNL A   1      43.861  19.279  24.388  1.00  0.00    -0.269 OA
BRANCH  36  39
ATOM     39  C   UNL A   1      43.974  21.330  25.533  1.00  0.00     0.039 A 
ATOM     40  C   UNL A   1      44.958  21.675  26.460  1.00  0.00     0.014 A 
ATOM     41  C   UNL A   1      43.341  22.319  24.776  1.00  0.00     0.014 A 
ATOM     42  C   UNL A   1      45.183  23.014  26.755  1.00  0.00     0.010 A 
ATOM     43  C   UNL A   1      43.638  23.665  25.011  1.00  0.00     0.010 A 
ATOM     44  C   UNL A   1      44.521  24.026  26.041  1.00  0.00    -0.014 A 
BRANCH  44  45
ATOM     45  C   UNL A   1      44.771  25.449  26.397  1.00  0.00     0.031 A 
ATOM     46  C   UNL A   1      43.681  26.301  26.991  1.00  0.00     0.074 A 
ATOM     47  C   UNL A   1      46.011  25.952  26.240  1.00  0.00     0.049 A 
ATOM     48  N   UNL A   1      43.748  27.534  27.425  1.00  0.00    -0.248 NA
ATOM     49  C   UNL A   1      42.344  25.700  27.113  1.00  0.00     0.031 C 
ATOM     50  C   UNL A   1      47.142  25.217  25.673  1.00  0.00     0.029 A 
ATOM     51  N   UNL A   1      46.541  27.175  26.569  1.00  0.00    -0.354 N 
ATOM     52  C   UNL A   1      42.465  27.863  27.850  1.00  0.00     0.074 A 
ATOM     53  C   UNL A   1      41.630  26.711  27.592  1.00  0.00     0.031 C 
ATOM     54  C   UNL A   1      48.244  25.974  25.755  1.00  0.00     0.029 A 
ATOM     55  C   UNL A   1      47.890  27.277  26.315  1.00  0.00     0.049 A 
ATOM     56  H   UNL A   1      46.008  27.909  26.951  1.00  0.00     0.167 HD
ATOM     57  C   UNL A   1      42.030  29.013  28.418  1.00  0.00     0.034 A 
ATOM     58  C   UNL A   1      48.749  28.299  26.507  1.00  0.00     0.034 A 
ATOM     59  C   UNL A   1      42.882  30.144  28.692  1.00  0.00     0.049 A 
ATOM     60  C   UNL A   1      48.237  29.568  27.135  1.00  0.00     0.074 A 
ATOM     61  C   UNL A   1      42.540  31.343  29.293  1.00  0.00     0.029 A 
ATOM     62  N   UNL A   1      44.236  30.219  28.397  1.00  0.00    -0.354 N 
ATOM     63  N   UNL A   1      47.032  29.841  27.576  1.00  0.00    -0.248 NA
ATOM     64  C   UNL A   1      49.197  30.667  27.300  1.00  0.00     0.031 C 
ATOM     65  C   UNL A   1      43.667  32.165  29.302  1.00  0.00     0.029 A 
ATOM     66  C   UNL A   1      44.736  31.452  28.784  1.00  0.00     0.049 A 
ATOM     67  H   UNL A   1      44.763  29.502  27.976  1.00  0.00     0.167 HD
ATOM     68  C   UNL A   1      47.096  31.132  28.096  1.00  0.00     0.074 A 
ATOM     69  C   UNL A   1      48.467  31.573  27.937  1.00  0.00     0.031 C 
ATOM     70  C   UNL A   1      46.109  31.880  28.647  1.00  0.00     0.034 A 
BRANCH  57  71
ATOM     71  C   UNL A   1      40.575  29.133  28.803  1.00  0.00     0.023 A 
ATOM     72  C   UNL A   1      40.194  29.009  30.153  1.00  0.00     0.031 A 
ATOM     73  C   UNL A   1      39.561  29.222  27.833  1.00  0.00     0.131 A 
ATOM     74  C   UNL A   1      38.837  28.934  30.491  1.00  0.00     0.055 A 
ATOM     75  C   UNL A   1      38.208  29.193  28.180  1.00  0.00     0.041 A 
ATOM     76  F   UNL A   1      39.871  29.342  26.532  1.00  0.00    -0.206 F 
ATOM     77  C   UNL A   1      37.842  29.034  29.514  1.00  0.00     0.022 A 
BRANCH  74  78
ATOM     78  S   UNL A   1      38.311  28.634  32.201  1.00  0.00     0.124 S 
ATOM     79  O   UNL A   1      38.451  27.183  32.307  1.00  0.00    -0.237 OA
ATOM     80  O   UNL A   1      39.284  29.413  32.961  1.00  0.00    -0.237 OA
ATOM     81  O   UNL A   1      36.939  29.129  32.239  1.00  0.00    -0.744 OA
ENDBRANCH  74  78
ENDBRANCH  57  71
BRANCH  58  82
ATOM     82  C   UNL A   1      50.188  28.115  26.152  1.00  0.00     0.023 A 
ATOM     83  C   UNL A   1      50.620  28.187  24.815  1.00  0.00     0.031 A 
ATOM     84  C   UNL A   1      51.130  27.753  27.130  1.00  0.00     0.131 A 
ATOM     85  C   UNL A   1      51.932  27.827  24.485  1.00  0.00     0.055 A 
ATOM     86  C   UNL A   1      52.458  27.473  26.807  1.00  0.00     0.041 A 
ATOM     87  F   UNL A   1      50.764  27.655  28.418  1.00  0.00    -0.206 F 
ATOM     88  C   UNL A   1      52.860  27.489  25.475  1.00  0.00     0.022 A 
BRANCH  85  89
ATOM     89  S   UNL A   1      52.435  27.640  22.752  1.00  0.00     0.124 S 
ATOM     90  O   UNL A   1      52.876  28.989  22.415  1.00  0.00    -0.237 OA
ATOM     91  O   UNL A   1      53.493  26.638  22.855  1.00  0.00    -0.237 OA
ATOM     92  O   UNL A   1      51.218  27.187  22.087  1.00  0.00    -0.744 OA
ENDBRANCH  85  89
ENDBRANCH  58  82
BRANCH  70  93
ATOM     93  C   UNL A   1      46.445  33.263  29.155  1.00  0.00     0.023 A 
ATOM     94  C   UNL A   1      46.820  33.442  30.500  1.00  0.00     0.031 A 
ATOM     95  C   UNL A   1      46.250  34.407  28.362  1.00  0.00     0.131 A 
ATOM     96  C   UNL A   1      46.950  34.735  31.023  1.00  0.00     0.055 A 
ATOM     97  C   UNL A   1      46.431  35.693  28.874  1.00  0.00     0.041 A 
ATOM     98  F   UNL A   1      45.877  34.290  27.077  1.00  0.00    -0.206 F 
ATOM     99  C   UNL A   1      46.767  35.862  30.213  1.00  0.00     0.022 A 
BRANCH  96 100
ATOM    100  S   UNL A   1      47.261  35.004  32.790  1.00  0.00     0.124 S 
ATOM    101  O   UNL A   1      45.985  35.553  33.240  1.00  0.00    -0.237 OA
ATOM    102  O   UNL A   1      47.560  33.653  33.260  1.00  0.00    -0.237 OA
ATOM    103  O   UNL A   1      48.383  35.937  32.812  1.00  0.00    -0.744 OA
ENDBRANCH  96 100
ENDBRANCH  70  93
ENDBRANCH  44  45
ENDBRANCH  36  39
ENDBRANCH  34  35
ENDBRANCH  33  34
ENDBRANCH   1  33
TORSDOF 19
ENDMDL
MODEL 3
REMARK VINA RESULT:     -11.5      6.065     10.634
REMARK SMILES C[C@@H]1CC[C@H](C)[N@H+]1Cc1cc2c(cc1Cl)C=C(C(=O)NCCCCCCNC(=O)c1ccc(-c3c4nc(c(-c5cc(S(=O)(=O)[O-])ccc5F)c5ccc([nH]5)c(-c5cc(S(=O)(=O)[O-])ccc5F)c5nc(c(-c6cc(S(=O)(=O)[O-])ccc6F)c6ccc3[nH]6)C=C5)C=C4)cc1)[C@@H](C(F)(F)F)O2
REMARK SMILES IDX 24 1 23 2 22 3 21 4 20 5 18 6 19 7 17 9 9 10 10 11 14 12
REMARK SMILES IDX 11 13 13 14 15 15 12 16 98 17 16 18 93 19 8 20 7 21 6 22
REMARK SMILES IDX 5 23 4 24 3 25 2 26 1 28 94 29 95 30 96 31 97 32 25 33 26 34
REMARK SMILES IDX 27 35 28 36 29 38 30 39 31 40 92 41 32 42 91 43 33 44 34 45
REMARK SMILES IDX 35 46 85 47 36 48 90 49 84 50 86 51 37 52 89 53 83 54 82 55
REMARK SMILES IDX 38 57 70 58 50 59 69 60 51 61 54 62 68 63 87 64 52 65 53 66
REMARK SMILES IDX 67 68 88 69 55 70 39 71 40 72 48 73 41 74 47 75 49 76 46 77
REMARK SMILES IDX 42 78 43 79 44 80 45 81 71 82 72 83 80 84 73 85 79 86 81 87
REMARK SMILES IDX 78 88 74 89 75 90 76 91 77 92 56 93 57 94 65 95 58 96 64 97
REMARK SMILES IDX 66 98 63 99 59 100 60 101 61 102 62 103
REMARK H PARENT 20 8 7 27 27 37 86 56 54 67
REMARK Flexibility Score: inf
ROOT
ATOM      1  C   UNL A   1      32.849  31.335  27.267  1.00  0.00     0.002 C 
ENDROOT
BRANCH   1   2
ATOM      2  C   UNL A   1      34.345  31.316  27.608  1.00  0.00     0.002 C 
BRANCH   2   3
ATOM      3  C   UNL A   1      35.078  30.016  27.265  1.00  0.00     0.021 C 
BRANCH   3   4
ATOM      4  C   UNL A   1      34.158  28.893  26.798  1.00  0.00     0.116 C 
BRANCH   4   5
ATOM      5  N   UNL A   1      34.137  28.803  25.350  1.00  0.00    -0.352 N 
ATOM      6  C   UNL A   1      33.838  27.870  24.422  1.00  0.00     0.251 C 
ATOM      7  O   UNL A   1      33.979  28.233  23.249  1.00  0.00    -0.270 OA
ATOM      8  H   UNL A   1      34.415  29.650  24.933  1.00  0.00     0.163 HD
BRANCH   6   9
ATOM      9  C   UNL A   1      33.354  26.490  24.709  1.00  0.00     0.067 C 
ATOM     10  C   UNL A   1      32.255  21.570  24.386  1.00  0.00     0.029 A 
ATOM     11  C   UNL A   1      32.331  22.496  25.444  1.00  0.00     0.058 A 
ATOM     12  C   UNL A   1      32.507  22.044  23.086  1.00  0.00     0.050 A 
ATOM     13  C   UNL A   1      32.715  23.814  25.212  1.00  0.00     0.128 A 
ATOM     14  C   UNL A   1      32.993  23.341  22.875  1.00  0.00     0.033 A 
ATOM     15  Cl  UNL A   1      32.145  21.132  21.662  1.00  0.00    -0.084 Cl
ATOM     16  C   UNL A   1      33.113  24.224  23.943  1.00  0.00     0.019 A 
ATOM     17  O   UNL A   1      32.698  24.672  26.273  1.00  0.00    -0.475 OA
ATOM     18  C   UNL A   1      33.626  25.574  23.762  1.00  0.00     0.025 C 
ATOM     19  C   UNL A   1      32.549  26.079  25.913  1.00  0.00     0.314 C 
BRANCH  10  20
ATOM     20  C   UNL A   1      31.914  20.129  24.719  1.00  0.00     0.301 C 
BRANCH  20  21
ATOM     21  N   UNL A   1      33.039  19.233  25.029  1.00  0.00    -0.327 N 
ATOM     22  C   UNL A   1      35.100  20.470  25.632  1.00  0.00     0.075 C 
ATOM     23  C   UNL A   1      34.374  19.653  24.572  1.00  0.00     0.181 C 
ATOM     24  C   UNL A   1      35.113  18.349  24.271  1.00  0.00     0.071 C 
ATOM     25  C   UNL A   1      34.000  17.436  23.804  1.00  0.00     0.071 C 
ATOM     26  C   UNL A   1      32.835  17.817  24.707  1.00  0.00     0.181 C 
ATOM     27  H   UNL A   1      33.036  19.331  26.044  1.00  0.00     0.348 HD
ATOM     28  C   UNL A   1      32.814  17.012  26.004  1.00  0.00     0.075 C 
ENDBRANCH  20  21
ENDBRANCH  10  20
BRANCH  19  29
ATOM     29  C   UNL A   1      31.058  26.446  25.757  1.00  0.00     0.429 C 
ATOM     30  F   UNL A   1      30.854  27.759  26.017  1.00  0.00    -0.167 F 
ATOM     31  F   UNL A   1      30.607  26.228  24.497  1.00  0.00    -0.167 F 
ATOM     32  F   UNL A   1      30.255  25.736  26.582  1.00  0.00    -0.167 F 
ENDBRANCH  19  29
ENDBRANCH   6   9
ENDBRANCH   4   5
ENDBRANCH   3   4
ENDBRANCH   2   3
ENDBRANCH   1   2
BRANCH   1  33
ATOM     33  C   UNL A   1      32.153  32.687  27.438  1.00  0.00     0.021 C 
BRANCH  33  34
ATOM     34  C   UNL A   1      33.056  33.897  27.249  1.00  0.00     0.116 C 
BRANCH  34  35
ATOM     35  N   UNL A   1      32.784  34.951  28.212  1.00  0.00    -0.352 N 
ATOM     36  C   UNL A   1      33.298  35.122  29.479  1.00  0.00     0.251 C 
ATOM     37  H   UNL A   1      32.143  35.638  27.918  1.00  0.00     0.163 HD
ATOM     38  O   UNL A   1      32.840  35.975  30.218  1.00  0.00    -0.269 OA
BRANCH  36  39
ATOM     39  C   UNL A   1      34.387  34.227  29.936  1.00  0.00     0.039 A 
ATOM     40  C   UNL A   1      34.113  33.156  30.787  1.00  0.00     0.014 A 
ATOM     41  C   UNL A   1      35.700  34.498  29.544  1.00  0.00     0.014 A 
ATOM     42  C   UNL A   1      35.163  32.469  31.384  1.00  0.00     0.010 A 
ATOM     43  C   UNL A   1      36.749  33.742  30.077  1.00  0.00     0.010 A 
ATOM     44  C   UNL A   1      36.494  32.758  31.044  1.00  0.00    -0.014 A 
BRANCH  44  45
ATOM     45  C   UNL A   1      37.595  32.016  31.718  1.00  0.00     0.031 A 
ATOM     46  C   UNL A   1      38.329  30.909  31.010  1.00  0.00     0.074 A 
ATOM     47  C   UNL A   1      37.972  32.394  32.955  1.00  0.00     0.049 A 
ATOM     48  N   UNL A   1      39.356  30.211  31.422  1.00  0.00    -0.248 NA
ATOM     49  C   UNL A   1      37.851  30.530  29.670  1.00  0.00     0.031 C 
ATOM     50  C   UNL A   1      37.330  33.452  33.735  1.00  0.00     0.029 A 
ATOM     51  N   UNL A   1      38.997  31.963  33.760  1.00  0.00    -0.354 N 
ATOM     52  C   UNL A   1      39.635  29.301  30.408  1.00  0.00     0.074 A 
ATOM     53  C   UNL A   1      38.648  29.511  29.373  1.00  0.00     0.031 C 
ATOM     54  C   UNL A   1      38.014  33.636  34.872  1.00  0.00     0.029 A 
ATOM     55  C   UNL A   1      39.102  32.663  34.941  1.00  0.00     0.049 A 
ATOM     56  H   UNL A   1      39.601  31.224  33.516  1.00  0.00     0.167 HD
ATOM     57  C   UNL A   1      40.633  28.387  30.341  1.00  0.00     0.034 A 
ATOM     58  C   UNL A   1      39.970  32.539  35.965  1.00  0.00     0.034 A 
ATOM     59  C   UNL A   1      41.626  28.208  31.371  1.00  0.00     0.049 A 
ATOM     60  C   UNL A   1      41.066  31.512  35.867  1.00  0.00     0.074 A 
ATOM     61  C   UNL A   1      42.694  27.328  31.381  1.00  0.00     0.029 A 
ATOM     62  N   UNL A   1      41.684  28.918  32.563  1.00  0.00    -0.354 N 
ATOM     63  N   UNL A   1      41.344  30.695  34.878  1.00  0.00    -0.248 NA
ATOM     64  C   UNL A   1      41.973  31.389  37.016  1.00  0.00     0.031 C 
ATOM     65  C   UNL A   1      43.357  27.460  32.602  1.00  0.00     0.029 A 
ATOM     66  C   UNL A   1      42.756  28.479  33.323  1.00  0.00     0.049 A 
ATOM     67  H   UNL A   1      41.056  29.628  32.828  1.00  0.00     0.167 HD
ATOM     68  C   UNL A   1      42.473  29.982  35.274  1.00  0.00     0.074 A 
ATOM     69  C   UNL A   1      42.841  30.484  36.582  1.00  0.00     0.031 C 
ATOM     70  C   UNL A   1      43.136  28.999  34.616  1.00  0.00     0.034 A 
BRANCH  57  71
ATOM     71  C   UNL A   1      40.734  27.504  29.121  1.00  0.00     0.023 A 
ATOM     72  C   UNL A   1      41.650  27.821  28.099  1.00  0.00     0.031 A 
ATOM     73  C   UNL A   1      39.835  26.446  28.901  1.00  0.00     0.131 A 
ATOM     74  C   UNL A   1      41.619  27.116  26.890  1.00  0.00     0.055 A 
ATOM     75  C   UNL A   1      39.838  25.716  27.710  1.00  0.00     0.041 A 
ATOM     76  F   UNL A   1      38.941  26.103  29.843  1.00  0.00    -0.206 F 
ATOM     77  C   UNL A   1      40.723  26.060  26.693  1.00  0.00     0.022 A 
BRANCH  74  78
ATOM     78  S   UNL A   1      42.687  27.585  25.501  1.00  0.00     0.124 S 
ATOM     79  O   UNL A   1      43.980  27.752  26.160  1.00  0.00    -0.237 OA
ATOM     80  O   UNL A   1      42.577  26.421  24.625  1.00  0.00    -0.237 OA
ATOM     81  O   UNL A   1      42.085  28.814  24.995  1.00  0.00    -0.744 OA
ENDBRANCH  74  78
ENDBRANCH  57  71
BRANCH  58  82
ATOM     82  C   UNL A   1      39.857  33.468  37.130  1.00  0.00     0.023 A 
ATOM     83  C   UNL A   1      40.746  34.548  37.284  1.00  0.00     0.031 A 
ATOM     84  C   UNL A   1      38.935  33.221  38.160  1.00  0.00     0.131 A 
ATOM     85  C   UNL A   1      40.744  35.289  38.472  1.00  0.00     0.055 A 
ATOM     86  C   UNL A   1      38.883  34.012  39.309  1.00  0.00     0.041 A 
ATOM     87  F   UNL A   1      38.077  32.192  38.068  1.00  0.00    -0.206 F 
ATOM     88  C   UNL A   1      39.805  35.040  39.478  1.00  0.00     0.022 A 
BRANCH  85  89
ATOM     89  S   UNL A   1      42.053  36.497  38.814  1.00  0.00     0.124 S 
ATOM     90  O   UNL A   1      42.301  37.060  37.491  1.00  0.00    -0.237 OA
ATOM     91  O   UNL A   1      41.395  37.389  39.766  1.00  0.00    -0.237 OA
ATOM     92  O   UNL A   1      43.132  35.688  39.369  1.00  0.00    -0.744 OA
ENDBRANCH  85  89
ENDBRANCH  58  82
BRANCH  70  93
ATOM     93  C   UNL A   1      44.357  28.388  35.264  1.00  0.00     0.023 A 
ATOM     94  C   UNL A   1      44.201  27.395  36.250  1.00  0.00     0.031 A 
ATOM     95  C   UNL A   1      45.648  28.885  35.020  1.00  0.00     0.131 A 
ATOM     96  C   UNL A   1      45.311  26.960  36.984  1.00  0.00     0.055 A 
ATOM     97  C   UNL A   1      46.759  28.410  35.719  1.00  0.00     0.041 A 
ATOM     98  F   UNL A   1      45.847  29.842  34.100  1.00  0.00    -0.206 F 
ATOM     99  C   UNL A   1      46.592  27.455  36.716  1.00  0.00     0.022 A 
BRANCH  96 100
ATOM    100  S   UNL A   1      45.121  25.812  38.376  1.00  0.00     0.124 S 
ATOM    101  O   UNL A   1      46.483  25.751  38.904  1.00  0.00    -0.237 OA
ATOM    102  O   UNL A   1      44.156  26.509  39.223  1.00  0.00    -0.237 OA
ATOM    103  O   UNL A   1      44.639  24.582  37.757  1.00  0.00    -0.744 OA
ENDBRANCH  96 100
ENDBRANCH  70  93
ENDBRANCH  44  45
ENDBRANCH  36  39
ENDBRANCH  34  35
ENDBRANCH  33  34
ENDBRANCH   1  33
TORSDOF 19
ENDMDL
