MODEL 1
REMARK VINA RESULT:     -11.1      0.000      0.000
REMARK SMILES O=C(NCCCCCCNC(=O)[C@@H]1CCCC[C@H]1C(=O)Nc1ccc(NC(=O)c2ccco2)cc1)c1ccc(-c2c3nc(c(-c4cc(S(=O)(=O)[O-])ccc4F)c4ccc([nH]4)c(-c4cc(S(=O)(=O)[O-])ccc4F)c4nc(c(-c5cc(S(=O)(=O)[O-])ccc5F)c5ccc2[nH]5)C=C4)C=C3)cc1
REMARK SMILES IDX 7 1 6 2 5 3 4 4 3 5 1 6 2 7 36 9 37 10 98 11 38 12 97 13
REMARK SMILES IDX 39 14 40 15 41 16 91 17 42 18 96 19 90 20 92 21 43 22 95 23
REMARK SMILES IDX 89 24 88 25 44 27 76 28 56 29 75 30 57 31 60 32 74 33 93 34
REMARK SMILES IDX 58 35 59 36 73 38 94 39 61 40 45 41 46 42 54 43 47 44 53 45
REMARK SMILES IDX 55 46 52 47 48 48 49 49 50 50 51 51 77 52 78 53 86 54 79 55
REMARK SMILES IDX 85 56 87 57 84 58 80 59 81 60 82 61 83 62 62 63 63 64 71 65
REMARK SMILES IDX 64 66 70 67 72 68 69 69 65 70 66 71 67 72 68 73 8 74 9 75
REMARK SMILES IDX 10 76 11 77 12 79 13 80 14 81 18 82 15 83 17 84 16 85 19 86
REMARK SMILES IDX 20 87 21 88 22 90 23 91 35 92 24 93 34 94 25 95 26 96 27 97
REMARK SMILES IDX 28 99 29 100 30 101 33 102 31 103 32 104
REMARK H PARENT 3 8 92 26 60 37 10 78 21 89 26 98
REMARK Flexibility Score: inf
ROOT
ATOM      1  C   UNL A   1      40.451  27.378  28.847  1.00  0.00     0.002 C 
ENDROOT
BRANCH   1   2
ATOM      2  C   UNL A   1      39.475  26.339  28.291  1.00  0.00     0.002 C 
BRANCH   2   3
ATOM      3  C   UNL A   1      40.076  24.953  28.054  1.00  0.00     0.021 C 
BRANCH   3   4
ATOM      4  C   UNL A   1      40.344  24.624  26.591  1.00  0.00     0.116 C 
BRANCH   4   5
ATOM      5  N   UNL A   1      41.075  23.377  26.439  1.00  0.00    -0.352 N 
ATOM      6  O   UNL A   1      42.842  22.088  25.887  1.00  0.00    -0.269 OA
ATOM      7  C   UNL A   1      42.416  23.190  26.192  1.00  0.00     0.251 C 
ATOM      8  H   UNL A   1      40.539  22.555  26.523  1.00  0.00     0.163 HD
BRANCH   7   9
ATOM      9  C   UNL A   1      43.329  24.350  26.290  1.00  0.00     0.039 A 
ATOM     10  C   UNL A   1      43.733  25.027  25.137  1.00  0.00     0.014 A 
ATOM     11  C   UNL A   1      43.793  24.755  27.544  1.00  0.00     0.014 A 
ATOM     12  C   UNL A   1      44.703  26.015  25.223  1.00  0.00     0.010 A 
ATOM     13  C   UNL A   1      44.706  25.809  27.635  1.00  0.00     0.010 A 
ATOM     14  C   UNL A   1      45.191  26.429  26.474  1.00  0.00    -0.014 A 
BRANCH  14  15
ATOM     15  C   UNL A   1      46.172  27.545  26.532  1.00  0.00     0.031 A 
ATOM     16  C   UNL A   1      47.650  27.287  26.445  1.00  0.00     0.074 A 
ATOM     17  C   UNL A   1      45.705  28.805  26.624  1.00  0.00     0.049 A 
ATOM     18  N   UNL A   1      48.638  28.146  26.441  1.00  0.00    -0.248 NA
ATOM     19  C   UNL A   1      48.077  25.883  26.366  1.00  0.00     0.031 C 
ATOM     20  C   UNL A   1      44.288  29.170  26.723  1.00  0.00     0.029 A 
ATOM     21  N   UNL A   1      46.357  30.011  26.621  1.00  0.00    -0.354 N 
ATOM     22  C   UNL A   1      49.805  27.390  26.381  1.00  0.00     0.074 A 
ATOM     23  C   UNL A   1      49.397  26.000  26.383  1.00  0.00     0.031 C 
ATOM     24  C   UNL A   1      44.176  30.506  26.708  1.00  0.00     0.029 A 
ATOM     25  C   UNL A   1      45.510  31.093  26.669  1.00  0.00     0.049 A 
ATOM     26  H   UNL A   1      47.337  30.094  26.588  1.00  0.00     0.167 HD
ATOM     27  C   UNL A   1      51.091  27.819  26.327  1.00  0.00     0.034 A 
ATOM     28  C   UNL A   1      45.774  32.413  26.691  1.00  0.00     0.034 A 
ATOM     29  C   UNL A   1      51.474  29.212  26.317  1.00  0.00     0.049 A 
ATOM     30  C   UNL A   1      47.210  32.860  26.648  1.00  0.00     0.074 A 
ATOM     31  C   UNL A   1      52.743  29.760  26.223  1.00  0.00     0.029 A 
ATOM     32  N   UNL A   1      50.591  30.282  26.413  1.00  0.00    -0.354 N 
ATOM     33  N   UNL A   1      48.300  32.132  26.571  1.00  0.00    -0.248 NA
ATOM     34  C   UNL A   1      47.449  34.306  26.692  1.00  0.00     0.031 C 
ATOM     35  C   UNL A   1      52.633  31.151  26.327  1.00  0.00     0.029 A 
ATOM     36  C   UNL A   1      51.290  31.482  26.412  1.00  0.00     0.049 A 
ATOM     37  H   UNL A   1      49.612  30.202  26.472  1.00  0.00     0.167 HD
ATOM     38  C   UNL A   1      49.355  33.036  26.537  1.00  0.00     0.074 A 
ATOM     39  C   UNL A   1      48.767  34.361  26.579  1.00  0.00     0.031 C 
ATOM     40  C   UNL A   1      50.690  32.795  26.476  1.00  0.00     0.034 A 
BRANCH  27  41
ATOM     41  C   UNL A   1      52.177  26.766  26.327  1.00  0.00     0.023 A 
ATOM     42  C   UNL A   1      53.042  26.586  27.420  1.00  0.00     0.031 A 
ATOM     43  C   UNL A   1      52.365  25.945  25.200  1.00  0.00     0.131 A 
ATOM     44  C   UNL A   1      54.099  25.666  27.335  1.00  0.00     0.055 A 
ATOM     45  C   UNL A   1      53.370  24.977  25.151  1.00  0.00     0.041 A 
ATOM     46  F   UNL A   1      51.582  26.080  24.117  1.00  0.00    -0.206 F 
ATOM     47  C   UNL A   1      54.254  24.844  26.217  1.00  0.00     0.022 A 
BRANCH  44  48
ATOM     48  S   UNL A   1      55.354  25.663  28.645  1.00  0.00     0.124 S 
ATOM     49  O   UNL A   1      54.538  25.859  29.841  1.00  0.00    -0.237 OA
ATOM     50  O   UNL A   1      55.962  24.345  28.497  1.00  0.00    -0.237 OA
ATOM     51  O   UNL A   1      56.216  26.791  28.297  1.00  0.00    -0.744 OA
ENDBRANCH  44  48
ENDBRANCH  27  41
BRANCH  28  52
ATOM     52  C   UNL A   1      44.662  33.400  26.772  1.00  0.00     0.023 A 
ATOM     53  C   UNL A   1      44.133  33.791  28.011  1.00  0.00     0.031 A 
ATOM     54  C   UNL A   1      44.100  33.953  25.607  1.00  0.00     0.131 A 
ATOM     55  C   UNL A   1      43.049  34.683  28.056  1.00  0.00     0.055 A 
ATOM     56  C   UNL A   1      43.057  34.878  25.660  1.00  0.00     0.041 A 
ATOM     57  F   UNL A   1      44.575  33.616  24.397  1.00  0.00    -0.206 F 
ATOM     58  C   UNL A   1      42.517  35.239  26.890  1.00  0.00     0.022 A 
BRANCH  55  59
ATOM     59  S   UNL A   1      42.297  35.051  29.665  1.00  0.00     0.124 S 
ATOM     60  O   UNL A   1      40.951  35.456  29.279  1.00  0.00    -0.237 OA
ATOM     61  O   UNL A   1      42.410  33.770  30.353  1.00  0.00    -0.237 OA
ATOM     62  O   UNL A   1      43.142  36.119  30.197  1.00  0.00    -0.744 OA
ENDBRANCH  55  59
ENDBRANCH  28  52
BRANCH  40  63
ATOM     63  C   UNL A   1      51.591  34.004  26.413  1.00  0.00     0.023 A 
ATOM     64  C   UNL A   1      52.077  34.498  25.191  1.00  0.00     0.031 A 
ATOM     65  C   UNL A   1      52.003  34.641  27.597  1.00  0.00     0.131 A 
ATOM     66  C   UNL A   1      53.002  35.553  25.182  1.00  0.00     0.055 A 
ATOM     67  C   UNL A   1      52.875  35.730  27.578  1.00  0.00     0.041 A 
ATOM     68  F   UNL A   1      51.571  34.208  28.792  1.00  0.00    -0.206 F 
ATOM     69  C   UNL A   1      53.393  36.182  26.367  1.00  0.00     0.022 A 
BRANCH  66  70
ATOM     70  S   UNL A   1      53.773  36.022  23.608  1.00  0.00     0.124 S 
ATOM     71  O   UNL A   1      53.468  37.448  23.534  1.00  0.00    -0.237 OA
ATOM     72  O   UNL A   1      55.173  35.680  23.833  1.00  0.00    -0.237 OA
ATOM     73  O   UNL A   1      53.081  35.188  22.626  1.00  0.00    -0.744 OA
ENDBRANCH  66  70
ENDBRANCH  40  63
ENDBRANCH  14  15
ENDBRANCH   7   9
ENDBRANCH   4   5
ENDBRANCH   3   4
ENDBRANCH   2   3
ENDBRANCH   1   2
BRANCH   1  74
ATOM     74  C   UNL A   1      39.957  28.826  28.783  1.00  0.00     0.021 C 
BRANCH  74  75
ATOM     75  C   UNL A   1      38.454  28.968  28.564  1.00  0.00     0.116 C 
BRANCH  75  76
ATOM     76  N   UNL A   1      37.732  28.774  29.805  1.00  0.00    -0.356 N 
ATOM     77  C   UNL A   1      36.879  29.589  30.471  1.00  0.00     0.223 C 
ATOM     78  H   UNL A   1      37.887  27.902  30.237  1.00  0.00     0.163 HD
ATOM     79  O   UNL A   1      36.501  29.233  31.592  1.00  0.00    -0.275 OA
BRANCH  77  80
ATOM     80  C   UNL A   1      36.357  30.887  29.876  1.00  0.00     0.091 C 
ATOM     81  C   UNL A   1      35.511  30.667  28.614  1.00  0.00     0.014 C 
ATOM     82  C   UNL A   1      37.398  32.003  29.731  1.00  0.00     0.091 C 
ATOM     83  C   UNL A   1      34.875  31.982  28.163  1.00  0.00     0.001 C 
ATOM     84  C   UNL A   1      36.769  33.303  29.202  1.00  0.00     0.014 C 
ATOM     85  C   UNL A   1      35.934  33.057  27.942  1.00  0.00     0.001 C 
BRANCH  82  86
ATOM     86  C   UNL A   1      38.349  32.230  30.921  1.00  0.00     0.228 C 
ATOM     87  O   UNL A   1      39.547  31.939  30.791  1.00  0.00    -0.274 OA
ATOM     88  N   UNL A   1      38.035  32.862  32.084  1.00  0.00    -0.326 N 
ATOM     89  H   UNL A   1      38.791  32.963  32.707  1.00  0.00     0.169 HD
BRANCH  88  90
ATOM     90  C   UNL A   1      36.835  33.391  32.547  1.00  0.00     0.041 A 
ATOM     91  C   UNL A   1      36.759  34.766  32.723  1.00  0.00     0.028 A 
ATOM     92  C   UNL A   1      35.737  32.613  32.875  1.00  0.00     0.028 A 
ATOM     93  C   UNL A   1      35.526  35.364  32.989  1.00  0.00     0.028 A 
ATOM     94  C   UNL A   1      34.494  33.209  33.093  1.00  0.00     0.028 A 
ATOM     95  C   UNL A   1      34.361  34.599  33.059  1.00  0.00     0.041 A 
BRANCH  95  96
ATOM     96  N   UNL A   1      33.053  35.110  33.084  1.00  0.00    -0.319 N 
ATOM     97  C   UNL A   1      32.277  35.754  32.140  1.00  0.00     0.291 C 
ATOM     98  H   UNL A   1      32.598  34.985  33.949  1.00  0.00     0.170 HD
ATOM     99  O   UNL A   1      31.143  36.097  32.484  1.00  0.00    -0.265 OA
BRANCH  97 100
ATOM    100  C   UNL A   1      32.781  35.970  30.809  1.00  0.00     0.191 A 
ATOM    101  C   UNL A   1      33.237  35.104  29.830  1.00  0.00     0.056 A 
ATOM    102  O   UNL A   1      32.895  37.260  30.366  1.00  0.00    -0.459 OA
ATOM    103  C   UNL A   1      33.696  35.911  28.760  1.00  0.00     0.043 A 
ATOM    104  C   UNL A   1      33.458  37.214  29.133  1.00  0.00     0.196 A 
ENDBRANCH  97 100
ENDBRANCH  95  96
ENDBRANCH  88  90
ENDBRANCH  82  86
ENDBRANCH  77  80
ENDBRANCH  75  76
ENDBRANCH  74  75
ENDBRANCH   1  74
TORSDOF 20
ENDMDL
MODEL 2
REMARK VINA RESULT:     -10.8      7.538     13.251
REMARK SMILES O=C(NCCCCCCNC(=O)[C@@H]1CCCC[C@H]1C(=O)Nc1ccc(NC(=O)c2ccco2)cc1)c1ccc(-c2c3nc(c(-c4cc(S(=O)(=O)[O-])ccc4F)c4ccc([nH]4)c(-c4cc(S(=O)(=O)[O-])ccc4F)c4nc(c(-c5cc(S(=O)(=O)[O-])ccc5F)c5ccc2[nH]5)C=C4)C=C3)cc1
REMARK SMILES IDX 7 1 6 2 5 3 4 4 3 5 1 6 2 7 36 9 37 10 98 11 38 12 97 13
REMARK SMILES IDX 39 14 40 15 41 16 91 17 42 18 96 19 90 20 92 21 43 22 95 23
REMARK SMILES IDX 89 24 88 25 44 27 76 28 56 29 75 30 57 31 60 32 74 33 93 34
REMARK SMILES IDX 58 35 59 36 73 38 94 39 61 40 45 41 46 42 54 43 47 44 53 45
REMARK SMILES IDX 55 46 52 47 48 48 49 49 50 50 51 51 77 52 78 53 86 54 79 55
REMARK SMILES IDX 85 56 87 57 84 58 80 59 81 60 82 61 83 62 62 63 63 64 71 65
REMARK SMILES IDX 64 66 70 67 72 68 69 69 65 70 66 71 67 72 68 73 8 74 9 75
REMARK SMILES IDX 10 76 11 77 12 79 13 80 14 81 18 82 15 83 17 84 16 85 19 86
REMARK SMILES IDX 20 87 21 88 22 90 23 91 35 92 24 93 34 94 25 95 26 96 27 97
REMARK SMILES IDX 28 99 29 100 30 101 33 102 31 103 32 104
REMARK H PARENT 3 8 92 26 60 37 10 78 21 89 26 98
REMARK Flexibility Score: inf
ROOT
ATOM      1  C   UNL A   1      34.320  29.654  27.111  1.00  0.00     0.002 C 
ENDROOT
BRANCH   1   2
ATOM      2  C   UNL A   1      34.717  31.016  27.686  1.00  0.00     0.002 C 
BRANCH   2   3
ATOM      3  C   UNL A   1      33.580  32.034  27.775  1.00  0.00     0.021 C 
BRANCH   3   4
ATOM      4  C   UNL A   1      34.028  33.488  27.693  1.00  0.00     0.116 C 
BRANCH   4   5
ATOM      5  N   UNL A   1      33.375  34.315  28.694  1.00  0.00    -0.352 N 
ATOM      6  O   UNL A   1      32.859  34.985  30.786  1.00  0.00    -0.269 OA
ATOM      7  C   UNL A   1      33.630  34.397  30.044  1.00  0.00     0.251 C 
ATOM      8  H   UNL A   1      32.652  34.895  28.361  1.00  0.00     0.163 HD
BRANCH   7   9
ATOM      9  C   UNL A   1      34.846  33.747  30.582  1.00  0.00     0.039 A 
ATOM     10  C   UNL A   1      36.104  34.304  30.343  1.00  0.00     0.014 A 
ATOM     11  C   UNL A   1      34.724  32.567  31.319  1.00  0.00     0.014 A 
ATOM     12  C   UNL A   1      37.246  33.611  30.721  1.00  0.00     0.010 A 
ATOM     13  C   UNL A   1      35.874  31.916  31.774  1.00  0.00     0.010 A 
ATOM     14  C   UNL A   1      37.145  32.416  31.454  1.00  0.00    -0.014 A 
BRANCH  14  15
ATOM     15  C   UNL A   1      38.389  31.743  31.910  1.00  0.00     0.031 A 
ATOM     16  C   UNL A   1      39.010  32.071  33.239  1.00  0.00     0.074 A 
ATOM     17  C   UNL A   1      38.932  30.795  31.121  1.00  0.00     0.049 A 
ATOM     18  N   UNL A   1      40.070  31.551  33.805  1.00  0.00    -0.248 NA
ATOM     19  C   UNL A   1      38.367  33.130  34.030  1.00  0.00     0.031 C 
ATOM     20  C   UNL A   1      38.417  30.402  29.806  1.00  0.00     0.029 A 
ATOM     21  N   UNL A   1      40.012  29.972  31.312  1.00  0.00    -0.354 N 
ATOM     22  C   UNL A   1      40.236  32.232  35.008  1.00  0.00     0.074 A 
ATOM     23  C   UNL A   1      39.183  33.224  35.071  1.00  0.00     0.031 C 
ATOM     24  C   UNL A   1      39.140  29.375  29.339  1.00  0.00     0.029 A 
ATOM     25  C   UNL A   1      40.211  29.080  30.284  1.00  0.00     0.049 A 
ATOM     26  H   UNL A   1      40.589  30.015  32.108  1.00  0.00     0.167 HD
ATOM     27  C   UNL A   1      41.178  32.040  35.966  1.00  0.00     0.034 A 
ATOM     28  C   UNL A   1      41.156  28.137  30.112  1.00  0.00     0.034 A 
ATOM     29  C   UNL A   1      42.214  31.037  35.887  1.00  0.00     0.049 A 
ATOM     30  C   UNL A   1      42.198  27.960  31.183  1.00  0.00     0.074 A 
ATOM     31  C   UNL A   1      43.194  30.729  36.816  1.00  0.00     0.029 A 
ATOM     32  N   UNL A   1      42.415  30.181  34.809  1.00  0.00    -0.354 N 
ATOM     33  N   UNL A   1      42.328  28.598  32.323  1.00  0.00    -0.248 NA
ATOM     34  C   UNL A   1      43.217  26.933  30.942  1.00  0.00     0.031 C 
ATOM     35  C   UNL A   1      44.020  29.737  36.276  1.00  0.00     0.029 A 
ATOM     36  C   UNL A   1      43.518  29.370  35.039  1.00  0.00     0.049 A 
ATOM     37  H   UNL A   1      41.855  30.154  34.000  1.00  0.00     0.167 HD
ATOM     38  C   UNL A   1      43.435  28.033  32.945  1.00  0.00     0.074 A 
ATOM     39  C   UNL A   1      43.920  26.990  32.063  1.00  0.00     0.031 C 
ATOM     40  C   UNL A   1      44.001  28.348  34.139  1.00  0.00     0.034 A 
BRANCH  27  41
ATOM     41  C   UNL A   1      41.157  32.972  37.158  1.00  0.00     0.023 A 
ATOM     42  C   UNL A   1      40.429  32.674  38.324  1.00  0.00     0.031 A 
ATOM     43  C   UNL A   1      41.856  34.191  37.114  1.00  0.00     0.131 A 
ATOM     44  C   UNL A   1      40.356  33.614  39.365  1.00  0.00     0.055 A 
ATOM     45  C   UNL A   1      41.843  35.088  38.185  1.00  0.00     0.041 A 
ATOM     46  F   UNL A   1      42.554  34.541  36.022  1.00  0.00    -0.206 F 
ATOM     47  C   UNL A   1      41.077  34.809  39.312  1.00  0.00     0.022 A 
BRANCH  44  48
ATOM     48  S   UNL A   1      39.189  33.318  40.721  1.00  0.00     0.124 S 
ATOM     49  O   UNL A   1      38.000  34.026  40.252  1.00  0.00    -0.237 OA
ATOM     50  O   UNL A   1      39.095  31.862  40.745  1.00  0.00    -0.237 OA
ATOM     51  O   UNL A   1      39.847  33.921  41.879  1.00  0.00    -0.744 OA
ENDBRANCH  44  48
ENDBRANCH  27  41
BRANCH  28  52
ATOM     52  C   UNL A   1      41.170  27.305  28.877  1.00  0.00     0.023 A 
ATOM     53  C   UNL A   1      42.148  27.495  27.889  1.00  0.00     0.031 A 
ATOM     54  C   UNL A   1      40.192  26.318  28.660  1.00  0.00     0.131 A 
ATOM     55  C   UNL A   1      42.106  26.733  26.711  1.00  0.00     0.055 A 
ATOM     56  C   UNL A   1      40.185  25.528  27.511  1.00  0.00     0.041 A 
ATOM     57  F   UNL A   1      39.239  26.092  29.579  1.00  0.00    -0.206 F 
ATOM     58  C   UNL A   1      41.140  25.741  26.522  1.00  0.00     0.022 A 
BRANCH  55  59
ATOM     59  S   UNL A   1      43.295  27.106  25.394  1.00  0.00     0.124 S 
ATOM     60  O   UNL A   1      43.686  25.772  24.957  1.00  0.00    -0.237 OA
ATOM     61  O   UNL A   1      42.480  27.876  24.459  1.00  0.00    -0.237 OA
ATOM     62  O   UNL A   1      44.336  27.868  26.083  1.00  0.00    -0.744 OA
ENDBRANCH  55  59
ENDBRANCH  28  52
BRANCH  40  63
ATOM     63  C   UNL A   1      45.186  27.516  34.563  1.00  0.00     0.023 A 
ATOM     64  C   UNL A   1      45.025  26.284  35.220  1.00  0.00     0.031 A 
ATOM     65  C   UNL A   1      46.494  27.985  34.345  1.00  0.00     0.131 A 
ATOM     66  C   UNL A   1      46.150  25.595  35.698  1.00  0.00     0.055 A 
ATOM     67  C   UNL A   1      47.612  27.265  34.768  1.00  0.00     0.041 A 
ATOM     68  F   UNL A   1      46.705  29.157  33.725  1.00  0.00    -0.206 F 
ATOM     69  C   UNL A   1      47.443  26.071  35.464  1.00  0.00     0.022 A 
BRANCH  66  70
ATOM     70  S   UNL A   1      45.896  24.123  36.729  1.00  0.00     0.124 S 
ATOM     71  O   UNL A   1      47.103  23.350  36.454  1.00  0.00    -0.237 OA
ATOM     72  O   UNL A   1      45.795  24.694  38.068  1.00  0.00    -0.237 OA
ATOM     73  O   UNL A   1      44.658  23.548  36.205  1.00  0.00    -0.744 OA
ENDBRANCH  66  70
ENDBRANCH  40  63
ENDBRANCH  14  15
ENDBRANCH   7   9
ENDBRANCH   4   5
ENDBRANCH   3   4
ENDBRANCH   2   3
ENDBRANCH   1   2
BRANCH   1  74
ATOM     74  C   UNL A   1      33.342  28.851  27.973  1.00  0.00     0.021 C 
BRANCH  74  75
ATOM     75  C   UNL A   1      32.253  28.133  27.183  1.00  0.00     0.116 C 
BRANCH  75  76
ATOM     76  N   UNL A   1      31.468  29.076  26.411  1.00  0.00    -0.356 N 
ATOM     77  C   UNL A   1      31.376  29.267  25.074  1.00  0.00     0.223 C 
ATOM     78  H   UNL A   1      30.906  29.679  26.951  1.00  0.00     0.163 HD
ATOM     79  O   UNL A   1      30.730  30.242  24.675  1.00  0.00    -0.275 OA
BRANCH  77  80
ATOM     80  C   UNL A   1      32.004  28.316  24.067  1.00  0.00     0.091 C 
ATOM     81  C   UNL A   1      33.323  28.845  23.487  1.00  0.00     0.014 C 
ATOM     82  C   UNL A   1      31.046  27.761  23.008  1.00  0.00     0.091 C 
ATOM     83  C   UNL A   1      33.990  27.779  22.620  1.00  0.00     0.001 C 
ATOM     84  C   UNL A   1      31.741  26.745  22.086  1.00  0.00     0.014 C 
ATOM     85  C   UNL A   1      33.051  27.299  21.518  1.00  0.00     0.001 C 
BRANCH  82  86
ATOM     86  C   UNL A   1      29.663  27.289  23.495  1.00  0.00     0.228 C 
ATOM     87  O   UNL A   1      28.667  27.970  23.212  1.00  0.00    -0.274 OA
ATOM     88  N   UNL A   1      29.393  26.100  24.100  1.00  0.00    -0.326 N 
ATOM     89  H   UNL A   1      28.438  25.950  24.290  1.00  0.00     0.169 HD
BRANCH  88  90
ATOM     90  C   UNL A   1      30.227  25.062  24.498  1.00  0.00     0.041 A 
ATOM     91  C   UNL A   1      30.580  24.992  25.838  1.00  0.00     0.028 A 
ATOM     92  C   UNL A   1      30.747  24.124  23.620  1.00  0.00     0.028 A 
ATOM     93  C   UNL A   1      31.243  23.863  26.323  1.00  0.00     0.028 A 
ATOM     94  C   UNL A   1      31.367  22.973  24.108  1.00  0.00     0.028 A 
ATOM     95  C   UNL A   1      31.537  22.791  25.482  1.00  0.00     0.041 A 
BRANCH  95  96
ATOM     96  N   UNL A   1      31.981  21.526  25.902  1.00  0.00    -0.319 N 
ATOM     97  C   UNL A   1      33.234  20.952  25.993  1.00  0.00     0.291 C 
ATOM     98  H   UNL A   1      31.252  20.927  26.187  1.00  0.00     0.170 HD
ATOM     99  O   UNL A   1      33.292  19.789  26.399  1.00  0.00    -0.265 OA
BRANCH  97 100
ATOM    100  C   UNL A   1      34.409  21.715  25.659  1.00  0.00     0.191 A 
ATOM    101  C   UNL A   1      35.043  22.777  26.280  1.00  0.00     0.056 A 
ATOM    102  O   UNL A   1      35.060  21.413  24.493  1.00  0.00    -0.459 OA
ATOM    103  C   UNL A   1      36.102  23.171  25.425  1.00  0.00     0.043 A 
ATOM    104  C   UNL A   1      36.074  22.305  24.356  1.00  0.00     0.196 A 
ENDBRANCH  97 100
ENDBRANCH  95  96
ENDBRANCH  88  90
ENDBRANCH  82  86
ENDBRANCH  77  80
ENDBRANCH  75  76
ENDBRANCH  74  75
ENDBRANCH   1  74
TORSDOF 20
ENDMDL
MODEL 3
REMARK VINA RESULT:     -10.8      7.599     12.842
REMARK SMILES O=C(NCCCCCCNC(=O)[C@@H]1CCCC[C@H]1C(=O)Nc1ccc(NC(=O)c2ccco2)cc1)c1ccc(-c2c3nc(c(-c4cc(S(=O)(=O)[O-])ccc4F)c4ccc([nH]4)c(-c4cc(S(=O)(=O)[O-])ccc4F)c4nc(c(-c5cc(S(=O)(=O)[O-])ccc5F)c5ccc2[nH]5)C=C4)C=C3)cc1
REMARK SMILES IDX 7 1 6 2 5 3 4 4 3 5 1 6 2 7 36 9 37 10 98 11 38 12 97 13
REMARK SMILES IDX 39 14 40 15 41 16 91 17 42 18 96 19 90 20 92 21 43 22 95 23
REMARK SMILES IDX 89 24 88 25 44 27 76 28 56 29 75 30 57 31 60 32 74 33 93 34
REMARK SMILES IDX 58 35 59 36 73 38 94 39 61 40 45 41 46 42 54 43 47 44 53 45
REMARK SMILES IDX 55 46 52 47 48 48 49 49 50 50 51 51 77 52 78 53 86 54 79 55
REMARK SMILES IDX 85 56 87 57 84 58 80 59 81 60 82 61 83 62 62 63 63 64 71 65
REMARK SMILES IDX 64 66 70 67 72 68 69 69 65 70 66 71 67 72 68 73 8 74 9 75
REMARK SMILES IDX 10 76 11 77 12 79 13 80 14 81 18 82 15 83 17 84 16 85 19 86
REMARK SMILES IDX 20 87 21 88 22 90 23 91 35 92 24 93 34 94 25 95 26 96 27 97
REMARK SMILES IDX 28 99 29 100 30 101 33 102 31 103 32 104
REMARK H PARENT 3 8 92 26 60 37 10 78 21 89 26 98
REMARK Flexibility Score: inf
ROOT
ATOM      1  C   UNL A   1      34.025  29.714  26.391  1.00  0.00     0.002 C 
ENDROOT
BRANCH   1   2
ATOM      2  C   UNL A   1      34.309  30.607  27.602  1.00  0.00     0.002 C 
BRANCH   2   3
ATOM      3  C   UNL A   1      34.153  32.107  27.347  1.00  0.00     0.021 C 
BRANCH   3   4
ATOM      4  C   UNL A   1      32.727  32.624  27.487  1.00  0.00     0.116 C 
BRANCH   4   5
ATOM      5  N   UNL A   1      32.693  34.021  27.889  1.00  0.00    -0.352 N 
ATOM      6  O   UNL A   1      33.129  35.783  29.229  1.00  0.00    -0.269 OA
ATOM      7  C   UNL A   1      33.419  34.651  28.874  1.00  0.00     0.251 C 
ATOM      8  H   UNL A   1      32.066  34.593  27.389  1.00  0.00     0.163 HD
BRANCH   7   9
ATOM      9  C   UNL A   1      34.545  33.929  29.505  1.00  0.00     0.039 A 
ATOM     10  C   UNL A   1      34.300  32.948  30.468  1.00  0.00     0.014 A 
ATOM     11  C   UNL A   1      35.855  34.246  29.138  1.00  0.00     0.014 A 
ATOM     12  C   UNL A   1      35.362  32.384  31.161  1.00  0.00     0.010 A 
ATOM     13  C   UNL A   1      36.924  33.612  29.777  1.00  0.00     0.010 A 
ATOM     14  C   UNL A   1      36.688  32.697  30.814  1.00  0.00    -0.014 A 
BRANCH  14  15
ATOM     15  C   UNL A   1      37.800  32.014  31.525  1.00  0.00     0.031 A 
ATOM     16  C   UNL A   1      38.633  30.965  30.842  1.00  0.00     0.074 A 
ATOM     17  C   UNL A   1      38.076  32.384  32.791  1.00  0.00     0.049 A 
ATOM     18  N   UNL A   1      39.663  30.301  31.303  1.00  0.00    -0.248 NA
ATOM     19  C   UNL A   1      38.254  30.606  29.469  1.00  0.00     0.031 C 
ATOM     20  C   UNL A   1      37.326  33.387  33.554  1.00  0.00     0.029 A 
ATOM     21  N   UNL A   1      39.070  31.991  33.650  1.00  0.00    -0.354 N 
ATOM     22  C   UNL A   1      40.043  29.429  30.288  1.00  0.00     0.074 A 
ATOM     23  C   UNL A   1      39.110  29.630  29.198  1.00  0.00     0.031 C 
ATOM     24  C   UNL A   1      37.923  33.573  34.740  1.00  0.00     0.029 A 
ATOM     25  C   UNL A   1      39.052  32.659  34.852  1.00  0.00     0.049 A 
ATOM     26  H   UNL A   1      39.731  31.297  33.428  1.00  0.00     0.167 HD
ATOM     27  C   UNL A   1      41.075  28.548  30.270  1.00  0.00     0.034 A 
ATOM     28  C   UNL A   1      39.849  32.542  35.931  1.00  0.00     0.034 A 
ATOM     29  C   UNL A   1      42.000  28.370  31.366  1.00  0.00     0.049 A 
ATOM     30  C   UNL A   1      40.974  31.545  35.890  1.00  0.00     0.074 A 
ATOM     31  C   UNL A   1      43.104  27.537  31.439  1.00  0.00     0.029 A 
ATOM     32  N   UNL A   1      41.925  29.031  32.587  1.00  0.00    -0.354 N 
ATOM     33  N   UNL A   1      41.332  30.743  34.914  1.00  0.00    -0.248 NA
ATOM     34  C   UNL A   1      41.803  31.441  37.095  1.00  0.00     0.031 C 
ATOM     35  C   UNL A   1      43.655  27.646  32.721  1.00  0.00     0.029 A 
ATOM     36  C   UNL A   1      42.943  28.601  33.428  1.00  0.00     0.049 A 
ATOM     37  H   UNL A   1      41.249  29.706  32.821  1.00  0.00     0.167 HD
ATOM     38  C   UNL A   1      42.443  30.051  35.383  1.00  0.00     0.074 A 
ATOM     39  C   UNL A   1      42.707  30.549  36.719  1.00  0.00     0.031 C 
ATOM     40  C   UNL A   1      43.180  29.092  34.766  1.00  0.00     0.034 A 
BRANCH  27  41
ATOM     41  C   UNL A   1      41.223  27.675  29.044  1.00  0.00     0.023 A 
ATOM     42  C   UNL A   1      42.227  27.899  28.085  1.00  0.00     0.031 A 
ATOM     43  C   UNL A   1      40.326  26.615  28.818  1.00  0.00     0.131 A 
ATOM     44  C   UNL A   1      42.263  27.127  26.913  1.00  0.00     0.055 A 
ATOM     45  C   UNL A   1      40.415  25.800  27.688  1.00  0.00     0.041 A 
ATOM     46  F   UNL A   1      39.334  26.361  29.688  1.00  0.00    -0.206 F 
ATOM     47  C   UNL A   1      41.378  26.064  26.719  1.00  0.00     0.022 A 
BRANCH  44  48
ATOM     48  S   UNL A   1      43.388  27.625  25.580  1.00  0.00     0.124 S 
ATOM     49  O   UNL A   1      44.246  26.449  25.458  1.00  0.00    -0.237 OA
ATOM     50  O   UNL A   1      42.475  27.866  24.468  1.00  0.00    -0.237 OA
ATOM     51  O   UNL A   1      44.048  28.815  26.115  1.00  0.00    -0.744 OA
ENDBRANCH  44  48
ENDBRANCH  27  41
BRANCH  28  52
ATOM     52  C   UNL A   1      39.602  33.376  37.140  1.00  0.00     0.023 A 
ATOM     53  C   UNL A   1      40.299  34.575  37.345  1.00  0.00     0.031 A 
ATOM     54  C   UNL A   1      38.675  32.973  38.119  1.00  0.00     0.131 A 
ATOM     55  C   UNL A   1      40.085  35.315  38.519  1.00  0.00     0.055 A 
ATOM     56  C   UNL A   1      38.428  33.737  39.259  1.00  0.00     0.041 A 
ATOM     57  F   UNL A   1      37.977  31.836  37.966  1.00  0.00    -0.206 F 
ATOM     58  C   UNL A   1      39.145  34.911  39.470  1.00  0.00     0.022 A 
BRANCH  55  59
ATOM     59  S   UNL A   1      41.110  36.781  38.818  1.00  0.00     0.124 S 
ATOM     60  O   UNL A   1      40.101  37.815  39.014  1.00  0.00    -0.237 OA
ATOM     61  O   UNL A   1      41.864  36.386  40.004  1.00  0.00    -0.237 OA
ATOM     62  O   UNL A   1      41.898  36.900  37.593  1.00  0.00    -0.744 OA
ENDBRANCH  55  59
ENDBRANCH  28  52
BRANCH  40  63
ATOM     63  C   UNL A   1      44.364  28.556  35.532  1.00  0.00     0.023 A 
ATOM     64  C   UNL A   1      44.207  27.630  36.579  1.00  0.00     0.031 A 
ATOM     65  C   UNL A   1      45.661  29.013  35.240  1.00  0.00     0.131 A 
ATOM     66  C   UNL A   1      45.320  27.242  37.340  1.00  0.00     0.055 A 
ATOM     67  C   UNL A   1      46.773  28.575  35.961  1.00  0.00     0.041 A 
ATOM     68  F   UNL A   1      45.867  29.899  34.252  1.00  0.00    -0.206 F 
ATOM     69  C   UNL A   1      46.604  27.698  37.028  1.00  0.00     0.022 A 
BRANCH  66  70
ATOM     70  S   UNL A   1      45.052  26.219  38.814  1.00  0.00     0.124 S 
ATOM     71  O   UNL A   1      45.371  24.884  38.318  1.00  0.00    -0.237 OA
ATOM     72  O   UNL A   1      46.000  26.789  39.766  1.00  0.00    -0.237 OA
ATOM     73  O   UNL A   1      43.644  26.442  39.134  1.00  0.00    -0.744 OA
ENDBRANCH  66  70
ENDBRANCH  40  63
ENDBRANCH  14  15
ENDBRANCH   7   9
ENDBRANCH   4   5
ENDBRANCH   3   4
ENDBRANCH   2   3
ENDBRANCH   1   2
BRANCH   1  74
ATOM     74  C   UNL A   1      33.828  28.232  26.715  1.00  0.00     0.021 C 
BRANCH  74  75
ATOM     75  C   UNL A   1      32.374  27.823  26.931  1.00  0.00     0.116 C 
BRANCH  75  76
ATOM     76  N   UNL A   1      31.486  28.629  26.116  1.00  0.00    -0.356 N 
ATOM     77  C   UNL A   1      31.289  28.653  24.776  1.00  0.00     0.223 C 
ATOM     78  H   UNL A   1      30.931  29.266  26.623  1.00  0.00     0.163 HD
ATOM     79  O   UNL A   1      30.564  29.541  24.317  1.00  0.00    -0.275 OA
BRANCH  77  80
ATOM     80  C   UNL A   1      31.896  27.617  23.843  1.00  0.00     0.091 C 
ATOM     81  C   UNL A   1      32.963  28.206  22.911  1.00  0.00     0.014 C 
ATOM     82  C   UNL A   1      30.886  26.712  23.128  1.00  0.00     0.091 C 
ATOM     83  C   UNL A   1      33.655  27.094  22.123  1.00  0.00     0.001 C 
ATOM     84  C   UNL A   1      31.586  25.642  22.273  1.00  0.00     0.014 C 
ATOM     85  C   UNL A   1      32.642  26.256  21.349  1.00  0.00     0.001 C 
BRANCH  82  86
ATOM     86  C   UNL A   1      29.729  26.150  23.975  1.00  0.00     0.228 C 
ATOM     87  O   UNL A   1      28.614  26.682  23.888  1.00  0.00    -0.274 OA
ATOM     88  N   UNL A   1      29.767  25.014  24.723  1.00  0.00    -0.326 N 
ATOM     89  H   UNL A   1      28.910  24.783  25.152  1.00  0.00     0.169 HD
BRANCH  88  90
ATOM     90  C   UNL A   1      30.800  24.124  24.990  1.00  0.00     0.041 A 
ATOM     91  C   UNL A   1      30.890  22.982  24.205  1.00  0.00     0.028 A 
ATOM     92  C   UNL A   1      31.713  24.302  26.017  1.00  0.00     0.028 A 
ATOM     93  C   UNL A   1      32.018  22.164  24.297  1.00  0.00     0.028 A 
ATOM     94  C   UNL A   1      32.864  23.515  26.079  1.00  0.00     0.028 A 
ATOM     95  C   UNL A   1      33.069  22.491  25.152  1.00  0.00     0.041 A 
BRANCH  95  96
ATOM     96  N   UNL A   1      34.335  21.882  25.153  1.00  0.00    -0.319 N 
ATOM     97  C   UNL A   1      34.745  20.565  25.066  1.00  0.00     0.291 C 
ATOM     98  H   UNL A   1      35.080  22.521  25.234  1.00  0.00     0.170 HD
ATOM     99  O   UNL A   1      35.959  20.350  25.108  1.00  0.00    -0.265 OA
BRANCH  97 100
ATOM    100  C   UNL A   1      33.778  19.512  24.895  1.00  0.00     0.191 A 
ATOM    101  C   UNL A   1      32.992  18.809  25.792  1.00  0.00     0.056 A 
ATOM    102  O   UNL A   1      33.565  19.034  23.630  1.00  0.00    -0.459 OA
ATOM    103  C   UNL A   1      32.305  17.824  25.040  1.00  0.00     0.043 A 
ATOM    104  C   UNL A   1      32.682  18.009  23.730  1.00  0.00     0.196 A 
ENDBRANCH  97 100
ENDBRANCH  95  96
ENDBRANCH  88  90
ENDBRANCH  82  86
ENDBRANCH  77  80
ENDBRANCH  75  76
ENDBRANCH  74  75
ENDBRANCH   1  74
TORSDOF 20
ENDMDL
