MODEL 1
REMARK VINA RESULT:     -11.8      0.000      0.000
REMARK SMILES C[C@@H](C(=O)NCCCCCCNC(=O)c1ccc(-c2c3nc(c(-c4cc(S(=O)(=O)[O-])ccc4F)c4ccc([nH]4)c(-c4cc(S(=O)(=O)[O-])ccc4F)c4nc(c(-c5cc(S(=O)(=O)[O-])ccc5F)c5ccc2[nH]5)C=C4)C=C3)cc1)c1ccc(C[C@@H]2CCC[C@@H]2O)cc1Br
REMARK SMILES IDX 8 1 7 2 6 3 5 4 3 5 4 6 2 8 1 9 78 10 79 11 90 12 80 13
REMARK SMILES IDX 89 14 91 15 81 16 82 17 83 18 84 19 87 20 85 21 86 22 88 23
REMARK SMILES IDX 9 25 10 26 11 27 12 28 13 29 14 31 15 32 16 33 77 34 17 35
REMARK SMILES IDX 76 36 18 37 19 38 20 39 70 40 21 41 75 42 69 43 71 44 22 45
REMARK SMILES IDX 74 46 68 47 67 48 23 50 55 51 35 52 54 53 36 54 39 55 53 56
REMARK SMILES IDX 72 57 37 58 38 59 52 61 73 62 40 63 24 64 25 65 33 66 26 67
REMARK SMILES IDX 32 68 34 69 31 70 27 71 28 72 29 73 30 74 56 75 57 76 65 77
REMARK SMILES IDX 58 78 64 79 66 80 63 81 59 82 60 83 61 84 62 85 41 86 42 87
REMARK SMILES IDX 50 88 43 89 49 90 51 91 48 92 44 93 45 94 46 95 47 96
REMARK H PARENT 5 7 88 24 12 30 71 49 39 60
REMARK Flexibility Score: inf
ROOT
ATOM      1  C   UNL A   1      32.167  29.497  26.581  1.00  0.00     0.002 C 
ENDROOT
BRANCH   1   2
ATOM      2  C   UNL A   1      33.605  29.241  26.106  1.00  0.00     0.021 C 
BRANCH   2   3
ATOM      3  C   UNL A   1      33.752  28.008  25.216  1.00  0.00     0.116 C 
BRANCH   3   4
ATOM      4  N   UNL A   1      32.694  27.058  25.474  1.00  0.00    -0.356 N 
ATOM      5  C   UNL A   1      32.432  25.841  24.927  1.00  0.00     0.227 C 
ATOM      6  O   UNL A   1      31.495  25.216  25.430  1.00  0.00    -0.274 OA
ATOM      7  H   UNL A   1      32.052  27.339  26.166  1.00  0.00     0.163 HD
BRANCH   5   8
ATOM      8  C   UNL A   1      33.350  25.252  23.842  1.00  0.00     0.106 C 
ATOM      9  C   UNL A   1      33.214  25.806  22.419  1.00  0.00     0.023 C 
BRANCH   8  10
ATOM     10  C   UNL A   1      33.292  23.724  23.788  1.00  0.00    -0.022 A 
ATOM     11  C   UNL A   1      32.405  23.147  22.860  1.00  0.00     0.006 A 
ATOM     12  C   UNL A   1      34.027  22.861  24.621  1.00  0.00     0.022 A 
ATOM     13  C   UNL A   1      32.204  21.768  22.812  1.00  0.00     0.004 A 
ATOM     14  C   UNL A   1      33.825  21.478  24.562  1.00  0.00     0.019 A 
ATOM     15  Br  UNL A   1      35.289  23.443  25.923  1.00  0.00    -0.051 Br
ATOM     16  C   UNL A   1      32.869  20.924  23.703  1.00  0.00    -0.047 A 
BRANCH  16  17
ATOM     17  C   UNL A   1      32.542  19.454  23.780  1.00  0.00     0.041 C 
BRANCH  17  18
ATOM     18  C   UNL A   1      33.628  18.515  24.361  1.00  0.00     0.022 C 
ATOM     19  C   UNL A   1      34.039  17.352  23.449  1.00  0.00     0.007 C 
ATOM     20  C   UNL A   1      33.324  17.802  25.683  1.00  0.00     0.117 C 
ATOM     21  C   UNL A   1      33.317  16.104  23.966  1.00  0.00     0.003 C 
ATOM     22  C   UNL A   1      32.654  16.493  25.284  1.00  0.00     0.032 C 
BRANCH  20  23
ATOM     23  O   UNL A   1      32.566  18.578  26.588  1.00  0.00    -0.393 OA
ATOM     24  H   UNL A   1      33.164  19.042  27.196  1.00  0.00     0.210 HD
ENDBRANCH  20  23
ENDBRANCH  17  18
ENDBRANCH  16  17
ENDBRANCH   8  10
ENDBRANCH   5   8
ENDBRANCH   3   4
ENDBRANCH   2   3
ENDBRANCH   1   2
BRANCH   1  25
ATOM     25  C   UNL A   1      31.483  30.712  25.947  1.00  0.00     0.002 C 
BRANCH  25  26
ATOM     26  C   UNL A   1      31.411  31.949  26.843  1.00  0.00     0.021 C 
BRANCH  26  27
ATOM     27  C   UNL A   1      32.768  32.534  27.211  1.00  0.00     0.116 C 
BRANCH  27  28
ATOM     28  N   UNL A   1      32.666  33.931  27.592  1.00  0.00    -0.352 N 
ATOM     29  C   UNL A   1      33.305  34.596  28.605  1.00  0.00     0.251 C 
ATOM     30  H   UNL A   1      32.053  34.476  27.047  1.00  0.00     0.163 HD
ATOM     31  O   UNL A   1      32.923  35.720  28.930  1.00  0.00    -0.269 OA
BRANCH  29  32
ATOM     32  C   UNL A   1      34.435  33.956  29.311  1.00  0.00     0.039 A 
ATOM     33  C   UNL A   1      34.167  33.057  30.345  1.00  0.00     0.014 A 
ATOM     34  C   UNL A   1      35.759  34.258  28.972  1.00  0.00     0.014 A 
ATOM     35  C   UNL A   1      35.224  32.444  31.021  1.00  0.00     0.010 A 
ATOM     36  C   UNL A   1      36.807  33.581  29.587  1.00  0.00     0.010 A 
ATOM     37  C   UNL A   1      36.552  32.688  30.638  1.00  0.00    -0.014 A 
BRANCH  37  38
ATOM     38  C   UNL A   1      37.687  32.069  31.372  1.00  0.00     0.031 A 
ATOM     39  C   UNL A   1      38.488  30.971  30.720  1.00  0.00     0.074 A 
ATOM     40  C   UNL A   1      37.976  32.467  32.626  1.00  0.00     0.049 A 
ATOM     41  N   UNL A   1      39.492  30.280  31.198  1.00  0.00    -0.248 NA
ATOM     42  C   UNL A   1      38.083  30.575  29.362  1.00  0.00     0.031 C 
ATOM     43  C   UNL A   1      37.250  33.496  33.374  1.00  0.00     0.029 A 
ATOM     44  N   UNL A   1      38.958  32.060  33.492  1.00  0.00    -0.354 N 
ATOM     45  C   UNL A   1      39.824  29.360  30.208  1.00  0.00     0.074 A 
ATOM     46  C   UNL A   1      38.868  29.534  29.137  1.00  0.00     0.031 C 
ATOM     47  C   UNL A   1      37.836  33.667  34.570  1.00  0.00     0.029 A 
ATOM     48  C   UNL A   1      38.950  32.732  34.694  1.00  0.00     0.049 A 
ATOM     49  H   UNL A   1      39.609  31.354  33.275  1.00  0.00     0.167 HD
ATOM     50  C   UNL A   1      40.847  28.470  30.184  1.00  0.00     0.034 A 
ATOM     51  C   UNL A   1      39.750  32.606  35.771  1.00  0.00     0.034 A 
ATOM     52  C   UNL A   1      41.803  28.327  31.255  1.00  0.00     0.049 A 
ATOM     53  C   UNL A   1      40.874  31.600  35.727  1.00  0.00     0.074 A 
ATOM     54  C   UNL A   1      42.913  27.502  31.316  1.00  0.00     0.029 A 
ATOM     55  N   UNL A   1      41.761  29.022  32.458  1.00  0.00    -0.354 N 
ATOM     56  N   UNL A   1      41.209  30.772  34.763  1.00  0.00    -0.248 NA
ATOM     57  C   UNL A   1      41.738  31.524  36.912  1.00  0.00     0.031 C 
ATOM     58  C   UNL A   1      43.494  27.638  32.580  1.00  0.00     0.029 A 
ATOM     59  C   UNL A   1      42.805  28.619  33.277  1.00  0.00     0.049 A 
ATOM     60  H   UNL A   1      41.089  29.700  32.694  1.00  0.00     0.167 HD
ATOM     61  C   UNL A   1      42.351  30.113  35.209  1.00  0.00     0.074 A 
ATOM     62  C   UNL A   1      42.650  30.647  36.521  1.00  0.00     0.031 C 
ATOM     63  C   UNL A   1      43.092  29.159  34.587  1.00  0.00     0.034 A 
BRANCH  50  64
ATOM     64  C   UNL A   1      40.959  27.568  28.975  1.00  0.00     0.023 A 
ATOM     65  C   UNL A   1      41.972  27.735  28.013  1.00  0.00     0.031 A 
ATOM     66  C   UNL A   1      40.016  26.547  28.762  1.00  0.00     0.131 A 
ATOM     67  C   UNL A   1      41.965  26.957  26.845  1.00  0.00     0.055 A 
ATOM     68  C   UNL A   1      40.071  25.713  27.642  1.00  0.00     0.041 A 
ATOM     69  F   UNL A   1      39.012  26.350  29.631  1.00  0.00    -0.206 F 
ATOM     70  C   UNL A   1      41.039  25.928  26.666  1.00  0.00     0.022 A 
BRANCH  67  71
ATOM     71  S   UNL A   1      43.080  27.419  25.490  1.00  0.00     0.124 S 
ATOM     72  O   UNL A   1      44.099  28.190  26.199  1.00  0.00    -0.237 OA
ATOM     73  O   UNL A   1      43.503  26.123  24.974  1.00  0.00    -0.237 OA
ATOM     74  O   UNL A   1      42.229  28.201  24.597  1.00  0.00    -0.744 OA
ENDBRANCH  67  71
ENDBRANCH  50  64
BRANCH  51  75
ATOM     75  C   UNL A   1      39.536  33.455  36.979  1.00  0.00     0.023 A 
ATOM     76  C   UNL A   1      38.831  32.965  38.090  1.00  0.00     0.031 A 
ATOM     77  C   UNL A   1      39.989  34.786  37.022  1.00  0.00     0.131 A 
ATOM     78  C   UNL A   1      38.550  33.814  39.172  1.00  0.00     0.055 A 
ATOM     79  C   UNL A   1      39.758  35.608  38.126  1.00  0.00     0.041 A 
ATOM     80  F   UNL A   1      40.673  35.305  35.990  1.00  0.00    -0.206 F 
ATOM     81  C   UNL A   1      39.021  35.128  39.203  1.00  0.00     0.022 A 
BRANCH  78  82
ATOM     82  S   UNL A   1      37.474  33.203  40.498  1.00  0.00     0.124 S 
ATOM     83  O   UNL A   1      37.422  34.354  41.392  1.00  0.00    -0.237 OA
ATOM     84  O   UNL A   1      36.245  32.895  39.774  1.00  0.00    -0.237 OA
ATOM     85  O   UNL A   1      38.198  32.043  41.015  1.00  0.00    -0.744 OA
ENDBRANCH  78  82
ENDBRANCH  51  75
BRANCH  63  86
ATOM     86  C   UNL A   1      44.339  28.684  35.296  1.00  0.00     0.023 A 
ATOM     87  C   UNL A   1      44.300  27.699  36.299  1.00  0.00     0.031 A 
ATOM     88  C   UNL A   1      45.587  29.249  34.977  1.00  0.00     0.131 A 
ATOM     89  C   UNL A   1      45.471  27.361  36.993  1.00  0.00     0.055 A 
ATOM     90  C   UNL A   1      46.761  28.854  35.620  1.00  0.00     0.041 A 
ATOM     91  F   UNL A   1      45.688  30.196  34.030  1.00  0.00    -0.206 F 
ATOM     92  C   UNL A   1      46.704  27.918  36.647  1.00  0.00     0.022 A 
BRANCH  89  93
ATOM     93  S   UNL A   1      45.341  26.271  38.438  1.00  0.00     0.124 S 
ATOM     94  O   UNL A   1      43.993  26.560  38.916  1.00  0.00    -0.237 OA
ATOM     95  O   UNL A   1      45.539  24.951  37.851  1.00  0.00    -0.237 OA
ATOM     96  O   UNL A   1      46.421  26.730  39.311  1.00  0.00    -0.744 OA
ENDBRANCH  89  93
ENDBRANCH  63  86
ENDBRANCH  37  38
ENDBRANCH  29  32
ENDBRANCH  27  28
ENDBRANCH  26  27
ENDBRANCH  25  26
ENDBRANCH   1  25
TORSDOF 20
ENDMDL
MODEL 2
REMARK VINA RESULT:     -11.7      1.606      7.660
REMARK SMILES C[C@@H](C(=O)NCCCCCCNC(=O)c1ccc(-c2c3nc(c(-c4cc(S(=O)(=O)[O-])ccc4F)c4ccc([nH]4)c(-c4cc(S(=O)(=O)[O-])ccc4F)c4nc(c(-c5cc(S(=O)(=O)[O-])ccc5F)c5ccc2[nH]5)C=C4)C=C3)cc1)c1ccc(C[C@@H]2CCC[C@@H]2O)cc1Br
REMARK SMILES IDX 8 1 7 2 6 3 5 4 3 5 4 6 2 8 1 9 78 10 79 11 90 12 80 13
REMARK SMILES IDX 89 14 91 15 81 16 82 17 83 18 84 19 87 20 85 21 86 22 88 23
REMARK SMILES IDX 9 25 10 26 11 27 12 28 13 29 14 31 15 32 16 33 77 34 17 35
REMARK SMILES IDX 76 36 18 37 19 38 20 39 70 40 21 41 75 42 69 43 71 44 22 45
REMARK SMILES IDX 74 46 68 47 67 48 23 50 55 51 35 52 54 53 36 54 39 55 53 56
REMARK SMILES IDX 72 57 37 58 38 59 52 61 73 62 40 63 24 64 25 65 33 66 26 67
REMARK SMILES IDX 32 68 34 69 31 70 27 71 28 72 29 73 30 74 56 75 57 76 65 77
REMARK SMILES IDX 58 78 64 79 66 80 63 81 59 82 60 83 61 84 62 85 41 86 42 87
REMARK SMILES IDX 50 88 43 89 49 90 51 91 48 92 44 93 45 94 46 95 47 96
REMARK H PARENT 5 7 88 24 12 30 71 49 39 60
REMARK Flexibility Score: inf
ROOT
ATOM      1  C   UNL A   1      32.228  29.779  26.376  1.00  0.00     0.002 C 
ENDROOT
BRANCH   1   2
ATOM      2  C   UNL A   1      31.797  28.378  25.920  1.00  0.00     0.021 C 
BRANCH   2   3
ATOM      3  C   UNL A   1      32.308  27.251  26.818  1.00  0.00     0.116 C 
BRANCH   3   4
ATOM      4  N   UNL A   1      31.365  26.157  26.857  1.00  0.00    -0.356 N 
ATOM      5  C   UNL A   1      31.186  25.102  26.019  1.00  0.00     0.227 C 
ATOM      6  O   UNL A   1      30.347  24.270  26.374  1.00  0.00    -0.274 OA
ATOM      7  H   UNL A   1      30.745  26.179  27.622  1.00  0.00     0.163 HD
BRANCH   5   8
ATOM      8  C   UNL A   1      32.084  24.916  24.784  1.00  0.00     0.106 C 
ATOM      9  C   UNL A   1      31.665  25.621  23.489  1.00  0.00     0.023 C 
BRANCH   8  10
ATOM     10  C   UNL A   1      32.369  23.444  24.479  1.00  0.00    -0.022 A 
ATOM     11  C   UNL A   1      31.742  22.889  23.348  1.00  0.00     0.006 A 
ATOM     12  C   UNL A   1      33.175  22.601  25.266  1.00  0.00     0.022 A 
ATOM     13  C   UNL A   1      31.855  21.531  23.051  1.00  0.00     0.004 A 
ATOM     14  C   UNL A   1      33.289  21.241  24.957  1.00  0.00     0.019 A 
ATOM     15  Br  UNL A   1      34.121  23.164  26.820  1.00  0.00    -0.051 Br
ATOM     16  C   UNL A   1      32.582  20.682  23.886  1.00  0.00    -0.047 A 
BRANCH  16  17
ATOM     17  C   UNL A   1      32.579  19.188  23.678  1.00  0.00     0.041 C 
BRANCH  17  18
ATOM     18  C   UNL A   1      33.707  18.375  24.357  1.00  0.00     0.022 C 
ATOM     19  C   UNL A   1      34.318  17.262  23.496  1.00  0.00     0.007 C 
ATOM     20  C   UNL A   1      33.372  17.634  25.657  1.00  0.00     0.117 C 
ATOM     21  C   UNL A   1      33.694  15.943  23.964  1.00  0.00     0.003 C 
ATOM     22  C   UNL A   1      32.884  16.259  25.217  1.00  0.00     0.032 C 
BRANCH  20  23
ATOM     23  O   UNL A   1      32.461  18.324  26.488  1.00  0.00    -0.393 OA
ATOM     24  H   UNL A   1      32.100  19.086  26.009  1.00  0.00     0.210 HD
ENDBRANCH  20  23
ENDBRANCH  17  18
ENDBRANCH  16  17
ENDBRANCH   8  10
ENDBRANCH   5   8
ENDBRANCH   3   4
ENDBRANCH   2   3
ENDBRANCH   1   2
BRANCH   1  25
ATOM     25  C   UNL A   1      31.378  30.929  25.826  1.00  0.00     0.002 C 
BRANCH  25  26
ATOM     26  C   UNL A   1      31.333  32.175  26.712  1.00  0.00     0.021 C 
BRANCH  26  27
ATOM     27  C   UNL A   1      32.699  32.764  27.032  1.00  0.00     0.116 C 
BRANCH  27  28
ATOM     28  N   UNL A   1      32.588  34.062  27.672  1.00  0.00    -0.352 N 
ATOM     29  C   UNL A   1      33.269  34.547  28.759  1.00  0.00     0.251 C 
ATOM     30  H   UNL A   1      31.935  34.680  27.271  1.00  0.00     0.163 HD
ATOM     31  O   UNL A   1      32.881  35.578  29.308  1.00  0.00    -0.269 OA
BRANCH  29  32
ATOM     32  C   UNL A   1      34.449  33.822  29.275  1.00  0.00     0.039 A 
ATOM     33  C   UNL A   1      34.258  32.752  30.151  1.00  0.00     0.014 A 
ATOM     34  C   UNL A   1      35.745  34.211  28.917  1.00  0.00     0.014 A 
ATOM     35  C   UNL A   1      35.363  32.057  30.647  1.00  0.00     0.010 A 
ATOM     36  C   UNL A   1      36.838  33.463  29.342  1.00  0.00     0.010 A 
ATOM     37  C   UNL A   1      36.662  32.396  30.235  1.00  0.00    -0.014 A 
BRANCH  37  38
ATOM     38  C   UNL A   1      37.849  31.688  30.782  1.00  0.00     0.031 A 
ATOM     39  C   UNL A   1      38.336  32.010  32.171  1.00  0.00     0.074 A 
ATOM     40  C   UNL A   1      38.503  30.785  30.025  1.00  0.00     0.049 A 
ATOM     41  N   UNL A   1      39.366  31.530  32.822  1.00  0.00    -0.248 NA
ATOM     42  C   UNL A   1      37.582  33.031  32.915  1.00  0.00     0.031 C 
ATOM     43  C   UNL A   1      38.146  30.417  28.654  1.00  0.00     0.029 A 
ATOM     44  N   UNL A   1      39.600  30.010  30.301  1.00  0.00    -0.354 N 
ATOM     45  C   UNL A   1      39.393  32.205  34.039  1.00  0.00     0.074 A 
ATOM     46  C   UNL A   1      38.321  33.175  34.004  1.00  0.00     0.031 C 
ATOM     47  C   UNL A   1      38.983  29.459  28.224  1.00  0.00     0.029 A 
ATOM     48  C   UNL A   1      39.963  29.176  29.269  1.00  0.00     0.049 A 
ATOM     49  H   UNL A   1      40.083  30.047  31.158  1.00  0.00     0.167 HD
ATOM     50  C   UNL A   1      40.219  32.014  35.098  1.00  0.00     0.034 A 
ATOM     51  C   UNL A   1      40.971  28.287  29.177  1.00  0.00     0.034 A 
ATOM     52  C   UNL A   1      41.269  31.026  35.121  1.00  0.00     0.049 A 
ATOM     53  C   UNL A   1      41.886  28.100  30.362  1.00  0.00     0.074 A 
ATOM     54  C   UNL A   1      42.129  30.704  36.157  1.00  0.00     0.029 A 
ATOM     55  N   UNL A   1      41.610  30.201  34.054  1.00  0.00    -0.354 N 
ATOM     56  N   UNL A   1      41.867  28.709  31.527  1.00  0.00    -0.248 NA
ATOM     57  C   UNL A   1      42.948  27.096  30.225  1.00  0.00     0.031 C 
ATOM     58  C   UNL A   1      43.036  29.746  35.694  1.00  0.00     0.029 A 
ATOM     59  C   UNL A   1      42.686  29.397  34.399  1.00  0.00     0.049 A 
ATOM     60  H   UNL A   1      41.154  30.190  33.182  1.00  0.00     0.167 HD
ATOM     61  C   UNL A   1      42.885  28.123  32.276  1.00  0.00     0.074 A 
ATOM     62  C   UNL A   1      43.488  27.111  31.434  1.00  0.00     0.031 C 
ATOM     63  C   UNL A   1      43.280  28.391  33.547  1.00  0.00     0.034 A 
BRANCH  50  64
ATOM     64  C   UNL A   1      40.033  32.915  36.298  1.00  0.00     0.023 A 
ATOM     65  C   UNL A   1      39.267  32.523  37.411  1.00  0.00     0.031 A 
ATOM     66  C   UNL A   1      40.601  34.202  36.315  1.00  0.00     0.131 A 
ATOM     67  C   UNL A   1      39.017  33.435  38.448  1.00  0.00     0.055 A 
ATOM     68  C   UNL A   1      40.425  35.071  37.395  1.00  0.00     0.041 A 
ATOM     69  F   UNL A   1      41.323  34.645  35.274  1.00  0.00    -0.206 F 
ATOM     70  C   UNL A   1      39.615  34.696  38.462  1.00  0.00     0.022 A 
BRANCH  67  71
ATOM     71  S   UNL A   1      37.769  33.009  39.695  1.00  0.00     0.124 S 
ATOM     72  O   UNL A   1      36.571  32.862  38.871  1.00  0.00    -0.237 OA
ATOM     73  O   UNL A   1      38.305  31.782  40.270  1.00  0.00    -0.237 OA
ATOM     74  O   UNL A   1      37.765  34.168  40.585  1.00  0.00    -0.744 OA
ENDBRANCH  67  71
ENDBRANCH  50  64
BRANCH  51  75
ATOM     75  C   UNL A   1      41.170  27.490  27.930  1.00  0.00     0.023 A 
ATOM     76  C   UNL A   1      40.866  26.120  27.893  1.00  0.00     0.031 A 
ATOM     77  C   UNL A   1      41.716  28.075  26.773  1.00  0.00     0.131 A 
ATOM     78  C   UNL A   1      41.160  25.368  26.744  1.00  0.00     0.055 A 
ATOM     79  C   UNL A   1      41.952  27.335  25.614  1.00  0.00     0.041 A 
ATOM     80  F   UNL A   1      42.022  29.382  26.752  1.00  0.00    -0.206 F 
ATOM     81  C   UNL A   1      41.688  25.969  25.600  1.00  0.00     0.022 A 
BRANCH  78  82
ATOM     82  S   UNL A   1      40.932  23.570  26.804  1.00  0.00     0.124 S 
ATOM     83  O   UNL A   1      41.291  23.271  28.186  1.00  0.00    -0.237 OA
ATOM     84  O   UNL A   1      39.521  23.431  26.461  1.00  0.00    -0.237 OA
ATOM     85  O   UNL A   1      41.868  23.076  25.796  1.00  0.00    -0.744 OA
ENDBRANCH  78  82
ENDBRANCH  51  75
BRANCH  63  86
ATOM     86  C   UNL A   1      44.375  27.525  34.126  1.00  0.00     0.023 A 
ATOM     87  C   UNL A   1      44.112  26.264  34.689  1.00  0.00     0.031 A 
ATOM     88  C   UNL A   1      45.704  27.985  34.133  1.00  0.00     0.131 A 
ATOM     89  C   UNL A   1      45.148  25.540  35.299  1.00  0.00     0.055 A 
ATOM     90  C   UNL A   1      46.743  27.227  34.675  1.00  0.00     0.041 A 
ATOM     91  F   UNL A   1      46.017  29.183  33.613  1.00  0.00    -0.206 F 
ATOM     92  C   UNL A   1      46.465  26.005  35.277  1.00  0.00     0.022 A 
BRANCH  89  93
ATOM     93  S   UNL A   1      44.731  24.038  36.227  1.00  0.00     0.124 S 
ATOM     94  O   UNL A   1      45.798  23.128  35.826  1.00  0.00    -0.237 OA
ATOM     95  O   UNL A   1      44.777  24.504  37.609  1.00  0.00    -0.237 OA
ATOM     96  O   UNL A   1      43.399  23.690  35.734  1.00  0.00    -0.744 OA
ENDBRANCH  89  93
ENDBRANCH  63  86
ENDBRANCH  37  38
ENDBRANCH  29  32
ENDBRANCH  27  28
ENDBRANCH  26  27
ENDBRANCH  25  26
ENDBRANCH   1  25
TORSDOF 20
ENDMDL
MODEL 3
REMARK VINA RESULT:     -11.4      1.957      2.264
REMARK SMILES C[C@@H](C(=O)NCCCCCCNC(=O)c1ccc(-c2c3nc(c(-c4cc(S(=O)(=O)[O-])ccc4F)c4ccc([nH]4)c(-c4cc(S(=O)(=O)[O-])ccc4F)c4nc(c(-c5cc(S(=O)(=O)[O-])ccc5F)c5ccc2[nH]5)C=C4)C=C3)cc1)c1ccc(C[C@@H]2CCC[C@@H]2O)cc1Br
REMARK SMILES IDX 8 1 7 2 6 3 5 4 3 5 4 6 2 8 1 9 78 10 79 11 90 12 80 13
REMARK SMILES IDX 89 14 91 15 81 16 82 17 83 18 84 19 87 20 85 21 86 22 88 23
REMARK SMILES IDX 9 25 10 26 11 27 12 28 13 29 14 31 15 32 16 33 77 34 17 35
REMARK SMILES IDX 76 36 18 37 19 38 20 39 70 40 21 41 75 42 69 43 71 44 22 45
REMARK SMILES IDX 74 46 68 47 67 48 23 50 55 51 35 52 54 53 36 54 39 55 53 56
REMARK SMILES IDX 72 57 37 58 38 59 52 61 73 62 40 63 24 64 25 65 33 66 26 67
REMARK SMILES IDX 32 68 34 69 31 70 27 71 28 72 29 73 30 74 56 75 57 76 65 77
REMARK SMILES IDX 58 78 64 79 66 80 63 81 59 82 60 83 61 84 62 85 41 86 42 87
REMARK SMILES IDX 50 88 43 89 49 90 51 91 48 92 44 93 45 94 46 95 47 96
REMARK H PARENT 5 7 88 24 12 30 71 49 39 60
REMARK Flexibility Score: inf
ROOT
ATOM      1  C   UNL A   1      31.938  29.622  26.617  1.00  0.00     0.002 C 
ENDROOT
BRANCH   1   2
ATOM      2  C   UNL A   1      31.672  28.287  25.906  1.00  0.00     0.021 C 
BRANCH   2   3
ATOM      3  C   UNL A   1      32.443  27.107  26.498  1.00  0.00     0.116 C 
BRANCH   3   4
ATOM      4  N   UNL A   1      31.544  26.031  26.851  1.00  0.00    -0.356 N 
ATOM      5  C   UNL A   1      31.133  24.943  26.145  1.00  0.00     0.227 C 
ATOM      6  O   UNL A   1      30.425  24.142  26.760  1.00  0.00    -0.274 OA
ATOM      7  H   UNL A   1      31.164  26.096  27.757  1.00  0.00     0.163 HD
BRANCH   5   8
ATOM      8  C   UNL A   1      31.648  24.690  24.719  1.00  0.00     0.106 C 
ATOM      9  C   UNL A   1      30.648  24.841  23.566  1.00  0.00     0.023 C 
BRANCH   8  10
ATOM     10  C   UNL A   1      32.364  23.345  24.582  1.00  0.00    -0.022 A 
ATOM     11  C   UNL A   1      31.588  22.240  24.183  1.00  0.00     0.006 A 
ATOM     12  C   UNL A   1      33.725  23.126  24.863  1.00  0.00     0.022 A 
ATOM     13  C   UNL A   1      32.128  20.956  24.135  1.00  0.00     0.004 A 
ATOM     14  C   UNL A   1      34.261  21.835  24.806  1.00  0.00     0.019 A 
ATOM     15  Br  UNL A   1      34.944  24.489  25.397  1.00  0.00    -0.051 Br
ATOM     16  C   UNL A   1      33.456  20.731  24.502  1.00  0.00    -0.047 A 
BRANCH  16  17
ATOM     17  C   UNL A   1      34.010  19.334  24.618  1.00  0.00     0.041 C 
BRANCH  17  18
ATOM     18  C   UNL A   1      32.994  18.167  24.643  1.00  0.00     0.022 C 
ATOM     19  C   UNL A   1      33.209  17.139  25.762  1.00  0.00     0.007 C 
ATOM     20  C   UNL A   1      32.895  17.278  23.398  1.00  0.00     0.117 C 
ATOM     21  C   UNL A   1      33.905  15.930  25.128  1.00  0.00     0.003 C 
ATOM     22  C   UNL A   1      33.913  16.166  23.622  1.00  0.00     0.032 C 
BRANCH  20  23
ATOM     23  O   UNL A   1      33.071  17.977  22.183  1.00  0.00    -0.393 OA
ATOM     24  H   UNL A   1      34.001  17.927  21.913  1.00  0.00     0.210 HD
ENDBRANCH  20  23
ENDBRANCH  17  18
ENDBRANCH  16  17
ENDBRANCH   8  10
ENDBRANCH   5   8
ENDBRANCH   3   4
ENDBRANCH   2   3
ENDBRANCH   1   2
BRANCH   1  25
ATOM     25  C   UNL A   1      31.473  30.865  25.854  1.00  0.00     0.002 C 
BRANCH  25  26
ATOM     26  C   UNL A   1      31.355  32.133  26.702  1.00  0.00     0.021 C 
BRANCH  26  27
ATOM     27  C   UNL A   1      32.662  32.583  27.339  1.00  0.00     0.116 C 
BRANCH  27  28
ATOM     28  N   UNL A   1      32.650  34.001  27.647  1.00  0.00    -0.352 N 
ATOM     29  C   UNL A   1      33.352  34.678  28.610  1.00  0.00     0.251 C 
ATOM     30  H   UNL A   1      32.057  34.552  27.088  1.00  0.00     0.163 HD
ATOM     31  O   UNL A   1      33.043  35.838  28.884  1.00  0.00    -0.269 OA
BRANCH  29  32
ATOM     32  C   UNL A   1      34.461  34.010  29.324  1.00  0.00     0.039 A 
ATOM     33  C   UNL A   1      34.162  33.046  30.289  1.00  0.00     0.014 A 
ATOM     34  C   UNL A   1      35.793  34.349  29.061  1.00  0.00     0.014 A 
ATOM     35  C   UNL A   1      35.199  32.406  30.971  1.00  0.00     0.010 A 
ATOM     36  C   UNL A   1      36.824  33.647  29.679  1.00  0.00     0.010 A 
ATOM     37  C   UNL A   1      36.539  32.689  30.662  1.00  0.00    -0.014 A 
BRANCH  37  38
ATOM     38  C   UNL A   1      37.650  32.040  31.405  1.00  0.00     0.031 A 
ATOM     39  C   UNL A   1      38.465  30.961  30.738  1.00  0.00     0.074 A 
ATOM     40  C   UNL A   1      37.906  32.394  32.679  1.00  0.00     0.049 A 
ATOM     41  N   UNL A   1      39.453  30.250  31.219  1.00  0.00    -0.248 NA
ATOM     42  C   UNL A   1      38.096  30.615  29.356  1.00  0.00     0.031 C 
ATOM     43  C   UNL A   1      37.163  33.400  33.441  1.00  0.00     0.029 A 
ATOM     44  N   UNL A   1      38.862  31.953  33.558  1.00  0.00    -0.354 N 
ATOM     45  C   UNL A   1      39.809  29.363  30.208  1.00  0.00     0.074 A 
ATOM     46  C   UNL A   1      38.884  29.578  29.117  1.00  0.00     0.031 C 
ATOM     47  C   UNL A   1      37.717  33.527  34.658  1.00  0.00     0.029 A 
ATOM     48  C   UNL A   1      38.824  32.583  34.781  1.00  0.00     0.049 A 
ATOM     49  H   UNL A   1      39.516  31.252  33.334  1.00  0.00     0.167 HD
ATOM     50  C   UNL A   1      40.829  28.470  30.181  1.00  0.00     0.034 A 
ATOM     51  C   UNL A   1      39.593  32.417  35.874  1.00  0.00     0.034 A 
ATOM     52  C   UNL A   1      41.755  28.285  31.272  1.00  0.00     0.049 A 
ATOM     53  C   UNL A   1      40.715  31.408  35.827  1.00  0.00     0.074 A 
ATOM     54  C   UNL A   1      42.859  27.454  31.335  1.00  0.00     0.029 A 
ATOM     55  N   UNL A   1      41.682  28.939  32.497  1.00  0.00    -0.354 N 
ATOM     56  N   UNL A   1      41.072  30.612  34.844  1.00  0.00    -0.248 NA
ATOM     57  C   UNL A   1      41.545  31.288  37.032  1.00  0.00     0.031 C 
ATOM     58  C   UNL A   1      43.405  27.544  32.619  1.00  0.00     0.029 A 
ATOM     59  C   UNL A   1      42.701  28.504  33.331  1.00  0.00     0.049 A 
ATOM     60  H   UNL A   1      41.006  29.612  32.738  1.00  0.00     0.167 HD
ATOM     61  C   UNL A   1      42.200  29.933  35.299  1.00  0.00     0.074 A 
ATOM     62  C   UNL A   1      42.464  30.421  36.637  1.00  0.00     0.031 C 
ATOM     63  C   UNL A   1      42.954  28.998  34.665  1.00  0.00     0.034 A 
BRANCH  50  64
ATOM     64  C   UNL A   1      40.971  27.609  28.946  1.00  0.00     0.023 A 
ATOM     65  C   UNL A   1      41.976  27.840  27.989  1.00  0.00     0.031 A 
ATOM     66  C   UNL A   1      40.064  26.562  28.702  1.00  0.00     0.131 A 
ATOM     67  C   UNL A   1      41.995  27.098  26.798  1.00  0.00     0.055 A 
ATOM     68  C   UNL A   1      40.147  25.766  27.557  1.00  0.00     0.041 A 
ATOM     69  F   UNL A   1      39.068  26.305  29.564  1.00  0.00    -0.206 F 
ATOM     70  C   UNL A   1      41.106  26.043  26.588  1.00  0.00     0.022 A 
BRANCH  67  71
ATOM     71  S   UNL A   1      43.093  27.640  25.458  1.00  0.00     0.124 S 
ATOM     72  O   UNL A   1      43.554  26.361  24.922  1.00  0.00    -0.237 OA
ATOM     73  O   UNL A   1      42.193  28.404  24.603  1.00  0.00    -0.237 OA
ATOM     74  O   UNL A   1      44.116  28.422  26.148  1.00  0.00    -0.744 OA
ENDBRANCH  67  71
ENDBRANCH  50  64
BRANCH  51  75
ATOM     75  C   UNL A   1      39.349  33.225  37.105  1.00  0.00     0.023 A 
ATOM     76  C   UNL A   1      40.048  34.422  37.333  1.00  0.00     0.031 A 
ATOM     77  C   UNL A   1      38.453  32.788  38.097  1.00  0.00     0.131 A 
ATOM     78  C   UNL A   1      39.881  35.111  38.544  1.00  0.00     0.055 A 
ATOM     79  C   UNL A   1      38.247  33.508  39.274  1.00  0.00     0.041 A 
ATOM     80  F   UNL A   1      37.755  31.653  37.929  1.00  0.00    -0.206 F 
ATOM     81  C   UNL A   1      38.975  34.670  39.510  1.00  0.00     0.022 A 
BRANCH  78  82
ATOM     82  S   UNL A   1      40.941  36.544  38.880  1.00  0.00     0.124 S 
ATOM     83  O   UNL A   1      41.981  36.386  37.869  1.00  0.00    -0.237 OA
ATOM     84  O   UNL A   1      40.018  37.657  38.685  1.00  0.00    -0.237 OA
ATOM     85  O   UNL A   1      41.375  36.330  40.259  1.00  0.00    -0.744 OA
ENDBRANCH  78  82
ENDBRANCH  51  75
BRANCH  63  86
ATOM     86  C   UNL A   1      44.179  28.493  35.392  1.00  0.00     0.023 A 
ATOM     87  C   UNL A   1      45.437  29.108  35.253  1.00  0.00     0.031 A 
ATOM     88  C   UNL A   1      44.088  27.359  36.219  1.00  0.00     0.131 A 
ATOM     89  C   UNL A   1      46.562  28.544  35.873  1.00  0.00     0.055 A 
ATOM     90  C   UNL A   1      45.198  26.848  36.893  1.00  0.00     0.041 A 
ATOM     91  F   UNL A   1      42.915  26.728  36.389  1.00  0.00    -0.206 F 
ATOM     92  C   UNL A   1      46.447  27.430  36.707  1.00  0.00     0.022 A 
BRANCH  89  93
ATOM     93  S   UNL A   1      48.201  29.216  35.476  1.00  0.00     0.124 S 
ATOM     94  O   UNL A   1      48.978  28.003  35.246  1.00  0.00    -0.237 OA
ATOM     95  O   UNL A   1      47.926  30.029  34.297  1.00  0.00    -0.237 OA
ATOM     96  O   UNL A   1      48.563  29.967  36.677  1.00  0.00    -0.744 OA
ENDBRANCH  89  93
ENDBRANCH  63  86
ENDBRANCH  37  38
ENDBRANCH  29  32
ENDBRANCH  27  28
ENDBRANCH  26  27
ENDBRANCH  25  26
ENDBRANCH   1  25
TORSDOF 20
ENDMDL
