MODEL 1
REMARK VINA RESULT:     -11.3      0.000      0.000
REMARK SMILES CC(C)(C)N(CC(=O)NCCCCCCNC(=O)c1ccc(-c2c3nc(c(-c4cc(S(=O)(=O)[O-])ccc4F)c4ccc([nH]4)c(-c4cc(S(=O)(=O)[O-])ccc4F)c4nc(c(-c5cc(S(=O)(=O)[O-])ccc5F)c5ccc2[nH]5)C=C4)C=C3)cc1)C(=O)c1cc2ccccc2o1
REMARK SMILES IDX 12 1 11 2 10 3 9 4 7 5 8 6 6 8 5 9 2 10 1 11 3 12 4 13 82 14
REMARK SMILES IDX 83 15 84 16 85 17 92 18 86 19 91 20 87 21 90 22 88 23 89 24
REMARK SMILES IDX 13 25 14 26 15 27 16 28 17 29 18 31 19 32 20 33 81 34 21 35
REMARK SMILES IDX 80 36 22 37 23 38 24 39 74 40 25 41 79 42 73 43 75 44 26 45
REMARK SMILES IDX 78 46 72 47 71 48 27 50 59 51 39 52 58 53 40 54 43 55 57 56
REMARK SMILES IDX 76 57 41 58 42 59 56 61 77 62 44 63 28 64 29 65 37 66 30 67
REMARK SMILES IDX 36 68 38 69 35 70 31 71 32 72 33 73 34 74 60 75 61 76 69 77
REMARK SMILES IDX 62 78 68 79 70 80 67 81 63 82 64 83 65 84 66 85 45 86 46 87
REMARK SMILES IDX 54 88 47 89 53 90 55 91 52 92 48 93 49 94 50 95 51 96
REMARK H PARENT 9 7 16 30 75 49 43 60
REMARK Flexibility Score: inf
ROOT
ATOM      1  C   UNL A   1      32.545  29.355  26.407  1.00  0.00     0.002 C 
ENDROOT
BRANCH   1   2
ATOM      2  C   UNL A   1      31.789  28.323  27.245  1.00  0.00     0.021 C 
BRANCH   2   3
ATOM      3  C   UNL A   1      31.805  26.898  26.688  1.00  0.00     0.116 C 
BRANCH   3   4
ATOM      4  N   UNL A   1      33.084  26.567  26.084  1.00  0.00    -0.355 N 
ATOM      5  C   UNL A   1      33.722  25.364  25.969  1.00  0.00     0.239 C 
ATOM      6  O   UNL A   1      34.750  25.335  25.285  1.00  0.00    -0.273 OA
ATOM      7  H   UNL A   1      33.568  27.330  25.695  1.00  0.00     0.163 HD
BRANCH   5   8
ATOM      8  C   UNL A   1      33.110  24.049  26.505  1.00  0.00     0.220 C 
BRANCH   8   9
ATOM      9  N   UNL A   1      32.610  23.132  25.476  1.00  0.00    -0.322 N 
BRANCH   9  10
ATOM     10  C   UNL A   1      33.291  21.826  25.172  1.00  0.00     0.035 C 
ATOM     11  C   UNL A   1      34.389  21.943  24.093  1.00  0.00     0.034 C 
ATOM     12  C   UNL A   1      32.304  20.746  24.665  1.00  0.00     0.034 C 
ATOM     13  C   UNL A   1      33.953  21.300  26.464  1.00  0.00     0.034 C 
ENDBRANCH   9  10
BRANCH   9  14
ATOM     14  C   UNL A   1      31.284  23.277  25.052  1.00  0.00     0.290 C 
ATOM     15  O   UNL A   1      30.348  22.876  25.742  1.00  0.00    -0.265 OA
BRANCH  14  16
ATOM     16  C   UNL A   1      30.994  24.015  23.840  1.00  0.00     0.192 A 
ATOM     17  C   UNL A   1      30.179  25.128  23.698  1.00  0.00     0.065 A 
ATOM     18  O   UNL A   1      32.059  24.126  22.979  1.00  0.00    -0.451 OA
ATOM     19  C   UNL A   1      31.039  26.126  23.155  1.00  0.00     0.021 A 
ATOM     20  C   UNL A   1      32.180  25.459  22.731  1.00  0.00     0.135 A 
ATOM     21  C   UNL A   1      31.032  27.531  23.121  1.00  0.00     0.012 A 
ATOM     22  C   UNL A   1      33.334  26.080  22.266  1.00  0.00     0.048 A 
ATOM     23  C   UNL A   1      32.213  28.189  22.747  1.00  0.00     0.001 A 
ATOM     24  C   UNL A   1      33.343  27.476  22.332  1.00  0.00     0.004 A 
ENDBRANCH  14  16
ENDBRANCH   9  14
ENDBRANCH   8   9
ENDBRANCH   5   8
ENDBRANCH   3   4
ENDBRANCH   2   3
ENDBRANCH   1   2
BRANCH   1  25
ATOM     25  C   UNL A   1      31.678  30.413  25.721  1.00  0.00     0.002 C 
BRANCH  25  26
ATOM     26  C   UNL A   1      31.445  31.704  26.515  1.00  0.00     0.021 C 
BRANCH  26  27
ATOM     27  C   UNL A   1      32.668  32.253  27.248  1.00  0.00     0.116 C 
BRANCH  27  28
ATOM     28  N   UNL A   1      32.530  33.665  27.562  1.00  0.00    -0.352 N 
ATOM     29  C   UNL A   1      33.178  34.428  28.501  1.00  0.00     0.251 C 
ATOM     30  H   UNL A   1      31.871  34.150  27.016  1.00  0.00     0.163 HD
ATOM     31  O   UNL A   1      32.763  35.561  28.743  1.00  0.00    -0.269 OA
BRANCH  29  32
ATOM     32  C   UNL A   1      34.349  33.898  29.234  1.00  0.00     0.039 A 
ATOM     33  C   UNL A   1      34.135  33.026  30.306  1.00  0.00     0.014 A 
ATOM     34  C   UNL A   1      35.651  34.286  28.902  1.00  0.00     0.014 A 
ATOM     35  C   UNL A   1      35.224  32.500  31.006  1.00  0.00     0.010 A 
ATOM     36  C   UNL A   1      36.739  33.715  29.564  1.00  0.00     0.010 A 
ATOM     37  C   UNL A   1      36.537  32.816  30.622  1.00  0.00    -0.014 A 
BRANCH  37  38
ATOM     38  C   UNL A   1      37.708  32.221  31.321  1.00  0.00     0.031 A 
ATOM     39  C   UNL A   1      38.474  31.092  30.689  1.00  0.00     0.074 A 
ATOM     40  C   UNL A   1      38.042  32.659  32.552  1.00  0.00     0.049 A 
ATOM     41  N   UNL A   1      39.466  30.388  31.174  1.00  0.00    -0.248 NA
ATOM     42  C   UNL A   1      38.049  30.682  29.342  1.00  0.00     0.031 C 
ATOM     43  C   UNL A   1      37.356  33.726  33.284  1.00  0.00     0.029 A 
ATOM     44  N   UNL A   1      39.034  32.254  33.409  1.00  0.00    -0.354 N 
ATOM     45  C   UNL A   1      39.776  29.446  30.198  1.00  0.00     0.074 A 
ATOM     46  C   UNL A   1      38.829  29.636  29.119  1.00  0.00     0.031 C 
ATOM     47  C   UNL A   1      37.957  33.900  34.472  1.00  0.00     0.029 A 
ATOM     48  C   UNL A   1      39.041  32.933  34.607  1.00  0.00     0.049 A 
ATOM     49  H   UNL A   1      39.682  31.546  33.189  1.00  0.00     0.167 HD
ATOM     50  C   UNL A   1      40.768  28.520  30.197  1.00  0.00     0.034 A 
ATOM     51  C   UNL A   1      39.821  32.782  35.696  1.00  0.00     0.034 A 
ATOM     52  C   UNL A   1      41.712  28.351  31.276  1.00  0.00     0.049 A 
ATOM     53  C   UNL A   1      40.904  31.733  35.678  1.00  0.00     0.074 A 
ATOM     54  C   UNL A   1      42.787  27.481  31.353  1.00  0.00     0.029 A 
ATOM     55  N   UNL A   1      41.691  29.059  32.471  1.00  0.00    -0.354 N 
ATOM     56  N   UNL A   1      41.212  30.879  34.730  1.00  0.00    -0.248 NA
ATOM     57  C   UNL A   1      41.751  31.638  36.874  1.00  0.00     0.031 C 
ATOM     58  C   UNL A   1      43.377  27.621  32.615  1.00  0.00     0.029 A 
ATOM     59  C   UNL A   1      42.714  28.627  33.301  1.00  0.00     0.049 A 
ATOM     60  H   UNL A   1      41.043  29.765  32.696  1.00  0.00     0.167 HD
ATOM     61  C   UNL A   1      42.307  30.164  35.206  1.00  0.00     0.074 A 
ATOM     62  C   UNL A   1      42.614  30.697  36.518  1.00  0.00     0.031 C 
ATOM     63  C   UNL A   1      43.000  29.159  34.611  1.00  0.00     0.034 A 
BRANCH  50  64
ATOM     64  C   UNL A   1      40.862  27.605  28.998  1.00  0.00     0.023 A 
ATOM     65  C   UNL A   1      41.804  27.821  27.978  1.00  0.00     0.031 A 
ATOM     66  C   UNL A   1      39.982  26.517  28.863  1.00  0.00     0.131 A 
ATOM     67  C   UNL A   1      41.796  27.008  26.833  1.00  0.00     0.055 A 
ATOM     68  C   UNL A   1      40.031  25.664  27.759  1.00  0.00     0.041 A 
ATOM     69  F   UNL A   1      39.049  26.271  29.797  1.00  0.00    -0.206 F 
ATOM     70  C   UNL A   1      40.932  25.916  26.728  1.00  0.00     0.022 A 
BRANCH  67  71
ATOM     71  S   UNL A   1      42.838  27.481  25.427  1.00  0.00     0.124 S 
ATOM     72  O   UNL A   1      42.957  26.214  24.710  1.00  0.00    -0.237 OA
ATOM     73  O   UNL A   1      42.038  28.512  24.774  1.00  0.00    -0.237 OA
ATOM     74  O   UNL A   1      44.070  27.952  26.055  1.00  0.00    -0.744 OA
ENDBRANCH  67  71
ENDBRANCH  50  64
BRANCH  51  75
ATOM     75  C   UNL A   1      39.604  33.628  36.903  1.00  0.00     0.023 A 
ATOM     76  C   UNL A   1      38.943  33.120  38.032  1.00  0.00     0.031 A 
ATOM     77  C   UNL A   1      40.017  34.972  36.929  1.00  0.00     0.131 A 
ATOM     78  C   UNL A   1      38.670  33.963  39.122  1.00  0.00     0.055 A 
ATOM     79  C   UNL A   1      39.789  35.792  38.035  1.00  0.00     0.041 A 
ATOM     80  F   UNL A   1      40.660  35.505  35.878  1.00  0.00    -0.206 F 
ATOM     81  C   UNL A   1      39.098  35.292  39.134  1.00  0.00     0.022 A 
BRANCH  78  82
ATOM     82  S   UNL A   1      37.670  33.316  40.489  1.00  0.00     0.124 S 
ATOM     83  O   UNL A   1      37.507  34.500  41.325  1.00  0.00    -0.237 OA
ATOM     84  O   UNL A   1      36.474  32.850  39.796  1.00  0.00    -0.237 OA
ATOM     85  O   UNL A   1      38.510  32.263  41.055  1.00  0.00    -0.744 OA
ENDBRANCH  78  82
ENDBRANCH  51  75
BRANCH  63  86
ATOM     86  C   UNL A   1      44.184  28.607  35.367  1.00  0.00     0.023 A 
ATOM     87  C   UNL A   1      44.041  27.580  36.316  1.00  0.00     0.031 A 
ATOM     88  C   UNL A   1      45.469  29.132  35.145  1.00  0.00     0.131 A 
ATOM     89  C   UNL A   1      45.157  27.146  37.048  1.00  0.00     0.055 A 
ATOM     90  C   UNL A   1      46.585  28.657  35.836  1.00  0.00     0.041 A 
ATOM     91  F   UNL A   1      45.661  30.115  34.251  1.00  0.00    -0.206 F 
ATOM     92  C   UNL A   1      46.430  27.668  36.803  1.00  0.00     0.022 A 
BRANCH  89  93
ATOM     93  S   UNL A   1      44.909  25.949  38.388  1.00  0.00     0.124 S 
ATOM     94  O   UNL A   1      46.278  25.699  38.828  1.00  0.00    -0.237 OA
ATOM     95  O   UNL A   1      44.066  26.691  39.318  1.00  0.00    -0.237 OA
ATOM     96  O   UNL A   1      44.256  24.822  37.725  1.00  0.00    -0.744 OA
ENDBRANCH  89  93
ENDBRANCH  63  86
ENDBRANCH  37  38
ENDBRANCH  29  32
ENDBRANCH  27  28
ENDBRANCH  26  27
ENDBRANCH  25  26
ENDBRANCH   1  25
TORSDOF 20
ENDMDL
MODEL 2
REMARK VINA RESULT:     -11.1      1.032      2.110
REMARK SMILES CC(C)(C)N(CC(=O)NCCCCCCNC(=O)c1ccc(-c2c3nc(c(-c4cc(S(=O)(=O)[O-])ccc4F)c4ccc([nH]4)c(-c4cc(S(=O)(=O)[O-])ccc4F)c4nc(c(-c5cc(S(=O)(=O)[O-])ccc5F)c5ccc2[nH]5)C=C4)C=C3)cc1)C(=O)c1cc2ccccc2o1
REMARK SMILES IDX 12 1 11 2 10 3 9 4 7 5 8 6 6 8 5 9 2 10 1 11 3 12 4 13 82 14
REMARK SMILES IDX 83 15 84 16 85 17 92 18 86 19 91 20 87 21 90 22 88 23 89 24
REMARK SMILES IDX 13 25 14 26 15 27 16 28 17 29 18 31 19 32 20 33 81 34 21 35
REMARK SMILES IDX 80 36 22 37 23 38 24 39 74 40 25 41 79 42 73 43 75 44 26 45
REMARK SMILES IDX 78 46 72 47 71 48 27 50 59 51 39 52 58 53 40 54 43 55 57 56
REMARK SMILES IDX 76 57 41 58 42 59 56 61 77 62 44 63 28 64 29 65 37 66 30 67
REMARK SMILES IDX 36 68 38 69 35 70 31 71 32 72 33 73 34 74 60 75 61 76 69 77
REMARK SMILES IDX 62 78 68 79 70 80 67 81 63 82 64 83 65 84 66 85 45 86 46 87
REMARK SMILES IDX 54 88 47 89 53 90 55 91 52 92 48 93 49 94 50 95 51 96
REMARK H PARENT 9 7 16 30 75 49 43 60
REMARK Flexibility Score: inf
ROOT
ATOM      1  C   UNL A   1      32.496  29.389  26.422  1.00  0.00     0.002 C 
ENDROOT
BRANCH   1   2
ATOM      2  C   UNL A   1      31.779  28.361  27.298  1.00  0.00     0.021 C 
BRANCH   2   3
ATOM      3  C   UNL A   1      31.391  27.063  26.589  1.00  0.00     0.116 C 
BRANCH   3   4
ATOM      4  N   UNL A   1      31.466  27.190  25.144  1.00  0.00    -0.355 N 
ATOM      5  C   UNL A   1      31.210  26.276  24.162  1.00  0.00     0.239 C 
ATOM      6  O   UNL A   1      31.222  26.685  22.995  1.00  0.00    -0.273 OA
ATOM      7  H   UNL A   1      31.746  28.076  24.821  1.00  0.00     0.163 HD
BRANCH   5   8
ATOM      8  C   UNL A   1      30.742  24.836  24.474  1.00  0.00     0.220 C 
BRANCH   8   9
ATOM      9  N   UNL A   1      31.821  23.861  24.668  1.00  0.00    -0.322 N 
BRANCH   9  10
ATOM     10  C   UNL A   1      31.809  22.875  25.804  1.00  0.00     0.035 C 
ATOM     11  C   UNL A   1      32.752  23.264  26.963  1.00  0.00     0.034 C 
ATOM     12  C   UNL A   1      32.236  21.455  25.361  1.00  0.00     0.034 C 
ATOM     13  C   UNL A   1      30.376  22.789  26.371  1.00  0.00     0.034 C 
ENDBRANCH   9  10
BRANCH   9  14
ATOM     14  C   UNL A   1      32.658  23.579  23.583  1.00  0.00     0.290 C 
ATOM     15  O   UNL A   1      32.239  22.972  22.598  1.00  0.00    -0.265 OA
BRANCH  14  16
ATOM     16  C   UNL A   1      34.006  24.108  23.559  1.00  0.00     0.192 A 
ATOM     17  C   UNL A   1      34.659  24.812  24.560  1.00  0.00     0.065 A 
ATOM     18  O   UNL A   1      34.914  23.309  22.907  1.00  0.00    -0.451 OA
ATOM     19  C   UNL A   1      35.820  24.033  24.837  1.00  0.00     0.021 A 
ATOM     20  C   UNL A   1      35.929  23.123  23.794  1.00  0.00     0.135 A 
ATOM     21  C   UNL A   1      36.689  23.904  25.933  1.00  0.00     0.012 A 
ATOM     22  C   UNL A   1      36.846  22.080  23.746  1.00  0.00     0.048 A 
ATOM     23  C   UNL A   1      37.563  22.807  25.958  1.00  0.00     0.001 A 
ATOM     24  C   UNL A   1      37.636  21.910  24.887  1.00  0.00     0.004 A 
ENDBRANCH  14  16
ENDBRANCH   9  14
ENDBRANCH   8   9
ENDBRANCH   5   8
ENDBRANCH   3   4
ENDBRANCH   2   3
ENDBRANCH   1   2
BRANCH   1  25
ATOM     25  C   UNL A   1      31.597  30.440  25.765  1.00  0.00     0.002 C 
BRANCH  25  26
ATOM     26  C   UNL A   1      31.415  31.745  26.547  1.00  0.00     0.021 C 
BRANCH  26  27
ATOM     27  C   UNL A   1      32.678  32.298  27.206  1.00  0.00     0.116 C 
BRANCH  27  28
ATOM     28  N   UNL A   1      32.553  33.707  27.535  1.00  0.00    -0.352 N 
ATOM     29  C   UNL A   1      33.207  34.456  28.482  1.00  0.00     0.251 C 
ATOM     30  H   UNL A   1      31.897  34.204  26.995  1.00  0.00     0.163 HD
ATOM     31  O   UNL A   1      32.802  35.589  28.736  1.00  0.00    -0.269 OA
BRANCH  29  32
ATOM     32  C   UNL A   1      34.375  33.908  29.208  1.00  0.00     0.039 A 
ATOM     33  C   UNL A   1      34.155  33.010  30.257  1.00  0.00     0.014 A 
ATOM     34  C   UNL A   1      35.679  34.303  28.892  1.00  0.00     0.014 A 
ATOM     35  C   UNL A   1      35.241  32.467  30.951  1.00  0.00     0.010 A 
ATOM     36  C   UNL A   1      36.763  33.716  29.546  1.00  0.00     0.010 A 
ATOM     37  C   UNL A   1      36.556  32.792  30.581  1.00  0.00    -0.014 A 
BRANCH  37  38
ATOM     38  C   UNL A   1      37.722  32.180  31.272  1.00  0.00     0.031 A 
ATOM     39  C   UNL A   1      38.474  31.047  30.629  1.00  0.00     0.074 A 
ATOM     40  C   UNL A   1      38.065  32.606  32.504  1.00  0.00     0.049 A 
ATOM     41  N   UNL A   1      39.461  30.330  31.105  1.00  0.00    -0.248 NA
ATOM     42  C   UNL A   1      38.040  30.652  29.281  1.00  0.00     0.031 C 
ATOM     43  C   UNL A   1      37.393  33.675  33.246  1.00  0.00     0.029 A 
ATOM     44  N   UNL A   1      39.057  32.185  33.355  1.00  0.00    -0.354 N 
ATOM     45  C   UNL A   1      39.757  29.391  30.123  1.00  0.00     0.074 A 
ATOM     46  C   UNL A   1      38.809  29.599  29.048  1.00  0.00     0.031 C 
ATOM     47  C   UNL A   1      38.000  33.835  34.433  1.00  0.00     0.029 A 
ATOM     48  C   UNL A   1      39.075  32.855  34.557  1.00  0.00     0.049 A 
ATOM     49  H   UNL A   1      39.696  31.472  33.127  1.00  0.00     0.167 HD
ATOM     50  C   UNL A   1      40.740  28.456  30.111  1.00  0.00     0.034 A 
ATOM     51  C   UNL A   1      39.857  32.689  35.642  1.00  0.00     0.034 A 
ATOM     52  C   UNL A   1      41.686  28.269  31.185  1.00  0.00     0.049 A 
ATOM     53  C   UNL A   1      40.929  31.630  35.613  1.00  0.00     0.074 A 
ATOM     54  C   UNL A   1      42.753  27.388  31.253  1.00  0.00     0.029 A 
ATOM     55  N   UNL A   1      41.676  28.969  32.385  1.00  0.00    -0.354 N 
ATOM     56  N   UNL A   1      41.225  30.778  34.659  1.00  0.00    -0.248 NA
ATOM     57  C   UNL A   1      41.780  31.517  36.806  1.00  0.00     0.031 C 
ATOM     58  C   UNL A   1      43.348  27.513  32.514  1.00  0.00     0.029 A 
ATOM     59  C   UNL A   1      42.698  28.521  33.208  1.00  0.00     0.049 A 
ATOM     60  H   UNL A   1      41.036  29.680  32.618  1.00  0.00     0.167 HD
ATOM     61  C   UNL A   1      42.314  30.049  35.126  1.00  0.00     0.074 A 
ATOM     62  C   UNL A   1      42.631  30.570  36.440  1.00  0.00     0.031 C 
ATOM     63  C   UNL A   1      42.994  29.041  34.521  1.00  0.00     0.034 A 
BRANCH  50  64
ATOM     64  C   UNL A   1      40.820  27.548  28.906  1.00  0.00     0.023 A 
ATOM     65  C   UNL A   1      41.794  27.730  27.909  1.00  0.00     0.031 A 
ATOM     66  C   UNL A   1      39.895  26.501  28.740  1.00  0.00     0.131 A 
ATOM     67  C   UNL A   1      41.776  26.928  26.757  1.00  0.00     0.055 A 
ATOM     68  C   UNL A   1      39.932  25.657  27.629  1.00  0.00     0.041 A 
ATOM     69  F   UNL A   1      38.931  26.290  29.650  1.00  0.00    -0.206 F 
ATOM     70  C   UNL A   1      40.866  25.877  26.621  1.00  0.00     0.022 A 
BRANCH  67  71
ATOM     71  S   UNL A   1      42.871  27.366  25.379  1.00  0.00     0.124 S 
ATOM     72  O   UNL A   1      42.949  26.101  24.653  1.00  0.00    -0.237 OA
ATOM     73  O   UNL A   1      42.133  28.437  24.718  1.00  0.00    -0.237 OA
ATOM     74  O   UNL A   1      44.107  27.775  26.039  1.00  0.00    -0.744 OA
ENDBRANCH  67  71
ENDBRANCH  50  64
BRANCH  51  75
ATOM     75  C   UNL A   1      39.653  33.529  36.856  1.00  0.00     0.023 A 
ATOM     76  C   UNL A   1      39.057  32.998  38.011  1.00  0.00     0.031 A 
ATOM     77  C   UNL A   1      40.012  34.888  36.864  1.00  0.00     0.131 A 
ATOM     78  C   UNL A   1      38.793  33.832  39.109  1.00  0.00     0.055 A 
ATOM     79  C   UNL A   1      39.794  35.702  37.977  1.00  0.00     0.041 A 
ATOM     80  F   UNL A   1      40.592  35.444  35.788  1.00  0.00    -0.206 F 
ATOM     81  C   UNL A   1      39.168  35.177  39.104  1.00  0.00     0.022 A 
BRANCH  78  82
ATOM     82  S   UNL A   1      37.875  33.150  40.515  1.00  0.00     0.124 S 
ATOM     83  O   UNL A   1      36.524  33.059  39.974  1.00  0.00    -0.237 OA
ATOM     84  O   UNL A   1      38.563  31.883  40.740  1.00  0.00    -0.237 OA
ATOM     85  O   UNL A   1      38.062  34.152  41.562  1.00  0.00    -0.744 OA
ENDBRANCH  78  82
ENDBRANCH  51  75
BRANCH  63  86
ATOM     86  C   UNL A   1      44.175  28.472  35.269  1.00  0.00     0.023 A 
ATOM     87  C   UNL A   1      44.018  27.483  36.255  1.00  0.00     0.031 A 
ATOM     88  C   UNL A   1      45.473  28.942  35.002  1.00  0.00     0.131 A 
ATOM     89  C   UNL A   1      45.134  27.033  36.977  1.00  0.00     0.055 A 
ATOM     90  C   UNL A   1      46.587  28.451  35.684  1.00  0.00     0.041 A 
ATOM     91  F   UNL A   1      45.678  29.888  34.071  1.00  0.00    -0.206 F 
ATOM     92  C   UNL A   1      46.419  27.499  36.686  1.00  0.00     0.022 A 
BRANCH  89  93
ATOM     93  S   UNL A   1      44.876  25.890  38.361  1.00  0.00     0.124 S 
ATOM     94  O   UNL A   1      46.245  25.573  38.754  1.00  0.00    -0.237 OA
ATOM     95  O   UNL A   1      44.115  26.706  39.302  1.00  0.00    -0.237 OA
ATOM     96  O   UNL A   1      44.132  24.784  37.760  1.00  0.00    -0.744 OA
ENDBRANCH  89  93
ENDBRANCH  63  86
ENDBRANCH  37  38
ENDBRANCH  29  32
ENDBRANCH  27  28
ENDBRANCH  26  27
ENDBRANCH  25  26
ENDBRANCH   1  25
TORSDOF 20
ENDMDL
MODEL 3
REMARK VINA RESULT:     -11.0      5.472      8.483
REMARK SMILES CC(C)(C)N(CC(=O)NCCCCCCNC(=O)c1ccc(-c2c3nc(c(-c4cc(S(=O)(=O)[O-])ccc4F)c4ccc([nH]4)c(-c4cc(S(=O)(=O)[O-])ccc4F)c4nc(c(-c5cc(S(=O)(=O)[O-])ccc5F)c5ccc2[nH]5)C=C4)C=C3)cc1)C(=O)c1cc2ccccc2o1
REMARK SMILES IDX 12 1 11 2 10 3 9 4 7 5 8 6 6 8 5 9 2 10 1 11 3 12 4 13 82 14
REMARK SMILES IDX 83 15 84 16 85 17 92 18 86 19 91 20 87 21 90 22 88 23 89 24
REMARK SMILES IDX 13 25 14 26 15 27 16 28 17 29 18 31 19 32 20 33 81 34 21 35
REMARK SMILES IDX 80 36 22 37 23 38 24 39 74 40 25 41 79 42 73 43 75 44 26 45
REMARK SMILES IDX 78 46 72 47 71 48 27 50 59 51 39 52 58 53 40 54 43 55 57 56
REMARK SMILES IDX 76 57 41 58 42 59 56 61 77 62 44 63 28 64 29 65 37 66 30 67
REMARK SMILES IDX 36 68 38 69 35 70 31 71 32 72 33 73 34 74 60 75 61 76 69 77
REMARK SMILES IDX 62 78 68 79 70 80 67 81 63 82 64 83 65 84 66 85 45 86 46 87
REMARK SMILES IDX 54 88 47 89 53 90 55 91 52 92 48 93 49 94 50 95 51 96
REMARK H PARENT 9 7 16 30 75 49 43 60
REMARK Flexibility Score: inf
ROOT
ATOM      1  C   UNL A   1      33.883  23.162  27.003  1.00  0.00     0.002 C 
ENDROOT
BRANCH   1   2
ATOM      2  C   UNL A   1      32.760  22.244  26.517  1.00  0.00     0.021 C 
BRANCH   2   3
ATOM      3  C   UNL A   1      31.409  22.928  26.303  1.00  0.00     0.116 C 
BRANCH   3   4
ATOM      4  N   UNL A   1      31.406  24.292  26.802  1.00  0.00    -0.355 N 
ATOM      5  C   UNL A   1      31.077  25.461  26.177  1.00  0.00     0.239 C 
ATOM      6  O   UNL A   1      31.033  26.480  26.876  1.00  0.00    -0.273 OA
ATOM      7  H   UNL A   1      31.686  24.390  27.740  1.00  0.00     0.163 HD
BRANCH   5   8
ATOM      8  C   UNL A   1      30.598  25.507  24.708  1.00  0.00     0.220 C 
BRANCH   8   9
ATOM      9  N   UNL A   1      31.525  26.153  23.772  1.00  0.00    -0.322 N 
BRANCH   9  10
ATOM     10  C   UNL A   1      32.467  25.361  22.908  1.00  0.00     0.035 C 
ATOM     11  C   UNL A   1      32.131  23.855  22.854  1.00  0.00     0.034 C 
ATOM     12  C   UNL A   1      33.935  25.456  23.389  1.00  0.00     0.034 C 
ATOM     13  C   UNL A   1      32.399  25.910  21.467  1.00  0.00     0.034 C 
ENDBRANCH   9  10
BRANCH   9  14
ATOM     14  C   UNL A   1      31.263  27.474  23.391  1.00  0.00     0.290 C 
ATOM     15  O   UNL A   1      32.124  28.347  23.491  1.00  0.00    -0.265 OA
BRANCH  14  16
ATOM     16  C   UNL A   1      30.001  27.802  22.760  1.00  0.00     0.192 A 
ATOM     17  C   UNL A   1      28.767  27.978  23.369  1.00  0.00     0.065 A 
ATOM     18  O   UNL A   1      30.109  28.675  21.705  1.00  0.00    -0.451 OA
ATOM     19  C   UNL A   1      28.384  29.303  23.009  1.00  0.00     0.021 A 
ATOM     20  C   UNL A   1      29.241  29.685  21.986  1.00  0.00     0.135 A 
ATOM     21  C   UNL A   1      27.510  30.263  23.546  1.00  0.00     0.012 A 
ATOM     22  C   UNL A   1      29.303  30.962  21.440  1.00  0.00     0.048 A 
ATOM     23  C   UNL A   1      27.613  31.583  23.082  1.00  0.00     0.001 A 
ATOM     24  C   UNL A   1      28.495  31.925  22.052  1.00  0.00     0.004 A 
ENDBRANCH  14  16
ENDBRANCH   9  14
ENDBRANCH   8   9
ENDBRANCH   5   8
ENDBRANCH   3   4
ENDBRANCH   2   3
ENDBRANCH   1   2
BRANCH   1  25
ATOM     25  C   UNL A   1      35.176  23.114  26.186  1.00  0.00     0.002 C 
BRANCH  25  26
ATOM     26  C   UNL A   1      35.629  21.722  25.733  1.00  0.00     0.021 C 
BRANCH  26  27
ATOM     27  C   UNL A   1      36.941  21.680  24.953  1.00  0.00     0.116 C 
BRANCH  27  28
ATOM     28  N   UNL A   1      37.855  20.677  25.471  1.00  0.00    -0.352 N 
ATOM     29  C   UNL A   1      39.105  20.819  26.020  1.00  0.00     0.251 C 
ATOM     30  H   UNL A   1      37.527  19.750  25.421  1.00  0.00     0.163 HD
ATOM     31  O   UNL A   1      39.797  19.819  26.205  1.00  0.00    -0.269 OA
BRANCH  29  32
ATOM     32  C   UNL A   1      39.633  22.157  26.369  1.00  0.00     0.039 A 
ATOM     33  C   UNL A   1      40.721  22.245  27.244  1.00  0.00     0.014 A 
ATOM     34  C   UNL A   1      39.040  23.324  25.877  1.00  0.00     0.014 A 
ATOM     35  C   UNL A   1      41.248  23.495  27.580  1.00  0.00     0.010 A 
ATOM     36  C   UNL A   1      39.603  24.568  26.167  1.00  0.00     0.010 A 
ATOM     37  C   UNL A   1      40.712  24.667  27.020  1.00  0.00    -0.014 A 
BRANCH  37  38
ATOM     38  C   UNL A   1      41.296  26.001  27.324  1.00  0.00     0.031 A 
ATOM     39  C   UNL A   1      42.666  26.360  26.817  1.00  0.00     0.074 A 
ATOM     40  C   UNL A   1      40.616  26.864  28.104  1.00  0.00     0.049 A 
ATOM     41  N   UNL A   1      43.379  27.435  27.043  1.00  0.00    -0.248 NA
ATOM     42  C   UNL A   1      43.334  25.365  25.965  1.00  0.00     0.031 C 
ATOM     43  C   UNL A   1      39.294  26.618  28.683  1.00  0.00     0.029 A 
ATOM     44  N   UNL A   1      40.948  28.116  28.558  1.00  0.00    -0.354 N 
ATOM     45  C   UNL A   1      44.582  27.242  26.373  1.00  0.00     0.074 A 
ATOM     46  C   UNL A   1      44.520  25.923  25.777  1.00  0.00     0.031 C 
ATOM     47  C   UNL A   1      38.921  27.690  29.401  1.00  0.00     0.029 A 
ATOM     48  C   UNL A   1      39.992  28.681  29.370  1.00  0.00     0.049 A 
ATOM     49  H   UNL A   1      41.790  28.569  28.322  1.00  0.00     0.167 HD
ATOM     50  C   UNL A   1      45.633  28.092  26.251  1.00  0.00     0.034 A 
ATOM     51  C   UNL A   1      39.985  29.857  30.030  1.00  0.00     0.034 A 
ATOM     52  C   UNL A   1      45.675  29.409  26.841  1.00  0.00     0.049 A 
ATOM     53  C   UNL A   1      41.172  30.776  29.895  1.00  0.00     0.074 A 
ATOM     54  C   UNL A   1      46.666  30.371  26.735  1.00  0.00     0.029 A 
ATOM     55  N   UNL A   1      44.686  29.949  27.654  1.00  0.00    -0.354 N 
ATOM     56  N   UNL A   1      42.285  30.597  29.222  1.00  0.00    -0.248 NA
ATOM     57  C   UNL A   1      41.096  32.062  30.602  1.00  0.00     0.031 C 
ATOM     58  C   UNL A   1      46.304  31.464  27.531  1.00  0.00     0.029 A 
ATOM     59  C   UNL A   1      45.056  31.215  28.079  1.00  0.00     0.049 A 
ATOM     60  H   UNL A   1      43.845  29.497  27.894  1.00  0.00     0.167 HD
ATOM     61  C   UNL A   1      43.028  31.759  29.402  1.00  0.00     0.074 A 
ATOM     62  C   UNL A   1      42.231  32.638  30.234  1.00  0.00     0.031 C 
ATOM     63  C   UNL A   1      44.257  32.075  28.919  1.00  0.00     0.034 A 
BRANCH  50  64
ATOM     64  C   UNL A   1      46.831  27.607  25.470  1.00  0.00     0.023 A 
ATOM     65  C   UNL A   1      47.064  28.018  24.146  1.00  0.00     0.031 A 
ATOM     66  C   UNL A   1      47.740  26.702  26.048  1.00  0.00     0.131 A 
ATOM     67  C   UNL A   1      48.133  27.471  23.419  1.00  0.00     0.055 A 
ATOM     68  C   UNL A   1      48.847  26.222  25.345  1.00  0.00     0.041 A 
ATOM     69  F   UNL A   1      47.560  26.260  27.302  1.00  0.00    -0.206 F 
ATOM     70  C   UNL A   1      49.041  26.594  24.018  1.00  0.00     0.022 A 
BRANCH  67  71
ATOM     71  S   UNL A   1      48.241  27.816  21.642  1.00  0.00     0.124 S 
ATOM     72  O   UNL A   1      48.589  26.502  21.108  1.00  0.00    -0.237 OA
ATOM     73  O   UNL A   1      46.899  28.297  21.332  1.00  0.00    -0.237 OA
ATOM     74  O   UNL A   1      49.300  28.818  21.551  1.00  0.00    -0.744 OA
ENDBRANCH  67  71
ENDBRANCH  50  64
BRANCH  51  75
ATOM     75  C   UNL A   1      38.828  30.233  30.891  1.00  0.00     0.023 A 
ATOM     76  C   UNL A   1      37.780  31.020  30.390  1.00  0.00     0.031 A 
ATOM     77  C   UNL A   1      38.776  29.846  32.242  1.00  0.00     0.131 A 
ATOM     78  C   UNL A   1      36.747  31.437  31.245  1.00  0.00     0.055 A 
ATOM     79  C   UNL A   1      37.721  30.220  33.076  1.00  0.00     0.041 A 
ATOM     80  F   UNL A   1      39.750  29.087  32.770  1.00  0.00    -0.206 F 
ATOM     81  C   UNL A   1      36.705  31.033  32.581  1.00  0.00     0.022 A 
BRANCH  78  82
ATOM     82  S   UNL A   1      35.500  32.586  30.604  1.00  0.00     0.124 S 
ATOM     83  O   UNL A   1      36.203  33.862  30.681  1.00  0.00    -0.237 OA
ATOM     84  O   UNL A   1      35.267  32.062  29.262  1.00  0.00    -0.237 OA
ATOM     85  O   UNL A   1      34.384  32.430  31.534  1.00  0.00    -0.744 OA
ENDBRANCH  78  82
ENDBRANCH  51  75
BRANCH  63  86
ATOM     86  C   UNL A   1      44.788  33.448  29.252  1.00  0.00     0.023 A 
ATOM     87  C   UNL A   1      44.542  34.556  28.422  1.00  0.00     0.031 A 
ATOM     88  C   UNL A   1      45.565  33.643  30.406  1.00  0.00     0.131 A 
ATOM     89  C   UNL A   1      45.115  35.799  28.730  1.00  0.00     0.055 A 
ATOM     90  C   UNL A   1      46.086  34.895  30.738  1.00  0.00     0.041 A 
ATOM     91  F   UNL A   1      45.831  32.618  31.232  1.00  0.00    -0.206 F 
ATOM     92  C   UNL A   1      45.872  35.979  29.892  1.00  0.00     0.022 A 
BRANCH  89  93
ATOM     93  S   UNL A   1      44.928  37.163  27.549  1.00  0.00     0.124 S 
ATOM     94  O   UNL A   1      43.574  36.948  27.049  1.00  0.00    -0.237 OA
ATOM     95  O   UNL A   1      45.117  38.337  28.395  1.00  0.00    -0.237 OA
ATOM     96  O   UNL A   1      45.993  36.924  26.577  1.00  0.00    -0.744 OA
ENDBRANCH  89  93
ENDBRANCH  63  86
ENDBRANCH  37  38
ENDBRANCH  29  32
ENDBRANCH  27  28
ENDBRANCH  26  27
ENDBRANCH  25  26
ENDBRANCH   1  25
TORSDOF 20
ENDMDL
