MODEL 1
REMARK VINA RESULT:     -11.2      0.000      0.000
REMARK SMILES O=C(NCCCCCCNC(=O)[C@@H](F)Oc1ccc(F)c(Cl)c1)c1ccc(-c2c3nc(c(-c4cc(S(=O)(=O)[O-])ccc4F)c4ccc([nH]4)c(-c4cc(S(=O)(=O)[O-])ccc4F)c4nc(c(-c5cc(S(=O)(=O)[O-])ccc5F)c5ccc2[nH]5)C=C4)C=C3)cc1
REMARK SMILES IDX 6 1 5 2 4 3 3 4 1 5 2 6 24 8 25 9 86 10 26 11 85 12 27 13
REMARK SMILES IDX 28 14 29 15 79 16 30 17 84 18 78 19 80 20 31 21 83 22 77 23
REMARK SMILES IDX 76 24 32 26 64 27 44 28 63 29 45 30 48 31 62 32 81 33 46 34
REMARK SMILES IDX 47 35 61 37 82 38 49 39 33 40 34 41 42 42 35 43 41 44 43 45
REMARK SMILES IDX 40 46 36 47 37 48 38 49 39 50 65 51 66 52 74 53 67 54 73 55
REMARK SMILES IDX 75 56 72 57 68 58 69 59 70 60 71 61 50 62 51 63 59 64 52 65
REMARK SMILES IDX 58 66 60 67 57 68 53 69 54 70 55 71 56 72 7 73 8 74 9 75
REMARK SMILES IDX 10 76 11 77 12 79 13 80 14 81 15 82 16 83 17 84 23 85 18 86
REMARK SMILES IDX 21 87 19 88 22 89 20 90
REMARK H PARENT 3 7 80 25 48 36 10 78
REMARK Flexibility Score: inf
ROOT
ATOM      1  C   UNL A   1      31.967  27.477  26.837  1.00  0.00     0.002 C 
ENDROOT
BRANCH   1   2
ATOM      2  C   UNL A   1      31.485  28.759  26.160  1.00  0.00     0.021 C 
BRANCH   2   3
ATOM      3  C   UNL A   1      32.557  29.781  25.808  1.00  0.00     0.116 C 
BRANCH   3   4
ATOM      4  N   UNL A   1      32.259  31.127  26.272  1.00  0.00    -0.352 N 
ATOM      5  O   UNL A   1      32.499  33.009  27.489  1.00  0.00    -0.269 OA
ATOM      6  C   UNL A   1      32.960  31.919  27.153  1.00  0.00     0.251 C 
ATOM      7  H   UNL A   1      31.440  31.528  25.902  1.00  0.00     0.163 HD
BRANCH   6   8
ATOM      8  C   UNL A   1      34.245  31.449  27.724  1.00  0.00     0.039 A 
ATOM      9  C   UNL A   1      34.450  30.103  28.030  1.00  0.00     0.014 A 
ATOM     10  C   UNL A   1      35.261  32.379  27.965  1.00  0.00     0.014 A 
ATOM     11  C   UNL A   1      35.593  29.717  28.725  1.00  0.00     0.010 A 
ATOM     12  C   UNL A   1      36.450  31.971  28.582  1.00  0.00     0.010 A 
ATOM     13  C   UNL A   1      36.609  30.644  29.010  1.00  0.00    -0.014 A 
BRANCH  13  14
ATOM     14  C   UNL A   1      37.827  30.193  29.739  1.00  0.00     0.031 A 
ATOM     15  C   UNL A   1      38.068  30.594  31.170  1.00  0.00     0.074 A 
ATOM     16  C   UNL A   1      38.701  29.380  29.112  1.00  0.00     0.049 A 
ATOM     17  N   UNL A   1      39.056  30.270  31.966  1.00  0.00    -0.248 NA
ATOM     18  C   UNL A   1      37.077  31.490  31.784  1.00  0.00     0.031 C 
ATOM     19  C   UNL A   1      38.578  28.926  27.723  1.00  0.00     0.029 A 
ATOM     20  N   UNL A   1      39.846  28.772  29.558  1.00  0.00    -0.354 N 
ATOM     21  C   UNL A   1      38.821  30.936  33.166  1.00  0.00     0.074 A 
ATOM     22  C   UNL A   1      37.613  31.712  32.976  1.00  0.00     0.031 C 
ATOM     23  C   UNL A   1      39.572  28.069  27.452  1.00  0.00     0.029 A 
ATOM     24  C   UNL A   1      40.441  27.962  28.618  1.00  0.00     0.049 A 
ATOM     25  H   UNL A   1      40.208  28.902  30.463  1.00  0.00     0.167 HD
ATOM     26  C   UNL A   1      39.541  30.897  34.317  1.00  0.00     0.034 A 
ATOM     27  C   UNL A   1      41.566  27.224  28.680  1.00  0.00     0.034 A 
ATOM     28  C   UNL A   1      40.737  30.105  34.490  1.00  0.00     0.049 A 
ATOM     29  C   UNL A   1      42.358  27.213  29.960  1.00  0.00     0.074 A 
ATOM     30  C   UNL A   1      41.521  29.963  35.624  1.00  0.00     0.029 A 
ATOM     31  N   UNL A   1      41.330  29.325  33.504  1.00  0.00    -0.354 N 
ATOM     32  N   UNL A   1      42.109  27.835  31.091  1.00  0.00    -0.248 NA
ATOM     33  C   UNL A   1      43.576  26.396  29.975  1.00  0.00     0.031 C 
ATOM     34  C   UNL A   1      42.620  29.158  35.303  1.00  0.00     0.029 A 
ATOM     35  C   UNL A   1      42.484  28.727  33.993  1.00  0.00     0.049 A 
ATOM     36  H   UNL A   1      40.982  29.214  32.590  1.00  0.00     0.167 HD
ATOM     37  C   UNL A   1      43.128  27.455  31.961  1.00  0.00     0.074 A 
ATOM     38  C   UNL A   1      43.980  26.541  31.228  1.00  0.00     0.031 C 
ATOM     39  C   UNL A   1      43.334  27.826  33.251  1.00  0.00     0.034 A 
BRANCH  26  40
ATOM     40  C   UNL A   1      39.080  31.778  35.458  1.00  0.00     0.023 A 
ATOM     41  C   UNL A   1      38.458  31.255  36.606  1.00  0.00     0.031 A 
ATOM     42  C   UNL A   1      39.246  33.174  35.383  1.00  0.00     0.131 A 
ATOM     43  C   UNL A   1      37.958  32.122  37.591  1.00  0.00     0.055 A 
ATOM     44  C   UNL A   1      38.821  34.026  36.405  1.00  0.00     0.041 A 
ATOM     45  F   UNL A   1      39.815  33.738  34.305  1.00  0.00    -0.206 F 
ATOM     46  C   UNL A   1      38.157  33.502  37.510  1.00  0.00     0.022 A 
BRANCH  43  47
ATOM     47  S   UNL A   1      36.912  31.436  38.905  1.00  0.00     0.124 S 
ATOM     48  O   UNL A   1      36.683  30.076  38.422  1.00  0.00    -0.237 OA
ATOM     49  O   UNL A   1      37.761  31.564  40.083  1.00  0.00    -0.237 OA
ATOM     50  O   UNL A   1      35.732  32.298  38.890  1.00  0.00    -0.744 OA
ENDBRANCH  43  47
ENDBRANCH  26  40
BRANCH  27  51
ATOM     51  C   UNL A   1      42.019  26.442  27.494  1.00  0.00     0.023 A 
ATOM     52  C   UNL A   1      41.714  25.078  27.366  1.00  0.00     0.031 A 
ATOM     53  C   UNL A   1      42.792  27.044  26.485  1.00  0.00     0.131 A 
ATOM     54  C   UNL A   1      42.213  24.352  26.274  1.00  0.00     0.055 A 
ATOM     55  C   UNL A   1      43.238  26.330  25.373  1.00  0.00     0.041 A 
ATOM     56  F   UNL A   1      43.107  28.348  26.557  1.00  0.00    -0.206 F 
ATOM     57  C   UNL A   1      42.960  24.971  25.270  1.00  0.00     0.022 A 
BRANCH  54  58
ATOM     58  S   UNL A   1      41.935  22.560  26.224  1.00  0.00     0.124 S 
ATOM     59  O   UNL A   1      40.482  22.487  26.124  1.00  0.00    -0.237 OA
ATOM     60  O   UNL A   1      42.681  22.171  25.033  1.00  0.00    -0.237 OA
ATOM     61  O   UNL A   1      42.498  22.093  27.489  1.00  0.00    -0.744 OA
ENDBRANCH  54  58
ENDBRANCH  27  51
BRANCH  39  62
ATOM     62  C   UNL A   1      44.505  27.189  33.961  1.00  0.00     0.023 A 
ATOM     63  C   UNL A   1      44.364  26.015  34.723  1.00  0.00     0.031 A 
ATOM     64  C   UNL A   1      45.775  27.792  33.905  1.00  0.00     0.131 A 
ATOM     65  C   UNL A   1      45.456  25.520  35.452  1.00  0.00     0.055 A 
ATOM     66  C   UNL A   1      46.873  27.258  34.581  1.00  0.00     0.041 A 
ATOM     67  F   UNL A   1      45.967  28.916  33.197  1.00  0.00    -0.206 F 
ATOM     68  C   UNL A   1      46.714  26.126  35.374  1.00  0.00     0.022 A 
BRANCH  65  69
ATOM     69  S   UNL A   1      45.185  24.141  36.599  1.00  0.00     0.124 S 
ATOM     70  O   UNL A   1      44.354  24.759  37.627  1.00  0.00    -0.237 OA
ATOM     71  O   UNL A   1      44.522  23.156  35.751  1.00  0.00    -0.237 OA
ATOM     72  O   UNL A   1      46.536  23.780  37.028  1.00  0.00    -0.744 OA
ENDBRANCH  65  69
ENDBRANCH  39  62
ENDBRANCH  13  14
ENDBRANCH   6   8
ENDBRANCH   3   4
ENDBRANCH   2   3
ENDBRANCH   1   2
BRANCH   1  73
ATOM     73  C   UNL A   1      31.714  26.166  26.085  1.00  0.00     0.002 C 
BRANCH  73  74
ATOM     74  C   UNL A   1      32.849  25.135  26.076  1.00  0.00     0.021 C 
BRANCH  74  75
ATOM     75  C   UNL A   1      34.073  25.485  25.234  1.00  0.00     0.116 C 
BRANCH  75  76
ATOM     76  N   UNL A   1      33.913  25.184  23.826  1.00  0.00    -0.350 N 
ATOM     77  C   UNL A   1      33.589  26.038  22.805  1.00  0.00     0.294 C 
ATOM     78  H   UNL A   1      34.055  24.244  23.569  1.00  0.00     0.163 HD
ATOM     79  O   UNL A   1      33.672  25.595  21.653  1.00  0.00    -0.267 OA
BRANCH  77  80
ATOM     80  C   UNL A   1      33.170  27.510  23.065  1.00  0.00     0.440 C 
ATOM     81  F   UNL A   1      34.188  28.318  23.484  1.00  0.00    -0.191 F 
BRANCH  80  82
ATOM     82  O   UNL A   1      32.449  28.158  22.014  1.00  0.00    -0.452 OA
BRANCH  82  83
ATOM     83  C   UNL A   1      31.155  28.431  22.355  1.00  0.00     0.125 A 
ATOM     84  C   UNL A   1      30.656  29.714  22.125  1.00  0.00     0.050 A 
ATOM     85  C   UNL A   1      30.336  27.427  22.876  1.00  0.00     0.070 A 
ATOM     86  C   UNL A   1      29.348  30.018  22.505  1.00  0.00     0.044 A 
ATOM     87  C   UNL A   1      29.030  27.736  23.253  1.00  0.00     0.080 A 
ATOM     88  C   UNL A   1      28.548  29.033  23.081  1.00  0.00     0.142 A 
ATOM     89  Cl  UNL A   1      28.048  26.517  23.965  1.00  0.00    -0.081 Cl
ATOM     90  F   UNL A   1      27.321  29.370  23.499  1.00  0.00    -0.205 F 
ENDBRANCH  82  83
ENDBRANCH  80  82
ENDBRANCH  77  80
ENDBRANCH  75  76
ENDBRANCH  74  75
ENDBRANCH  73  74
ENDBRANCH   1  73
TORSDOF 18
ENDMDL
MODEL 2
REMARK VINA RESULT:     -11.1      5.977     10.939
REMARK SMILES O=C(NCCCCCCNC(=O)[C@@H](F)Oc1ccc(F)c(Cl)c1)c1ccc(-c2c3nc(c(-c4cc(S(=O)(=O)[O-])ccc4F)c4ccc([nH]4)c(-c4cc(S(=O)(=O)[O-])ccc4F)c4nc(c(-c5cc(S(=O)(=O)[O-])ccc5F)c5ccc2[nH]5)C=C4)C=C3)cc1
REMARK SMILES IDX 6 1 5 2 4 3 3 4 1 5 2 6 24 8 25 9 86 10 26 11 85 12 27 13
REMARK SMILES IDX 28 14 29 15 79 16 30 17 84 18 78 19 80 20 31 21 83 22 77 23
REMARK SMILES IDX 76 24 32 26 64 27 44 28 63 29 45 30 48 31 62 32 81 33 46 34
REMARK SMILES IDX 47 35 61 37 82 38 49 39 33 40 34 41 42 42 35 43 41 44 43 45
REMARK SMILES IDX 40 46 36 47 37 48 38 49 39 50 65 51 66 52 74 53 67 54 73 55
REMARK SMILES IDX 75 56 72 57 68 58 69 59 70 60 71 61 50 62 51 63 59 64 52 65
REMARK SMILES IDX 58 66 60 67 57 68 53 69 54 70 55 71 56 72 7 73 8 74 9 75
REMARK SMILES IDX 10 76 11 77 12 79 13 80 14 81 15 82 16 83 17 84 23 85 18 86
REMARK SMILES IDX 21 87 19 88 22 89 20 90
REMARK H PARENT 3 7 80 25 48 36 10 78
REMARK Flexibility Score: inf
ROOT
ATOM      1  C   UNL A   1      36.502  22.925  23.372  1.00  0.00     0.002 C 
ENDROOT
BRANCH   1   2
ATOM      2  C   UNL A   1      36.910  21.658  24.123  1.00  0.00     0.021 C 
BRANCH   2   3
ATOM      3  C   UNL A   1      37.515  21.858  25.506  1.00  0.00     0.116 C 
BRANCH   3   4
ATOM      4  N   UNL A   1      38.542  20.886  25.842  1.00  0.00    -0.352 N 
ATOM      5  O   UNL A   1      40.540  20.138  26.570  1.00  0.00    -0.269 OA
ATOM      6  C   UNL A   1      39.765  21.084  26.444  1.00  0.00     0.251 C 
ATOM      7  H   UNL A   1      38.334  19.953  25.606  1.00  0.00     0.163 HD
BRANCH   6   8
ATOM      8  C   UNL A   1      40.163  22.435  26.905  1.00  0.00     0.039 A 
ATOM      9  C   UNL A   1      39.638  23.585  26.310  1.00  0.00     0.014 A 
ATOM     10  C   UNL A   1      41.085  22.553  27.948  1.00  0.00     0.014 A 
ATOM     11  C   UNL A   1      40.157  24.834  26.641  1.00  0.00     0.010 A 
ATOM     12  C   UNL A   1      41.539  23.818  28.342  1.00  0.00     0.010 A 
ATOM     13  C   UNL A   1      41.113  24.968  27.661  1.00  0.00    -0.014 A 
BRANCH  13  14
ATOM     14  C   UNL A   1      41.634  26.322  28.001  1.00  0.00     0.031 A 
ATOM     15  C   UNL A   1      43.004  26.761  27.554  1.00  0.00     0.074 A 
ATOM     16  C   UNL A   1      40.844  27.174  28.685  1.00  0.00     0.049 A 
ATOM     17  N   UNL A   1      43.604  27.911  27.735  1.00  0.00    -0.248 NA
ATOM     18  C   UNL A   1      43.811  25.775  26.822  1.00  0.00     0.031 C 
ATOM     19  C   UNL A   1      39.498  26.860  29.176  1.00  0.00     0.029 A 
ATOM     20  N   UNL A   1      41.039  28.477  29.064  1.00  0.00    -0.354 N 
ATOM     21  C   UNL A   1      44.865  27.783  27.160  1.00  0.00     0.074 A 
ATOM     22  C   UNL A   1      44.954  26.427  26.658  1.00  0.00     0.031 C 
ATOM     23  C   UNL A   1      38.970  27.957  29.738  1.00  0.00     0.029 A 
ATOM     24  C   UNL A   1      39.957  29.029  29.712  1.00  0.00     0.049 A 
ATOM     25  H   UNL A   1      41.872  28.970  28.891  1.00  0.00     0.167 HD
ATOM     26  C   UNL A   1      45.852  28.710  27.056  1.00  0.00     0.034 A 
ATOM     27  C   UNL A   1      39.781  30.258  30.236  1.00  0.00     0.034 A 
ATOM     28  C   UNL A   1      45.739  30.063  27.552  1.00  0.00     0.049 A 
ATOM     29  C   UNL A   1      40.897  31.261  30.126  1.00  0.00     0.074 A 
ATOM     30  C   UNL A   1      46.662  31.093  27.466  1.00  0.00     0.029 A 
ATOM     31  N   UNL A   1      44.642  30.576  28.234  1.00  0.00    -0.354 N 
ATOM     32  N   UNL A   1      42.076  31.128  29.562  1.00  0.00    -0.248 NA
ATOM     33  C   UNL A   1      40.655  32.582  30.715  1.00  0.00     0.031 C 
ATOM     34  C   UNL A   1      46.153  32.201  28.154  1.00  0.00     0.029 A 
ATOM     35  C   UNL A   1      44.878  31.894  28.601  1.00  0.00     0.049 A 
ATOM     36  H   UNL A   1      43.817  30.076  28.430  1.00  0.00     0.167 HD
ATOM     37  C   UNL A   1      42.703  32.362  29.703  1.00  0.00     0.074 A 
ATOM     38  C   UNL A   1      41.765  33.227  30.390  1.00  0.00     0.031 C 
ATOM     39  C   UNL A   1      43.941  32.746  29.297  1.00  0.00     0.034 A 
BRANCH  26  40
ATOM     40  C   UNL A   1      47.158  28.273  26.427  1.00  0.00     0.023 A 
ATOM     41  C   UNL A   1      47.358  28.278  25.035  1.00  0.00     0.031 A 
ATOM     42  C   UNL A   1      48.214  27.817  27.239  1.00  0.00     0.131 A 
ATOM     43  C   UNL A   1      48.550  27.768  24.495  1.00  0.00     0.055 A 
ATOM     44  C   UNL A   1      49.428  27.388  26.699  1.00  0.00     0.041 A 
ATOM     45  F   UNL A   1      48.078  27.769  28.574  1.00  0.00    -0.206 F 
ATOM     46  C   UNL A   1      49.596  27.346  25.319  1.00  0.00     0.022 A 
BRANCH  43  47
ATOM     47  S   UNL A   1      48.658  27.521  22.701  1.00  0.00     0.124 S 
ATOM     48  O   UNL A   1      49.928  28.172  22.388  1.00  0.00    -0.237 OA
ATOM     49  O   UNL A   1      48.634  26.068  22.580  1.00  0.00    -0.237 OA
ATOM     50  O   UNL A   1      47.474  28.209  22.188  1.00  0.00    -0.744 OA
ENDBRANCH  43  47
ENDBRANCH  26  40
BRANCH  27  51
ATOM     51  C   UNL A   1      38.504  30.606  30.922  1.00  0.00     0.023 A 
ATOM     52  C   UNL A   1      37.487  31.302  30.250  1.00  0.00     0.031 A 
ATOM     53  C   UNL A   1      38.295  30.272  32.272  1.00  0.00     0.131 A 
ATOM     54  C   UNL A   1      36.325  31.678  30.940  1.00  0.00     0.055 A 
ATOM     55  C   UNL A   1      37.114  30.599  32.938  1.00  0.00     0.041 A 
ATOM     56  F   UNL A   1      39.233  29.601  32.959  1.00  0.00    -0.206 F 
ATOM     57  C   UNL A   1      36.125  31.319  32.276  1.00  0.00     0.022 A 
BRANCH  54  58
ATOM     58  S   UNL A   1      35.105  32.714  30.087  1.00  0.00     0.124 S 
ATOM     59  O   UNL A   1      35.938  33.798  29.580  1.00  0.00    -0.237 OA
ATOM     60  O   UNL A   1      34.571  31.794  29.089  1.00  0.00    -0.237 OA
ATOM     61  O   UNL A   1      34.174  33.088  31.149  1.00  0.00    -0.744 OA
ENDBRANCH  54  58
ENDBRANCH  27  51
BRANCH  39  62
ATOM     62  C   UNL A   1      44.320  34.188  29.541  1.00  0.00     0.023 A 
ATOM     63  C   UNL A   1      44.006  35.205  28.621  1.00  0.00     0.031 A 
ATOM     64  C   UNL A   1      45.041  34.540  30.695  1.00  0.00     0.131 A 
ATOM     65  C   UNL A   1      44.472  36.511  28.839  1.00  0.00     0.055 A 
ATOM     66  C   UNL A   1      45.446  35.853  30.938  1.00  0.00     0.041 A 
ATOM     67  F   UNL A   1      45.372  33.609  31.605  1.00  0.00    -0.206 F 
ATOM     68  C   UNL A   1      45.177  36.845  29.999  1.00  0.00     0.022 A 
BRANCH  65  69
ATOM     69  S   UNL A   1      44.246  37.746  27.530  1.00  0.00     0.124 S 
ATOM     70  O   UNL A   1      43.998  38.962  28.298  1.00  0.00    -0.237 OA
ATOM     71  O   UNL A   1      45.520  37.688  26.822  1.00  0.00    -0.237 OA
ATOM     72  O   UNL A   1      43.096  37.243  26.778  1.00  0.00    -0.744 OA
ENDBRANCH  65  69
ENDBRANCH  39  62
ENDBRANCH  13  14
ENDBRANCH   6   8
ENDBRANCH   3   4
ENDBRANCH   2   3
ENDBRANCH   1   2
BRANCH   1  73
ATOM     73  C   UNL A   1      34.999  23.160  23.188  1.00  0.00     0.002 C 
BRANCH  73  74
ATOM     74  C   UNL A   1      34.358  24.275  24.023  1.00  0.00     0.021 C 
BRANCH  74  75
ATOM     75  C   UNL A   1      34.529  24.170  25.535  1.00  0.00     0.116 C 
BRANCH  75  76
ATOM     76  N   UNL A   1      33.278  24.015  26.251  1.00  0.00    -0.350 N 
ATOM     77  C   UNL A   1      32.707  22.865  26.726  1.00  0.00     0.294 C 
ATOM     78  H   UNL A   1      32.773  24.845  26.415  1.00  0.00     0.163 HD
ATOM     79  O   UNL A   1      31.716  22.990  27.456  1.00  0.00    -0.267 OA
BRANCH  77  80
ATOM     80  C   UNL A   1      33.289  21.462  26.404  1.00  0.00     0.440 C 
ATOM     81  F   UNL A   1      33.759  20.785  27.493  1.00  0.00    -0.191 F 
BRANCH  80  82
ATOM     82  O   UNL A   1      32.459  20.597  25.625  1.00  0.00    -0.452 OA
BRANCH  82  83
ATOM     83  C   UNL A   1      33.067  19.409  25.333  1.00  0.00     0.125 A 
ATOM     84  C   UNL A   1      34.289  19.427  24.659  1.00  0.00     0.050 A 
ATOM     85  C   UNL A   1      32.497  18.204  25.751  1.00  0.00     0.070 A 
ATOM     86  C   UNL A   1      34.902  18.221  24.319  1.00  0.00     0.044 A 
ATOM     87  C   UNL A   1      33.115  17.002  25.410  1.00  0.00     0.080 A 
ATOM     88  C   UNL A   1      34.304  17.016  24.683  1.00  0.00     0.142 A 
ATOM     89  Cl  UNL A   1      32.372  15.518  25.859  1.00  0.00    -0.081 Cl
ATOM     90  F   UNL A   1      34.879  15.872  24.285  1.00  0.00    -0.205 F 
ENDBRANCH  82  83
ENDBRANCH  80  82
ENDBRANCH  77  80
ENDBRANCH  75  76
ENDBRANCH  74  75
ENDBRANCH  73  74
ENDBRANCH   1  73
TORSDOF 18
ENDMDL
MODEL 3
REMARK VINA RESULT:     -10.8      2.175      3.352
REMARK SMILES O=C(NCCCCCCNC(=O)[C@@H](F)Oc1ccc(F)c(Cl)c1)c1ccc(-c2c3nc(c(-c4cc(S(=O)(=O)[O-])ccc4F)c4ccc([nH]4)c(-c4cc(S(=O)(=O)[O-])ccc4F)c4nc(c(-c5cc(S(=O)(=O)[O-])ccc5F)c5ccc2[nH]5)C=C4)C=C3)cc1
REMARK SMILES IDX 6 1 5 2 4 3 3 4 1 5 2 6 24 8 25 9 86 10 26 11 85 12 27 13
REMARK SMILES IDX 28 14 29 15 79 16 30 17 84 18 78 19 80 20 31 21 83 22 77 23
REMARK SMILES IDX 76 24 32 26 64 27 44 28 63 29 45 30 48 31 62 32 81 33 46 34
REMARK SMILES IDX 47 35 61 37 82 38 49 39 33 40 34 41 42 42 35 43 41 44 43 45
REMARK SMILES IDX 40 46 36 47 37 48 38 49 39 50 65 51 66 52 74 53 67 54 73 55
REMARK SMILES IDX 75 56 72 57 68 58 69 59 70 60 71 61 50 62 51 63 59 64 52 65
REMARK SMILES IDX 58 66 60 67 57 68 53 69 54 70 55 71 56 72 7 73 8 74 9 75
REMARK SMILES IDX 10 76 11 77 12 79 13 80 14 81 15 82 16 83 17 84 23 85 18 86
REMARK SMILES IDX 21 87 19 88 22 89 20 90
REMARK H PARENT 3 7 80 25 48 36 10 78
REMARK Flexibility Score: inf
ROOT
ATOM      1  C   UNL A   1      32.346  29.163  24.151  1.00  0.00     0.002 C 
ENDROOT
BRANCH   1   2
ATOM      2  C   UNL A   1      33.385  29.182  25.270  1.00  0.00     0.021 C 
BRANCH   2   3
ATOM      3  C   UNL A   1      32.878  29.555  26.657  1.00  0.00     0.116 C 
BRANCH   3   4
ATOM      4  N   UNL A   1      32.794  30.989  26.884  1.00  0.00    -0.352 N 
ATOM      5  O   UNL A   1      33.401  33.007  27.684  1.00  0.00    -0.269 OA
ATOM      6  C   UNL A   1      33.690  31.824  27.513  1.00  0.00     0.251 C 
ATOM      7  H   UNL A   1      31.981  31.424  26.540  1.00  0.00     0.163 HD
BRANCH   6   8
ATOM      8  C   UNL A   1      34.982  31.296  28.015  1.00  0.00     0.039 A 
ATOM      9  C   UNL A   1      35.090  29.990  28.496  1.00  0.00     0.014 A 
ATOM     10  C   UNL A   1      36.104  32.129  28.010  1.00  0.00     0.014 A 
ATOM     11  C   UNL A   1      36.264  29.577  29.121  1.00  0.00     0.010 A 
ATOM     12  C   UNL A   1      37.312  31.680  28.557  1.00  0.00     0.010 A 
ATOM     13  C   UNL A   1      37.391  30.415  29.159  1.00  0.00    -0.014 A 
BRANCH  13  14
ATOM     14  C   UNL A   1      38.636  29.935  29.821  1.00  0.00     0.031 A 
ATOM     15  C   UNL A   1      39.012  30.404  31.201  1.00  0.00     0.074 A 
ATOM     16  C   UNL A   1      39.411  29.035  29.181  1.00  0.00     0.049 A 
ATOM     17  N   UNL A   1      40.041  30.067  31.938  1.00  0.00    -0.248 NA
ATOM     18  C   UNL A   1      38.125  31.391  31.831  1.00  0.00     0.031 C 
ATOM     19  C   UNL A   1      39.152  28.509  27.837  1.00  0.00     0.029 A 
ATOM     20  N   UNL A   1      40.552  28.386  29.576  1.00  0.00    -0.354 N 
ATOM     21  C   UNL A   1      39.940  30.815  33.108  1.00  0.00     0.074 A 
ATOM     22  C   UNL A   1      38.766  31.650  32.963  1.00  0.00     0.031 C 
ATOM     23  C   UNL A   1      40.073  27.579  27.546  1.00  0.00     0.029 A 
ATOM     24  C   UNL A   1      41.025  27.489  28.646  1.00  0.00     0.049 A 
ATOM     25  H   UNL A   1      40.992  28.547  30.441  1.00  0.00     0.167 HD
ATOM     26  C   UNL A   1      40.746  30.800  34.201  1.00  0.00     0.034 A 
ATOM     27  C   UNL A   1      42.108  26.689  28.669  1.00  0.00     0.034 A 
ATOM     28  C   UNL A   1      41.907  29.949  34.332  1.00  0.00     0.049 A 
ATOM     29  C   UNL A   1      42.998  26.706  29.883  1.00  0.00     0.074 A 
ATOM     30  C   UNL A   1      42.770  29.826  35.409  1.00  0.00     0.029 A 
ATOM     31  N   UNL A   1      42.375  29.078  33.355  1.00  0.00    -0.354 N 
ATOM     32  N   UNL A   1      42.875  27.406  30.987  1.00  0.00    -0.248 NA
ATOM     33  C   UNL A   1      44.166  25.819  29.855  1.00  0.00     0.031 C 
ATOM     34  C   UNL A   1      43.793  28.938  35.057  1.00  0.00     0.029 A 
ATOM     35  C   UNL A   1      43.529  28.442  33.791  1.00  0.00     0.049 A 
ATOM     36  H   UNL A   1      41.950  28.935  32.479  1.00  0.00     0.167 HD
ATOM     37  C   UNL A   1      43.937  27.017  31.800  1.00  0.00     0.074 A 
ATOM     38  C   UNL A   1      44.676  26.012  31.062  1.00  0.00     0.031 C 
ATOM     39  C   UNL A   1      44.266  27.449  33.044  1.00  0.00     0.034 A 
BRANCH  26  40
ATOM     40  C   UNL A   1      40.428  31.772  35.317  1.00  0.00     0.023 A 
ATOM     41  C   UNL A   1      39.401  31.534  36.248  1.00  0.00     0.031 A 
ATOM     42  C   UNL A   1      41.151  32.974  35.432  1.00  0.00     0.131 A 
ATOM     43  C   UNL A   1      39.079  32.514  37.202  1.00  0.00     0.055 A 
ATOM     44  C   UNL A   1      40.880  33.907  36.436  1.00  0.00     0.041 A 
ATOM     45  F   UNL A   1      42.131  33.269  34.562  1.00  0.00    -0.206 F 
ATOM     46  C   UNL A   1      39.827  33.687  37.318  1.00  0.00     0.022 A 
BRANCH  43  47
ATOM     47  S   UNL A   1      37.573  32.301  38.192  1.00  0.00     0.124 S 
ATOM     48  O   UNL A   1      37.385  30.853  38.139  1.00  0.00    -0.237 OA
ATOM     49  O   UNL A   1      37.965  32.849  39.485  1.00  0.00    -0.237 OA
ATOM     50  O   UNL A   1      36.571  33.077  37.464  1.00  0.00    -0.744 OA
ENDBRANCH  43  47
ENDBRANCH  26  40
BRANCH  27  51
ATOM     51  C   UNL A   1      42.422  25.813  27.503  1.00  0.00     0.023 A 
ATOM     52  C   UNL A   1      41.965  24.487  27.449  1.00  0.00     0.031 A 
ATOM     53  C   UNL A   1      43.209  26.285  26.437  1.00  0.00     0.131 A 
ATOM     54  C   UNL A   1      42.333  23.666  26.373  1.00  0.00     0.055 A 
ATOM     55  C   UNL A   1      43.526  25.480  25.343  1.00  0.00     0.041 A 
ATOM     56  F   UNL A   1      43.666  27.547  26.436  1.00  0.00    -0.206 F 
ATOM     57  C   UNL A   1      43.098  24.157  25.313  1.00  0.00     0.022 A 
BRANCH  54  58
ATOM     58  S   UNL A   1      41.861  21.915  26.417  1.00  0.00     0.124 S 
ATOM     59  O   UNL A   1      40.436  21.983  26.116  1.00  0.00    -0.237 OA
ATOM     60  O   UNL A   1      42.711  21.346  25.377  1.00  0.00    -0.237 OA
ATOM     61  O   UNL A   1      42.192  21.508  27.781  1.00  0.00    -0.744 OA
ENDBRANCH  54  58
ENDBRANCH  27  51
BRANCH  39  62
ATOM     62  C   UNL A   1      45.453  26.785  33.702  1.00  0.00     0.023 A 
ATOM     63  C   UNL A   1      45.317  25.622  34.481  1.00  0.00     0.031 A 
ATOM     64  C   UNL A   1      46.735  27.351  33.577  1.00  0.00     0.131 A 
ATOM     65  C   UNL A   1      46.430  25.103  35.160  1.00  0.00     0.055 A 
ATOM     66  C   UNL A   1      47.850  26.792  34.203  1.00  0.00     0.041 A 
ATOM     67  F   UNL A   1      46.922  28.463  32.848  1.00  0.00    -0.206 F 
ATOM     68  C   UNL A   1      47.699  25.671  35.014  1.00  0.00     0.022 A 
BRANCH  65  69
ATOM     69  S   UNL A   1      46.178  23.741  36.332  1.00  0.00     0.124 S 
ATOM     70  O   UNL A   1      46.140  24.444  37.611  1.00  0.00    -0.237 OA
ATOM     71  O   UNL A   1      44.913  23.171  35.881  1.00  0.00    -0.237 OA
ATOM     72  O   UNL A   1      47.350  22.890  36.128  1.00  0.00    -0.744 OA
ENDBRANCH  65  69
ENDBRANCH  39  62
ENDBRANCH  13  14
ENDBRANCH   6   8
ENDBRANCH   3   4
ENDBRANCH   2   3
ENDBRANCH   1   2
BRANCH   1  73
ATOM     73  C   UNL A   1      30.936  28.699  24.530  1.00  0.00     0.002 C 
BRANCH  73  74
ATOM     74  C   UNL A   1      30.169  27.872  23.492  1.00  0.00     0.021 C 
BRANCH  74  75
ATOM     75  C   UNL A   1      30.205  26.358  23.674  1.00  0.00     0.116 C 
BRANCH  75  76
ATOM     76  N   UNL A   1      29.412  25.889  24.793  1.00  0.00    -0.350 N 
ATOM     77  C   UNL A   1      29.845  25.384  25.991  1.00  0.00     0.294 C 
ATOM     78  H   UNL A   1      28.435  25.939  24.677  1.00  0.00     0.163 HD
ATOM     79  O   UNL A   1      28.990  25.203  26.867  1.00  0.00    -0.267 OA
BRANCH  77  80
ATOM     80  C   UNL A   1      31.344  25.083  26.264  1.00  0.00     0.440 C 
ATOM     81  F   UNL A   1      32.103  26.192  26.510  1.00  0.00    -0.191 F 
BRANCH  80  82
ATOM     82  O   UNL A   1      31.619  24.087  27.251  1.00  0.00    -0.452 OA
BRANCH  82  83
ATOM     83  C   UNL A   1      32.330  23.034  26.750  1.00  0.00     0.125 A 
ATOM     84  C   UNL A   1      33.370  22.502  27.514  1.00  0.00     0.050 A 
ATOM     85  C   UNL A   1      31.984  22.470  25.521  1.00  0.00     0.070 A 
ATOM     86  C   UNL A   1      34.131  21.452  26.998  1.00  0.00     0.044 A 
ATOM     87  C   UNL A   1      32.746  21.420  25.011  1.00  0.00     0.080 A 
ATOM     88  C   UNL A   1      33.824  20.928  25.744  1.00  0.00     0.142 A 
ATOM     89  Cl  UNL A   1      32.365  20.779  23.462  1.00  0.00    -0.081 Cl
ATOM     90  F   UNL A   1      34.613  19.966  25.243  1.00  0.00    -0.205 F 
ENDBRANCH  82  83
ENDBRANCH  80  82
ENDBRANCH  77  80
ENDBRANCH  75  76
ENDBRANCH  74  75
ENDBRANCH  73  74
ENDBRANCH   1  73
TORSDOF 18
ENDMDL
