MODEL 1
REMARK VINA RESULT:     -11.9      0.000      0.000
REMARK SMILES C[N@H+]1[C@H]2CC[C@@H]1[C@@H](C(=O)NCCCCCCNC(=O)c1ccc(-c3c4nc(c(-c5cc(S(=O)(=O)[O-])ccc5F)c5ccc([nH]5)c(-c5cc(S(=O)(=O)[O-])ccc5F)c5nc(c(-c6cc(S(=O)(=O)[O-])ccc6F)c6ccc3[nH]6)C=C5)C=C4)cc1)[C@@H](OC(=O)c1ccccc1)C2
REMARK SMILES IDX 13 1 12 2 11 3 10 4 8 5 9 6 7 8 1 9 2 10 3 11 6 12 4 14
REMARK SMILES IDX 93 15 5 16 83 17 84 18 85 19 86 20 87 21 88 22 92 23 89 24
REMARK SMILES IDX 91 25 90 26 14 27 15 28 16 29 17 30 18 31 19 33 20 34 21 35
REMARK SMILES IDX 82 36 22 37 81 38 23 39 24 40 25 41 75 42 26 43 80 44 74 45
REMARK SMILES IDX 76 46 27 47 79 48 73 49 72 50 28 52 60 53 40 54 59 55 41 56
REMARK SMILES IDX 44 57 58 58 77 59 42 60 43 61 57 63 78 64 45 65 29 66 30 67
REMARK SMILES IDX 38 68 31 69 37 70 39 71 36 72 32 73 33 74 34 75 35 76 61 77
REMARK SMILES IDX 62 78 70 79 63 80 69 81 71 82 68 83 64 84 65 85 66 86 67 87
REMARK SMILES IDX 46 88 47 89 55 90 48 91 54 92 56 93 53 94 49 95 50 96 51 97
REMARK SMILES IDX 52 98
REMARK H PARENT 10 7 2 13 17 32 76 51 44 62
REMARK Flexibility Score: inf
ROOT
ATOM      1  C   UNL A   1      37.448  22.912  25.050  1.00  0.00     0.002 C 
ENDROOT
BRANCH   1   2
ATOM      2  C   UNL A   1      36.492  23.510  26.072  1.00  0.00     0.021 C 
BRANCH   2   3
ATOM      3  C   UNL A   1      35.385  22.586  26.554  1.00  0.00     0.116 C 
BRANCH   3   4
ATOM      4  N   UNL A   1      34.158  23.252  26.946  1.00  0.00    -0.356 N 
ATOM      5  C   UNL A   1      33.163  23.832  26.219  1.00  0.00     0.232 C 
ATOM      6  O   UNL A   1      32.120  24.075  26.846  1.00  0.00    -0.274 OA
ATOM      7  H   UNL A   1      34.017  23.293  27.921  1.00  0.00     0.163 HD
BRANCH   5   8
ATOM      8  C   UNL A   1      33.222  24.224  24.727  1.00  0.00     0.177 C 
ATOM      9  C   UNL A   1      30.419  26.591  24.819  1.00  0.00     0.333 C 
ATOM     10  N   UNL A   1      31.166  25.405  24.447  1.00  0.00    -0.332 N 
ATOM     11  C   UNL A   1      30.830  24.760  23.172  1.00  0.00     0.188 C 
ATOM     12  C   UNL A   1      32.608  25.596  24.398  1.00  0.00     0.200 C 
ATOM     13  H   UNL A   1      30.872  24.799  25.214  1.00  0.00     0.348 HD
ATOM     14  C   UNL A   1      31.601  25.597  22.166  1.00  0.00     0.071 C 
ATOM     15  C   UNL A   1      31.334  23.281  23.218  1.00  0.00     0.111 C 
ATOM     16  C   UNL A   1      32.849  26.038  22.936  1.00  0.00     0.072 C 
ATOM     17  C   UNL A   1      32.790  23.129  23.733  1.00  0.00     0.201 C 
BRANCH  17  18
ATOM     18  O   UNL A   1      33.314  21.848  24.193  1.00  0.00    -0.457 OA
BRANCH  18  19
ATOM     19  C   UNL A   1      32.537  20.837  24.623  1.00  0.00     0.338 C 
ATOM     20  O   UNL A   1      31.549  20.928  25.340  1.00  0.00    -0.246 OA
BRANCH  19  21
ATOM     21  C   UNL A   1      33.062  19.513  24.184  1.00  0.00     0.060 A 
ATOM     22  C   UNL A   1      32.353  18.837  23.177  1.00  0.00     0.015 A 
ATOM     23  C   UNL A   1      34.230  18.935  24.697  1.00  0.00     0.015 A 
ATOM     24  C   UNL A   1      32.812  17.620  22.670  1.00  0.00     0.001 A 
ATOM     25  C   UNL A   1      34.696  17.719  24.175  1.00  0.00     0.001 A 
ATOM     26  C   UNL A   1      33.991  17.068  23.160  1.00  0.00     0.000 A 
ENDBRANCH  19  21
ENDBRANCH  18  19
ENDBRANCH  17  18
ENDBRANCH   5   8
ENDBRANCH   3   4
ENDBRANCH   2   3
ENDBRANCH   1   2
BRANCH   1  27
ATOM     27  C   UNL A   1      37.057  21.534  24.510  1.00  0.00     0.002 C 
BRANCH  27  28
ATOM     28  C   UNL A   1      37.916  20.357  24.982  1.00  0.00     0.021 C 
BRANCH  28  29
ATOM     29  C   UNL A   1      39.163  20.738  25.775  1.00  0.00     0.116 C 
BRANCH  29  30
ATOM     30  N   UNL A   1      40.066  19.611  25.942  1.00  0.00    -0.352 N 
ATOM     31  C   UNL A   1      41.426  19.629  26.123  1.00  0.00     0.251 C 
ATOM     32  H   UNL A   1      39.649  18.720  25.921  1.00  0.00     0.163 HD
ATOM     33  O   UNL A   1      42.083  18.599  26.032  1.00  0.00    -0.269 OA
BRANCH  31  34
ATOM     34  C   UNL A   1      42.080  20.920  26.416  1.00  0.00     0.039 A 
ATOM     35  C   UNL A   1      42.367  21.797  25.370  1.00  0.00     0.014 A 
ATOM     36  C   UNL A   1      42.365  21.266  27.740  1.00  0.00     0.014 A 
ATOM     37  C   UNL A   1      42.898  23.058  25.658  1.00  0.00     0.010 A 
ATOM     38  C   UNL A   1      42.833  22.543  28.027  1.00  0.00     0.010 A 
ATOM     39  C   UNL A   1      43.109  23.449  26.990  1.00  0.00    -0.014 A 
BRANCH  39  40
ATOM     40  C   UNL A   1      43.657  24.784  27.340  1.00  0.00     0.031 A 
ATOM     41  C   UNL A   1      42.724  25.834  27.879  1.00  0.00     0.074 A 
ATOM     42  C   UNL A   1      44.950  25.075  27.101  1.00  0.00     0.049 A 
ATOM     43  N   UNL A   1      42.931  27.112  28.063  1.00  0.00    -0.248 NA
ATOM     44  C   UNL A   1      41.365  25.387  28.225  1.00  0.00     0.031 C 
ATOM     45  C   UNL A   1      45.948  24.138  26.581  1.00  0.00     0.029 A 
ATOM     46  N   UNL A   1      45.645  26.252  27.241  1.00  0.00    -0.354 N 
ATOM     47  C   UNL A   1      41.729  27.623  28.539  1.00  0.00     0.074 A 
ATOM     48  C   UNL A   1      40.781  26.530  28.552  1.00  0.00     0.031 C 
ATOM     49  C   UNL A   1      47.122  24.774  26.448  1.00  0.00     0.029 A 
ATOM     50  C   UNL A   1      46.952  26.178  26.813  1.00  0.00     0.049 A 
ATOM     51  H   UNL A   1      45.245  27.072  27.611  1.00  0.00     0.167 HD
ATOM     52  C   UNL A   1      41.450  28.884  28.950  1.00  0.00     0.034 A 
ATOM     53  C   UNL A   1      47.891  27.140  26.697  1.00  0.00     0.034 A 
ATOM     54  C   UNL A   1      42.409  29.958  28.935  1.00  0.00     0.049 A 
ATOM     55  C   UNL A   1      47.535  28.555  27.095  1.00  0.00     0.074 A 
ATOM     56  C   UNL A   1      42.236  31.274  29.328  1.00  0.00     0.029 A 
ATOM     57  N   UNL A   1      43.725  29.839  28.508  1.00  0.00    -0.354 N 
ATOM     58  N   UNL A   1      46.392  29.022  27.544  1.00  0.00    -0.248 NA
ATOM     59  C   UNL A   1      48.591  29.570  26.982  1.00  0.00     0.031 C 
ATOM     60  C   UNL A   1      43.428  31.962  29.086  1.00  0.00     0.029 A 
ATOM     61  C   UNL A   1      44.369  31.060  28.619  1.00  0.00     0.049 A 
ATOM     62  H   UNL A   1      44.139  29.009  28.177  1.00  0.00     0.167 HD
ATOM     63  C   UNL A   1      46.614  30.371  27.815  1.00  0.00     0.074 A 
ATOM     64  C   UNL A   1      47.994  30.643  27.479  1.00  0.00     0.031 C 
ATOM     65  C   UNL A   1      45.757  31.300  28.308  1.00  0.00     0.034 A 
BRANCH  52  66
ATOM     66  C   UNL A   1      40.052  29.164  29.438  1.00  0.00     0.023 A 
ATOM     67  C   UNL A   1      39.767  29.285  30.809  1.00  0.00     0.031 A 
ATOM     68  C   UNL A   1      38.989  29.310  28.529  1.00  0.00     0.131 A 
ATOM     69  C   UNL A   1      38.445  29.480  31.235  1.00  0.00     0.055 A 
ATOM     70  C   UNL A   1      37.689  29.585  28.956  1.00  0.00     0.041 A 
ATOM     71  F   UNL A   1      39.197  29.184  27.208  1.00  0.00    -0.206 F 
ATOM     72  C   UNL A   1      37.408  29.660  30.317  1.00  0.00     0.022 A 
BRANCH  69  73
ATOM     73  S   UNL A   1      38.085  29.374  33.009  1.00  0.00     0.124 S 
ATOM     74  O   UNL A   1      39.427  29.418  33.585  1.00  0.00    -0.237 OA
ATOM     75  O   UNL A   1      37.254  30.550  33.234  1.00  0.00    -0.237 OA
ATOM     76  O   UNL A   1      37.398  28.090  33.142  1.00  0.00    -0.744 OA
ENDBRANCH  69  73
ENDBRANCH  52  66
BRANCH  53  77
ATOM     77  C   UNL A   1      49.247  26.828  26.153  1.00  0.00     0.023 A 
ATOM     78  C   UNL A   1      50.328  26.582  27.014  1.00  0.00     0.031 A 
ATOM     79  C   UNL A   1      49.504  26.857  24.770  1.00  0.00     0.131 A 
ATOM     80  C   UNL A   1      51.625  26.457  26.493  1.00  0.00     0.055 A 
ATOM     81  C   UNL A   1      50.785  26.658  24.252  1.00  0.00     0.041 A 
ATOM     82  F   UNL A   1      48.510  27.088  23.897  1.00  0.00    -0.206 F 
ATOM     83  C   UNL A   1      51.859  26.477  25.116  1.00  0.00     0.022 A 
BRANCH  80  84
ATOM     84  S   UNL A   1      53.022  26.417  27.650  1.00  0.00     0.124 S 
ATOM     85  O   UNL A   1      53.773  25.265  27.164  1.00  0.00    -0.237 OA
ATOM     86  O   UNL A   1      53.634  27.723  27.428  1.00  0.00    -0.237 OA
ATOM     87  O   UNL A   1      52.380  26.241  28.950  1.00  0.00    -0.744 OA
ENDBRANCH  80  84
ENDBRANCH  53  77
BRANCH  65  88
ATOM     88  C   UNL A   1      46.309  32.671  28.608  1.00  0.00     0.023 A 
ATOM     89  C   UNL A   1      46.236  33.726  27.684  1.00  0.00     0.031 A 
ATOM     90  C   UNL A   1      46.875  32.927  29.870  1.00  0.00     0.131 A 
ATOM     91  C   UNL A   1      46.751  34.986  28.027  1.00  0.00     0.055 A 
ATOM     92  C   UNL A   1      47.336  34.193  30.224  1.00  0.00     0.041 A 
ATOM     93  F   UNL A   1      46.967  31.951  30.788  1.00  0.00    -0.206 F 
ATOM     94  C   UNL A   1      47.282  35.230  29.298  1.00  0.00     0.022 A 
BRANCH  91  95
ATOM     95  S   UNL A   1      46.760  36.297  26.776  1.00  0.00     0.124 S 
ATOM     96  O   UNL A   1      45.524  37.012  27.076  1.00  0.00    -0.237 OA
ATOM     97  O   UNL A   1      47.997  37.010  27.076  1.00  0.00    -0.237 OA
ATOM     98  O   UNL A   1      46.761  35.565  25.510  1.00  0.00    -0.744 OA
ENDBRANCH  91  95
ENDBRANCH  65  88
ENDBRANCH  39  40
ENDBRANCH  31  34
ENDBRANCH  29  30
ENDBRANCH  28  29
ENDBRANCH  27  28
ENDBRANCH   1  27
TORSDOF 19
ENDMDL
MODEL 2
REMARK VINA RESULT:     -11.8      3.338      8.598
REMARK SMILES C[N@H+]1[C@H]2CC[C@@H]1[C@@H](C(=O)NCCCCCCNC(=O)c1ccc(-c3c4nc(c(-c5cc(S(=O)(=O)[O-])ccc5F)c5ccc([nH]5)c(-c5cc(S(=O)(=O)[O-])ccc5F)c5nc(c(-c6cc(S(=O)(=O)[O-])ccc6F)c6ccc3[nH]6)C=C5)C=C4)cc1)[C@@H](OC(=O)c1ccccc1)C2
REMARK SMILES IDX 13 1 12 2 11 3 10 4 8 5 9 6 7 8 1 9 2 10 3 11 6 12 4 14
REMARK SMILES IDX 93 15 5 16 83 17 84 18 85 19 86 20 87 21 88 22 92 23 89 24
REMARK SMILES IDX 91 25 90 26 14 27 15 28 16 29 17 30 18 31 19 33 20 34 21 35
REMARK SMILES IDX 82 36 22 37 81 38 23 39 24 40 25 41 75 42 26 43 80 44 74 45
REMARK SMILES IDX 76 46 27 47 79 48 73 49 72 50 28 52 60 53 40 54 59 55 41 56
REMARK SMILES IDX 44 57 58 58 77 59 42 60 43 61 57 63 78 64 45 65 29 66 30 67
REMARK SMILES IDX 38 68 31 69 37 70 39 71 36 72 32 73 33 74 34 75 35 76 61 77
REMARK SMILES IDX 62 78 70 79 63 80 69 81 71 82 68 83 64 84 65 85 66 86 67 87
REMARK SMILES IDX 46 88 47 89 55 90 48 91 54 92 56 93 53 94 49 95 50 96 51 97
REMARK SMILES IDX 52 98
REMARK H PARENT 10 7 2 13 17 32 76 51 44 62
REMARK Flexibility Score: inf
ROOT
ATOM      1  C   UNL A   1      34.119  23.772  22.785  1.00  0.00     0.002 C 
ENDROOT
BRANCH   1   2
ATOM      2  C   UNL A   1      32.635  24.112  22.788  1.00  0.00     0.021 C 
BRANCH   2   3
ATOM      3  C   UNL A   1      32.302  25.592  22.885  1.00  0.00     0.116 C 
BRANCH   3   4
ATOM      4  N   UNL A   1      30.889  25.896  23.002  1.00  0.00    -0.356 N 
ATOM      5  C   UNL A   1      30.173  26.545  23.962  1.00  0.00     0.232 C 
ATOM      6  O   UNL A   1      29.022  26.875  23.633  1.00  0.00    -0.274 OA
ATOM      7  H   UNL A   1      30.345  25.575  22.246  1.00  0.00     0.163 HD
BRANCH   5   8
ATOM      8  C   UNL A   1      30.644  26.879  25.393  1.00  0.00     0.177 C 
ATOM      9  C   UNL A   1      33.199  29.327  24.417  1.00  0.00     0.333 C 
ATOM     10  N   UNL A   1      32.649  28.106  24.977  1.00  0.00    -0.332 N 
ATOM     11  C   UNL A   1      33.426  27.425  26.018  1.00  0.00     0.188 C 
ATOM     12  C   UNL A   1      31.317  28.254  25.544  1.00  0.00     0.200 C 
ATOM     13  H   UNL A   1      32.658  27.539  24.128  1.00  0.00     0.348 HD
ATOM     14  C   UNL A   1      33.053  28.201  27.269  1.00  0.00     0.071 C 
ATOM     15  C   UNL A   1      32.958  25.935  26.088  1.00  0.00     0.111 C 
ATOM     16  C   UNL A   1      31.607  28.635  27.014  1.00  0.00     0.072 C 
ATOM     17  C   UNL A   1      31.417  25.761  26.118  1.00  0.00     0.201 C 
BRANCH  17  18
ATOM     18  O   UNL A   1      30.780  24.483  25.818  1.00  0.00    -0.457 OA
BRANCH  18  19
ATOM     19  C   UNL A   1      30.743  23.449  26.678  1.00  0.00     0.338 C 
ATOM     20  O   UNL A   1      29.924  23.270  27.571  1.00  0.00    -0.246 OA
BRANCH  19  21
ATOM     21  C   UNL A   1      31.897  22.526  26.483  1.00  0.00     0.060 A 
ATOM     22  C   UNL A   1      31.883  21.705  25.344  1.00  0.00     0.015 A 
ATOM     23  C   UNL A   1      32.994  22.466  27.351  1.00  0.00     0.015 A 
ATOM     24  C   UNL A   1      32.953  20.855  25.059  1.00  0.00     0.001 A 
ATOM     25  C   UNL A   1      34.075  21.622  27.054  1.00  0.00     0.001 A 
ATOM     26  C   UNL A   1      34.056  20.824  25.907  1.00  0.00     0.000 A 
ENDBRANCH  19  21
ENDBRANCH  18  19
ENDBRANCH  17  18
ENDBRANCH   5   8
ENDBRANCH   3   4
ENDBRANCH   2   3
ENDBRANCH   1   2
BRANCH   1  27
ATOM     27  C   UNL A   1      34.868  24.080  24.084  1.00  0.00     0.002 C 
BRANCH  27  28
ATOM     28  C   UNL A   1      36.166  23.301  24.313  1.00  0.00     0.021 C 
BRANCH  28  29
ATOM     29  C   UNL A   1      36.882  23.597  25.627  1.00  0.00     0.116 C 
BRANCH  29  30
ATOM     30  N   UNL A   1      37.785  22.524  26.009  1.00  0.00    -0.352 N 
ATOM     31  C   UNL A   1      39.071  22.619  26.479  1.00  0.00     0.251 C 
ATOM     32  H   UNL A   1      37.428  21.611  25.919  1.00  0.00     0.163 HD
ATOM     33  O   UNL A   1      39.783  21.625  26.554  1.00  0.00    -0.269 OA
BRANCH  31  34
ATOM     34  C   UNL A   1      39.578  23.946  26.877  1.00  0.00     0.039 A 
ATOM     35  C   UNL A   1      40.109  24.798  25.908  1.00  0.00     0.014 A 
ATOM     36  C   UNL A   1      39.482  24.352  28.212  1.00  0.00     0.014 A 
ATOM     37  C   UNL A   1      40.500  26.090  26.270  1.00  0.00     0.010 A 
ATOM     38  C   UNL A   1      39.814  25.657  28.555  1.00  0.00     0.010 A 
ATOM     39  C   UNL A   1      40.330  26.537  27.590  1.00  0.00    -0.014 A 
BRANCH  39  40
ATOM     40  C   UNL A   1      40.718  27.907  28.013  1.00  0.00     0.031 A 
ATOM     41  C   UNL A   1      42.179  28.255  28.099  1.00  0.00     0.074 A 
ATOM     42  C   UNL A   1      39.779  28.795  28.394  1.00  0.00     0.049 A 
ATOM     43  N   UNL A   1      42.752  29.304  28.626  1.00  0.00    -0.248 NA
ATOM     44  C   UNL A   1      43.120  27.269  27.543  1.00  0.00     0.031 C 
ATOM     45  C   UNL A   1      38.333  28.569  28.354  1.00  0.00     0.029 A 
ATOM     46  N   UNL A   1      39.902  30.060  28.914  1.00  0.00    -0.354 N 
ATOM     47  C   UNL A   1      44.119  29.103  28.473  1.00  0.00     0.074 A 
ATOM     48  C   UNL A   1      44.289  27.803  27.863  1.00  0.00     0.031 C 
ATOM     49  C   UNL A   1      37.705  29.658  28.826  1.00  0.00     0.029 A 
ATOM     50  C   UNL A   1      38.699  30.636  29.261  1.00  0.00     0.049 A 
ATOM     51  H   UNL A   1      40.768  30.513  29.029  1.00  0.00     0.167 HD
ATOM     52  C   UNL A   1      45.138  29.939  28.791  1.00  0.00     0.034 A 
ATOM     53  C   UNL A   1      38.435  31.800  29.888  1.00  0.00     0.034 A 
ATOM     54  C   UNL A   1      44.948  31.234  29.392  1.00  0.00     0.049 A 
ATOM     55  C   UNL A   1      39.591  32.685  30.297  1.00  0.00     0.074 A 
ATOM     56  C   UNL A   1      45.907  32.164  29.756  1.00  0.00     0.029 A 
ATOM     57  N   UNL A   1      43.716  31.785  29.714  1.00  0.00    -0.354 N 
ATOM     58  N   UNL A   1      40.880  32.480  30.145  1.00  0.00    -0.248 NA
ATOM     59  C   UNL A   1      39.263  33.959  30.952  1.00  0.00     0.031 C 
ATOM     60  C   UNL A   1      45.258  33.251  30.349  1.00  0.00     0.029 A 
ATOM     61  C   UNL A   1      43.891  33.036  30.282  1.00  0.00     0.049 A 
ATOM     62  H   UNL A   1      42.845  31.351  29.561  1.00  0.00     0.167 HD
ATOM     63  C   UNL A   1      41.507  33.623  30.636  1.00  0.00     0.074 A 
ATOM     64  C   UNL A   1      40.459  34.511  31.091  1.00  0.00     0.031 C 
ATOM     65  C   UNL A   1      42.829  33.918  30.698  1.00  0.00     0.034 A 
BRANCH  52  66
ATOM     66  C   UNL A   1      46.540  29.469  28.501  1.00  0.00     0.023 A 
ATOM     67  C   UNL A   1      47.247  28.672  29.418  1.00  0.00     0.031 A 
ATOM     68  C   UNL A   1      47.182  29.819  27.301  1.00  0.00     0.131 A 
ATOM     69  C   UNL A   1      48.574  28.305  29.150  1.00  0.00     0.055 A 
ATOM     70  C   UNL A   1      48.474  29.383  27.004  1.00  0.00     0.041 A 
ATOM     71  F   UNL A   1      46.565  30.596  26.396  1.00  0.00    -0.206 F 
ATOM     72  C   UNL A   1      49.184  28.631  27.936  1.00  0.00     0.022 A 
BRANCH  69  73
ATOM     73  S   UNL A   1      49.530  27.500  30.463  1.00  0.00     0.124 S 
ATOM     74  O   UNL A   1      48.527  27.367  31.518  1.00  0.00    -0.237 OA
ATOM     75  O   UNL A   1      49.958  26.259  29.829  1.00  0.00    -0.237 OA
ATOM     76  O   UNL A   1      50.598  28.458  30.745  1.00  0.00    -0.744 OA
ENDBRANCH  69  73
ENDBRANCH  52  66
BRANCH  53  77
ATOM     77  C   UNL A   1      37.031  32.199  30.207  1.00  0.00     0.023 A 
ATOM     78  C   UNL A   1      36.243  32.876  29.263  1.00  0.00     0.031 A 
ATOM     79  C   UNL A   1      36.485  31.989  31.487  1.00  0.00     0.131 A 
ATOM     80  C   UNL A   1      34.990  33.389  29.634  1.00  0.00     0.055 A 
ATOM     81  C   UNL A   1      35.207  32.438  31.828  1.00  0.00     0.041 A 
ATOM     82  F   UNL A   1      37.191  31.348  32.432  1.00  0.00    -0.206 F 
ATOM     83  C   UNL A   1      34.460  33.161  30.906  1.00  0.00     0.022 A 
BRANCH  80  84
ATOM     84  S   UNL A   1      34.129  34.488  28.475  1.00  0.00     0.124 S 
ATOM     85  O   UNL A   1      34.089  35.736  29.230  1.00  0.00    -0.237 OA
ATOM     86  O   UNL A   1      35.019  34.464  27.320  1.00  0.00    -0.237 OA
ATOM     87  O   UNL A   1      32.837  33.833  28.283  1.00  0.00    -0.744 OA
ENDBRANCH  80  84
ENDBRANCH  53  77
BRANCH  65  88
ATOM     88  C   UNL A   1      43.217  35.292  31.183  1.00  0.00     0.023 A 
ATOM     89  C   UNL A   1      43.456  36.358  30.299  1.00  0.00     0.031 A 
ATOM     90  C   UNL A   1      43.300  35.541  32.565  1.00  0.00     0.131 A 
ATOM     91  C   UNL A   1      43.796  37.620  30.810  1.00  0.00     0.055 A 
ATOM     92  C   UNL A   1      43.586  36.809  33.067  1.00  0.00     0.041 A 
ATOM     93  F   UNL A   1      43.080  34.555  33.449  1.00  0.00    -0.206 F 
ATOM     94  C   UNL A   1      43.843  37.856  32.187  1.00  0.00     0.022 A 
BRANCH  91  95
ATOM     95  S   UNL A   1      44.221  38.947  29.650  1.00  0.00     0.124 S 
ATOM     96  O   UNL A   1      43.395  38.616  28.494  1.00  0.00    -0.237 OA
ATOM     97  O   UNL A   1      43.833  40.145  30.387  1.00  0.00    -0.237 OA
ATOM     98  O   UNL A   1      45.661  38.783  29.452  1.00  0.00    -0.744 OA
ENDBRANCH  91  95
ENDBRANCH  65  88
ENDBRANCH  39  40
ENDBRANCH  31  34
ENDBRANCH  29  30
ENDBRANCH  28  29
ENDBRANCH  27  28
ENDBRANCH   1  27
TORSDOF 19
ENDMDL
MODEL 3
REMARK VINA RESULT:     -11.7      1.387      1.736
REMARK SMILES C[N@H+]1[C@H]2CC[C@@H]1[C@@H](C(=O)NCCCCCCNC(=O)c1ccc(-c3c4nc(c(-c5cc(S(=O)(=O)[O-])ccc5F)c5ccc([nH]5)c(-c5cc(S(=O)(=O)[O-])ccc5F)c5nc(c(-c6cc(S(=O)(=O)[O-])ccc6F)c6ccc3[nH]6)C=C5)C=C4)cc1)[C@@H](OC(=O)c1ccccc1)C2
REMARK SMILES IDX 13 1 12 2 11 3 10 4 8 5 9 6 7 8 1 9 2 10 3 11 6 12 4 14
REMARK SMILES IDX 93 15 5 16 83 17 84 18 85 19 86 20 87 21 88 22 92 23 89 24
REMARK SMILES IDX 91 25 90 26 14 27 15 28 16 29 17 30 18 31 19 33 20 34 21 35
REMARK SMILES IDX 82 36 22 37 81 38 23 39 24 40 25 41 75 42 26 43 80 44 74 45
REMARK SMILES IDX 76 46 27 47 79 48 73 49 72 50 28 52 60 53 40 54 59 55 41 56
REMARK SMILES IDX 44 57 58 58 77 59 42 60 43 61 57 63 78 64 45 65 29 66 30 67
REMARK SMILES IDX 38 68 31 69 37 70 39 71 36 72 32 73 33 74 34 75 35 76 61 77
REMARK SMILES IDX 62 78 70 79 63 80 69 81 71 82 68 83 64 84 65 85 66 86 67 87
REMARK SMILES IDX 46 88 47 89 55 90 48 91 54 92 56 93 53 94 49 95 50 96 51 97
REMARK SMILES IDX 52 98
REMARK H PARENT 10 7 2 13 17 32 76 51 44 62
REMARK Flexibility Score: inf
ROOT
ATOM      1  C   UNL A   1      35.745  21.187  25.383  1.00  0.00     0.002 C 
ENDROOT
BRANCH   1   2
ATOM      2  C   UNL A   1      35.117  22.036  26.479  1.00  0.00     0.021 C 
BRANCH   2   3
ATOM      3  C   UNL A   1      34.035  21.352  27.300  1.00  0.00     0.116 C 
BRANCH   3   4
ATOM      4  N   UNL A   1      32.883  22.178  27.607  1.00  0.00    -0.356 N 
ATOM      5  C   UNL A   1      32.202  23.100  26.872  1.00  0.00     0.232 C 
ATOM      6  O   UNL A   1      31.098  23.434  27.332  1.00  0.00    -0.274 OA
ATOM      7  H   UNL A   1      32.527  22.048  28.516  1.00  0.00     0.163 HD
BRANCH   5   8
ATOM      8  C   UNL A   1      32.676  23.766  25.563  1.00  0.00     0.177 C 
ATOM      9  C   UNL A   1      30.946  26.961  26.086  1.00  0.00     0.333 C 
ATOM     10  N   UNL A   1      31.272  25.695  25.457  1.00  0.00    -0.332 N 
ATOM     11  C   UNL A   1      30.972  25.547  24.028  1.00  0.00     0.188 C 
ATOM     12  C   UNL A   1      32.669  25.304  25.585  1.00  0.00     0.200 C 
ATOM     13  H   UNL A   1      30.643  25.097  25.994  1.00  0.00     0.348 HD
ATOM     14  C   UNL A   1      32.166  26.216  23.370  1.00  0.00     0.071 C 
ATOM     15  C   UNL A   1      30.893  24.022  23.695  1.00  0.00     0.111 C 
ATOM     16  C   UNL A   1      33.321  25.936  24.334  1.00  0.00     0.072 C 
ATOM     17  C   UNL A   1      32.072  23.192  24.267  1.00  0.00     0.201 C 
BRANCH  17  18
ATOM     18  O   UNL A   1      32.005  21.740  24.387  1.00  0.00    -0.457 OA
BRANCH  18  19
ATOM     19  C   UNL A   1      32.180  20.898  23.351  1.00  0.00     0.338 C 
ATOM     20  O   UNL A   1      32.027  21.157  22.165  1.00  0.00    -0.246 OA
BRANCH  19  21
ATOM     21  C   UNL A   1      32.524  19.522  23.811  1.00  0.00     0.060 A 
ATOM     22  C   UNL A   1      32.519  19.282  25.194  1.00  0.00     0.015 A 
ATOM     23  C   UNL A   1      32.817  18.466  22.939  1.00  0.00     0.015 A 
ATOM     24  C   UNL A   1      32.774  18.006  25.702  1.00  0.00     0.001 A 
ATOM     25  C   UNL A   1      33.058  17.183  23.451  1.00  0.00     0.001 A 
ATOM     26  C   UNL A   1      33.030  16.954  24.829  1.00  0.00     0.000 A 
ENDBRANCH  19  21
ENDBRANCH  18  19
ENDBRANCH  17  18
ENDBRANCH   5   8
ENDBRANCH   3   4
ENDBRANCH   2   3
ENDBRANCH   1   2
BRANCH   1  27
ATOM     27  C   UNL A   1      37.187  21.548  25.015  1.00  0.00     0.002 C 
BRANCH  27  28
ATOM     28  C   UNL A   1      38.205  20.406  25.086  1.00  0.00     0.021 C 
BRANCH  28  29
ATOM     29  C   UNL A   1      39.358  20.620  26.062  1.00  0.00     0.116 C 
BRANCH  29  30
ATOM     30  N   UNL A   1      40.316  19.527  26.021  1.00  0.00    -0.352 N 
ATOM     31  C   UNL A   1      41.686  19.594  26.052  1.00  0.00     0.251 C 
ATOM     32  H   UNL A   1      39.932  18.622  25.961  1.00  0.00     0.163 HD
ATOM     33  O   UNL A   1      42.366  18.607  25.793  1.00  0.00    -0.269 OA
BRANCH  31  34
ATOM     34  C   UNL A   1      42.321  20.882  26.392  1.00  0.00     0.039 A 
ATOM     35  C   UNL A   1      42.664  21.769  25.372  1.00  0.00     0.014 A 
ATOM     36  C   UNL A   1      42.531  21.216  27.734  1.00  0.00     0.014 A 
ATOM     37  C   UNL A   1      43.177  23.027  25.701  1.00  0.00     0.010 A 
ATOM     38  C   UNL A   1      42.981  22.491  28.057  1.00  0.00     0.010 A 
ATOM     39  C   UNL A   1      43.313  23.407  27.045  1.00  0.00    -0.014 A 
BRANCH  39  40
ATOM     40  C   UNL A   1      43.838  24.739  27.438  1.00  0.00     0.031 A 
ATOM     41  C   UNL A   1      42.873  25.793  27.905  1.00  0.00     0.074 A 
ATOM     42  C   UNL A   1      45.147  25.024  27.297  1.00  0.00     0.049 A 
ATOM     43  N   UNL A   1      43.070  27.069  28.107  1.00  0.00    -0.248 NA
ATOM     44  C   UNL A   1      41.489  25.352  28.148  1.00  0.00     0.031 C 
ATOM     45  C   UNL A   1      46.177  24.083  26.852  1.00  0.00     0.029 A 
ATOM     46  N   UNL A   1      45.834  26.198  27.490  1.00  0.00    -0.354 N 
ATOM     47  C   UNL A   1      41.838  27.585  28.491  1.00  0.00     0.074 A 
ATOM     48  C   UNL A   1      40.887  26.496  28.432  1.00  0.00     0.031 C 
ATOM     49  C   UNL A   1      47.361  24.714  26.809  1.00  0.00     0.029 A 
ATOM     50  C   UNL A   1      47.170  26.119  27.161  1.00  0.00     0.049 A 
ATOM     51  H   UNL A   1      45.412  27.019  27.830  1.00  0.00     0.167 HD
ATOM     52  C   UNL A   1      41.534  28.847  28.881  1.00  0.00     0.034 A 
ATOM     53  C   UNL A   1      48.119  27.077  27.117  1.00  0.00     0.034 A 
ATOM     54  C   UNL A   1      42.497  29.917  28.939  1.00  0.00     0.049 A 
ATOM     55  C   UNL A   1      47.740  28.493  27.490  1.00  0.00     0.074 A 
ATOM     56  C   UNL A   1      42.300  31.233  29.320  1.00  0.00     0.029 A 
ATOM     57  N   UNL A   1      43.840  29.793  28.613  1.00  0.00    -0.354 N 
ATOM     58  N   UNL A   1      46.569  28.965  27.852  1.00  0.00    -0.248 NA
ATOM     59  C   UNL A   1      48.806  29.503  27.457  1.00  0.00     0.031 C 
ATOM     60  C   UNL A   1      43.510  31.916  29.169  1.00  0.00     0.029 A 
ATOM     61  C   UNL A   1      44.480  31.011  28.773  1.00  0.00     0.049 A 
ATOM     62  H   UNL A   1      44.275  28.961  28.313  1.00  0.00     0.167 HD
ATOM     63  C   UNL A   1      46.775  30.313  28.140  1.00  0.00     0.074 A 
ATOM     64  C   UNL A   1      48.178  30.578  27.909  1.00  0.00     0.031 C 
ATOM     65  C   UNL A   1      45.888  31.245  28.568  1.00  0.00     0.034 A 
BRANCH  52  66
ATOM     66  C   UNL A   1      40.104  29.133  29.262  1.00  0.00     0.023 A 
ATOM     67  C   UNL A   1      39.706  29.195  30.609  1.00  0.00     0.031 A 
ATOM     68  C   UNL A   1      39.126  29.344  28.276  1.00  0.00     0.131 A 
ATOM     69  C   UNL A   1      38.357  29.398  30.932  1.00  0.00     0.055 A 
ATOM     70  C   UNL A   1      37.799  29.625  28.605  1.00  0.00     0.041 A 
ATOM     71  F   UNL A   1      39.443  29.275  26.973  1.00  0.00    -0.206 F 
ATOM     72  C   UNL A   1      37.404  29.642  29.939  1.00  0.00     0.022 A 
BRANCH  69  73
ATOM     73  S   UNL A   1      37.845  29.216  32.661  1.00  0.00     0.124 S 
ATOM     74  O   UNL A   1      37.746  27.764  32.787  1.00  0.00    -0.237 OA
ATOM     75  O   UNL A   1      38.942  29.847  33.384  1.00  0.00    -0.237 OA
ATOM     76  O   UNL A   1      36.569  29.928  32.717  1.00  0.00    -0.744 OA
ENDBRANCH  69  73
ENDBRANCH  52  66
BRANCH  53  77
ATOM     77  C   UNL A   1      49.510  26.759  26.677  1.00  0.00     0.023 A 
ATOM     78  C   UNL A   1      49.992  27.207  25.437  1.00  0.00     0.031 A 
ATOM     79  C   UNL A   1      50.349  25.931  27.445  1.00  0.00     0.131 A 
ATOM     80  C   UNL A   1      51.237  26.762  24.965  1.00  0.00     0.055 A 
ATOM     81  C   UNL A   1      51.617  25.550  27.004  1.00  0.00     0.041 A 
ATOM     82  F   UNL A   1      49.943  25.471  28.639  1.00  0.00    -0.206 F 
ATOM     83  C   UNL A   1      52.060  25.948  25.747  1.00  0.00     0.022 A 
BRANCH  80  84
ATOM     84  S   UNL A   1      51.698  27.139  23.251  1.00  0.00     0.124 S 
ATOM     85  O   UNL A   1      52.753  26.161  23.009  1.00  0.00    -0.237 OA
ATOM     86  O   UNL A   1      50.441  26.917  22.546  1.00  0.00    -0.237 OA
ATOM     87  O   UNL A   1      52.140  28.530  23.318  1.00  0.00    -0.744 OA
ENDBRANCH  80  84
ENDBRANCH  53  77
BRANCH  65  88
ATOM     88  C   UNL A   1      46.422  32.613  28.911  1.00  0.00     0.023 A 
ATOM     89  C   UNL A   1      46.445  33.663  27.978  1.00  0.00     0.031 A 
ATOM     90  C   UNL A   1      46.870  32.872  30.218  1.00  0.00     0.131 A 
ATOM     91  C   UNL A   1      46.937  34.920  28.360  1.00  0.00     0.055 A 
ATOM     92  C   UNL A   1      47.307  34.137  30.607  1.00  0.00     0.041 A 
ATOM     93  F   UNL A   1      46.867  31.902  31.146  1.00  0.00    -0.206 F 
ATOM     94  C   UNL A   1      47.349  35.168  29.673  1.00  0.00     0.022 A 
BRANCH  91  95
ATOM     95  S   UNL A   1      47.073  36.223  27.107  1.00  0.00     0.124 S 
ATOM     96  O   UNL A   1      47.532  35.478  25.941  1.00  0.00    -0.237 OA
ATOM     97  O   UNL A   1      45.709  36.738  27.039  1.00  0.00    -0.237 OA
ATOM     98  O   UNL A   1      48.054  37.147  27.678  1.00  0.00    -0.744 OA
ENDBRANCH  91  95
ENDBRANCH  65  88
ENDBRANCH  39  40
ENDBRANCH  31  34
ENDBRANCH  29  30
ENDBRANCH  28  29
ENDBRANCH  27  28
ENDBRANCH   1  27
TORSDOF 19
ENDMDL
