MODEL 1
REMARK VINA RESULT:     -11.6      0.000      0.000
REMARK SMILES C[C@@H](C(=O)NCCCCCCNC(=O)c1ccc(-c2c3nc(c(-c4cc(S(=O)(=O)[O-])ccc4F)c4ccc([nH]4)c(-c4cc(S(=O)(=O)[O-])ccc4F)c4nc(c(-c5cc(S(=O)(=O)[O-])ccc5F)c5ccc2[nH]5)C=C4)C=C3)cc1)c1ccc(NC2CCCC2)cc1F
REMARK SMILES IDX 8 1 7 2 6 3 5 4 3 5 4 6 2 8 1 9 78 10 79 11 89 12 80 13
REMARK SMILES IDX 88 14 90 15 81 16 82 17 83 19 84 20 87 21 85 22 86 23 9 24
REMARK SMILES IDX 10 25 11 26 12 27 13 28 14 30 15 31 16 32 77 33 17 34 76 35
REMARK SMILES IDX 18 36 19 37 20 38 70 39 21 40 75 41 69 42 71 43 22 44 74 45
REMARK SMILES IDX 68 46 67 47 23 49 55 50 35 51 54 52 36 53 39 54 53 55 72 56
REMARK SMILES IDX 37 57 38 58 52 60 73 61 40 62 24 63 25 64 33 65 26 66 32 67
REMARK SMILES IDX 34 68 31 69 27 70 28 71 29 72 30 73 56 74 57 75 65 76 58 77
REMARK SMILES IDX 64 78 66 79 63 80 59 81 60 82 61 83 62 84 41 85 42 86 50 87
REMARK SMILES IDX 43 88 49 89 51 90 48 91 44 92 45 93 46 94 47 95
REMARK H PARENT 5 7 82 18 12 29 71 48 39 59
REMARK Flexibility Score: inf
ROOT
ATOM      1  C   UNL A   1      34.405  24.122  23.468  1.00  0.00     0.002 C 
ENDROOT
BRANCH   1   2
ATOM      2  C   UNL A   1      34.679  25.075  24.641  1.00  0.00     0.021 C 
BRANCH   2   3
ATOM      3  C   UNL A   1      33.907  26.394  24.565  1.00  0.00     0.116 C 
BRANCH   3   4
ATOM      4  N   UNL A   1      33.311  26.693  25.846  1.00  0.00    -0.356 N 
ATOM      5  C   UNL A   1      32.084  26.385  26.342  1.00  0.00     0.227 C 
ATOM      6  O   UNL A   1      31.798  26.906  27.424  1.00  0.00    -0.274 OA
ATOM      7  H   UNL A   1      33.887  27.206  26.459  1.00  0.00     0.163 HD
BRANCH   5   8
ATOM      8  C   UNL A   1      31.161  25.397  25.599  1.00  0.00     0.108 C 
ATOM      9  C   UNL A   1      29.696  25.457  26.044  1.00  0.00     0.023 C 
BRANCH   8  10
ATOM     10  C   UNL A   1      31.638  23.962  25.761  1.00  0.00     0.000 A 
ATOM     11  C   UNL A   1      32.395  23.591  26.877  1.00  0.00     0.009 A 
ATOM     12  C   UNL A   1      31.325  22.974  24.832  1.00  0.00     0.129 A 
ATOM     13  C   UNL A   1      32.838  22.281  27.034  1.00  0.00     0.026 A 
ATOM     14  C   UNL A   1      31.762  21.656  24.999  1.00  0.00     0.065 A 
ATOM     15  F   UNL A   1      30.578  23.273  23.759  1.00  0.00    -0.207 F 
ATOM     16  C   UNL A   1      32.537  21.283  26.105  1.00  0.00     0.037 A 
BRANCH  16  17
ATOM     17  N   UNL A   1      32.942  19.969  26.238  1.00  0.00    -0.382 N 
ATOM     18  H   UNL A   1      33.181  19.682  27.148  1.00  0.00     0.160 HD
BRANCH  17  19
ATOM     19  C   UNL A   1      33.059  18.956  25.200  1.00  0.00     0.079 C 
ATOM     20  C   UNL A   1      34.453  18.847  24.590  1.00  0.00     0.025 C 
ATOM     21  C   UNL A   1      32.662  17.550  25.652  1.00  0.00     0.025 C 
ATOM     22  C   UNL A   1      34.507  17.432  24.037  1.00  0.00     0.002 C 
ATOM     23  C   UNL A   1      33.619  16.591  24.947  1.00  0.00     0.002 C 
ENDBRANCH  17  19
ENDBRANCH  16  17
ENDBRANCH   8  10
ENDBRANCH   5   8
ENDBRANCH   3   4
ENDBRANCH   2   3
ENDBRANCH   1   2
BRANCH   1  24
ATOM     24  C   UNL A   1      34.984  22.713  23.631  1.00  0.00     0.002 C 
BRANCH  24  25
ATOM     25  C   UNL A   1      35.876  22.528  24.860  1.00  0.00     0.021 C 
BRANCH  25  26
ATOM     26  C   UNL A   1      37.370  22.503  24.558  1.00  0.00     0.116 C 
BRANCH  26  27
ATOM     27  N   UNL A   1      38.020  21.333  25.130  1.00  0.00    -0.352 N 
ATOM     28  C   UNL A   1      39.088  21.268  25.988  1.00  0.00     0.251 C 
ATOM     29  H   UNL A   1      37.639  20.465  24.863  1.00  0.00     0.163 HD
ATOM     30  O   UNL A   1      39.645  20.192  26.196  1.00  0.00    -0.269 OA
BRANCH  28  31
ATOM     31  C   UNL A   1      39.582  22.502  26.637  1.00  0.00     0.039 A 
ATOM     32  C   UNL A   1      40.662  22.417  27.518  1.00  0.00     0.014 A 
ATOM     33  C   UNL A   1      38.998  23.741  26.353  1.00  0.00     0.014 A 
ATOM     34  C   UNL A   1      41.212  23.587  28.049  1.00  0.00     0.010 A 
ATOM     35  C   UNL A   1      39.591  24.909  26.830  1.00  0.00     0.010 A 
ATOM     36  C   UNL A   1      40.714  24.845  27.668  1.00  0.00    -0.014 A 
BRANCH  36  37
ATOM     37  C   UNL A   1      41.398  26.099  28.081  1.00  0.00     0.031 A 
ATOM     38  C   UNL A   1      40.637  27.185  28.791  1.00  0.00     0.074 A 
ATOM     39  C   UNL A   1      42.691  26.284  27.742  1.00  0.00     0.049 A 
ATOM     40  N   UNL A   1      41.044  28.376  29.149  1.00  0.00    -0.248 NA
ATOM     41  C   UNL A   1      39.231  26.906  29.124  1.00  0.00     0.031 C 
ATOM     42  C   UNL A   1      43.520  25.315  27.019  1.00  0.00     0.029 A 
ATOM     43  N   UNL A   1      43.534  27.351  27.939  1.00  0.00    -0.354 N 
ATOM     44  C   UNL A   1      39.944  28.995  29.735  1.00  0.00     0.074 A 
ATOM     45  C   UNL A   1      38.842  28.060  29.652  1.00  0.00     0.031 C 
ATOM     46  C   UNL A   1      44.749  25.827  26.845  1.00  0.00     0.029 A 
ATOM     47  C   UNL A   1      44.785  27.180  27.388  1.00  0.00     0.049 A 
ATOM     48  H   UNL A   1      43.268  28.162  28.428  1.00  0.00     0.167 HD
ATOM     49  C   UNL A   1      39.869  30.226  30.295  1.00  0.00     0.034 A 
ATOM     50  C   UNL A   1      45.832  28.025  27.301  1.00  0.00     0.034 A 
ATOM     51  C   UNL A   1      40.985  31.138  30.385  1.00  0.00     0.049 A 
ATOM     52  C   UNL A   1      45.701  29.405  27.900  1.00  0.00     0.074 A 
ATOM     53  C   UNL A   1      41.037  32.367  31.021  1.00  0.00     0.029 A 
ATOM     54  N   UNL A   1      42.230  30.935  29.808  1.00  0.00    -0.354 N 
ATOM     55  N   UNL A   1      44.680  29.936  28.534  1.00  0.00    -0.248 NA
ATOM     56  C   UNL A   1      46.860  30.298  27.777  1.00  0.00     0.031 C 
ATOM     57  C   UNL A   1      42.280  32.946  30.752  1.00  0.00     0.029 A 
ATOM     58  C   UNL A   1      43.037  32.044  30.022  1.00  0.00     0.049 A 
ATOM     59  H   UNL A   1      42.502  30.126  29.318  1.00  0.00     0.167 HD
ATOM     60  C   UNL A   1      45.087  31.216  28.901  1.00  0.00     0.074 A 
ATOM     61  C   UNL A   1      46.452  31.365  28.448  1.00  0.00     0.031 C 
ATOM     62  C   UNL A   1      44.393  32.185  29.550  1.00  0.00     0.034 A 
BRANCH  49  63
ATOM     63  C   UNL A   1      38.537  30.688  30.829  1.00  0.00     0.023 A 
ATOM     64  C   UNL A   1      37.585  31.322  30.013  1.00  0.00     0.031 A 
ATOM     65  C   UNL A   1      38.195  30.439  32.171  1.00  0.00     0.131 A 
ATOM     66  C   UNL A   1      36.351  31.715  30.555  1.00  0.00     0.055 A 
ATOM     67  C   UNL A   1      36.943  30.773  32.687  1.00  0.00     0.041 A 
ATOM     68  F   UNL A   1      39.075  29.856  33.001  1.00  0.00    -0.206 F 
ATOM     69  C   UNL A   1      36.013  31.421  31.878  1.00  0.00     0.022 A 
BRANCH  66  70
ATOM     70  S   UNL A   1      35.222  32.696  29.529  1.00  0.00     0.124 S 
ATOM     71  O   UNL A   1      36.128  33.696  28.968  1.00  0.00    -0.237 OA
ATOM     72  O   UNL A   1      34.705  31.706  28.593  1.00  0.00    -0.237 OA
ATOM     73  O   UNL A   1      34.250  33.215  30.489  1.00  0.00    -0.744 OA
ENDBRANCH  66  70
ENDBRANCH  49  63
BRANCH  50  74
ATOM     74  C   UNL A   1      47.078  27.633  26.576  1.00  0.00     0.023 A 
ATOM     75  C   UNL A   1      47.242  27.919  25.211  1.00  0.00     0.031 A 
ATOM     76  C   UNL A   1      48.085  26.886  27.214  1.00  0.00     0.131 A 
ATOM     77  C   UNL A   1      48.344  27.398  24.514  1.00  0.00     0.055 A 
ATOM     78  C   UNL A   1      49.217  26.433  26.533  1.00  0.00     0.041 A 
ATOM     79  F   UNL A   1      47.982  26.579  28.518  1.00  0.00    -0.206 F 
ATOM     80  C   UNL A   1      49.340  26.671  25.168  1.00  0.00     0.022 A 
BRANCH  77  81
ATOM     81  S   UNL A   1      48.379  27.561  22.706  1.00  0.00     0.124 S 
ATOM     82  O   UNL A   1      48.447  26.167  22.286  1.00  0.00    -0.237 OA
ATOM     83  O   UNL A   1      47.121  28.250  22.442  1.00  0.00    -0.237 OA
ATOM     84  O   UNL A   1      49.585  28.348  22.460  1.00  0.00    -0.744 OA
ENDBRANCH  77  81
ENDBRANCH  50  74
BRANCH  62  85
ATOM     85  C   UNL A   1      45.115  33.480  29.825  1.00  0.00     0.023 A 
ATOM     86  C   UNL A   1      45.104  34.538  28.899  1.00  0.00     0.031 A 
ATOM     87  C   UNL A   1      45.823  33.660  31.027  1.00  0.00     0.131 A 
ATOM     88  C   UNL A   1      45.829  35.708  29.167  1.00  0.00     0.055 A 
ATOM     89  C   UNL A   1      46.489  34.852  31.315  1.00  0.00     0.041 A 
ATOM     90  F   UNL A   1      45.870  32.682  31.945  1.00  0.00    -0.206 F 
ATOM     91  C   UNL A   1      46.504  35.880  30.378  1.00  0.00     0.022 A 
BRANCH  88  92
ATOM     92  S   UNL A   1      45.946  36.973  27.873  1.00  0.00     0.124 S 
ATOM     93  O   UNL A   1      45.181  36.368  26.787  1.00  0.00    -0.237 OA
ATOM     94  O   UNL A   1      45.336  38.134  28.512  1.00  0.00    -0.237 OA
ATOM     95  O   UNL A   1      47.384  37.085  27.631  1.00  0.00    -0.744 OA
ENDBRANCH  88  92
ENDBRANCH  62  85
ENDBRANCH  36  37
ENDBRANCH  28  31
ENDBRANCH  26  27
ENDBRANCH  25  26
ENDBRANCH  24  25
ENDBRANCH   1  24
TORSDOF 19
ENDMDL
MODEL 2
REMARK VINA RESULT:     -11.2      5.518     10.150
REMARK SMILES C[C@@H](C(=O)NCCCCCCNC(=O)c1ccc(-c2c3nc(c(-c4cc(S(=O)(=O)[O-])ccc4F)c4ccc([nH]4)c(-c4cc(S(=O)(=O)[O-])ccc4F)c4nc(c(-c5cc(S(=O)(=O)[O-])ccc5F)c5ccc2[nH]5)C=C4)C=C3)cc1)c1ccc(NC2CCCC2)cc1F
REMARK SMILES IDX 8 1 7 2 6 3 5 4 3 5 4 6 2 8 1 9 78 10 79 11 89 12 80 13
REMARK SMILES IDX 88 14 90 15 81 16 82 17 83 19 84 20 87 21 85 22 86 23 9 24
REMARK SMILES IDX 10 25 11 26 12 27 13 28 14 30 15 31 16 32 77 33 17 34 76 35
REMARK SMILES IDX 18 36 19 37 20 38 70 39 21 40 75 41 69 42 71 43 22 44 74 45
REMARK SMILES IDX 68 46 67 47 23 49 55 50 35 51 54 52 36 53 39 54 53 55 72 56
REMARK SMILES IDX 37 57 38 58 52 60 73 61 40 62 24 63 25 64 33 65 26 66 32 67
REMARK SMILES IDX 34 68 31 69 27 70 28 71 29 72 30 73 56 74 57 75 65 76 58 77
REMARK SMILES IDX 64 78 66 79 63 80 59 81 60 82 61 83 62 84 41 85 42 86 50 87
REMARK SMILES IDX 43 88 49 89 51 90 48 91 44 92 45 93 46 94 47 95
REMARK H PARENT 5 7 82 18 12 29 71 48 39 59
REMARK Flexibility Score: inf
ROOT
ATOM      1  C   UNL A   1      32.543  30.054  27.005  1.00  0.00     0.002 C 
ENDROOT
BRANCH   1   2
ATOM      2  C   UNL A   1      32.588  28.543  26.733  1.00  0.00     0.021 C 
BRANCH   2   3
ATOM      3  C   UNL A   1      32.188  28.155  25.308  1.00  0.00     0.116 C 
BRANCH   3   4
ATOM      4  N   UNL A   1      31.283  27.030  25.336  1.00  0.00    -0.356 N 
ATOM      5  C   UNL A   1      31.393  25.794  24.781  1.00  0.00     0.227 C 
ATOM      6  O   UNL A   1      30.385  25.085  24.851  1.00  0.00    -0.274 OA
ATOM      7  H   UNL A   1      30.450  27.183  25.839  1.00  0.00     0.163 HD
BRANCH   5   8
ATOM      8  C   UNL A   1      32.727  25.325  24.164  1.00  0.00     0.108 C 
ATOM      9  C   UNL A   1      32.798  25.477  22.641  1.00  0.00     0.023 C 
BRANCH   8  10
ATOM     10  C   UNL A   1      33.014  23.870  24.501  1.00  0.00     0.000 A 
ATOM     11  C   UNL A   1      32.711  22.861  23.582  1.00  0.00     0.009 A 
ATOM     12  C   UNL A   1      33.600  23.496  25.706  1.00  0.00     0.129 A 
ATOM     13  C   UNL A   1      32.967  21.526  23.880  1.00  0.00     0.026 A 
ATOM     14  C   UNL A   1      33.867  22.155  25.998  1.00  0.00     0.065 A 
ATOM     15  F   UNL A   1      33.935  24.429  26.609  1.00  0.00    -0.207 F 
ATOM     16  C   UNL A   1      33.547  21.137  25.090  1.00  0.00     0.037 A 
BRANCH  16  17
ATOM     17  N   UNL A   1      33.835  19.825  25.412  1.00  0.00    -0.382 N 
ATOM     18  H   UNL A   1      34.321  19.686  26.257  1.00  0.00     0.160 HD
BRANCH  17  19
ATOM     19  C   UNL A   1      33.508  18.622  24.661  1.00  0.00     0.079 C 
ATOM     20  C   UNL A   1      34.722  17.792  24.256  1.00  0.00     0.025 C 
ATOM     21  C   UNL A   1      32.544  17.678  25.382  1.00  0.00     0.025 C 
ATOM     22  C   UNL A   1      34.164  16.391  24.060  1.00  0.00     0.002 C 
ATOM     23  C   UNL A   1      32.999  16.262  25.034  1.00  0.00     0.002 C 
ENDBRANCH  17  19
ENDBRANCH  16  17
ENDBRANCH   8  10
ENDBRANCH   5   8
ENDBRANCH   3   4
ENDBRANCH   2   3
ENDBRANCH   1   2
BRANCH   1  24
ATOM     24  C   UNL A   1      31.406  30.803  26.303  1.00  0.00     0.002 C 
BRANCH  24  25
ATOM     25  C   UNL A   1      31.317  32.292  26.643  1.00  0.00     0.021 C 
BRANCH  25  26
ATOM     26  C   UNL A   1      32.654  32.945  26.976  1.00  0.00     0.116 C 
BRANCH  26  27
ATOM     27  N   UNL A   1      32.484  34.170  27.741  1.00  0.00    -0.352 N 
ATOM     28  C   UNL A   1      33.142  34.584  28.873  1.00  0.00     0.251 C 
ATOM     29  H   UNL A   1      31.800  34.790  27.400  1.00  0.00     0.163 HD
ATOM     30  O   UNL A   1      32.718  35.543  29.513  1.00  0.00    -0.269 OA
BRANCH  28  31
ATOM     31  C   UNL A   1      34.342  33.850  29.331  1.00  0.00     0.039 A 
ATOM     32  C   UNL A   1      35.604  34.342  28.994  1.00  0.00     0.014 A 
ATOM     33  C   UNL A   1      34.219  32.698  30.115  1.00  0.00     0.014 A 
ATOM     34  C   UNL A   1      36.745  33.726  29.515  1.00  0.00     0.010 A 
ATOM     35  C   UNL A   1      35.355  32.127  30.686  1.00  0.00     0.010 A 
ATOM     36  C   UNL A   1      36.628  32.646  30.407  1.00  0.00    -0.014 A 
BRANCH  36  37
ATOM     37  C   UNL A   1      37.819  32.095  31.107  1.00  0.00     0.031 A 
ATOM     38  C   UNL A   1      38.655  31.023  30.463  1.00  0.00     0.074 A 
ATOM     39  C   UNL A   1      38.095  32.513  32.361  1.00  0.00     0.049 A 
ATOM     40  N   UNL A   1      39.672  30.366  30.956  1.00  0.00    -0.248 NA
ATOM     41  C   UNL A   1      38.287  30.622  29.095  1.00  0.00     0.031 C 
ATOM     42  C   UNL A   1      37.330  33.521  33.101  1.00  0.00     0.029 A 
ATOM     43  N   UNL A   1      39.076  32.134  33.244  1.00  0.00    -0.354 N 
ATOM     44  C   UNL A   1      40.059  29.465  29.970  1.00  0.00     0.074 A 
ATOM     45  C   UNL A   1      39.143  29.636  28.862  1.00  0.00     0.031 C 
ATOM     46  C   UNL A   1      37.877  33.687  34.316  1.00  0.00     0.029 A 
ATOM     47  C   UNL A   1      38.992  32.760  34.469  1.00  0.00     0.049 A 
ATOM     48  H   UNL A   1      39.774  31.477  33.023  1.00  0.00     0.167 HD
ATOM     49  C   UNL A   1      41.089  28.584  29.989  1.00  0.00     0.034 A 
ATOM     50  C   UNL A   1      39.710  32.586  35.597  1.00  0.00     0.034 A 
ATOM     51  C   UNL A   1      42.004  28.442  31.096  1.00  0.00     0.049 A 
ATOM     52  C   UNL A   1      40.825  31.567  35.597  1.00  0.00     0.074 A 
ATOM     53  C   UNL A   1      43.137  27.650  31.173  1.00  0.00     0.029 A 
ATOM     54  N   UNL A   1      41.882  29.082  32.321  1.00  0.00    -0.354 N 
ATOM     55  N   UNL A   1      41.233  30.791  34.619  1.00  0.00    -0.248 NA
ATOM     56  C   UNL A   1      41.577  31.402  36.848  1.00  0.00     0.031 C 
ATOM     57  C   UNL A   1      43.647  27.742  32.471  1.00  0.00     0.029 A 
ATOM     58  C   UNL A   1      42.885  28.657  33.179  1.00  0.00     0.049 A 
ATOM     59  H   UNL A   1      41.187  29.741  32.548  1.00  0.00     0.167 HD
ATOM     60  C   UNL A   1      42.303  30.064  35.135  1.00  0.00     0.074 A 
ATOM     61  C   UNL A   1      42.496  30.516  36.495  1.00  0.00     0.031 C 
ATOM     62  C   UNL A   1      43.056  29.105  34.540  1.00  0.00     0.034 A 
BRANCH  49  63
ATOM     63  C   UNL A   1      41.275  27.677  28.799  1.00  0.00     0.023 A 
ATOM     64  C   UNL A   1      42.259  27.916  27.825  1.00  0.00     0.031 A 
ATOM     65  C   UNL A   1      40.483  26.520  28.670  1.00  0.00     0.131 A 
ATOM     66  C   UNL A   1      42.403  27.029  26.746  1.00  0.00     0.055 A 
ATOM     67  C   UNL A   1      40.676  25.609  27.631  1.00  0.00     0.041 A 
ATOM     68  F   UNL A   1      39.515  26.254  29.559  1.00  0.00    -0.206 F 
ATOM     69  C   UNL A   1      41.638  25.864  26.657  1.00  0.00     0.022 A 
BRANCH  66  70
ATOM     70  S   UNL A   1      43.549  27.463  25.410  1.00  0.00     0.124 S 
ATOM     71  O   UNL A   1      44.254  26.200  25.204  1.00  0.00    -0.237 OA
ATOM     72  O   UNL A   1      42.648  27.872  24.340  1.00  0.00    -0.237 OA
ATOM     73  O   UNL A   1      44.359  28.534  25.987  1.00  0.00    -0.744 OA
ENDBRANCH  66  70
ENDBRANCH  49  63
BRANCH  50  74
ATOM     74  C   UNL A   1      39.377  33.339  36.843  1.00  0.00     0.023 A 
ATOM     75  C   UNL A   1      40.068  34.512  37.187  1.00  0.00     0.031 A 
ATOM     76  C   UNL A   1      38.425  32.849  37.756  1.00  0.00     0.131 A 
ATOM     77  C   UNL A   1      39.853  35.110  38.439  1.00  0.00     0.055 A 
ATOM     78  C   UNL A   1      38.161  33.489  38.968  1.00  0.00     0.041 A 
ATOM     79  F   UNL A   1      37.735  31.729  37.484  1.00  0.00    -0.206 F 
ATOM     80  C   UNL A   1      38.893  34.616  39.325  1.00  0.00     0.022 A 
BRANCH  77  81
ATOM     81  S   UNL A   1      40.953  36.459  38.954  1.00  0.00     0.124 S 
ATOM     82  O   UNL A   1      40.183  37.633  38.563  1.00  0.00    -0.237 OA
ATOM     83  O   UNL A   1      41.074  36.218  40.388  1.00  0.00    -0.237 OA
ATOM     84  O   UNL A   1      42.168  36.220  38.178  1.00  0.00    -0.744 OA
ENDBRANCH  77  81
ENDBRANCH  50  74
BRANCH  62  85
ATOM     85  C   UNL A   1      44.171  28.502  35.357  1.00  0.00     0.023 A 
ATOM     86  C   UNL A   1      43.938  27.430  36.238  1.00  0.00     0.031 A 
ATOM     87  C   UNL A   1      45.481  29.003  35.256  1.00  0.00     0.131 A 
ATOM     88  C   UNL A   1      44.989  26.928  37.019  1.00  0.00     0.055 A 
ATOM     89  C   UNL A   1      46.534  28.456  35.989  1.00  0.00     0.041 A 
ATOM     90  F   UNL A   1      45.759  30.027  34.434  1.00  0.00    -0.206 F 
ATOM     91  C   UNL A   1      46.290  27.420  36.885  1.00  0.00     0.022 A 
BRANCH  88  92
ATOM     92  S   UNL A   1      44.616  25.675  38.277  1.00  0.00     0.124 S 
ATOM     93  O   UNL A   1      43.861  26.447  39.259  1.00  0.00    -0.237 OA
ATOM     94  O   UNL A   1      43.853  24.689  37.520  1.00  0.00    -0.237 OA
ATOM     95  O   UNL A   1      45.936  25.230  38.719  1.00  0.00    -0.744 OA
ENDBRANCH  88  92
ENDBRANCH  62  85
ENDBRANCH  36  37
ENDBRANCH  28  31
ENDBRANCH  26  27
ENDBRANCH  25  26
ENDBRANCH  24  25
ENDBRANCH   1  24
TORSDOF 19
ENDMDL
MODEL 3
REMARK VINA RESULT:     -11.0      5.108      7.969
REMARK SMILES C[C@@H](C(=O)NCCCCCCNC(=O)c1ccc(-c2c3nc(c(-c4cc(S(=O)(=O)[O-])ccc4F)c4ccc([nH]4)c(-c4cc(S(=O)(=O)[O-])ccc4F)c4nc(c(-c5cc(S(=O)(=O)[O-])ccc5F)c5ccc2[nH]5)C=C4)C=C3)cc1)c1ccc(NC2CCCC2)cc1F
REMARK SMILES IDX 8 1 7 2 6 3 5 4 3 5 4 6 2 8 1 9 78 10 79 11 89 12 80 13
REMARK SMILES IDX 88 14 90 15 81 16 82 17 83 19 84 20 87 21 85 22 86 23 9 24
REMARK SMILES IDX 10 25 11 26 12 27 13 28 14 30 15 31 16 32 77 33 17 34 76 35
REMARK SMILES IDX 18 36 19 37 20 38 70 39 21 40 75 41 69 42 71 43 22 44 74 45
REMARK SMILES IDX 68 46 67 47 23 49 55 50 35 51 54 52 36 53 39 54 53 55 72 56
REMARK SMILES IDX 37 57 38 58 52 60 73 61 40 62 24 63 25 64 33 65 26 66 32 67
REMARK SMILES IDX 34 68 31 69 27 70 28 71 29 72 30 73 56 74 57 75 65 76 58 77
REMARK SMILES IDX 64 78 66 79 63 80 59 81 60 82 61 83 62 84 41 85 42 86 50 87
REMARK SMILES IDX 43 88 49 89 51 90 48 91 44 92 45 93 46 94 47 95
REMARK H PARENT 5 7 82 18 12 29 71 48 39 59
REMARK Flexibility Score: inf
ROOT
ATOM      1  C   UNL A   1      33.099  28.867  27.090  1.00  0.00     0.002 C 
ENDROOT
BRANCH   1   2
ATOM      2  C   UNL A   1      32.919  27.531  26.352  1.00  0.00     0.021 C 
BRANCH   2   3
ATOM      3  C   UNL A   1      31.458  27.115  26.167  1.00  0.00     0.116 C 
BRANCH   3   4
ATOM      4  N   UNL A   1      31.212  25.859  26.835  1.00  0.00    -0.356 N 
ATOM      5  C   UNL A   1      31.275  24.584  26.369  1.00  0.00     0.227 C 
ATOM      6  O   UNL A   1      30.865  23.711  27.140  1.00  0.00    -0.274 OA
ATOM      7  H   UNL A   1      30.956  25.939  27.783  1.00  0.00     0.163 HD
BRANCH   5   8
ATOM      8  C   UNL A   1      31.880  24.283  24.983  1.00  0.00     0.108 C 
ATOM      9  C   UNL A   1      30.866  24.330  23.835  1.00  0.00     0.023 C 
BRANCH   8  10
ATOM     10  C   UNL A   1      32.552  22.919  24.954  1.00  0.00     0.000 A 
ATOM     11  C   UNL A   1      32.033  21.893  24.159  1.00  0.00     0.009 A 
ATOM     12  C   UNL A   1      33.704  22.651  25.688  1.00  0.00     0.129 A 
ATOM     13  C   UNL A   1      32.639  20.640  24.127  1.00  0.00     0.026 A 
ATOM     14  C   UNL A   1      34.317  21.395  25.645  1.00  0.00     0.065 A 
ATOM     15  F   UNL A   1      34.257  23.611  26.444  1.00  0.00    -0.207 F 
ATOM     16  C   UNL A   1      33.790  20.357  24.865  1.00  0.00     0.037 A 
BRANCH  16  17
ATOM     17  N   UNL A   1      34.430  19.133  24.843  1.00  0.00    -0.382 N 
ATOM     18  H   UNL A   1      35.398  19.150  25.019  1.00  0.00     0.160 HD
BRANCH  17  19
ATOM     19  C   UNL A   1      33.852  17.821  24.593  1.00  0.00     0.079 C 
ATOM     20  C   UNL A   1      34.822  16.663  24.806  1.00  0.00     0.025 C 
ATOM     21  C   UNL A   1      32.607  17.517  25.428  1.00  0.00     0.025 C 
ATOM     22  C   UNL A   1      33.920  15.471  25.086  1.00  0.00     0.002 C 
ATOM     23  C   UNL A   1      32.684  16.033  25.779  1.00  0.00     0.002 C 
ENDBRANCH  17  19
ENDBRANCH  16  17
ENDBRANCH   8  10
ENDBRANCH   5   8
ENDBRANCH   3   4
ENDBRANCH   2   3
ENDBRANCH   1   2
BRANCH   1  24
ATOM     24  C   UNL A   1      31.828  29.712  27.216  1.00  0.00     0.002 C 
BRANCH  24  25
ATOM     25  C   UNL A   1      31.954  31.139  26.679  1.00  0.00     0.021 C 
BRANCH  25  26
ATOM     26  C   UNL A   1      33.194  31.886  27.158  1.00  0.00     0.116 C 
BRANCH  26  27
ATOM     27  N   UNL A   1      32.876  33.234  27.603  1.00  0.00    -0.352 N 
ATOM     28  C   UNL A   1      33.404  33.949  28.649  1.00  0.00     0.251 C 
ATOM     29  H   UNL A   1      32.183  33.700  27.080  1.00  0.00     0.163 HD
ATOM     30  O   UNL A   1      32.863  34.989  29.017  1.00  0.00    -0.269 OA
BRANCH  28  31
ATOM     31  C   UNL A   1      34.606  33.445  29.347  1.00  0.00     0.039 A 
ATOM     32  C   UNL A   1      34.445  32.628  30.467  1.00  0.00     0.014 A 
ATOM     33  C   UNL A   1      35.887  33.755  28.878  1.00  0.00     0.014 A 
ATOM     34  C   UNL A   1      35.567  32.051  31.067  1.00  0.00     0.010 A 
ATOM     35  C   UNL A   1      36.998  33.125  29.436  1.00  0.00     0.010 A 
ATOM     36  C   UNL A   1      36.848  32.253  30.525  1.00  0.00    -0.014 A 
BRANCH  36  37
ATOM     37  C   UNL A   1      38.027  31.508  31.041  1.00  0.00     0.031 A 
ATOM     38  C   UNL A   1      38.680  31.913  32.334  1.00  0.00     0.074 A 
ATOM     39  C   UNL A   1      38.552  30.513  30.295  1.00  0.00     0.049 A 
ATOM     40  N   UNL A   1      39.764  31.438  32.893  1.00  0.00    -0.248 NA
ATOM     41  C   UNL A   1      38.048  33.008  33.087  1.00  0.00     0.031 C 
ATOM     42  C   UNL A   1      38.025  30.058  29.005  1.00  0.00     0.029 A 
ATOM     43  N   UNL A   1      39.652  29.716  30.497  1.00  0.00    -0.354 N 
ATOM     44  C   UNL A   1      39.952  32.182  34.053  1.00  0.00     0.074 A 
ATOM     45  C   UNL A   1      38.891  33.164  34.099  1.00  0.00     0.031 C 
ATOM     46  C   UNL A   1      38.793  29.059  28.541  1.00  0.00     0.029 A 
ATOM     47  C   UNL A   1      39.900  28.838  29.464  1.00  0.00     0.049 A 
ATOM     48  H   UNL A   1      40.211  29.766  31.306  1.00  0.00     0.167 HD
ATOM     49  C   UNL A   1      40.919  32.047  34.993  1.00  0.00     0.034 A 
ATOM     50  C   UNL A   1      40.918  27.977  29.265  1.00  0.00     0.034 A 
ATOM     51  C   UNL A   1      41.959  31.047  34.939  1.00  0.00     0.049 A 
ATOM     52  C   UNL A   1      42.001  27.881  30.314  1.00  0.00     0.074 A 
ATOM     53  C   UNL A   1      42.925  30.766  35.889  1.00  0.00     0.029 A 
ATOM     54  N   UNL A   1      42.185  30.186  33.874  1.00  0.00    -0.354 N 
ATOM     55  N   UNL A   1      42.108  28.530  31.451  1.00  0.00    -0.248 NA
ATOM     56  C   UNL A   1      43.097  26.937  30.056  1.00  0.00     0.031 C 
ATOM     57  C   UNL A   1      43.787  29.799  35.363  1.00  0.00     0.029 A 
ATOM     58  C   UNL A   1      43.311  29.415  34.121  1.00  0.00     0.049 A 
ATOM     59  H   UNL A   1      41.628  30.130  33.064  1.00  0.00     0.167 HD
ATOM     60  C   UNL A   1      43.272  28.054  32.050  1.00  0.00     0.074 A 
ATOM     61  C   UNL A   1      43.812  27.044  31.166  1.00  0.00     0.031 C 
ATOM     62  C   UNL A   1      43.847  28.421  33.223  1.00  0.00     0.034 A 
BRANCH  49  63
ATOM     63  C   UNL A   1      40.932  33.016  36.148  1.00  0.00     0.023 A 
ATOM     64  C   UNL A   1      40.243  32.758  37.346  1.00  0.00     0.031 A 
ATOM     65  C   UNL A   1      41.693  34.196  36.064  1.00  0.00     0.131 A 
ATOM     66  C   UNL A   1      40.303  33.685  38.398  1.00  0.00     0.055 A 
ATOM     67  C   UNL A   1      41.801  35.081  37.138  1.00  0.00     0.041 A 
ATOM     68  F   UNL A   1      42.353  34.503  34.937  1.00  0.00    -0.206 F 
ATOM     69  C   UNL A   1      41.099  34.830  38.313  1.00  0.00     0.022 A 
BRANCH  66  70
ATOM     70  S   UNL A   1      39.256  33.417  39.855  1.00  0.00     0.124 S 
ATOM     71  O   UNL A   1      39.380  34.698  40.547  1.00  0.00    -0.237 OA
ATOM     72  O   UNL A   1      37.955  33.135  39.261  1.00  0.00    -0.237 OA
ATOM     73  O   UNL A   1      39.891  32.287  40.530  1.00  0.00    -0.744 OA
ENDBRANCH  66  70
ENDBRANCH  49  63
BRANCH  50  74
ATOM     74  C   UNL A   1      41.011  27.174  28.010  1.00  0.00     0.023 A 
ATOM     75  C   UNL A   1      40.700  25.804  28.001  1.00  0.00     0.031 A 
ATOM     76  C   UNL A   1      41.501  27.741  26.819  1.00  0.00     0.131 A 
ATOM     77  C   UNL A   1      40.952  25.036  26.853  1.00  0.00     0.055 A 
ATOM     78  C   UNL A   1      41.679  26.988  25.657  1.00  0.00     0.041 A 
ATOM     79  F   UNL A   1      41.819  29.045  26.767  1.00  0.00    -0.206 F 
ATOM     80  C   UNL A   1      41.424  25.621  25.676  1.00  0.00     0.022 A 
BRANCH  77  81
ATOM     81  S   UNL A   1      40.791  23.232  26.968  1.00  0.00     0.124 S 
ATOM     82  O   UNL A   1      39.358  23.050  26.774  1.00  0.00    -0.237 OA
ATOM     83  O   UNL A   1      41.648  22.784  25.875  1.00  0.00    -0.237 OA
ATOM     84  O   UNL A   1      41.285  22.932  28.309  1.00  0.00    -0.744 OA
ENDBRANCH  77  81
ENDBRANCH  50  74
BRANCH  62  85
ATOM     85  C   UNL A   1      45.113  27.705  33.621  1.00  0.00     0.023 A 
ATOM     86  C   UNL A   1      45.078  26.446  34.247  1.00  0.00     0.031 A 
ATOM     87  C   UNL A   1      46.369  28.286  33.372  1.00  0.00     0.131 A 
ATOM     88  C   UNL A   1      46.274  25.834  34.649  1.00  0.00     0.055 A 
ATOM     89  C   UNL A   1      47.557  27.641  33.716  1.00  0.00     0.041 A 
ATOM     90  F   UNL A   1      46.461  29.488  32.781  1.00  0.00    -0.206 F 
ATOM     91  C   UNL A   1      47.514  26.413  34.369  1.00  0.00     0.022 A 
BRANCH  88  92
ATOM     92  S   UNL A   1      46.183  24.303  35.619  1.00  0.00     0.124 S 
ATOM     93  O   UNL A   1      47.270  23.516  35.045  1.00  0.00    -0.237 OA
ATOM     94  O   UNL A   1      46.393  24.782  36.981  1.00  0.00    -0.237 OA
ATOM     95  O   UNL A   1      44.839  23.800  35.340  1.00  0.00    -0.744 OA
ENDBRANCH  88  92
ENDBRANCH  62  85
ENDBRANCH  36  37
ENDBRANCH  28  31
ENDBRANCH  26  27
ENDBRANCH  25  26
ENDBRANCH  24  25
ENDBRANCH   1  24
TORSDOF 19
ENDMDL
