MODEL 1
REMARK VINA RESULT:     -11.3      0.000      0.000
REMARK SMILES CC[C@@H](C)Oc1cccc(C(=O)Nc2ccc(Cl)c(C(=O)NCCCCCCNC(=O)c3ccc(-c4c5nc(c(-c6cc(S(=O)(=O)[O-])ccc6F)c6ccc([nH]6)c(-c6cc(S(=O)(=O)[O-])ccc6F)c6nc(c(-c7cc(S(=O)(=O)[O-])ccc7F)c7ccc4[nH]7)C=C6)C=C5)cc3)c2)c1
REMARK SMILES IDX 24 1 23 2 22 3 20 4 21 5 19 7 14 8 15 9 95 10 16 11 17 12
REMARK SMILES IDX 18 13 13 14 11 15 12 16 10 18 6 19 7 20 96 21 8 22 9 23 5 24
REMARK SMILES IDX 3 25 4 26 2 27 1 28 25 29 26 30 27 31 28 32 29 33 30 34
REMARK SMILES IDX 31 36 32 37 33 38 94 39 34 40 93 41 35 42 36 43 37 44 87 45
REMARK SMILES IDX 38 46 92 47 86 48 88 49 39 50 91 51 85 52 84 53 40 55 72 56
REMARK SMILES IDX 52 57 71 58 53 59 56 60 70 61 89 62 54 63 55 64 69 66 90 67
REMARK SMILES IDX 57 68 41 69 42 70 50 71 43 72 49 73 51 74 48 75 44 76 45 77
REMARK SMILES IDX 46 78 47 79 73 80 74 81 82 82 75 83 81 84 83 85 80 86 76 87
REMARK SMILES IDX 77 88 78 89 79 90 58 91 59 92 67 93 60 94 66 95 68 96 65 97
REMARK SMILES IDX 61 98 62 99 63 100 64 101
REMARK H PARENT 22 6 13 17 29 35 88 54 56 65
REMARK Flexibility Score: inf
ROOT
ATOM      1  C   UNL A   1      31.547  26.729  26.721  1.00  0.00     0.021 C 
ENDROOT
BRANCH   1   2
ATOM      2  C   UNL A   1      30.413  26.051  25.955  1.00  0.00     0.116 C 
BRANCH   2   3
ATOM      3  N   UNL A   1      30.277  24.684  26.403  1.00  0.00    -0.352 N 
ATOM      4  C   UNL A   1      30.710  23.471  25.928  1.00  0.00     0.252 C 
ATOM      5  O   UNL A   1      30.125  22.499  26.403  1.00  0.00    -0.269 OA
ATOM      6  H   UNL A   1      29.757  24.604  27.235  1.00  0.00     0.163 HD
BRANCH   4   7
ATOM      7  C   UNL A   1      31.857  23.290  24.972  1.00  0.00     0.060 A 
ATOM      8  C   UNL A   1      32.898  23.699  22.788  1.00  0.00     0.042 A 
ATOM      9  C   UNL A   1      34.114  23.221  23.258  1.00  0.00     0.028 A 
ATOM     10  C   UNL A   1      31.765  23.623  23.607  1.00  0.00     0.041 A 
ATOM     11  C   UNL A   1      34.219  22.794  24.579  1.00  0.00     0.023 A 
ATOM     12  C   UNL A   1      33.114  22.853  25.443  1.00  0.00     0.053 A 
ATOM     13  Cl  UNL A   1      33.468  22.418  27.084  1.00  0.00    -0.083 Cl
BRANCH   8  14
ATOM     14  N   UNL A   1      32.877  24.259  21.501  1.00  0.00    -0.322 N 
ATOM     15  C   UNL A   1      32.482  25.502  21.039  1.00  0.00     0.255 C 
ATOM     16  O   UNL A   1      32.306  25.640  19.827  1.00  0.00    -0.269 OA
ATOM     17  H   UNL A   1      33.205  23.655  20.796  1.00  0.00     0.170 HD
BRANCH  15  18
ATOM     18  C   UNL A   1      32.367  26.708  21.916  1.00  0.00     0.043 A 
ATOM     19  C   UNL A   1      31.059  28.365  23.125  1.00  0.00     0.120 A 
ATOM     20  C   UNL A   1      32.238  29.051  23.428  1.00  0.00     0.046 A 
ATOM     21  C   UNL A   1      31.144  27.150  22.445  1.00  0.00     0.060 A 
ATOM     22  C   UNL A   1      33.479  28.548  23.035  1.00  0.00     0.005 A 
ATOM     23  C   UNL A   1      33.541  27.391  22.257  1.00  0.00     0.014 A 
BRANCH  19  24
ATOM     24  O   UNL A   1      29.915  29.063  23.387  1.00  0.00    -0.491 OA
BRANCH  24  25
ATOM     25  C   UNL A   1      29.606  30.341  22.809  1.00  0.00     0.170 C 
ATOM     26  C   UNL A   1      28.901  31.246  23.809  1.00  0.00     0.053 C 
BRANCH  25  27
ATOM     27  C   UNL A   1      29.006  30.273  21.397  1.00  0.00     0.041 C 
ATOM     28  C   UNL A   1      28.062  31.411  21.043  1.00  0.00     0.008 C 
ENDBRANCH  25  27
ENDBRANCH  24  25
ENDBRANCH  19  24
ENDBRANCH  15  18
ENDBRANCH   8  14
ENDBRANCH   4   7
ENDBRANCH   2   3
ENDBRANCH   1   2
BRANCH   1  29
ATOM     29  C   UNL A   1      32.902  26.501  26.045  1.00  0.00     0.002 C 
BRANCH  29  30
ATOM     30  C   UNL A   1      33.982  27.508  26.465  1.00  0.00     0.002 C 
BRANCH  30  31
ATOM     31  C   UNL A   1      33.443  28.803  27.080  1.00  0.00     0.021 C 
BRANCH  31  32
ATOM     32  C   UNL A   1      34.152  30.062  26.596  1.00  0.00     0.116 C 
BRANCH  32  33
ATOM     33  N   UNL A   1      33.899  31.186  27.484  1.00  0.00    -0.352 N 
ATOM     34  C   UNL A   1      34.556  31.537  28.633  1.00  0.00     0.251 C 
ATOM     35  H   UNL A   1      33.154  31.774  27.224  1.00  0.00     0.163 HD
ATOM     36  O   UNL A   1      34.049  32.355  29.403  1.00  0.00    -0.269 OA
BRANCH  34  37
ATOM     37  C   UNL A   1      35.859  30.921  28.944  1.00  0.00     0.039 A 
ATOM     38  C   UNL A   1      37.024  31.497  28.434  1.00  0.00     0.014 A 
ATOM     39  C   UNL A   1      35.927  29.773  29.741  1.00  0.00     0.014 A 
ATOM     40  C   UNL A   1      38.263  30.948  28.763  1.00  0.00     0.010 A 
ATOM     41  C   UNL A   1      37.165  29.274  30.129  1.00  0.00     0.010 A 
ATOM     42  C   UNL A   1      38.345  29.851  29.638  1.00  0.00    -0.014 A 
BRANCH  42  43
ATOM     43  C   UNL A   1      39.659  29.285  30.039  1.00  0.00     0.031 A 
ATOM     44  C   UNL A   1      40.438  29.917  31.161  1.00  0.00     0.074 A 
ATOM     45  C   UNL A   1      40.170  28.241  29.358  1.00  0.00     0.049 A 
ATOM     46  N   UNL A   1      41.626  29.613  31.617  1.00  0.00    -0.248 NA
ATOM     47  C   UNL A   1      39.810  31.062  31.837  1.00  0.00     0.031 C 
ATOM     48  C   UNL A   1      39.518  27.569  28.230  1.00  0.00     0.029 A 
ATOM     49  N   UNL A   1      41.353  27.563  29.507  1.00  0.00    -0.354 N 
ATOM     50  C   UNL A   1      41.893  30.536  32.623  1.00  0.00     0.074 A 
ATOM     51  C   UNL A   1      40.769  31.447  32.664  1.00  0.00     0.031 C 
ATOM     52  C   UNL A   1      40.296  26.558  27.812  1.00  0.00     0.029 A 
ATOM     53  C   UNL A   1      41.522  26.538  28.604  1.00  0.00     0.049 A 
ATOM     54  H   UNL A   1      42.018  27.788  30.196  1.00  0.00     0.167 HD
ATOM     55  C   UNL A   1      42.967  30.603  33.449  1.00  0.00     0.034 A 
ATOM     56  C   UNL A   1      42.553  25.689  28.428  1.00  0.00     0.034 A 
ATOM     57  C   UNL A   1      44.072  29.675  33.397  1.00  0.00     0.049 A 
ATOM     58  C   UNL A   1      43.751  25.804  29.336  1.00  0.00     0.074 A 
ATOM     59  C   UNL A   1      45.181  29.611  34.223  1.00  0.00     0.029 A 
ATOM     60  N   UNL A   1      44.216  28.659  32.460  1.00  0.00    -0.354 N 
ATOM     61  N   UNL A   1      43.965  26.647  30.321  1.00  0.00    -0.248 NA
ATOM     62  C   UNL A   1      44.842  24.847  29.117  1.00  0.00     0.031 C 
ATOM     63  C   UNL A   1      46.030  28.609  33.739  1.00  0.00     0.029 A 
ATOM     64  C   UNL A   1      45.413  27.988  32.665  1.00  0.00     0.049 A 
ATOM     65  H   UNL A   1      43.563  28.445  31.754  1.00  0.00     0.167 HD
ATOM     66  C   UNL A   1      45.200  26.296  30.859  1.00  0.00     0.074 A 
ATOM     67  C   UNL A   1      45.674  25.158  30.098  1.00  0.00     0.031 C 
ATOM     68  C   UNL A   1      45.879  26.860  31.892  1.00  0.00     0.034 A 
BRANCH  55  69
ATOM     69  C   UNL A   1      43.008  31.733  34.451  1.00  0.00     0.023 A 
ATOM     70  C   UNL A   1      42.490  31.591  35.750  1.00  0.00     0.031 A 
ATOM     71  C   UNL A   1      43.552  32.980  34.094  1.00  0.00     0.131 A 
ATOM     72  C   UNL A   1      42.455  32.695  36.616  1.00  0.00     0.055 A 
ATOM     73  C   UNL A   1      43.593  34.050  34.990  1.00  0.00     0.041 A 
ATOM     74  F   UNL A   1      44.042  33.185  32.861  1.00  0.00    -0.206 F 
ATOM     75  C   UNL A   1      43.028  33.916  36.254  1.00  0.00     0.022 A 
BRANCH  72  76
ATOM     76  S   UNL A   1      41.515  32.556  38.161  1.00  0.00     0.124 S 
ATOM     77  O   UNL A   1      40.207  32.126  37.673  1.00  0.00    -0.237 OA
ATOM     78  O   UNL A   1      42.278  31.560  38.905  1.00  0.00    -0.237 OA
ATOM     79  O   UNL A   1      41.553  33.910  38.709  1.00  0.00    -0.744 OA
ENDBRANCH  72  76
ENDBRANCH  55  69
BRANCH  56  80
ATOM     80  C   UNL A   1      42.509  24.659  27.350  1.00  0.00     0.023 A 
ATOM     81  C   UNL A   1      41.714  23.509  27.484  1.00  0.00     0.031 A 
ATOM     82  C   UNL A   1      43.296  24.784  26.192  1.00  0.00     0.131 A 
ATOM     83  C   UNL A   1      41.761  22.508  26.501  1.00  0.00     0.055 A 
ATOM     84  C   UNL A   1      43.296  23.812  25.190  1.00  0.00     0.041 A 
ATOM     85  F   UNL A   1      44.073  25.864  26.012  1.00  0.00    -0.206 F 
ATOM     86  C   UNL A   1      42.535  22.658  25.349  1.00  0.00     0.022 A 
BRANCH  83  87
ATOM     87  S   UNL A   1      40.863  20.960  26.797  1.00  0.00     0.124 S 
ATOM     88  O   UNL A   1      41.716  19.988  26.122  1.00  0.00    -0.237 OA
ATOM     89  O   UNL A   1      40.843  20.895  28.254  1.00  0.00    -0.237 OA
ATOM     90  O   UNL A   1      39.565  21.195  26.168  1.00  0.00    -0.744 OA
ENDBRANCH  83  87
ENDBRANCH  56  80
BRANCH  68  91
ATOM     91  C   UNL A   1      47.185  26.215  32.287  1.00  0.00     0.023 A 
ATOM     92  C   UNL A   1      47.255  25.228  33.286  1.00  0.00     0.031 A 
ATOM     93  C   UNL A   1      48.382  26.604  31.658  1.00  0.00     0.131 A 
ATOM     94  C   UNL A   1      48.501  24.707  33.667  1.00  0.00     0.055 A 
ATOM     95  C   UNL A   1      49.610  26.033  31.995  1.00  0.00     0.041 A 
ATOM     96  F   UNL A   1      48.376  27.545  30.700  1.00  0.00    -0.206 F 
ATOM     97  C   UNL A   1      49.675  25.089  33.015  1.00  0.00     0.022 A 
BRANCH  94  98
ATOM     98  S   UNL A   1      48.578  23.595  35.098  1.00  0.00     0.124 S 
ATOM     99  O   UNL A   1      47.249  23.751  35.677  1.00  0.00    -0.237 OA
ATOM    100  O   UNL A   1      48.855  22.304  34.475  1.00  0.00    -0.237 OA
ATOM    101  O   UNL A   1      49.671  24.142  35.899  1.00  0.00    -0.744 OA
ENDBRANCH  94  98
ENDBRANCH  68  91
ENDBRANCH  42  43
ENDBRANCH  34  37
ENDBRANCH  32  33
ENDBRANCH  31  32
ENDBRANCH  30  31
ENDBRANCH  29  30
ENDBRANCH   1  29
TORSDOF 21
ENDMDL
MODEL 2
REMARK VINA RESULT:     -11.1      5.356      8.677
REMARK SMILES CC[C@@H](C)Oc1cccc(C(=O)Nc2ccc(Cl)c(C(=O)NCCCCCCNC(=O)c3ccc(-c4c5nc(c(-c6cc(S(=O)(=O)[O-])ccc6F)c6ccc([nH]6)c(-c6cc(S(=O)(=O)[O-])ccc6F)c6nc(c(-c7cc(S(=O)(=O)[O-])ccc7F)c7ccc4[nH]7)C=C6)C=C5)cc3)c2)c1
REMARK SMILES IDX 24 1 23 2 22 3 20 4 21 5 19 7 14 8 15 9 95 10 16 11 17 12
REMARK SMILES IDX 18 13 13 14 11 15 12 16 10 18 6 19 7 20 96 21 8 22 9 23 5 24
REMARK SMILES IDX 3 25 4 26 2 27 1 28 25 29 26 30 27 31 28 32 29 33 30 34
REMARK SMILES IDX 31 36 32 37 33 38 94 39 34 40 93 41 35 42 36 43 37 44 87 45
REMARK SMILES IDX 38 46 92 47 86 48 88 49 39 50 91 51 85 52 84 53 40 55 72 56
REMARK SMILES IDX 52 57 71 58 53 59 56 60 70 61 89 62 54 63 55 64 69 66 90 67
REMARK SMILES IDX 57 68 41 69 42 70 50 71 43 72 49 73 51 74 48 75 44 76 45 77
REMARK SMILES IDX 46 78 47 79 73 80 74 81 82 82 75 83 81 84 83 85 80 86 76 87
REMARK SMILES IDX 77 88 78 89 79 90 58 91 59 92 67 93 60 94 66 95 68 96 65 97
REMARK SMILES IDX 61 98 62 99 63 100 64 101
REMARK H PARENT 22 6 13 17 29 35 88 54 56 65
REMARK Flexibility Score: inf
ROOT
ATOM      1  C   UNL A   1      36.100  24.090  25.009  1.00  0.00     0.021 C 
ENDROOT
BRANCH   1   2
ATOM      2  C   UNL A   1      34.990  23.537  24.119  1.00  0.00     0.116 C 
BRANCH   2   3
ATOM      3  N   UNL A   1      34.705  24.479  23.060  1.00  0.00    -0.352 N 
ATOM      4  C   UNL A   1      33.682  25.360  22.809  1.00  0.00     0.252 C 
ATOM      5  O   UNL A   1      33.627  25.758  21.646  1.00  0.00    -0.269 OA
ATOM      6  H   UNL A   1      35.400  24.492  22.362  1.00  0.00     0.163 HD
BRANCH   4   7
ATOM      7  C   UNL A   1      32.736  25.888  23.852  1.00  0.00     0.060 A 
ATOM      8  C   UNL A   1      31.098  25.503  25.637  1.00  0.00     0.042 A 
ATOM      9  C   UNL A   1      31.173  26.836  26.019  1.00  0.00     0.028 A 
ATOM     10  C   UNL A   1      31.787  25.074  24.497  1.00  0.00     0.041 A 
ATOM     11  C   UNL A   1      32.035  27.696  25.342  1.00  0.00     0.023 A 
ATOM     12  C   UNL A   1      32.834  27.228  24.288  1.00  0.00     0.053 A 
ATOM     13  Cl  UNL A   1      33.946  28.401  23.662  1.00  0.00    -0.083 Cl
BRANCH   8  14
ATOM     14  N   UNL A   1      30.335  24.642  26.442  1.00  0.00    -0.322 N 
ATOM     15  C   UNL A   1      30.517  23.323  26.818  1.00  0.00     0.255 C 
ATOM     16  O   UNL A   1      29.559  22.721  27.304  1.00  0.00    -0.269 OA
ATOM     17  H   UNL A   1      29.517  25.053  26.805  1.00  0.00     0.170 HD
BRANCH  15  18
ATOM     18  C   UNL A   1      31.842  22.630  26.772  1.00  0.00     0.043 A 
ATOM     19  C   UNL A   1      33.306  20.849  25.996  1.00  0.00     0.120 A 
ATOM     20  C   UNL A   1      34.301  21.311  26.861  1.00  0.00     0.046 A 
ATOM     21  C   UNL A   1      32.115  21.568  25.895  1.00  0.00     0.060 A 
ATOM     22  C   UNL A   1      34.101  22.456  27.634  1.00  0.00     0.005 A 
ATOM     23  C   UNL A   1      32.863  23.099  27.609  1.00  0.00     0.014 A 
BRANCH  19  24
ATOM     24  O   UNL A   1      33.552  19.619  25.456  1.00  0.00    -0.491 OA
BRANCH  24  25
ATOM     25  C   UNL A   1      32.534  18.766  24.910  1.00  0.00     0.170 C 
ATOM     26  C   UNL A   1      32.547  17.394  25.568  1.00  0.00     0.053 C 
BRANCH  25  27
ATOM     27  C   UNL A   1      32.432  18.796  23.378  1.00  0.00     0.041 C 
ATOM     28  C   UNL A   1      33.034  17.593  22.669  1.00  0.00     0.008 C 
ENDBRANCH  25  27
ENDBRANCH  24  25
ENDBRANCH  19  24
ENDBRANCH  15  18
ENDBRANCH   8  14
ENDBRANCH   4   7
ENDBRANCH   2   3
ENDBRANCH   1   2
BRANCH   1  29
ATOM     29  C   UNL A   1      37.202  23.054  25.248  1.00  0.00     0.002 C 
BRANCH  29  30
ATOM     30  C   UNL A   1      37.073  21.797  24.377  1.00  0.00     0.002 C 
BRANCH  30  31
ATOM     31  C   UNL A   1      37.883  20.594  24.869  1.00  0.00     0.021 C 
BRANCH  31  32
ATOM     32  C   UNL A   1      38.956  20.945  25.893  1.00  0.00     0.116 C 
BRANCH  32  33
ATOM     33  N   UNL A   1      39.927  19.871  26.031  1.00  0.00    -0.352 N 
ATOM     34  C   UNL A   1      41.290  19.953  26.132  1.00  0.00     0.251 C 
ATOM     35  H   UNL A   1      39.553  18.960  26.055  1.00  0.00     0.163 HD
ATOM     36  O   UNL A   1      41.979  18.943  25.974  1.00  0.00    -0.269 OA
BRANCH  34  37
ATOM     37  C   UNL A   1      41.922  21.255  26.416  1.00  0.00     0.039 A 
ATOM     38  C   UNL A   1      42.157  22.142  25.365  1.00  0.00     0.014 A 
ATOM     39  C   UNL A   1      42.281  21.597  27.725  1.00  0.00     0.014 A 
ATOM     40  C   UNL A   1      42.710  23.395  25.632  1.00  0.00     0.010 A 
ATOM     41  C   UNL A   1      42.762  22.872  27.998  1.00  0.00     0.010 A 
ATOM     42  C   UNL A   1      42.988  23.781  26.955  1.00  0.00    -0.014 A 
BRANCH  42  43
ATOM     43  C   UNL A   1      43.530  25.130  27.262  1.00  0.00     0.031 A 
ATOM     44  C   UNL A   1      42.639  26.176  27.873  1.00  0.00     0.074 A 
ATOM     45  C   UNL A   1      44.806  25.424  26.941  1.00  0.00     0.049 A 
ATOM     46  N   UNL A   1      42.903  27.425  28.157  1.00  0.00    -0.248 NA
ATOM     47  C   UNL A   1      41.258  25.771  28.176  1.00  0.00     0.031 C 
ATOM     48  C   UNL A   1      45.752  24.497  26.312  1.00  0.00     0.029 A 
ATOM     49  N   UNL A   1      45.525  26.581  27.091  1.00  0.00    -0.354 N 
ATOM     50  C   UNL A   1      41.720  27.959  28.657  1.00  0.00     0.074 A 
ATOM     51  C   UNL A   1      40.723  26.914  28.579  1.00  0.00     0.031 C 
ATOM     52  C   UNL A   1      46.935  25.114  26.161  1.00  0.00     0.029 A 
ATOM     53  C   UNL A   1      46.820  26.491  26.632  1.00  0.00     0.049 A 
ATOM     54  H   UNL A   1      45.152  27.399  27.489  1.00  0.00     0.167 HD
ATOM     55  C   UNL A   1      41.495  29.200  29.157  1.00  0.00     0.034 A 
ATOM     56  C   UNL A   1      47.798  27.417  26.585  1.00  0.00     0.034 A 
ATOM     57  C   UNL A   1      42.509  30.225  29.236  1.00  0.00     0.049 A 
ATOM     58  C   UNL A   1      47.513  28.800  27.114  1.00  0.00     0.074 A 
ATOM     59  C   UNL A   1      42.409  31.495  29.778  1.00  0.00     0.029 A 
ATOM     60  N   UNL A   1      43.804  30.103  28.749  1.00  0.00    -0.354 N 
ATOM     61  N   UNL A   1      46.405  29.274  27.637  1.00  0.00    -0.248 NA
ATOM     62  C   UNL A   1      48.613  29.770  27.056  1.00  0.00     0.031 C 
ATOM     63  C   UNL A   1      43.615  32.165  29.550  1.00  0.00     0.029 A 
ATOM     64  C   UNL A   1      44.500  31.287  28.944  1.00  0.00     0.049 A 
ATOM     65  H   UNL A   1      44.175  29.294  28.328  1.00  0.00     0.167 HD
ATOM     66  C   UNL A   1      46.689  30.587  28.003  1.00  0.00     0.074 A 
ATOM     67  C   UNL A   1      48.075  30.822  27.653  1.00  0.00     0.031 C 
ATOM     68  C   UNL A   1      45.880  31.512  28.580  1.00  0.00     0.034 A 
BRANCH  55  69
ATOM     69  C   UNL A   1      40.093  29.521  29.622  1.00  0.00     0.023 A 
ATOM     70  C   UNL A   1      39.768  29.615  30.986  1.00  0.00     0.031 A 
ATOM     71  C   UNL A   1      39.061  29.713  28.687  1.00  0.00     0.131 A 
ATOM     72  C   UNL A   1      38.435  29.814  31.378  1.00  0.00     0.055 A 
ATOM     73  C   UNL A   1      37.751  29.998  29.082  1.00  0.00     0.041 A 
ATOM     74  F   UNL A   1      39.303  29.615  27.370  1.00  0.00    -0.206 F 
ATOM     75  C   UNL A   1      37.429  30.034  30.435  1.00  0.00     0.022 A 
BRANCH  72  76
ATOM     76  S   UNL A   1      38.010  29.631  33.132  1.00  0.00     0.124 S 
ATOM     77  O   UNL A   1      37.413  30.932  33.428  1.00  0.00    -0.237 OA
ATOM     78  O   UNL A   1      37.094  28.496  33.117  1.00  0.00    -0.237 OA
ATOM     79  O   UNL A   1      39.299  29.385  33.774  1.00  0.00    -0.744 OA
ENDBRANCH  72  76
ENDBRANCH  55  69
BRANCH  56  80
ATOM     80  C   UNL A   1      49.134  27.079  26.014  1.00  0.00     0.023 A 
ATOM     81  C   UNL A   1      49.481  27.473  24.711  1.00  0.00     0.031 A 
ATOM     82  C   UNL A   1      50.065  26.319  26.743  1.00  0.00     0.131 A 
ATOM     83  C   UNL A   1      50.705  27.062  24.160  1.00  0.00     0.055 A 
ATOM     84  C   UNL A   1      51.305  25.962  26.210  1.00  0.00     0.041 A 
ATOM     85  F   UNL A   1      49.786  25.919  27.994  1.00  0.00    -0.206 F 
ATOM     86  C   UNL A   1      51.625  26.322  24.905  1.00  0.00     0.022 A 
BRANCH  83  87
ATOM     87  S   UNL A   1      51.038  27.434  22.416  1.00  0.00     0.124 S 
ATOM     88  O   UNL A   1      51.190  28.884  22.445  1.00  0.00    -0.237 OA
ATOM     89  O   UNL A   1      52.253  26.665  22.169  1.00  0.00    -0.237 OA
ATOM     90  O   UNL A   1      49.843  26.944  21.731  1.00  0.00    -0.744 OA
ENDBRANCH  83  87
ENDBRANCH  56  80
BRANCH  68  91
ATOM     91  C   UNL A   1      46.497  32.849  28.914  1.00  0.00     0.023 A 
ATOM     92  C   UNL A   1      46.457  33.931  28.017  1.00  0.00     0.031 A 
ATOM     93  C   UNL A   1      47.144  33.038  30.148  1.00  0.00     0.131 A 
ATOM     94  C   UNL A   1      47.103  35.133  28.343  1.00  0.00     0.055 A 
ATOM     95  C   UNL A   1      47.727  34.258  30.495  1.00  0.00     0.041 A 
ATOM     96  F   UNL A   1      47.216  32.039  31.043  1.00  0.00    -0.206 F 
ATOM     97  C   UNL A   1      47.721  35.309  29.583  1.00  0.00     0.022 A 
BRANCH  94  98
ATOM     98  S   UNL A   1      47.214  36.432  27.082  1.00  0.00     0.124 S 
ATOM     99  O   UNL A   1      45.813  36.635  26.730  1.00  0.00    -0.237 OA
ATOM    100  O   UNL A   1      47.853  37.523  27.813  1.00  0.00    -0.237 OA
ATOM    101  O   UNL A   1      48.035  35.825  26.036  1.00  0.00    -0.744 OA
ENDBRANCH  94  98
ENDBRANCH  68  91
ENDBRANCH  42  43
ENDBRANCH  34  37
ENDBRANCH  32  33
ENDBRANCH  31  32
ENDBRANCH  30  31
ENDBRANCH  29  30
ENDBRANCH   1  29
TORSDOF 21
ENDMDL
MODEL 3
REMARK VINA RESULT:     -11.1      4.661      9.702
REMARK SMILES CC[C@@H](C)Oc1cccc(C(=O)Nc2ccc(Cl)c(C(=O)NCCCCCCNC(=O)c3ccc(-c4c5nc(c(-c6cc(S(=O)(=O)[O-])ccc6F)c6ccc([nH]6)c(-c6cc(S(=O)(=O)[O-])ccc6F)c6nc(c(-c7cc(S(=O)(=O)[O-])ccc7F)c7ccc4[nH]7)C=C6)C=C5)cc3)c2)c1
REMARK SMILES IDX 24 1 23 2 22 3 20 4 21 5 19 7 14 8 15 9 95 10 16 11 17 12
REMARK SMILES IDX 18 13 13 14 11 15 12 16 10 18 6 19 7 20 96 21 8 22 9 23 5 24
REMARK SMILES IDX 3 25 4 26 2 27 1 28 25 29 26 30 27 31 28 32 29 33 30 34
REMARK SMILES IDX 31 36 32 37 33 38 94 39 34 40 93 41 35 42 36 43 37 44 87 45
REMARK SMILES IDX 38 46 92 47 86 48 88 49 39 50 91 51 85 52 84 53 40 55 72 56
REMARK SMILES IDX 52 57 71 58 53 59 56 60 70 61 89 62 54 63 55 64 69 66 90 67
REMARK SMILES IDX 57 68 41 69 42 70 50 71 43 72 49 73 51 74 48 75 44 76 45 77
REMARK SMILES IDX 46 78 47 79 73 80 74 81 82 82 75 83 81 84 83 85 80 86 76 87
REMARK SMILES IDX 77 88 78 89 79 90 58 91 59 92 67 93 60 94 66 95 68 96 65 97
REMARK SMILES IDX 61 98 62 99 63 100 64 101
REMARK H PARENT 22 6 13 17 29 35 88 54 56 65
REMARK Flexibility Score: inf
ROOT
ATOM      1  C   UNL A   1      35.543  24.057  24.673  1.00  0.00     0.021 C 
ENDROOT
BRANCH   1   2
ATOM      2  C   UNL A   1      34.742  23.460  23.520  1.00  0.00     0.116 C 
BRANCH   2   3
ATOM      3  N   UNL A   1      34.410  24.500  22.572  1.00  0.00    -0.352 N 
ATOM      4  C   UNL A   1      33.401  25.426  22.477  1.00  0.00     0.252 C 
ATOM      5  O   UNL A   1      33.272  25.927  21.362  1.00  0.00    -0.269 OA
ATOM      6  H   UNL A   1      35.051  24.557  21.827  1.00  0.00     0.163 HD
BRANCH   4   7
ATOM      7  C   UNL A   1      32.552  25.883  23.632  1.00  0.00     0.060 A 
ATOM      8  C   UNL A   1      30.991  25.390  25.459  1.00  0.00     0.042 A 
ATOM      9  C   UNL A   1      31.180  26.660  25.988  1.00  0.00     0.028 A 
ATOM     10  C   UNL A   1      31.585  25.058  24.236  1.00  0.00     0.041 A 
ATOM     11  C   UNL A   1      32.061  27.540  25.363  1.00  0.00     0.023 A 
ATOM     12  C   UNL A   1      32.767  27.152  24.214  1.00  0.00     0.053 A 
ATOM     13  Cl  UNL A   1      33.922  28.321  23.660  1.00  0.00    -0.083 Cl
BRANCH   8  14
ATOM     14  N   UNL A   1      30.216  24.487  26.205  1.00  0.00    -0.322 N 
ATOM     15  C   UNL A   1      30.421  23.167  26.563  1.00  0.00     0.255 C 
ATOM     16  O   UNL A   1      29.458  22.525  26.985  1.00  0.00    -0.269 OA
ATOM     17  H   UNL A   1      29.368  24.865  26.534  1.00  0.00     0.170 HD
BRANCH  15  18
ATOM     18  C   UNL A   1      31.768  22.516  26.570  1.00  0.00     0.043 A 
ATOM     19  C   UNL A   1      33.337  20.823  25.803  1.00  0.00     0.120 A 
ATOM     20  C   UNL A   1      34.256  21.265  26.758  1.00  0.00     0.046 A 
ATOM     21  C   UNL A   1      32.133  21.512  25.659  1.00  0.00     0.060 A 
ATOM     22  C   UNL A   1      33.968  22.359  27.575  1.00  0.00     0.005 A 
ATOM     23  C   UNL A   1      32.714  22.967  27.499  1.00  0.00     0.014 A 
BRANCH  19  24
ATOM     24  O   UNL A   1      33.658  19.632  25.217  1.00  0.00    -0.491 OA
BRANCH  24  25
ATOM     25  C   UNL A   1      32.691  18.641  24.837  1.00  0.00     0.170 C 
ATOM     26  C   UNL A   1      32.667  17.483  25.825  1.00  0.00     0.053 C 
BRANCH  25  27
ATOM     27  C   UNL A   1      32.706  18.274  23.346  1.00  0.00     0.041 C 
ATOM     28  C   UNL A   1      33.700  17.191  22.958  1.00  0.00     0.008 C 
ENDBRANCH  25  27
ENDBRANCH  24  25
ENDBRANCH  19  24
ENDBRANCH  15  18
ENDBRANCH   8  14
ENDBRANCH   4   7
ENDBRANCH   2   3
ENDBRANCH   1   2
BRANCH   1  29
ATOM     29  C   UNL A   1      36.864  23.313  24.890  1.00  0.00     0.002 C 
BRANCH  29  30
ATOM     30  C   UNL A   1      36.931  21.950  24.188  1.00  0.00     0.002 C 
BRANCH  30  31
ATOM     31  C   UNL A   1      37.755  20.891  24.927  1.00  0.00     0.021 C 
BRANCH  31  32
ATOM     32  C   UNL A   1      38.782  21.467  25.894  1.00  0.00     0.116 C 
BRANCH  32  33
ATOM     33  N   UNL A   1      39.870  20.531  26.129  1.00  0.00    -0.352 N 
ATOM     34  C   UNL A   1      41.187  20.794  26.396  1.00  0.00     0.251 C 
ATOM     35  H   UNL A   1      39.626  19.578  26.092  1.00  0.00     0.163 HD
ATOM     36  O   UNL A   1      42.024  19.893  26.304  1.00  0.00    -0.269 OA
BRANCH  34  37
ATOM     37  C   UNL A   1      41.594  22.159  26.777  1.00  0.00     0.039 A 
ATOM     38  C   UNL A   1      41.901  23.083  25.777  1.00  0.00     0.014 A 
ATOM     39  C   UNL A   1      41.672  22.524  28.126  1.00  0.00     0.014 A 
ATOM     40  C   UNL A   1      42.240  24.390  26.129  1.00  0.00     0.010 A 
ATOM     41  C   UNL A   1      41.937  23.844  28.471  1.00  0.00     0.010 A 
ATOM     42  C   UNL A   1      42.231  24.789  27.477  1.00  0.00    -0.014 A 
BRANCH  42  43
ATOM     43  C   UNL A   1      42.540  26.189  27.865  1.00  0.00     0.031 A 
ATOM     44  C   UNL A   1      43.956  26.693  27.796  1.00  0.00     0.074 A 
ATOM     45  C   UNL A   1      41.556  26.983  28.330  1.00  0.00     0.049 A 
ATOM     46  N   UNL A   1      44.438  27.856  28.149  1.00  0.00    -0.248 NA
ATOM     47  C   UNL A   1      44.967  25.752  27.291  1.00  0.00     0.031 C 
ATOM     48  C   UNL A   1      40.151  26.589  28.474  1.00  0.00     0.029 A 
ATOM     49  N   UNL A   1      41.582  28.280  28.773  1.00  0.00    -0.354 N 
ATOM     50  C   UNL A   1      45.809  27.783  27.923  1.00  0.00     0.074 A 
ATOM     51  C   UNL A   1      46.085  26.440  27.462  1.00  0.00     0.031 C 
ATOM     52  C   UNL A   1      39.448  27.633  28.940  1.00  0.00     0.029 A 
ATOM     53  C   UNL A   1      40.354  28.753  29.177  1.00  0.00     0.049 A 
ATOM     54  H   UNL A   1      42.402  28.823  28.799  1.00  0.00     0.167 HD
ATOM     55  C   UNL A   1      46.745  28.754  28.067  1.00  0.00     0.034 A 
ATOM     56  C   UNL A   1      40.002  29.948  29.691  1.00  0.00     0.034 A 
ATOM     57  C   UNL A   1      46.444  30.092  28.518  1.00  0.00     0.049 A 
ATOM     58  C   UNL A   1      41.066  31.000  29.874  1.00  0.00     0.074 A 
ATOM     59  C   UNL A   1      47.301  31.172  28.642  1.00  0.00     0.029 A 
ATOM     60  N   UNL A   1      45.192  30.530  28.931  1.00  0.00    -0.354 N 
ATOM     61  N   UNL A   1      42.350  30.935  29.602  1.00  0.00    -0.248 NA
ATOM     62  C   UNL A   1      40.633  32.291  30.422  1.00  0.00     0.031 C 
ATOM     63  C   UNL A   1      46.586  32.237  29.202  1.00  0.00     0.029 A 
ATOM     64  C   UNL A   1      45.263  31.852  29.346  1.00  0.00     0.049 A 
ATOM     65  H   UNL A   1      44.373  29.983  28.929  1.00  0.00     0.167 HD
ATOM     66  C   UNL A   1      42.869  32.189  29.914  1.00  0.00     0.074 A 
ATOM     67  C   UNL A   1      41.756  32.991  30.380  1.00  0.00     0.031 C 
ATOM     68  C   UNL A   1      44.147  32.638  29.820  1.00  0.00     0.034 A 
BRANCH  55  69
ATOM     69  C   UNL A   1      48.180  28.391  27.764  1.00  0.00     0.023 A 
ATOM     70  C   UNL A   1      48.713  28.493  26.467  1.00  0.00     0.031 A 
ATOM     71  C   UNL A   1      49.022  27.912  28.783  1.00  0.00     0.131 A 
ATOM     72  C   UNL A   1      50.018  28.049  26.207  1.00  0.00     0.055 A 
ATOM     73  C   UNL A   1      50.350  27.554  28.535  1.00  0.00     0.041 A 
ATOM     74  F   UNL A   1      48.566  27.771  30.038  1.00  0.00    -0.206 F 
ATOM     75  C   UNL A   1      50.850  27.606  27.238  1.00  0.00     0.022 A 
BRANCH  72  76
ATOM     76  S   UNL A   1      50.563  27.917  24.482  1.00  0.00     0.124 S 
ATOM     77  O   UNL A   1      51.313  26.663  24.505  1.00  0.00    -0.237 OA
ATOM     78  O   UNL A   1      49.300  27.893  23.754  1.00  0.00    -0.237 OA
ATOM     79  O   UNL A   1      51.375  29.116  24.285  1.00  0.00    -0.744 OA
ENDBRANCH  72  76
ENDBRANCH  55  69
BRANCH  56  80
ATOM     80  C   UNL A   1      38.587  30.219  30.077  1.00  0.00     0.023 A 
ATOM     81  C   UNL A   1      37.700  30.832  29.179  1.00  0.00     0.031 A 
ATOM     82  C   UNL A   1      38.113  29.911  31.365  1.00  0.00     0.131 A 
ATOM     83  C   UNL A   1      36.401  31.164  29.595  1.00  0.00     0.055 A 
ATOM     84  C   UNL A   1      36.802  30.192  31.755  1.00  0.00     0.041 A 
ATOM     85  F   UNL A   1      38.918  29.322  32.263  1.00  0.00    -0.206 F 
ATOM     86  C   UNL A   1      35.942  30.836  30.872  1.00  0.00     0.022 A 
BRANCH  83  87
ATOM     87  S   UNL A   1      35.347  32.118  28.468  1.00  0.00     0.124 S 
ATOM     88  O   UNL A   1      34.914  31.092  27.527  1.00  0.00    -0.237 OA
ATOM     89  O   UNL A   1      34.325  32.634  29.373  1.00  0.00    -0.237 OA
ATOM     90  O   UNL A   1      36.257  33.124  27.922  1.00  0.00    -0.744 OA
ENDBRANCH  83  87
ENDBRANCH  56  80
BRANCH  68  91
ATOM     91  C   UNL A   1      44.394  34.082  30.182  1.00  0.00     0.023 A 
ATOM     92  C   UNL A   1      44.080  35.134  29.304  1.00  0.00     0.031 A 
ATOM     93  C   UNL A   1      44.963  34.409  31.426  1.00  0.00     0.131 A 
ATOM     94  C   UNL A   1      44.392  36.456  29.656  1.00  0.00     0.055 A 
ATOM     95  C   UNL A   1      45.209  35.731  31.799  1.00  0.00     0.041 A 
ATOM     96  F   UNL A   1      45.287  33.446  32.305  1.00  0.00    -0.206 F 
ATOM     97  C   UNL A   1      44.936  36.763  30.906  1.00  0.00     0.022 A 
BRANCH  94  98
ATOM     98  S   UNL A   1      44.170  37.763  28.419  1.00  0.00     0.124 S 
ATOM     99  O   UNL A   1      42.723  37.764  28.234  1.00  0.00    -0.237 OA
ATOM    100  O   UNL A   1      44.727  38.931  29.095  1.00  0.00    -0.237 OA
ATOM    101  O   UNL A   1      44.941  37.286  27.273  1.00  0.00    -0.744 OA
ENDBRANCH  94  98
ENDBRANCH  68  91
ENDBRANCH  42  43
ENDBRANCH  34  37
ENDBRANCH  32  33
ENDBRANCH  31  32
ENDBRANCH  30  31
ENDBRANCH  29  30
ENDBRANCH   1  29
TORSDOF 21
ENDMDL
