MODEL 1
REMARK VINA RESULT:     -12.0      0.000      0.000
REMARK SMILES O=C(Cn1cnc(-c2ccccc2)c1-c1ccccc1)NCCCCCCNC(=O)c1ccc(-c2c3nc(c(-c4cc(S(=O)(=O)[O-])ccc4F)c4ccc([nH]4)c(-c4cc(S(=O)(=O)[O-])ccc4F)c4nc(c(-c5cc(S(=O)(=O)[O-])ccc5F)c5ccc2[nH]5)C=C4)C=C3)cc1
REMARK SMILES IDX 25 1 24 2 23 3 22 4 21 5 1 6 2 7 3 9 4 10 5 11 14 12 6 13
REMARK SMILES IDX 7 14 15 15 16 16 20 17 17 18 19 19 18 20 8 21 9 22 13 23
REMARK SMILES IDX 10 24 12 25 11 26 26 27 27 28 28 29 29 30 30 32 31 33 32 34
REMARK SMILES IDX 93 35 33 36 92 37 34 38 35 39 36 40 86 41 37 42 91 43 85 44
REMARK SMILES IDX 87 45 38 46 90 47 84 48 83 49 39 51 71 52 51 53 70 54 52 55
REMARK SMILES IDX 55 56 69 57 88 58 53 59 54 60 68 62 89 63 56 64 40 65 41 66
REMARK SMILES IDX 49 67 42 68 48 69 50 70 47 71 43 72 44 73 45 74 46 75 72 76
REMARK SMILES IDX 73 77 81 78 74 79 80 80 82 81 79 82 75 83 76 84 77 85 78 86
REMARK SMILES IDX 57 87 58 88 66 89 59 90 65 91 67 92 64 93 60 94 61 95 62 96
REMARK SMILES IDX 63 97
REMARK H PARENT 21 8 28 31 87 50 55 61
REMARK Flexibility Score: inf
ROOT
ATOM      1  C   UNL A   1      32.504  31.738  27.067  1.00  0.00     0.002 C 
ENDROOT
BRANCH   1   2
ATOM      2  C   UNL A   1      31.398  30.917  26.389  1.00  0.00     0.002 C 
BRANCH   2   3
ATOM      3  C   UNL A   1      31.863  29.789  25.459  1.00  0.00     0.021 C 
BRANCH   3   4
ATOM      4  C   UNL A   1      30.885  29.422  24.346  1.00  0.00     0.116 C 
BRANCH   4   5
ATOM      5  N   UNL A   1      31.008  28.028  23.967  1.00  0.00    -0.355 N 
ATOM      6  O   UNL A   1      29.791  28.181  22.023  1.00  0.00    -0.273 OA
ATOM      7  C   UNL A   1      30.448  27.514  22.817  1.00  0.00     0.239 C 
ATOM      8  H   UNL A   1      31.515  27.423  24.555  1.00  0.00     0.163 HD
BRANCH   7   9
ATOM      9  C   UNL A   1      30.711  26.039  22.599  1.00  0.00     0.223 C 
BRANCH   9  10
ATOM     10  N   UNL A   1      32.116  25.657  22.654  1.00  0.00    -0.321 N 
ATOM     11  C   UNL A   1      33.114  26.079  21.815  1.00  0.00     0.201 A 
ATOM     12  C   UNL A   1      32.695  24.840  23.613  1.00  0.00     0.076 A 
ATOM     13  N   UNL A   1      34.291  25.640  22.189  1.00  0.00    -0.236 NA
ATOM     14  C   UNL A   1      34.043  24.837  23.271  1.00  0.00     0.096 A 
BRANCH  12  15
ATOM     15  C   UNL A   1      31.999  24.167  24.709  1.00  0.00     0.000 A 
ATOM     16  C   UNL A   1      31.643  22.816  24.587  1.00  0.00     0.010 A 
ATOM     17  C   UNL A   1      31.587  24.876  25.843  1.00  0.00     0.010 A 
ATOM     18  C   UNL A   1      30.880  22.190  25.575  1.00  0.00     0.001 A 
ATOM     19  C   UNL A   1      30.833  24.246  26.837  1.00  0.00     0.001 A 
ATOM     20  C   UNL A   1      30.473  22.907  26.699  1.00  0.00     0.000 A 
ENDBRANCH  12  15
BRANCH  14  21
ATOM     21  C   UNL A   1      35.083  24.071  23.929  1.00  0.00     0.002 A 
ATOM     22  C   UNL A   1      35.419  24.337  25.260  1.00  0.00     0.010 A 
ATOM     23  C   UNL A   1      35.765  23.063  23.235  1.00  0.00     0.010 A 
ATOM     24  C   UNL A   1      36.410  23.586  25.896  1.00  0.00     0.001 A 
ATOM     25  C   UNL A   1      36.758  22.318  23.869  1.00  0.00     0.001 A 
ATOM     26  C   UNL A   1      37.077  22.577  25.200  1.00  0.00     0.000 A 
ENDBRANCH  14  21
ENDBRANCH   9  10
ENDBRANCH   7   9
ENDBRANCH   4   5
ENDBRANCH   3   4
ENDBRANCH   2   3
ENDBRANCH   1   2
BRANCH   1  27
ATOM     27  C   UNL A   1      33.824  31.009  27.348  1.00  0.00     0.021 C 
BRANCH  27  28
ATOM     28  C   UNL A   1      34.983  31.917  27.743  1.00  0.00     0.116 C 
BRANCH  28  29
ATOM     29  N   UNL A   1      34.890  32.388  29.121  1.00  0.00    -0.352 N 
ATOM     30  C   UNL A   1      35.553  31.907  30.236  1.00  0.00     0.251 C 
ATOM     31  H   UNL A   1      34.278  33.144  29.277  1.00  0.00     0.163 HD
ATOM     32  O   UNL A   1      35.097  32.100  31.353  1.00  0.00    -0.269 OA
BRANCH  30  33
ATOM     33  C   UNL A   1      36.811  31.151  30.056  1.00  0.00     0.039 A 
ATOM     34  C   UNL A   1      38.046  31.805  30.019  1.00  0.00     0.014 A 
ATOM     35  C   UNL A   1      36.744  29.765  29.933  1.00  0.00     0.014 A 
ATOM     36  C   UNL A   1      39.213  31.043  29.953  1.00  0.00     0.010 A 
ATOM     37  C   UNL A   1      37.892  29.012  29.999  1.00  0.00     0.010 A 
ATOM     38  C   UNL A   1      39.133  29.640  29.974  1.00  0.00    -0.014 A 
BRANCH  38  39
ATOM     39  C   UNL A   1      40.336  28.821  30.139  1.00  0.00     0.031 A 
ATOM     40  C   UNL A   1      40.694  28.542  31.555  1.00  0.00     0.074 A 
ATOM     41  C   UNL A   1      40.948  28.165  29.126  1.00  0.00     0.049 A 
ATOM     42  N   UNL A   1      41.720  28.983  32.203  1.00  0.00    -0.248 NA
ATOM     43  C   UNL A   1      39.726  27.827  32.402  1.00  0.00     0.031 C 
ATOM     44  C   UNL A   1      40.552  28.130  27.715  1.00  0.00     0.029 A 
ATOM     45  N   UNL A   1      41.987  27.282  29.165  1.00  0.00    -0.354 N 
ATOM     46  C   UNL A   1      41.671  28.377  33.453  1.00  0.00     0.074 A 
ATOM     47  C   UNL A   1      40.327  27.883  33.592  1.00  0.00     0.031 C 
ATOM     48  C   UNL A   1      41.172  27.103  27.095  1.00  0.00     0.029 A 
ATOM     49  C   UNL A   1      42.123  26.502  28.015  1.00  0.00     0.049 A 
ATOM     50  H   UNL A   1      42.591  27.200  29.938  1.00  0.00     0.167 HD
ATOM     51  C   UNL A   1      42.817  28.095  34.136  1.00  0.00     0.034 A 
ATOM     52  C   UNL A   1      42.936  25.427  27.825  1.00  0.00     0.034 A 
ATOM     53  C   UNL A   1      43.940  28.820  33.575  1.00  0.00     0.049 A 
ATOM     54  C   UNL A   1      44.044  25.556  28.801  1.00  0.00     0.074 A 
ATOM     55  C   UNL A   1      44.196  30.154  33.310  1.00  0.00     0.029 A 
ATOM     56  N   UNL A   1      44.857  28.118  32.821  1.00  0.00    -0.354 N 
ATOM     57  N   UNL A   1      44.924  26.519  28.754  1.00  0.00    -0.248 NA
ATOM     58  C   UNL A   1      43.896  24.923  30.104  1.00  0.00     0.031 C 
ATOM     59  C   UNL A   1      44.863  30.153  32.048  1.00  0.00     0.029 A 
ATOM     60  C   UNL A   1      45.070  28.827  31.664  1.00  0.00     0.049 A 
ATOM     61  H   UNL A   1      45.281  27.263  33.067  1.00  0.00     0.167 HD
ATOM     62  C   UNL A   1      45.079  26.921  30.070  1.00  0.00     0.074 A 
ATOM     63  C   UNL A   1      44.520  25.828  30.865  1.00  0.00     0.031 C 
ATOM     64  C   UNL A   1      45.373  28.219  30.382  1.00  0.00     0.034 A 
BRANCH  51  65
ATOM     65  C   UNL A   1      43.020  26.888  35.031  1.00  0.00     0.023 A 
ATOM     66  C   UNL A   1      43.796  25.835  34.506  1.00  0.00     0.031 A 
ATOM     67  C   UNL A   1      42.273  26.574  36.190  1.00  0.00     0.131 A 
ATOM     68  C   UNL A   1      43.694  24.533  35.021  1.00  0.00     0.055 A 
ATOM     69  C   UNL A   1      42.237  25.292  36.747  1.00  0.00     0.041 A 
ATOM     70  F   UNL A   1      41.469  27.451  36.799  1.00  0.00    -0.206 F 
ATOM     71  C   UNL A   1      42.916  24.251  36.140  1.00  0.00     0.022 A 
BRANCH  68  72
ATOM     72  S   UNL A   1      44.430  23.183  34.068  1.00  0.00     0.124 S 
ATOM     73  O   UNL A   1      44.514  22.132  35.077  1.00  0.00    -0.237 OA
ATOM     74  O   UNL A   1      43.439  22.987  33.014  1.00  0.00    -0.237 OA
ATOM     75  O   UNL A   1      45.708  23.735  33.629  1.00  0.00    -0.744 OA
ENDBRANCH  68  72
ENDBRANCH  51  65
BRANCH  52  76
ATOM     76  C   UNL A   1      42.680  24.198  27.018  1.00  0.00     0.023 A 
ATOM     77  C   UNL A   1      43.645  23.627  26.158  1.00  0.00     0.031 A 
ATOM     78  C   UNL A   1      41.532  23.414  27.279  1.00  0.00     0.131 A 
ATOM     79  C   UNL A   1      43.445  22.334  25.612  1.00  0.00     0.055 A 
ATOM     80  C   UNL A   1      41.337  22.143  26.735  1.00  0.00     0.041 A 
ATOM     81  F   UNL A   1      40.594  23.820  28.150  1.00  0.00    -0.206 F 
ATOM     82  C   UNL A   1      42.300  21.591  25.908  1.00  0.00     0.022 A 
BRANCH  79  83
ATOM     83  S   UNL A   1      44.730  21.539  24.588  1.00  0.00     0.124 S 
ATOM     84  O   UNL A   1      44.300  20.146  24.576  1.00  0.00    -0.237 OA
ATOM     85  O   UNL A   1      44.624  22.264  23.328  1.00  0.00    -0.237 OA
ATOM     86  O   UNL A   1      45.964  21.794  25.333  1.00  0.00    -0.744 OA
ENDBRANCH  79  83
ENDBRANCH  52  76
BRANCH  64  87
ATOM     87  C   UNL A   1      45.842  29.145  29.276  1.00  0.00     0.023 A 
ATOM     88  C   UNL A   1      45.001  29.970  28.493  1.00  0.00     0.031 A 
ATOM     89  C   UNL A   1      47.230  29.270  29.087  1.00  0.00     0.131 A 
ATOM     90  C   UNL A   1      45.559  30.861  27.553  1.00  0.00     0.055 A 
ATOM     91  C   UNL A   1      47.780  30.171  28.175  1.00  0.00     0.041 A 
ATOM     92  F   UNL A   1      48.086  28.536  29.817  1.00  0.00    -0.206 F 
ATOM     93  C   UNL A   1      46.945  30.964  27.398  1.00  0.00     0.022 A 
BRANCH  90  94
ATOM     94  S   UNL A   1      44.490  31.888  26.493  1.00  0.00     0.124 S 
ATOM     95  O   UNL A   1      43.421  30.977  26.098  1.00  0.00    -0.237 OA
ATOM     96  O   UNL A   1      44.104  32.974  27.390  1.00  0.00    -0.237 OA
ATOM     97  O   UNL A   1      45.380  32.291  25.402  1.00  0.00    -0.744 OA
ENDBRANCH  90  94
ENDBRANCH  64  87
ENDBRANCH  38  39
ENDBRANCH  30  33
ENDBRANCH  28  29
ENDBRANCH  27  28
ENDBRANCH   1  27
TORSDOF 19
ENDMDL
MODEL 2
REMARK VINA RESULT:     -12.0      3.718      8.723
REMARK SMILES O=C(Cn1cnc(-c2ccccc2)c1-c1ccccc1)NCCCCCCNC(=O)c1ccc(-c2c3nc(c(-c4cc(S(=O)(=O)[O-])ccc4F)c4ccc([nH]4)c(-c4cc(S(=O)(=O)[O-])ccc4F)c4nc(c(-c5cc(S(=O)(=O)[O-])ccc5F)c5ccc2[nH]5)C=C4)C=C3)cc1
REMARK SMILES IDX 25 1 24 2 23 3 22 4 21 5 1 6 2 7 3 9 4 10 5 11 14 12 6 13
REMARK SMILES IDX 7 14 15 15 16 16 20 17 17 18 19 19 18 20 8 21 9 22 13 23
REMARK SMILES IDX 10 24 12 25 11 26 26 27 27 28 28 29 29 30 30 32 31 33 32 34
REMARK SMILES IDX 93 35 33 36 92 37 34 38 35 39 36 40 86 41 37 42 91 43 85 44
REMARK SMILES IDX 87 45 38 46 90 47 84 48 83 49 39 51 71 52 51 53 70 54 52 55
REMARK SMILES IDX 55 56 69 57 88 58 53 59 54 60 68 62 89 63 56 64 40 65 41 66
REMARK SMILES IDX 49 67 42 68 48 69 50 70 47 71 43 72 44 73 45 74 46 75 72 76
REMARK SMILES IDX 73 77 81 78 74 79 80 80 82 81 79 82 75 83 76 84 77 85 78 86
REMARK SMILES IDX 57 87 58 88 66 89 59 90 65 91 67 92 64 93 60 94 61 95 62 96
REMARK SMILES IDX 63 97
REMARK H PARENT 21 8 28 31 87 50 55 61
REMARK Flexibility Score: inf
ROOT
ATOM      1  C   UNL A   1      36.367  22.173  25.542  1.00  0.00     0.002 C 
ENDROOT
BRANCH   1   2
ATOM      2  C   UNL A   1      34.958  22.299  26.139  1.00  0.00     0.002 C 
BRANCH   2   3
ATOM      3  C   UNL A   1      33.901  21.330  25.593  1.00  0.00     0.021 C 
BRANCH   3   4
ATOM      4  C   UNL A   1      33.767  21.308  24.072  1.00  0.00     0.116 C 
BRANCH   4   5
ATOM      5  N   UNL A   1      33.033  22.459  23.585  1.00  0.00    -0.355 N 
ATOM      6  O   UNL A   1      34.765  23.384  22.392  1.00  0.00    -0.273 OA
ATOM      7  C   UNL A   1      33.598  23.416  22.768  1.00  0.00     0.239 C 
ATOM      8  H   UNL A   1      32.089  22.562  23.848  1.00  0.00     0.163 HD
BRANCH   7   9
ATOM      9  C   UNL A   1      32.653  24.525  22.359  1.00  0.00     0.223 C 
BRANCH   9  10
ATOM     10  N   UNL A   1      33.001  25.843  22.878  1.00  0.00    -0.321 N 
ATOM     11  C   UNL A   1      33.746  26.801  22.244  1.00  0.00     0.201 A 
ATOM     12  C   UNL A   1      32.580  26.374  24.087  1.00  0.00     0.076 A 
ATOM     13  N   UNL A   1      33.794  27.920  22.926  1.00  0.00    -0.236 NA
ATOM     14  C   UNL A   1      33.115  27.656  24.087  1.00  0.00     0.096 A 
BRANCH  12  15
ATOM     15  C   UNL A   1      31.759  25.695  25.089  1.00  0.00     0.000 A 
ATOM     16  C   UNL A   1      32.348  24.782  25.975  1.00  0.00     0.010 A 
ATOM     17  C   UNL A   1      30.369  25.862  25.115  1.00  0.00     0.010 A 
ATOM     18  C   UNL A   1      31.562  24.042  26.861  1.00  0.00     0.001 A 
ATOM     19  C   UNL A   1      29.584  25.129  26.009  1.00  0.00     0.001 A 
ATOM     20  C   UNL A   1      30.179  24.215  26.876  1.00  0.00     0.000 A 
ENDBRANCH  12  15
BRANCH  14  21
ATOM     21  C   UNL A   1      33.020  28.615  25.170  1.00  0.00     0.002 A 
ATOM     22  C   UNL A   1      34.045  28.711  26.117  1.00  0.00     0.010 A 
ATOM     23  C   UNL A   1      31.899  29.448  25.281  1.00  0.00     0.010 A 
ATOM     24  C   UNL A   1      33.958  29.647  27.150  1.00  0.00     0.001 A 
ATOM     25  C   UNL A   1      31.811  30.378  26.317  1.00  0.00     0.001 A 
ATOM     26  C   UNL A   1      32.843  30.480  27.248  1.00  0.00     0.000 A 
ENDBRANCH  14  21
ENDBRANCH   9  10
ENDBRANCH   7   9
ENDBRANCH   4   5
ENDBRANCH   3   4
ENDBRANCH   2   3
ENDBRANCH   1   2
BRANCH   1  27
ATOM     27  C   UNL A   1      37.074  23.483  25.174  1.00  0.00     0.021 C 
BRANCH  27  28
ATOM     28  C   UNL A   1      37.843  24.137  26.317  1.00  0.00     0.116 C 
BRANCH  28  29
ATOM     29  N   UNL A   1      39.289  23.986  26.186  1.00  0.00    -0.352 N 
ATOM     30  C   UNL A   1      40.273  24.928  26.428  1.00  0.00     0.251 C 
ATOM     31  H   UNL A   1      39.604  23.101  25.888  1.00  0.00     0.163 HD
ATOM     32  O   UNL A   1      41.371  24.818  25.904  1.00  0.00    -0.269 OA
BRANCH  30  33
ATOM     33  C   UNL A   1      39.974  26.069  27.319  1.00  0.00     0.039 A 
ATOM     34  C   UNL A   1      39.460  25.865  28.604  1.00  0.00     0.014 A 
ATOM     35  C   UNL A   1      40.226  27.358  26.858  1.00  0.00     0.014 A 
ATOM     36  C   UNL A   1      39.292  26.964  29.447  1.00  0.00     0.010 A 
ATOM     37  C   UNL A   1      40.185  28.422  27.729  1.00  0.00     0.010 A 
ATOM     38  C   UNL A   1      39.685  28.242  29.016  1.00  0.00    -0.014 A 
BRANCH  38  39
ATOM     39  C   UNL A   1      39.739  29.368  29.951  1.00  0.00     0.031 A 
ATOM     40  C   UNL A   1      38.450  30.094  30.104  1.00  0.00     0.074 A 
ATOM     41  C   UNL A   1      40.772  29.604  30.791  1.00  0.00     0.049 A 
ATOM     42  N   UNL A   1      38.181  31.297  29.720  1.00  0.00    -0.248 NA
ATOM     43  C   UNL A   1      37.274  29.356  30.592  1.00  0.00     0.031 C 
ATOM     44  C   UNL A   1      41.999  28.816  30.942  1.00  0.00     0.029 A 
ATOM     45  N   UNL A   1      40.892  30.532  31.784  1.00  0.00    -0.354 N 
ATOM     46  C   UNL A   1      36.891  31.560  30.165  1.00  0.00     0.074 A 
ATOM     47  C   UNL A   1      36.317  30.277  30.471  1.00  0.00     0.031 C 
ATOM     48  C   UNL A   1      42.608  29.141  32.103  1.00  0.00     0.029 A 
ATOM     49  C   UNL A   1      41.907  30.264  32.703  1.00  0.00     0.049 A 
ATOM     50  H   UNL A   1      40.311  31.324  31.848  1.00  0.00     0.167 HD
ATOM     51  C   UNL A   1      36.515  32.827  30.502  1.00  0.00     0.034 A 
ATOM     52  C   UNL A   1      42.154  30.893  33.885  1.00  0.00     0.034 A 
ATOM     53  C   UNL A   1      37.464  33.797  29.991  1.00  0.00     0.049 A 
ATOM     54  C   UNL A   1      41.549  32.243  33.779  1.00  0.00     0.074 A 
ATOM     55  C   UNL A   1      37.982  34.077  28.739  1.00  0.00     0.029 A 
ATOM     56  N   UNL A   1      38.329  34.395  30.884  1.00  0.00    -0.354 N 
ATOM     57  N   UNL A   1      41.977  33.149  32.943  1.00  0.00    -0.248 NA
ATOM     58  C   UNL A   1      40.178  32.425  34.232  1.00  0.00     0.031 C 
ATOM     59  C   UNL A   1      39.363  34.348  28.969  1.00  0.00     0.029 A 
ATOM     60  C   UNL A   1      39.590  34.323  30.345  1.00  0.00     0.049 A 
ATOM     61  H   UNL A   1      38.086  34.798  31.749  1.00  0.00     0.167 HD
ATOM     62  C   UNL A   1      40.828  33.711  32.411  1.00  0.00     0.074 A 
ATOM     63  C   UNL A   1      39.758  33.316  33.328  1.00  0.00     0.031 C 
ATOM     64  C   UNL A   1      40.803  34.191  31.132  1.00  0.00     0.034 A 
BRANCH  51  65
ATOM     65  C   UNL A   1      35.543  33.177  31.613  1.00  0.00     0.023 A 
ATOM     66  C   UNL A   1      34.550  34.130  31.306  1.00  0.00     0.031 A 
ATOM     67  C   UNL A   1      35.709  32.892  32.987  1.00  0.00     0.131 A 
ATOM     68  C   UNL A   1      33.897  34.847  32.321  1.00  0.00     0.055 A 
ATOM     69  C   UNL A   1      34.999  33.555  33.992  1.00  0.00     0.041 A 
ATOM     70  F   UNL A   1      36.622  32.031  33.448  1.00  0.00    -0.206 F 
ATOM     71  C   UNL A   1      34.116  34.569  33.666  1.00  0.00     0.022 A 
BRANCH  68  72
ATOM     72  S   UNL A   1      32.921  36.294  31.844  1.00  0.00     0.124 S 
ATOM     73  O   UNL A   1      33.273  36.426  30.434  1.00  0.00    -0.237 OA
ATOM     74  O   UNL A   1      31.562  35.846  32.131  1.00  0.00    -0.237 OA
ATOM     75  O   UNL A   1      33.428  37.348  32.718  1.00  0.00    -0.744 OA
ENDBRANCH  68  72
ENDBRANCH  51  65
BRANCH  52  76
ATOM     76  C   UNL A   1      42.669  30.313  35.159  1.00  0.00     0.023 A 
ATOM     77  C   UNL A   1      42.369  28.999  35.584  1.00  0.00     0.031 A 
ATOM     78  C   UNL A   1      43.690  30.983  35.872  1.00  0.00     0.131 A 
ATOM     79  C   UNL A   1      43.078  28.413  36.663  1.00  0.00     0.055 A 
ATOM     80  C   UNL A   1      44.382  30.404  36.938  1.00  0.00     0.041 A 
ATOM     81  F   UNL A   1      44.117  32.201  35.500  1.00  0.00    -0.206 F 
ATOM     82  C   UNL A   1      44.087  29.110  37.331  1.00  0.00     0.022 A 
BRANCH  79  83
ATOM     83  S   UNL A   1      42.777  26.681  37.152  1.00  0.00     0.124 S 
ATOM     84  O   UNL A   1      41.346  26.681  37.427  1.00  0.00    -0.237 OA
ATOM     85  O   UNL A   1      43.215  25.939  35.976  1.00  0.00    -0.237 OA
ATOM     86  O   UNL A   1      43.628  26.508  38.331  1.00  0.00    -0.744 OA
ENDBRANCH  79  83
ENDBRANCH  52  76
BRANCH  64  87
ATOM     87  C   UNL A   1      42.119  34.396  30.406  1.00  0.00     0.023 A 
ATOM     88  C   UNL A   1      42.931  35.550  30.503  1.00  0.00     0.031 A 
ATOM     89  C   UNL A   1      42.620  33.312  29.664  1.00  0.00     0.131 A 
ATOM     90  C   UNL A   1      44.182  35.591  29.854  1.00  0.00     0.055 A 
ATOM     91  C   UNL A   1      43.869  33.346  29.045  1.00  0.00     0.041 A 
ATOM     92  F   UNL A   1      41.912  32.175  29.553  1.00  0.00    -0.206 F 
ATOM     93  C   UNL A   1      44.652  34.491  29.131  1.00  0.00     0.022 A 
BRANCH  90  94
ATOM     94  S   UNL A   1      45.216  37.092  29.918  1.00  0.00     0.124 S 
ATOM     95  O   UNL A   1      44.258  38.177  29.741  1.00  0.00    -0.237 OA
ATOM     96  O   UNL A   1      45.835  36.994  31.238  1.00  0.00    -0.237 OA
ATOM     97  O   UNL A   1      46.144  36.912  28.800  1.00  0.00    -0.744 OA
ENDBRANCH  90  94
ENDBRANCH  64  87
ENDBRANCH  38  39
ENDBRANCH  30  33
ENDBRANCH  28  29
ENDBRANCH  27  28
ENDBRANCH   1  27
TORSDOF 19
ENDMDL
MODEL 3
REMARK VINA RESULT:     -11.9      2.952      8.123
REMARK SMILES O=C(Cn1cnc(-c2ccccc2)c1-c1ccccc1)NCCCCCCNC(=O)c1ccc(-c2c3nc(c(-c4cc(S(=O)(=O)[O-])ccc4F)c4ccc([nH]4)c(-c4cc(S(=O)(=O)[O-])ccc4F)c4nc(c(-c5cc(S(=O)(=O)[O-])ccc5F)c5ccc2[nH]5)C=C4)C=C3)cc1
REMARK SMILES IDX 25 1 24 2 23 3 22 4 21 5 1 6 2 7 3 9 4 10 5 11 14 12 6 13
REMARK SMILES IDX 7 14 15 15 16 16 20 17 17 18 19 19 18 20 8 21 9 22 13 23
REMARK SMILES IDX 10 24 12 25 11 26 26 27 27 28 28 29 29 30 30 32 31 33 32 34
REMARK SMILES IDX 93 35 33 36 92 37 34 38 35 39 36 40 86 41 37 42 91 43 85 44
REMARK SMILES IDX 87 45 38 46 90 47 84 48 83 49 39 51 71 52 51 53 70 54 52 55
REMARK SMILES IDX 55 56 69 57 88 58 53 59 54 60 68 62 89 63 56 64 40 65 41 66
REMARK SMILES IDX 49 67 42 68 48 69 50 70 47 71 43 72 44 73 45 74 46 75 72 76
REMARK SMILES IDX 73 77 81 78 74 79 80 80 82 81 79 82 75 83 76 84 77 85 78 86
REMARK SMILES IDX 57 87 58 88 66 89 59 90 65 91 67 92 64 93 60 94 61 95 62 96
REMARK SMILES IDX 63 97
REMARK H PARENT 21 8 28 31 87 50 55 61
REMARK Flexibility Score: inf
ROOT
ATOM      1  C   UNL A   1      37.308  21.467  24.780  1.00  0.00     0.002 C 
ENDROOT
BRANCH   1   2
ATOM      2  C   UNL A   1      35.816  21.294  24.463  1.00  0.00     0.002 C 
BRANCH   2   3
ATOM      3  C   UNL A   1      34.892  21.046  25.662  1.00  0.00     0.021 C 
BRANCH   3   4
ATOM      4  C   UNL A   1      34.184  22.286  26.202  1.00  0.00     0.116 C 
BRANCH   4   5
ATOM      5  N   UNL A   1      34.366  23.427  25.326  1.00  0.00    -0.355 N 
ATOM      6  O   UNL A   1      32.438  24.525  25.927  1.00  0.00    -0.273 OA
ATOM      7  C   UNL A   1      33.468  24.472  25.262  1.00  0.00     0.239 C 
ATOM      8  H   UNL A   1      35.166  23.459  24.753  1.00  0.00     0.163 HD
BRANCH   7   9
ATOM      9  C   UNL A   1      33.856  25.571  24.297  1.00  0.00     0.223 C 
BRANCH   9  10
ATOM     10  N   UNL A   1      32.753  26.105  23.507  1.00  0.00    -0.321 N 
ATOM     11  C   UNL A   1      32.266  25.596  22.331  1.00  0.00     0.201 A 
ATOM     12  C   UNL A   1      31.965  27.192  23.848  1.00  0.00     0.076 A 
ATOM     13  N   UNL A   1      31.201  26.239  21.920  1.00  0.00    -0.236 NA
ATOM     14  C   UNL A   1      31.029  27.255  22.823  1.00  0.00     0.096 A 
BRANCH  12  15
ATOM     15  C   UNL A   1      32.127  28.039  25.030  1.00  0.00     0.000 A 
ATOM     16  C   UNL A   1      31.532  27.668  26.244  1.00  0.00     0.010 A 
ATOM     17  C   UNL A   1      32.782  29.274  24.947  1.00  0.00     0.010 A 
ATOM     18  C   UNL A   1      31.581  28.519  27.350  1.00  0.00     0.001 A 
ATOM     19  C   UNL A   1      32.840  30.121  26.057  1.00  0.00     0.001 A 
ATOM     20  C   UNL A   1      32.234  29.747  27.255  1.00  0.00     0.000 A 
ENDBRANCH  12  15
BRANCH  14  21
ATOM     21  C   UNL A   1      30.004  28.269  22.671  1.00  0.00     0.002 A 
ATOM     22  C   UNL A   1      30.304  29.486  22.050  1.00  0.00     0.010 A 
ATOM     23  C   UNL A   1      28.707  28.041  23.150  1.00  0.00     0.010 A 
ATOM     24  C   UNL A   1      29.310  30.453  21.890  1.00  0.00     0.001 A 
ATOM     25  C   UNL A   1      27.717  29.011  22.995  1.00  0.00     0.001 A 
ATOM     26  C   UNL A   1      28.018  30.215  22.361  1.00  0.00     0.000 A 
ENDBRANCH  14  21
ENDBRANCH   9  10
ENDBRANCH   7   9
ENDBRANCH   4   5
ENDBRANCH   3   4
ENDBRANCH   2   3
ENDBRANCH   1   2
BRANCH   1  27
ATOM     27  C   UNL A   1      38.134  20.182  24.915  1.00  0.00     0.021 C 
BRANCH  27  28
ATOM     28  C   UNL A   1      39.084  20.155  26.107  1.00  0.00     0.116 C 
BRANCH  28  29
ATOM     29  N   UNL A   1      40.259  19.320  25.877  1.00  0.00    -0.352 N 
ATOM     30  C   UNL A   1      41.585  19.709  25.810  1.00  0.00     0.251 C 
ATOM     31  H   UNL A   1      40.085  18.359  25.754  1.00  0.00     0.163 HD
ATOM     32  O   UNL A   1      42.400  19.014  25.222  1.00  0.00    -0.269 OA
BRANCH  30  33
ATOM     33  C   UNL A   1      41.997  20.976  26.450  1.00  0.00     0.039 A 
ATOM     34  C   UNL A   1      42.408  22.071  25.684  1.00  0.00     0.014 A 
ATOM     35  C   UNL A   1      41.958  21.063  27.840  1.00  0.00     0.014 A 
ATOM     36  C   UNL A   1      42.685  23.279  26.326  1.00  0.00     0.010 A 
ATOM     37  C   UNL A   1      42.105  22.283  28.457  1.00  0.00     0.010 A 
ATOM     38  C   UNL A   1      42.504  23.390  27.714  1.00  0.00    -0.014 A 
BRANCH  38  39
ATOM     39  C   UNL A   1      42.563  24.694  28.378  1.00  0.00     0.031 A 
ATOM     40  C   UNL A   1      41.403  25.579  28.087  1.00  0.00     0.074 A 
ATOM     41  C   UNL A   1      43.445  25.006  29.355  1.00  0.00     0.049 A 
ATOM     42  N   UNL A   1      41.409  26.676  27.407  1.00  0.00    -0.248 NA
ATOM     43  C   UNL A   1      40.053  25.119  28.450  1.00  0.00     0.031 C 
ATOM     44  C   UNL A   1      44.478  24.142  29.934  1.00  0.00     0.029 A 
ATOM     45  N   UNL A   1      43.525  26.126  30.130  1.00  0.00    -0.354 N 
ATOM     46  C   UNL A   1      40.118  27.185  27.492  1.00  0.00     0.074 A 
ATOM     47  C   UNL A   1      39.297  26.088  27.929  1.00  0.00     0.031 C 
ATOM     48  C   UNL A   1      44.903  24.666  31.105  1.00  0.00     0.029 A 
ATOM     49  C   UNL A   1      44.294  25.972  31.285  1.00  0.00     0.049 A 
ATOM     50  H   UNL A   1      43.079  26.971  29.895  1.00  0.00     0.167 HD
ATOM     51  C   UNL A   1      39.896  28.530  27.462  1.00  0.00     0.034 A 
ATOM     52  C   UNL A   1      44.413  26.836  32.331  1.00  0.00     0.034 A 
ATOM     53  C   UNL A   1      41.068  29.233  26.978  1.00  0.00     0.049 A 
ATOM     54  C   UNL A   1      44.065  28.180  31.811  1.00  0.00     0.074 A 
ATOM     55  C   UNL A   1      41.849  29.142  25.840  1.00  0.00     0.029 A 
ATOM     56  N   UNL A   1      41.836  29.925  27.892  1.00  0.00    -0.354 N 
ATOM     57  N   UNL A   1      44.783  28.803  30.918  1.00  0.00    -0.248 NA
ATOM     58  C   UNL A   1      42.681  28.622  31.904  1.00  0.00     0.031 C 
ATOM     59  C   UNL A   1      43.189  29.301  26.305  1.00  0.00     0.029 A 
ATOM     60  C   UNL A   1      43.147  29.583  27.671  1.00  0.00     0.049 A 
ATOM     61  H   UNL A   1      41.504  30.550  28.577  1.00  0.00     0.167 HD
ATOM     62  C   UNL A   1      43.860  29.348  30.040  1.00  0.00     0.074 A 
ATOM     63  C   UNL A   1      42.588  29.310  30.761  1.00  0.00     0.031 C 
ATOM     64  C   UNL A   1      44.153  29.505  28.714  1.00  0.00     0.034 A 
BRANCH  51  65
ATOM     65  C   UNL A   1      38.803  29.246  28.232  1.00  0.00     0.023 A 
ATOM     66  C   UNL A   1      38.919  29.252  29.637  1.00  0.00     0.031 A 
ATOM     67  C   UNL A   1      37.542  29.633  27.724  1.00  0.00     0.131 A 
ATOM     68  C   UNL A   1      37.801  29.476  30.455  1.00  0.00     0.055 A 
ATOM     69  C   UNL A   1      36.450  29.931  28.546  1.00  0.00     0.041 A 
ATOM     70  F   UNL A   1      37.258  29.659  26.418  1.00  0.00    -0.206 F 
ATOM     71  C   UNL A   1      36.562  29.814  29.919  1.00  0.00     0.022 A 
BRANCH  68  72
ATOM     72  S   UNL A   1      37.951  29.103  32.220  1.00  0.00     0.124 S 
ATOM     73  O   UNL A   1      38.087  27.650  32.195  1.00  0.00    -0.237 OA
ATOM     74  O   UNL A   1      39.146  29.857  32.583  1.00  0.00    -0.237 OA
ATOM     75  O   UNL A   1      36.701  29.607  32.780  1.00  0.00    -0.744 OA
ENDBRANCH  68  72
ENDBRANCH  51  65
BRANCH  52  76
ATOM     76  C   UNL A   1      44.580  26.524  33.781  1.00  0.00     0.023 A 
ATOM     77  C   UNL A   1      43.528  26.633  34.718  1.00  0.00     0.031 A 
ATOM     78  C   UNL A   1      45.749  25.864  34.226  1.00  0.00     0.131 A 
ATOM     79  C   UNL A   1      43.668  26.091  36.020  1.00  0.00     0.055 A 
ATOM     80  C   UNL A   1      45.884  25.337  35.512  1.00  0.00     0.041 A 
ATOM     81  F   UNL A   1      46.776  25.628  33.393  1.00  0.00    -0.206 F 
ATOM     82  C   UNL A   1      44.837  25.437  36.413  1.00  0.00     0.022 A 
BRANCH  79  83
ATOM     83  S   UNL A   1      42.279  26.128  37.205  1.00  0.00     0.124 S 
ATOM     84  O   UNL A   1      42.967  26.254  38.484  1.00  0.00    -0.237 OA
ATOM     85  O   UNL A   1      41.513  27.285  36.760  1.00  0.00    -0.237 OA
ATOM     86  O   UNL A   1      41.616  24.840  36.991  1.00  0.00    -0.744 OA
ENDBRANCH  79  83
ENDBRANCH  52  76
BRANCH  64  87
ATOM     87  C   UNL A   1      45.598  29.378  28.268  1.00  0.00     0.023 A 
ATOM     88  C   UNL A   1      46.562  30.410  28.328  1.00  0.00     0.031 A 
ATOM     89  C   UNL A   1      46.036  28.104  27.863  1.00  0.00     0.131 A 
ATOM     90  C   UNL A   1      47.901  30.149  27.972  1.00  0.00     0.055 A 
ATOM     91  C   UNL A   1      47.366  27.843  27.536  1.00  0.00     0.041 A 
ATOM     92  F   UNL A   1      45.176  27.072  27.810  1.00  0.00    -0.206 F 
ATOM     93  C   UNL A   1      48.303  28.868  27.582  1.00  0.00     0.022 A 
BRANCH  90  94
ATOM     94  S   UNL A   1      49.146  31.481  27.985  1.00  0.00     0.124 S 
ATOM     95  O   UNL A   1      48.579  32.472  28.892  1.00  0.00    -0.237 OA
ATOM     96  O   UNL A   1      50.343  30.791  28.460  1.00  0.00    -0.237 OA
ATOM     97  O   UNL A   1      49.206  31.903  26.584  1.00  0.00    -0.744 OA
ENDBRANCH  90  94
ENDBRANCH  64  87
ENDBRANCH  38  39
ENDBRANCH  30  33
ENDBRANCH  28  29
ENDBRANCH  27  28
ENDBRANCH   1  27
TORSDOF 19
ENDMDL
