MODEL 1
REMARK VINA RESULT:     -12.1      0.000      0.000
REMARK SMILES O=C(NCCCCCCNC(=O)c1ccc(F)cc1-c1ccc(F)c(Cl)c1)c1ccc(-c2c3nc(c(-c4cc(S(=O)(=O)[O-])ccc4F)c4ccc([nH]4)c(-c4cc(S(=O)(=O)[O-])ccc4F)c4nc(c(-c5cc(S(=O)(=O)[O-])ccc5F)c5ccc2[nH]5)C=C4)C=C3)cc1
REMARK SMILES IDX 5 1 4 2 3 3 1 4 2 5 28 7 29 8 90 9 30 10 89 11 31 12 32 13
REMARK SMILES IDX 33 14 83 15 34 16 88 17 82 18 84 19 35 20 87 21 81 22 80 23
REMARK SMILES IDX 36 25 68 26 48 27 67 28 49 29 52 30 66 31 85 32 50 33 51 34
REMARK SMILES IDX 65 36 86 37 53 38 37 39 38 40 46 41 39 42 45 43 47 44 44 45
REMARK SMILES IDX 40 46 41 47 42 48 43 49 69 50 70 51 78 52 71 53 77 54 79 55
REMARK SMILES IDX 76 56 72 57 73 58 74 59 75 60 54 61 55 62 63 63 56 64 62 65
REMARK SMILES IDX 64 66 61 67 57 68 58 69 59 70 60 71 6 72 7 73 8 74 9 75
REMARK SMILES IDX 10 76 11 77 12 79 13 80 14 81 19 82 15 83 18 84 16 85 17 86
REMARK SMILES IDX 20 87 21 88 27 89 22 90 25 91 23 92 26 93 24 94
REMARK H PARENT 3 6 84 24 52 35 10 78
REMARK Flexibility Score: inf
ROOT
ATOM      1  C   UNL A   1      31.379  31.861  26.488  1.00  0.00     0.021 C 
ENDROOT
BRANCH   1   2
ATOM      2  C   UNL A   1      32.599  32.435  27.198  1.00  0.00     0.116 C 
BRANCH   2   3
ATOM      3  N   UNL A   1      32.433  33.835  27.554  1.00  0.00    -0.352 N 
ATOM      4  O   UNL A   1      32.714  35.713  28.768  1.00  0.00    -0.269 OA
ATOM      5  C   UNL A   1      33.097  34.575  28.502  1.00  0.00     0.251 C 
ATOM      6  H   UNL A   1      31.747  34.322  27.043  1.00  0.00     0.163 HD
BRANCH   5   7
ATOM      7  C   UNL A   1      34.256  33.996  29.217  1.00  0.00     0.039 A 
ATOM      8  C   UNL A   1      35.553  34.449  28.965  1.00  0.00     0.014 A 
ATOM      9  C   UNL A   1      34.038  32.993  30.168  1.00  0.00     0.014 A 
ATOM     10  C   UNL A   1      36.638  33.816  29.566  1.00  0.00     0.010 A 
ATOM     11  C   UNL A   1      35.125  32.408  30.825  1.00  0.00     0.010 A 
ATOM     12  C   UNL A   1      36.437  32.799  30.513  1.00  0.00    -0.014 A 
BRANCH  12  13
ATOM     13  C   UNL A   1      37.605  32.192  31.202  1.00  0.00     0.031 A 
ATOM     14  C   UNL A   1      38.384  31.074  30.567  1.00  0.00     0.074 A 
ATOM     15  C   UNL A   1      37.977  32.683  32.401  1.00  0.00     0.049 A 
ATOM     16  N   UNL A   1      39.407  30.412  31.044  1.00  0.00    -0.248 NA
ATOM     17  C   UNL A   1      37.963  30.641  29.226  1.00  0.00     0.031 C 
ATOM     18  C   UNL A   1      37.308  33.778  33.108  1.00  0.00     0.029 A 
ATOM     19  N   UNL A   1      39.015  32.341  33.231  1.00  0.00    -0.354 N 
ATOM     20  C   UNL A   1      39.747  29.477  30.072  1.00  0.00     0.074 A 
ATOM     21  C   UNL A   1      38.804  29.644  28.985  1.00  0.00     0.031 C 
ATOM     22  C   UNL A   1      37.977  34.048  34.237  1.00  0.00     0.029 A 
ATOM     23  C   UNL A   1      39.078  33.101  34.375  1.00  0.00     0.049 A 
ATOM     24  H   UNL A   1      39.653  31.620  33.026  1.00  0.00     0.167 HD
ATOM     25  C   UNL A   1      40.755  28.572  30.085  1.00  0.00     0.034 A 
ATOM     26  C   UNL A   1      39.911  33.032  35.432  1.00  0.00     0.034 A 
ATOM     27  C   UNL A   1      41.693  28.422  31.171  1.00  0.00     0.049 A 
ATOM     28  C   UNL A   1      40.980  31.976  35.447  1.00  0.00     0.074 A 
ATOM     29  C   UNL A   1      42.759  27.544  31.270  1.00  0.00     0.029 A 
ATOM     30  N   UNL A   1      41.679  29.163  32.344  1.00  0.00    -0.354 N 
ATOM     31  N   UNL A   1      41.263  31.080  34.532  1.00  0.00    -0.248 NA
ATOM     32  C   UNL A   1      41.832  31.914  36.641  1.00  0.00     0.031 C 
ATOM     33  C   UNL A   1      43.354  27.715  32.525  1.00  0.00     0.029 A 
ATOM     34  C   UNL A   1      42.700  28.744  33.183  1.00  0.00     0.049 A 
ATOM     35  H   UNL A   1      41.038  29.881  32.550  1.00  0.00     0.167 HD
ATOM     36  C   UNL A   1      42.333  30.349  35.038  1.00  0.00     0.074 A 
ATOM     37  C   UNL A   1      42.653  30.919  36.332  1.00  0.00     0.031 C 
ATOM     38  C   UNL A   1      42.991  29.304  34.479  1.00  0.00     0.034 A 
BRANCH  25  39
ATOM     39  C   UNL A   1      40.883  27.644  28.905  1.00  0.00     0.023 A 
ATOM     40  C   UNL A   1      41.857  27.844  27.912  1.00  0.00     0.031 A 
ATOM     41  C   UNL A   1      40.044  26.520  28.796  1.00  0.00     0.131 A 
ATOM     42  C   UNL A   1      41.948  26.950  26.835  1.00  0.00     0.055 A 
ATOM     43  C   UNL A   1      40.178  25.603  27.752  1.00  0.00     0.041 A 
ATOM     44  F   UNL A   1      39.088  26.292  29.709  1.00  0.00    -0.206 F 
ATOM     45  C   UNL A   1      41.131  25.818  26.761  1.00  0.00     0.022 A 
BRANCH  42  46
ATOM     46  S   UNL A   1      43.112  27.317  25.494  1.00  0.00     0.124 S 
ATOM     47  O   UNL A   1      42.324  28.220  24.658  1.00  0.00    -0.237 OA
ATOM     48  O   UNL A   1      44.235  27.921  26.201  1.00  0.00    -0.237 OA
ATOM     49  O   UNL A   1      43.381  26.007  24.904  1.00  0.00    -0.744 OA
ENDBRANCH  42  46
ENDBRANCH  25  39
BRANCH  26  50
ATOM     50  C   UNL A   1      39.734  33.965  36.577  1.00  0.00     0.023 A 
ATOM     51  C   UNL A   1      39.211  33.518  37.800  1.00  0.00     0.031 A 
ATOM     52  C   UNL A   1      40.095  35.319  36.463  1.00  0.00     0.131 A 
ATOM     53  C   UNL A   1      39.048  34.425  38.858  1.00  0.00     0.055 A 
ATOM     54  C   UNL A   1      39.968  36.207  37.531  1.00  0.00     0.041 A 
ATOM     55  F   UNL A   1      40.608  35.790  35.314  1.00  0.00    -0.206 F 
ATOM     56  C   UNL A   1      39.435  35.762  38.736  1.00  0.00     0.022 A 
BRANCH  53  57
ATOM     57  S   UNL A   1      38.291  33.836  40.397  1.00  0.00     0.124 S 
ATOM     58  O   UNL A   1      38.204  35.066  41.174  1.00  0.00    -0.237 OA
ATOM     59  O   UNL A   1      37.027  33.282  39.924  1.00  0.00    -0.237 OA
ATOM     60  O   UNL A   1      39.251  32.851  40.891  1.00  0.00    -0.744 OA
ENDBRANCH  53  57
ENDBRANCH  26  50
BRANCH  38  61
ATOM     61  C   UNL A   1      44.137  28.720  35.260  1.00  0.00     0.023 A 
ATOM     62  C   UNL A   1      43.938  27.681  36.184  1.00  0.00     0.031 A 
ATOM     63  C   UNL A   1      45.445  29.192  35.058  1.00  0.00     0.131 A 
ATOM     64  C   UNL A   1      45.030  27.168  36.899  1.00  0.00     0.055 A 
ATOM     65  C   UNL A   1      46.534  28.646  35.737  1.00  0.00     0.041 A 
ATOM     66  F   UNL A   1      45.685  30.183  34.184  1.00  0.00    -0.206 F 
ATOM     67  C   UNL A   1      46.328  27.633  36.669  1.00  0.00     0.022 A 
BRANCH  64  68
ATOM     68  S   UNL A   1      44.729  25.904  38.164  1.00  0.00     0.124 S 
ATOM     69  O   UNL A   1      46.050  25.302  38.309  1.00  0.00    -0.237 OA
ATOM     70  O   UNL A   1      44.262  26.696  39.297  1.00  0.00    -0.237 OA
ATOM     71  O   UNL A   1      43.717  25.043  37.555  1.00  0.00    -0.744 OA
ENDBRANCH  64  68
ENDBRANCH  38  61
ENDBRANCH  12  13
ENDBRANCH   5   7
ENDBRANCH   2   3
ENDBRANCH   1   2
BRANCH   1  72
ATOM     72  C   UNL A   1      31.561  30.461  25.898  1.00  0.00     0.002 C 
BRANCH  72  73
ATOM     73  C   UNL A   1      32.190  29.421  26.830  1.00  0.00     0.002 C 
BRANCH  73  74
ATOM     74  C   UNL A   1      33.228  28.489  26.196  1.00  0.00     0.021 C 
BRANCH  74  75
ATOM     75  C   UNL A   1      33.010  26.998  26.436  1.00  0.00     0.116 C 
BRANCH  75  76
ATOM     76  N   UNL A   1      31.622  26.677  26.724  1.00  0.00    -0.352 N 
ATOM     77  C   UNL A   1      30.791  25.781  26.103  1.00  0.00     0.251 C 
ATOM     78  H   UNL A   1      31.221  27.174  27.474  1.00  0.00     0.163 HD
ATOM     79  O   UNL A   1      29.626  25.650  26.469  1.00  0.00    -0.269 OA
BRANCH  77  80
ATOM     80  C   UNL A   1      31.311  24.963  24.984  1.00  0.00     0.047 A 
ATOM     81  C   UNL A   1      31.753  23.659  25.271  1.00  0.00     0.017 A 
ATOM     82  C   UNL A   1      31.316  25.460  23.663  1.00  0.00    -0.003 A 
ATOM     83  C   UNL A   1      32.255  22.854  24.253  1.00  0.00     0.040 A 
ATOM     84  C   UNL A   1      31.824  24.624  22.654  1.00  0.00     0.048 A 
ATOM     85  C   UNL A   1      32.291  23.347  22.955  1.00  0.00     0.123 A 
ATOM     86  F   UNL A   1      32.773  22.577  21.972  1.00  0.00    -0.207 F 
BRANCH  82  87
ATOM     87  C   UNL A   1      30.803  26.793  23.306  1.00  0.00    -0.016 A 
ATOM     88  C   UNL A   1      31.668  27.826  22.906  1.00  0.00     0.012 A 
ATOM     89  C   UNL A   1      29.423  27.060  23.371  1.00  0.00     0.032 A 
ATOM     90  C   UNL A   1      31.170  29.094  22.594  1.00  0.00     0.041 A 
ATOM     91  C   UNL A   1      28.927  28.326  23.056  1.00  0.00     0.077 A 
ATOM     92  C   UNL A   1      29.803  29.337  22.671  1.00  0.00     0.141 A 
ATOM     93  Cl  UNL A   1      27.232  28.620  23.147  1.00  0.00    -0.081 Cl
ATOM     94  F   UNL A   1      29.346  30.561  22.366  1.00  0.00    -0.205 F 
ENDBRANCH  82  87
ENDBRANCH  77  80
ENDBRANCH  75  76
ENDBRANCH  74  75
ENDBRANCH  73  74
ENDBRANCH  72  73
ENDBRANCH   1  72
TORSDOF 17
ENDMDL
MODEL 2
REMARK VINA RESULT:     -12.0      1.347      2.702
REMARK SMILES O=C(NCCCCCCNC(=O)c1ccc(F)cc1-c1ccc(F)c(Cl)c1)c1ccc(-c2c3nc(c(-c4cc(S(=O)(=O)[O-])ccc4F)c4ccc([nH]4)c(-c4cc(S(=O)(=O)[O-])ccc4F)c4nc(c(-c5cc(S(=O)(=O)[O-])ccc5F)c5ccc2[nH]5)C=C4)C=C3)cc1
REMARK SMILES IDX 5 1 4 2 3 3 1 4 2 5 28 7 29 8 90 9 30 10 89 11 31 12 32 13
REMARK SMILES IDX 33 14 83 15 34 16 88 17 82 18 84 19 35 20 87 21 81 22 80 23
REMARK SMILES IDX 36 25 68 26 48 27 67 28 49 29 52 30 66 31 85 32 50 33 51 34
REMARK SMILES IDX 65 36 86 37 53 38 37 39 38 40 46 41 39 42 45 43 47 44 44 45
REMARK SMILES IDX 40 46 41 47 42 48 43 49 69 50 70 51 78 52 71 53 77 54 79 55
REMARK SMILES IDX 76 56 72 57 73 58 74 59 75 60 54 61 55 62 63 63 56 64 62 65
REMARK SMILES IDX 64 66 61 67 57 68 58 69 59 70 60 71 6 72 7 73 8 74 9 75
REMARK SMILES IDX 10 76 11 77 12 79 13 80 14 81 19 82 15 83 18 84 16 85 17 86
REMARK SMILES IDX 20 87 21 88 27 89 22 90 25 91 23 92 26 93 24 94
REMARK H PARENT 3 6 84 24 52 35 10 78
REMARK Flexibility Score: inf
ROOT
ATOM      1  C   UNL A   1      31.365  32.081  26.622  1.00  0.00     0.021 C 
ENDROOT
BRANCH   1   2
ATOM      2  C   UNL A   1      32.612  32.667  27.275  1.00  0.00     0.116 C 
BRANCH   2   3
ATOM      3  N   UNL A   1      32.446  34.063  27.648  1.00  0.00    -0.352 N 
ATOM      4  O   UNL A   1      32.735  35.929  28.878  1.00  0.00    -0.269 OA
ATOM      5  C   UNL A   1      33.118  34.795  28.596  1.00  0.00     0.251 C 
ATOM      6  H   UNL A   1      31.754  34.554  27.148  1.00  0.00     0.163 HD
BRANCH   5   7
ATOM      7  C   UNL A   1      34.285  34.211  29.293  1.00  0.00     0.039 A 
ATOM      8  C   UNL A   1      35.579  34.389  28.797  1.00  0.00     0.014 A 
ATOM      9  C   UNL A   1      34.083  33.487  30.473  1.00  0.00     0.014 A 
ATOM     10  C   UNL A   1      36.651  33.740  29.405  1.00  0.00     0.010 A 
ATOM     11  C   UNL A   1      35.170  32.896  31.123  1.00  0.00     0.010 A 
ATOM     12  C   UNL A   1      36.462  32.998  30.582  1.00  0.00    -0.014 A 
BRANCH  12  13
ATOM     13  C   UNL A   1      37.631  32.382  31.260  1.00  0.00     0.031 A 
ATOM     14  C   UNL A   1      38.386  31.248  30.624  1.00  0.00     0.074 A 
ATOM     15  C   UNL A   1      38.027  32.877  32.450  1.00  0.00     0.049 A 
ATOM     16  N   UNL A   1      39.407  30.575  31.092  1.00  0.00    -0.248 NA
ATOM     17  C   UNL A   1      37.940  30.810  29.291  1.00  0.00     0.031 C 
ATOM     18  C   UNL A   1      37.382  33.986  33.157  1.00  0.00     0.029 A 
ATOM     19  N   UNL A   1      39.071  32.527  33.268  1.00  0.00    -0.354 N 
ATOM     20  C   UNL A   1      39.720  29.629  30.122  1.00  0.00     0.074 A 
ATOM     21  C   UNL A   1      38.764  29.800  29.047  1.00  0.00     0.031 C 
ATOM     22  C   UNL A   1      38.071  34.256  34.275  1.00  0.00     0.029 A 
ATOM     23  C   UNL A   1      39.161  33.295  34.405  1.00  0.00     0.049 A 
ATOM     24  H   UNL A   1      39.697  31.796  33.060  1.00  0.00     0.167 HD
ATOM     25  C   UNL A   1      40.716  28.710  30.128  1.00  0.00     0.034 A 
ATOM     26  C   UNL A   1      40.008  33.223  35.450  1.00  0.00     0.034 A 
ATOM     27  C   UNL A   1      41.666  28.556  31.202  1.00  0.00     0.049 A 
ATOM     28  C   UNL A   1      41.063  32.153  35.459  1.00  0.00     0.074 A 
ATOM     29  C   UNL A   1      42.722  27.664  31.294  1.00  0.00     0.029 A 
ATOM     30  N   UNL A   1      41.680  29.306  32.369  1.00  0.00    -0.354 N 
ATOM     31  N   UNL A   1      41.321  31.246  34.548  1.00  0.00    -0.248 NA
ATOM     32  C   UNL A   1      41.930  32.088  36.642  1.00  0.00     0.031 C 
ATOM     33  C   UNL A   1      43.337  27.837  32.538  1.00  0.00     0.029 A 
ATOM     34  C   UNL A   1      42.706  28.880  33.197  1.00  0.00     0.049 A 
ATOM     35  H   UNL A   1      41.052  30.035  32.579  1.00  0.00     0.167 HD
ATOM     36  C   UNL A   1      42.387  30.505  35.045  1.00  0.00     0.074 A 
ATOM     37  C   UNL A   1      42.733  31.080  36.329  1.00  0.00     0.031 C 
ATOM     38  C   UNL A   1      43.023  29.446  34.485  1.00  0.00     0.034 A 
BRANCH  25  39
ATOM     39  C   UNL A   1      40.814  27.771  28.954  1.00  0.00     0.023 A 
ATOM     40  C   UNL A   1      41.790  27.939  27.956  1.00  0.00     0.031 A 
ATOM     41  C   UNL A   1      39.947  26.669  28.856  1.00  0.00     0.131 A 
ATOM     42  C   UNL A   1      41.853  27.036  26.884  1.00  0.00     0.055 A 
ATOM     43  C   UNL A   1      40.052  25.742  27.818  1.00  0.00     0.041 A 
ATOM     44  F   UNL A   1      38.988  26.472  29.775  1.00  0.00    -0.206 F 
ATOM     45  C   UNL A   1      41.006  25.925  26.821  1.00  0.00     0.022 A 
BRANCH  42  46
ATOM     46  S   UNL A   1      43.019  27.363  25.536  1.00  0.00     0.124 S 
ATOM     47  O   UNL A   1      43.283  26.015  25.040  1.00  0.00    -0.237 OA
ATOM     48  O   UNL A   1      42.249  28.228  24.650  1.00  0.00    -0.237 OA
ATOM     49  O   UNL A   1      44.147  28.007  26.206  1.00  0.00    -0.744 OA
ENDBRANCH  42  46
ENDBRANCH  25  39
BRANCH  26  50
ATOM     50  C   UNL A   1      39.860  34.167  36.590  1.00  0.00     0.023 A 
ATOM     51  C   UNL A   1      39.332  33.741  37.818  1.00  0.00     0.031 A 
ATOM     52  C   UNL A   1      40.254  35.512  36.466  1.00  0.00     0.131 A 
ATOM     53  C   UNL A   1      39.196  34.659  38.872  1.00  0.00     0.055 A 
ATOM     54  C   UNL A   1      40.154  36.409  37.529  1.00  0.00     0.041 A 
ATOM     55  F   UNL A   1      40.772  35.962  35.312  1.00  0.00    -0.206 F 
ATOM     56  C   UNL A   1      39.616  35.984  38.739  1.00  0.00     0.022 A 
BRANCH  53  57
ATOM     57  S   UNL A   1      38.432  34.098  40.418  1.00  0.00     0.124 S 
ATOM     58  O   UNL A   1      37.283  33.348  39.927  1.00  0.00    -0.237 OA
ATOM     59  O   UNL A   1      39.504  33.312  41.020  1.00  0.00    -0.237 OA
ATOM     60  O   UNL A   1      38.116  35.345  41.111  1.00  0.00    -0.744 OA
ENDBRANCH  53  57
ENDBRANCH  26  50
BRANCH  38  61
ATOM     61  C   UNL A   1      44.172  28.853  35.254  1.00  0.00     0.023 A 
ATOM     62  C   UNL A   1      43.958  27.937  36.297  1.00  0.00     0.031 A 
ATOM     63  C   UNL A   1      45.495  29.189  34.922  1.00  0.00     0.131 A 
ATOM     64  C   UNL A   1      45.054  27.411  36.996  1.00  0.00     0.055 A 
ATOM     65  C   UNL A   1      46.583  28.628  35.590  1.00  0.00     0.041 A 
ATOM     66  F   UNL A   1      45.750  30.060  33.932  1.00  0.00    -0.206 F 
ATOM     67  C   UNL A   1      46.365  27.738  36.639  1.00  0.00     0.022 A 
BRANCH  64  68
ATOM     68  S   UNL A   1      44.745  26.316  38.408  1.00  0.00     0.124 S 
ATOM     69  O   UNL A   1      45.495  26.976  39.471  1.00  0.00    -0.237 OA
ATOM     70  O   UNL A   1      43.291  26.362  38.532  1.00  0.00    -0.237 OA
ATOM     71  O   UNL A   1      45.286  25.031  37.971  1.00  0.00    -0.744 OA
ENDBRANCH  64  68
ENDBRANCH  38  61
ENDBRANCH  12  13
ENDBRANCH   5   7
ENDBRANCH   2   3
ENDBRANCH   1   2
BRANCH   1  72
ATOM     72  C   UNL A   1      31.553  30.719  25.953  1.00  0.00     0.002 C 
BRANCH  72  73
ATOM     73  C   UNL A   1      31.905  29.559  26.890  1.00  0.00     0.002 C 
BRANCH  73  74
ATOM     74  C   UNL A   1      33.204  28.809  26.575  1.00  0.00     0.021 C 
BRANCH  74  75
ATOM     75  C   UNL A   1      33.056  27.312  26.320  1.00  0.00     0.116 C 
BRANCH  75  76
ATOM     76  N   UNL A   1      33.620  26.906  25.043  1.00  0.00    -0.352 N 
ATOM     77  C   UNL A   1      33.002  26.760  23.828  1.00  0.00     0.251 C 
ATOM     78  H   UNL A   1      34.585  26.709  25.051  1.00  0.00     0.163 HD
ATOM     79  O   UNL A   1      33.635  26.386  22.845  1.00  0.00    -0.269 OA
BRANCH  77  80
ATOM     80  C   UNL A   1      31.558  27.064  23.706  1.00  0.00     0.047 A 
ATOM     81  C   UNL A   1      31.189  28.350  23.272  1.00  0.00     0.017 A 
ATOM     82  C   UNL A   1      30.585  26.076  23.970  1.00  0.00    -0.003 A 
ATOM     83  C   UNL A   1      29.844  28.683  23.147  1.00  0.00     0.040 A 
ATOM     84  C   UNL A   1      29.234  26.439  23.832  1.00  0.00     0.048 A 
ATOM     85  C   UNL A   1      28.879  27.726  23.434  1.00  0.00     0.123 A 
ATOM     86  F   UNL A   1      27.583  28.041  23.316  1.00  0.00    -0.207 F 
BRANCH  82  87
ATOM     87  C   UNL A   1      30.926  24.699  24.364  1.00  0.00    -0.016 A 
ATOM     88  C   UNL A   1      30.908  24.298  25.711  1.00  0.00     0.012 A 
ATOM     89  C   UNL A   1      31.289  23.754  23.386  1.00  0.00     0.032 A 
ATOM     90  C   UNL A   1      31.257  22.994  26.073  1.00  0.00     0.041 A 
ATOM     91  C   UNL A   1      31.636  22.452  23.750  1.00  0.00     0.077 A 
ATOM     92  C   UNL A   1      31.620  22.079  25.090  1.00  0.00     0.141 A 
ATOM     93  Cl  UNL A   1      32.077  21.321  22.528  1.00  0.00    -0.081 Cl
ATOM     94  F   UNL A   1      31.951  20.832  25.459  1.00  0.00    -0.205 F 
ENDBRANCH  82  87
ENDBRANCH  77  80
ENDBRANCH  75  76
ENDBRANCH  74  75
ENDBRANCH  73  74
ENDBRANCH  72  73
ENDBRANCH   1  72
TORSDOF 17
ENDMDL
MODEL 3
REMARK VINA RESULT:     -11.9      0.621      7.727
REMARK SMILES O=C(NCCCCCCNC(=O)c1ccc(F)cc1-c1ccc(F)c(Cl)c1)c1ccc(-c2c3nc(c(-c4cc(S(=O)(=O)[O-])ccc4F)c4ccc([nH]4)c(-c4cc(S(=O)(=O)[O-])ccc4F)c4nc(c(-c5cc(S(=O)(=O)[O-])ccc5F)c5ccc2[nH]5)C=C4)C=C3)cc1
REMARK SMILES IDX 5 1 4 2 3 3 1 4 2 5 28 7 29 8 90 9 30 10 89 11 31 12 32 13
REMARK SMILES IDX 33 14 83 15 34 16 88 17 82 18 84 19 35 20 87 21 81 22 80 23
REMARK SMILES IDX 36 25 68 26 48 27 67 28 49 29 52 30 66 31 85 32 50 33 51 34
REMARK SMILES IDX 65 36 86 37 53 38 37 39 38 40 46 41 39 42 45 43 47 44 44 45
REMARK SMILES IDX 40 46 41 47 42 48 43 49 69 50 70 51 78 52 71 53 77 54 79 55
REMARK SMILES IDX 76 56 72 57 73 58 74 59 75 60 54 61 55 62 63 63 56 64 62 65
REMARK SMILES IDX 64 66 61 67 57 68 58 69 59 70 60 71 6 72 7 73 8 74 9 75
REMARK SMILES IDX 10 76 11 77 12 79 13 80 14 81 19 82 15 83 18 84 16 85 17 86
REMARK SMILES IDX 20 87 21 88 27 89 22 90 25 91 23 92 26 93 24 94
REMARK H PARENT 3 6 84 24 52 35 10 78
REMARK Flexibility Score: inf
ROOT
ATOM      1  C   UNL A   1      31.462  31.995  26.563  1.00  0.00     0.021 C 
ENDROOT
BRANCH   1   2
ATOM      2  C   UNL A   1      32.723  32.494  27.259  1.00  0.00     0.116 C 
BRANCH   2   3
ATOM      3  N   UNL A   1      32.637  33.894  27.639  1.00  0.00    -0.352 N 
ATOM      4  O   UNL A   1      33.036  35.736  28.876  1.00  0.00    -0.269 OA
ATOM      5  C   UNL A   1      33.354  34.584  28.587  1.00  0.00     0.251 C 
ATOM      6  H   UNL A   1      31.969  34.425  27.146  1.00  0.00     0.163 HD
BRANCH   5   7
ATOM      7  C   UNL A   1      34.492  33.934  29.273  1.00  0.00     0.039 A 
ATOM      8  C   UNL A   1      35.809  34.282  28.964  1.00  0.00     0.014 A 
ATOM      9  C   UNL A   1      34.236  32.970  30.254  1.00  0.00     0.014 A 
ATOM     10  C   UNL A   1      36.866  33.582  29.540  1.00  0.00     0.010 A 
ATOM     11  C   UNL A   1      35.300  32.318  30.884  1.00  0.00     0.010 A 
ATOM     12  C   UNL A   1      36.625  32.602  30.517  1.00  0.00    -0.014 A 
BRANCH  12  13
ATOM     13  C   UNL A   1      37.769  31.924  31.178  1.00  0.00     0.031 A 
ATOM     14  C   UNL A   1      38.189  32.297  32.573  1.00  0.00     0.074 A 
ATOM     15  C   UNL A   1      38.411  30.940  30.517  1.00  0.00     0.049 A 
ATOM     16  N   UNL A   1      39.183  31.828  33.284  1.00  0.00    -0.248 NA
ATOM     17  C   UNL A   1      37.395  33.328  33.259  1.00  0.00     0.031 C 
ATOM     18  C   UNL A   1      38.081  30.479  29.166  1.00  0.00     0.029 A 
ATOM     19  N   UNL A   1      39.460  30.139  30.892  1.00  0.00    -0.354 N 
ATOM     20  C   UNL A   1      39.144  32.512  34.495  1.00  0.00     0.074 A 
ATOM     21  C   UNL A   1      38.040  33.445  34.412  1.00  0.00     0.031 C 
ATOM     22  C   UNL A   1      38.878  29.450  28.844  1.00  0.00     0.029 A 
ATOM     23  C   UNL A   1      39.822  29.223  29.932  1.00  0.00     0.049 A 
ATOM     24  H   UNL A   1      39.909  30.213  31.764  1.00  0.00     0.167 HD
ATOM     25  C   UNL A   1      39.951  32.367  35.573  1.00  0.00     0.034 A 
ATOM     26  C   UNL A   1      40.818  28.316  29.914  1.00  0.00     0.034 A 
ATOM     27  C   UNL A   1      41.043  31.427  35.646  1.00  0.00     0.049 A 
ATOM     28  C   UNL A   1      41.737  28.221  31.100  1.00  0.00     0.074 A 
ATOM     29  C   UNL A   1      41.908  31.194  36.702  1.00  0.00     0.029 A 
ATOM     30  N   UNL A   1      41.423  30.566  34.626  1.00  0.00    -0.354 N 
ATOM     31  N   UNL A   1      41.704  28.900  32.221  1.00  0.00    -0.248 NA
ATOM     32  C   UNL A   1      42.834  27.249  31.012  1.00  0.00     0.031 C 
ATOM     33  C   UNL A   1      42.844  30.235  36.301  1.00  0.00     0.029 A 
ATOM     34  C   UNL A   1      42.524  29.822  35.018  1.00  0.00     0.049 A 
ATOM     35  H   UNL A   1      40.975  30.495  33.752  1.00  0.00     0.167 HD
ATOM     36  C   UNL A   1      42.773  28.432  32.977  1.00  0.00     0.074 A 
ATOM     37  C   UNL A   1      43.422  27.403  32.191  1.00  0.00     0.031 C 
ATOM     38  C   UNL A   1      43.176  28.818  34.213  1.00  0.00     0.034 A 
BRANCH  25  39
ATOM     39  C   UNL A   1      39.711  33.267  36.758  1.00  0.00     0.023 A 
ATOM     40  C   UNL A   1      39.021  32.818  37.897  1.00  0.00     0.031 A 
ATOM     41  C   UNL A   1      40.217  34.579  36.763  1.00  0.00     0.131 A 
ATOM     42  C   UNL A   1      38.828  33.686  38.982  1.00  0.00     0.055 A 
ATOM     43  C   UNL A   1      40.071  35.418  37.868  1.00  0.00     0.041 A 
ATOM     44  F   UNL A   1      40.871  35.061  35.694  1.00  0.00    -0.206 F 
ATOM     45  C   UNL A   1      39.369  34.975  38.985  1.00  0.00     0.022 A 
BRANCH  42  46
ATOM     46  S   UNL A   1      37.805  33.130  40.372  1.00  0.00     0.124 S 
ATOM     47  O   UNL A   1      36.524  32.880  39.715  1.00  0.00    -0.237 OA
ATOM     48  O   UNL A   1      38.520  31.949  40.842  1.00  0.00    -0.237 OA
ATOM     49  O   UNL A   1      37.818  34.269  41.286  1.00  0.00    -0.744 OA
ENDBRANCH  42  46
ENDBRANCH  25  39
BRANCH  26  50
ATOM     50  C   UNL A   1      41.019  27.459  28.715  1.00  0.00     0.023 A 
ATOM     51  C   UNL A   1      42.006  27.764  27.765  1.00  0.00     0.031 A 
ATOM     52  C   UNL A   1      40.228  26.315  28.508  1.00  0.00     0.131 A 
ATOM     53  C   UNL A   1      42.164  26.942  26.639  1.00  0.00     0.055 A 
ATOM     54  C   UNL A   1      40.416  25.479  27.408  1.00  0.00     0.041 A 
ATOM     55  F   UNL A   1      39.277  25.979  29.394  1.00  0.00    -0.206 F 
ATOM     56  C   UNL A   1      41.386  25.795  26.461  1.00  0.00     0.022 A 
BRANCH  53  57
ATOM     57  S   UNL A   1      43.390  27.410  25.388  1.00  0.00     0.124 S 
ATOM     58  O   UNL A   1      42.548  27.990  24.350  1.00  0.00    -0.237 OA
ATOM     59  O   UNL A   1      44.238  28.341  26.125  1.00  0.00    -0.237 OA
ATOM     60  O   UNL A   1      44.024  26.139  25.042  1.00  0.00    -0.744 OA
ENDBRANCH  53  57
ENDBRANCH  26  50
BRANCH  38  61
ATOM     61  C   UNL A   1      44.368  28.109  34.797  1.00  0.00     0.023 A 
ATOM     62  C   UNL A   1      44.221  26.941  35.563  1.00  0.00     0.031 A 
ATOM     63  C   UNL A   1      45.665  28.595  34.563  1.00  0.00     0.131 A 
ATOM     64  C   UNL A   1      45.355  26.312  36.097  1.00  0.00     0.055 A 
ATOM     65  C   UNL A   1      46.793  27.940  35.057  1.00  0.00     0.041 A 
ATOM     66  F   UNL A   1      45.856  29.707  33.835  1.00  0.00    -0.206 F 
ATOM     67  C   UNL A   1      46.640  26.795  35.835  1.00  0.00     0.022 A 
BRANCH  64  68
ATOM     68  S   UNL A   1      45.129  24.870  37.172  1.00  0.00     0.124 S 
ATOM     69  O   UNL A   1      44.025  25.299  38.024  1.00  0.00    -0.237 OA
ATOM     70  O   UNL A   1      44.822  23.809  36.218  1.00  0.00    -0.237 OA
ATOM     71  O   UNL A   1      46.419  24.739  37.846  1.00  0.00    -0.744 OA
ENDBRANCH  64  68
ENDBRANCH  38  61
ENDBRANCH  12  13
ENDBRANCH   5   7
ENDBRANCH   2   3
ENDBRANCH   1   2
BRANCH   1  72
ATOM     72  C   UNL A   1      31.546  30.580  25.987  1.00  0.00     0.002 C 
BRANCH  72  73
ATOM     73  C   UNL A   1      32.885  29.862  26.177  1.00  0.00     0.002 C 
BRANCH  73  74
ATOM     74  C   UNL A   1      32.872  28.651  27.115  1.00  0.00     0.021 C 
BRANCH  74  75
ATOM     75  C   UNL A   1      32.614  27.302  26.449  1.00  0.00     0.116 C 
BRANCH  75  76
ATOM     76  N   UNL A   1      31.288  26.782  26.738  1.00  0.00    -0.352 N 
ATOM     77  C   UNL A   1      30.587  25.790  26.103  1.00  0.00     0.251 C 
ATOM     78  H   UNL A   1      30.828  27.202  27.501  1.00  0.00     0.163 HD
ATOM     79  O   UNL A   1      29.456  25.488  26.473  1.00  0.00    -0.269 OA
BRANCH  77  80
ATOM     80  C   UNL A   1      31.207  25.077  24.964  1.00  0.00     0.047 A 
ATOM     81  C   UNL A   1      31.761  23.807  25.204  1.00  0.00     0.017 A 
ATOM     82  C   UNL A   1      31.197  25.635  23.667  1.00  0.00    -0.003 A 
ATOM     83  C   UNL A   1      32.359  23.101  24.165  1.00  0.00     0.040 A 
ATOM     84  C   UNL A   1      31.805  24.898  22.636  1.00  0.00     0.048 A 
ATOM     85  C   UNL A   1      32.381  23.655  22.892  1.00  0.00     0.123 A 
ATOM     86  F   UNL A   1      32.956  22.980  21.889  1.00  0.00    -0.207 F 
BRANCH  82  87
ATOM     87  C   UNL A   1      30.572  26.931  23.356  1.00  0.00    -0.016 A 
ATOM     88  C   UNL A   1      31.342  28.038  22.959  1.00  0.00     0.012 A 
ATOM     89  C   UNL A   1      29.178  27.087  23.463  1.00  0.00     0.032 A 
ATOM     90  C   UNL A   1      30.739  29.269  22.691  1.00  0.00     0.041 A 
ATOM     91  C   UNL A   1      28.576  28.317  23.192  1.00  0.00     0.077 A 
ATOM     92  C   UNL A   1      29.359  29.402  22.809  1.00  0.00     0.141 A 
ATOM     93  Cl  UNL A   1      26.866  28.473  23.334  1.00  0.00    -0.081 Cl
ATOM     94  F   UNL A   1      28.800  30.593  22.546  1.00  0.00    -0.205 F 
ENDBRANCH  82  87
ENDBRANCH  77  80
ENDBRANCH  75  76
ENDBRANCH  74  75
ENDBRANCH  73  74
ENDBRANCH  72  73
ENDBRANCH   1  72
TORSDOF 17
ENDMDL
