MODEL 1
REMARK VINA RESULT:     -10.6      0.000      0.000
REMARK SMILES COc1ccc(C(=O)NCCCCCCNC(=O)c2ccc(-c3c4nc(c(-c5cc(S(=O)(=O)[O-])ccc5F)c5ccc([nH]5)c(-c5cc(S(=O)(=O)[O-])ccc5F)c5nc(c(-c6cc(S(=O)(=O)[O-])ccc6F)c6ccc3[nH]6)C=C5)C=C4)cc2)cc1NCc1cc(C#N)cs1
REMARK SMILES IDX 12 1 11 2 10 3 9 4 7 5 8 6 6 8 3 9 4 10 83 11 5 12 82 13
REMARK SMILES IDX 2 14 1 15 84 16 85 18 86 19 87 20 92 21 88 22 91 23 89 24
REMARK SMILES IDX 90 25 13 26 14 27 15 28 16 29 17 30 18 32 19 33 20 34 81 35
REMARK SMILES IDX 21 36 80 37 22 38 23 39 24 40 74 41 25 42 79 43 73 44 75 45
REMARK SMILES IDX 26 46 78 47 72 48 71 49 27 51 59 52 39 53 58 54 40 55 43 56
REMARK SMILES IDX 57 57 76 58 41 59 42 60 56 62 77 63 44 64 28 65 29 66 37 67
REMARK SMILES IDX 30 68 36 69 38 70 35 71 31 72 32 73 33 74 34 75 60 76 61 77
REMARK SMILES IDX 69 78 62 79 68 80 70 81 67 82 63 83 64 84 65 85 66 86 45 87
REMARK SMILES IDX 46 88 54 89 47 90 53 91 55 92 52 93 48 94 49 95 50 96 51 97
REMARK H PARENT 9 7 84 17 16 31 75 50 43 61
REMARK Flexibility Score: inf
ROOT
ATOM      1  C   UNL A   1      34.341  22.632  23.405  1.00  0.00     0.002 C 
ENDROOT
BRANCH   1   2
ATOM      2  C   UNL A   1      33.602  21.850  24.496  1.00  0.00     0.021 C 
BRANCH   2   3
ATOM      3  C   UNL A   1      32.085  21.848  24.282  1.00  0.00     0.116 C 
BRANCH   3   4
ATOM      4  N   UNL A   1      31.411  22.196  25.519  1.00  0.00    -0.352 N 
ATOM      5  C   UNL A   1      31.374  23.349  26.263  1.00  0.00     0.251 C 
ATOM      6  O   UNL A   1      30.702  23.346  27.294  1.00  0.00    -0.269 OA
ATOM      7  H   UNL A   1      30.877  21.462  25.900  1.00  0.00     0.163 HD
BRANCH   5   8
ATOM      8  C   UNL A   1      32.050  24.607  25.838  1.00  0.00     0.042 A 
ATOM      9  C   UNL A   1      33.328  27.017  25.214  1.00  0.00     0.142 A 
ATOM     10  C   UNL A   1      34.001  26.029  25.944  1.00  0.00     0.049 A 
ATOM     11  C   UNL A   1      32.016  26.811  24.751  1.00  0.00     0.078 A 
ATOM     12  C   UNL A   1      33.350  24.844  26.288  1.00  0.00     0.018 A 
ATOM     13  C   UNL A   1      31.452  25.556  25.005  1.00  0.00     0.043 A 
BRANCH   9  14
ATOM     14  O   UNL A   1      34.068  28.121  24.864  1.00  0.00    -0.495 OA
ATOM     15  C   UNL A   1      33.917  29.204  25.777  1.00  0.00     0.278 C 
ENDBRANCH   9  14
BRANCH  11  16
ATOM     16  N   UNL A   1      31.294  27.806  24.118  1.00  0.00    -0.377 N 
ATOM     17  H   UNL A   1      31.622  28.728  24.219  1.00  0.00     0.161 HD
BRANCH  16  18
ATOM     18  C   UNL A   1      30.093  27.615  23.315  1.00  0.00     0.160 C 
BRANCH  18  19
ATOM     19  C   UNL A   1      29.215  28.832  23.146  1.00  0.00     0.025 A 
ATOM     20  C   UNL A   1      29.574  30.166  23.037  1.00  0.00     0.036 A 
ATOM     21  S   UNL A   1      27.507  28.652  23.159  1.00  0.00    -0.146 S 
ATOM     22  C   UNL A   1      28.438  31.036  22.980  1.00  0.00     0.063 A 
ATOM     23  C   UNL A   1      27.254  30.339  23.050  1.00  0.00     0.084 A 
BRANCH  22  24
ATOM     24  C   UNL A   1      28.490  32.466  22.871  1.00  0.00     0.100 C 
ATOM     25  N   UNL A   1      28.520  33.620  22.779  1.00  0.00    -0.192 NA
ENDBRANCH  22  24
ENDBRANCH  18  19
ENDBRANCH  16  18
ENDBRANCH  11  16
ENDBRANCH   5   8
ENDBRANCH   3   4
ENDBRANCH   2   3
ENDBRANCH   1   2
BRANCH   1  26
ATOM     26  C   UNL A   1      35.565  23.404  23.913  1.00  0.00     0.002 C 
BRANCH  26  27
ATOM     27  C   UNL A   1      36.761  22.520  24.278  1.00  0.00     0.021 C 
BRANCH  27  28
ATOM     28  C   UNL A   1      37.251  22.725  25.706  1.00  0.00     0.116 C 
BRANCH  28  29
ATOM     29  N   UNL A   1      38.362  21.835  26.009  1.00  0.00    -0.352 N 
ATOM     30  C   UNL A   1      39.645  22.148  26.377  1.00  0.00     0.251 C 
ATOM     31  H   UNL A   1      38.164  20.873  25.941  1.00  0.00     0.163 HD
ATOM     32  O   UNL A   1      40.526  21.299  26.297  1.00  0.00    -0.269 OA
BRANCH  30  33
ATOM     33  C   UNL A   1      39.951  23.511  26.856  1.00  0.00     0.039 A 
ATOM     34  C   UNL A   1      40.448  23.681  28.149  1.00  0.00     0.014 A 
ATOM     35  C   UNL A   1      39.740  24.619  26.029  1.00  0.00     0.014 A 
ATOM     36  C   UNL A   1      40.778  24.961  28.593  1.00  0.00     0.010 A 
ATOM     37  C   UNL A   1      40.157  25.879  26.440  1.00  0.00     0.010 A 
ATOM     38  C   UNL A   1      40.668  26.067  27.733  1.00  0.00    -0.014 A 
BRANCH  38  39
ATOM     39  C   UNL A   1      41.074  27.425  28.177  1.00  0.00     0.031 A 
ATOM     40  C   UNL A   1      42.524  27.828  28.144  1.00  0.00     0.074 A 
ATOM     41  C   UNL A   1      40.141  28.279  28.642  1.00  0.00     0.049 A 
ATOM     42  N   UNL A   1      43.077  28.951  28.526  1.00  0.00    -0.248 NA
ATOM     43  C   UNL A   1      43.480  26.828  27.644  1.00  0.00     0.031 C 
ATOM     44  C   UNL A   1      38.710  27.986  28.750  1.00  0.00     0.029 A 
ATOM     45  N   UNL A   1      40.251  29.565  29.107  1.00  0.00    -0.354 N 
ATOM     46  C   UNL A   1      44.443  28.791  28.316  1.00  0.00     0.074 A 
ATOM     47  C   UNL A   1      44.638  27.438  27.843  1.00  0.00     0.031 C 
ATOM     48  C   UNL A   1      38.072  29.074  29.210  1.00  0.00     0.029 A 
ATOM     49  C   UNL A   1      39.050  30.119  29.490  1.00  0.00     0.049 A 
ATOM     50  H   UNL A   1      41.108  30.046  29.163  1.00  0.00     0.167 HD
ATOM     51  C   UNL A   1      45.437  29.697  28.481  1.00  0.00     0.034 A 
ATOM     52  C   UNL A   1      38.771  31.326  30.021  1.00  0.00     0.034 A 
ATOM     53  C   UNL A   1      45.220  31.043  28.955  1.00  0.00     0.049 A 
ATOM     54  C   UNL A   1      39.902  32.299  30.244  1.00  0.00     0.074 A 
ATOM     55  C   UNL A   1      46.148  32.057  29.116  1.00  0.00     0.029 A 
ATOM     56  N   UNL A   1      43.996  31.560  29.360  1.00  0.00    -0.354 N 
ATOM     57  N   UNL A   1      41.183  32.148  29.996  1.00  0.00    -0.248 NA
ATOM     58  C   UNL A   1      39.548  33.606  30.810  1.00  0.00     0.031 C 
ATOM     59  C   UNL A   1      45.506  33.148  29.707  1.00  0.00     0.029 A 
ATOM     60  C   UNL A   1      44.155  32.861  29.812  1.00  0.00     0.049 A 
ATOM     61  H   UNL A   1      43.140  31.073  29.329  1.00  0.00     0.167 HD
ATOM     62  C   UNL A   1      41.781  33.357  30.341  1.00  0.00     0.074 A 
ATOM     63  C   UNL A   1      40.718  34.228  30.799  1.00  0.00     0.031 C 
ATOM     64  C   UNL A   1      43.089  33.719  30.279  1.00  0.00     0.034 A 
BRANCH  51  65
ATOM     65  C   UNL A   1      46.849  29.252  28.180  1.00  0.00     0.023 A 
ATOM     66  C   UNL A   1      47.693  28.734  29.178  1.00  0.00     0.031 A 
ATOM     67  C   UNL A   1      47.365  29.362  26.876  1.00  0.00     0.131 A 
ATOM     68  C   UNL A   1      49.026  28.419  28.873  1.00  0.00     0.055 A 
ATOM     69  C   UNL A   1      48.664  28.957  26.560  1.00  0.00     0.041 A 
ATOM     70  F   UNL A   1      46.618  29.875  25.885  1.00  0.00    -0.206 F 
ATOM     71  C   UNL A   1      49.508  28.497  27.565  1.00  0.00     0.022 A 
BRANCH  68  72
ATOM     72  S   UNL A   1      50.163  28.060  30.239  1.00  0.00     0.124 S 
ATOM     73  O   UNL A   1      51.303  28.913  29.905  1.00  0.00    -0.237 OA
ATOM     74  O   UNL A   1      49.389  28.458  31.409  1.00  0.00    -0.237 OA
ATOM     75  O   UNL A   1      50.412  26.626  30.111  1.00  0.00    -0.744 OA
ENDBRANCH  68  72
ENDBRANCH  51  65
BRANCH  52  76
ATOM     76  C   UNL A   1      37.371  31.680  30.398  1.00  0.00     0.023 A 
ATOM     77  C   UNL A   1      36.489  32.251  29.466  1.00  0.00     0.031 A 
ATOM     78  C   UNL A   1      36.909  31.502  31.715  1.00  0.00     0.131 A 
ATOM     79  C   UNL A   1      35.215  32.673  29.876  1.00  0.00     0.055 A 
ATOM     80  C   UNL A   1      35.617  31.858  32.100  1.00  0.00     0.041 A 
ATOM     81  F   UNL A   1      37.710  30.963  32.649  1.00  0.00    -0.206 F 
ATOM     82  C   UNL A   1      34.765  32.463  31.182  1.00  0.00     0.022 A 
BRANCH  79  83
ATOM     83  S   UNL A   1      34.193  33.610  28.706  1.00  0.00     0.124 S 
ATOM     84  O   UNL A   1      33.279  34.304  29.605  1.00  0.00    -0.237 OA
ATOM     85  O   UNL A   1      35.187  34.440  28.033  1.00  0.00    -0.237 OA
ATOM     86  O   UNL A   1      33.587  32.570  27.877  1.00  0.00    -0.744 OA
ENDBRANCH  79  83
ENDBRANCH  52  76
BRANCH  64  87
ATOM     87  C   UNL A   1      43.434  35.138  30.666  1.00  0.00     0.023 A 
ATOM     88  C   UNL A   1      43.382  36.196  29.742  1.00  0.00     0.031 A 
ATOM     89  C   UNL A   1      43.834  35.432  31.982  1.00  0.00     0.131 A 
ATOM     90  C   UNL A   1      43.791  37.482  30.128  1.00  0.00     0.055 A 
ATOM     91  C   UNL A   1      44.161  36.728  32.381  1.00  0.00     0.041 A 
ATOM     92  F   UNL A   1      43.911  34.462  32.907  1.00  0.00    -0.206 F 
ATOM     93  C   UNL A   1      44.157  37.759  31.448  1.00  0.00     0.022 A 
BRANCH  90  94
ATOM     94  S   UNL A   1      43.961  38.758  28.851  1.00  0.00     0.124 S 
ATOM     95  O   UNL A   1      45.180  38.341  28.168  1.00  0.00    -0.237 OA
ATOM     96  O   UNL A   1      42.723  38.610  28.094  1.00  0.00    -0.237 OA
ATOM     97  O   UNL A   1      44.072  39.998  29.619  1.00  0.00    -0.744 OA
ENDBRANCH  90  94
ENDBRANCH  64  87
ENDBRANCH  38  39
ENDBRANCH  30  33
ENDBRANCH  28  29
ENDBRANCH  27  28
ENDBRANCH  26  27
ENDBRANCH   1  26
TORSDOF 21
ENDMDL
MODEL 2
REMARK VINA RESULT:     -10.6      1.853      2.261
REMARK SMILES COc1ccc(C(=O)NCCCCCCNC(=O)c2ccc(-c3c4nc(c(-c5cc(S(=O)(=O)[O-])ccc5F)c5ccc([nH]5)c(-c5cc(S(=O)(=O)[O-])ccc5F)c5nc(c(-c6cc(S(=O)(=O)[O-])ccc6F)c6ccc3[nH]6)C=C5)C=C4)cc2)cc1NCc1cc(C#N)cs1
REMARK SMILES IDX 12 1 11 2 10 3 9 4 7 5 8 6 6 8 3 9 4 10 83 11 5 12 82 13
REMARK SMILES IDX 2 14 1 15 84 16 85 18 86 19 87 20 92 21 88 22 91 23 89 24
REMARK SMILES IDX 90 25 13 26 14 27 15 28 16 29 17 30 18 32 19 33 20 34 81 35
REMARK SMILES IDX 21 36 80 37 22 38 23 39 24 40 74 41 25 42 79 43 73 44 75 45
REMARK SMILES IDX 26 46 78 47 72 48 71 49 27 51 59 52 39 53 58 54 40 55 43 56
REMARK SMILES IDX 57 57 76 58 41 59 42 60 56 62 77 63 44 64 28 65 29 66 37 67
REMARK SMILES IDX 30 68 36 69 38 70 35 71 31 72 32 73 33 74 34 75 60 76 61 77
REMARK SMILES IDX 69 78 62 79 68 80 70 81 67 82 63 83 64 84 65 85 66 86 45 87
REMARK SMILES IDX 46 88 54 89 47 90 53 91 55 92 52 93 48 94 49 95 50 96 51 97
REMARK H PARENT 9 7 84 17 16 31 75 50 43 61
REMARK Flexibility Score: inf
ROOT
ATOM      1  C   UNL A   1      34.540  23.203  23.944  1.00  0.00     0.002 C 
ENDROOT
BRANCH   1   2
ATOM      2  C   UNL A   1      33.426  22.280  23.436  1.00  0.00     0.021 C 
BRANCH   2   3
ATOM      3  C   UNL A   1      32.239  23.063  22.868  1.00  0.00     0.116 C 
BRANCH   3   4
ATOM      4  N   UNL A   1      32.631  23.731  21.641  1.00  0.00    -0.352 N 
ATOM      5  C   UNL A   1      32.753  25.057  21.304  1.00  0.00     0.251 C 
ATOM      6  O   UNL A   1      33.113  25.328  20.159  1.00  0.00    -0.269 OA
ATOM      7  H   UNL A   1      32.854  23.115  20.907  1.00  0.00     0.163 HD
BRANCH   5   8
ATOM      8  C   UNL A   1      32.535  26.161  22.281  1.00  0.00     0.042 A 
ATOM      9  C   UNL A   1      32.179  28.120  24.247  1.00  0.00     0.142 A 
ATOM     10  C   UNL A   1      33.458  27.622  23.970  1.00  0.00     0.049 A 
ATOM     11  C   UNL A   1      31.055  27.676  23.526  1.00  0.00     0.078 A 
ATOM     12  C   UNL A   1      33.630  26.617  23.018  1.00  0.00     0.018 A 
ATOM     13  C   UNL A   1      31.294  26.767  22.490  1.00  0.00     0.043 A 
BRANCH   9  14
ATOM     14  O   UNL A   1      32.113  29.153  25.151  1.00  0.00    -0.495 OA
ATOM     15  C   UNL A   1      32.194  28.714  26.504  1.00  0.00     0.278 C 
ENDBRANCH   9  14
BRANCH  11  16
ATOM     16  N   UNL A   1      29.770  28.075  23.847  1.00  0.00    -0.377 N 
ATOM     17  H   UNL A   1      29.529  28.080  24.801  1.00  0.00     0.161 HD
BRANCH  16  18
ATOM     18  C   UNL A   1      28.740  28.490  22.902  1.00  0.00     0.160 C 
BRANCH  18  19
ATOM     19  C   UNL A   1      28.590  29.980  22.707  1.00  0.00     0.025 A 
ATOM     20  C   UNL A   1      28.007  30.674  21.659  1.00  0.00     0.036 A 
ATOM     21  S   UNL A   1      29.279  31.057  23.853  1.00  0.00    -0.146 S 
ATOM     22  C   UNL A   1      28.144  32.093  21.799  1.00  0.00     0.063 A 
ATOM     23  C   UNL A   1      28.828  32.432  22.944  1.00  0.00     0.084 A 
BRANCH  22  24
ATOM     24  C   UNL A   1      27.649  33.072  20.874  1.00  0.00     0.100 C 
ATOM     25  N   UNL A   1      27.240  33.867  20.137  1.00  0.00    -0.192 NA
ENDBRANCH  22  24
ENDBRANCH  18  19
ENDBRANCH  16  18
ENDBRANCH  11  16
ENDBRANCH   5   8
ENDBRANCH   3   4
ENDBRANCH   2   3
ENDBRANCH   1   2
BRANCH   1  26
ATOM     26  C   UNL A   1      35.935  22.564  23.924  1.00  0.00     0.002 C 
BRANCH  26  27
ATOM     27  C   UNL A   1      37.031  23.425  24.557  1.00  0.00     0.021 C 
BRANCH  27  28
ATOM     28  C   UNL A   1      37.260  23.128  26.033  1.00  0.00     0.116 C 
BRANCH  28  29
ATOM     29  N   UNL A   1      38.320  22.148  26.210  1.00  0.00    -0.352 N 
ATOM     30  C   UNL A   1      39.658  22.353  26.428  1.00  0.00     0.251 C 
ATOM     31  H   UNL A   1      38.038  21.207  26.169  1.00  0.00     0.163 HD
ATOM     32  O   UNL A   1      40.452  21.435  26.251  1.00  0.00    -0.269 OA
BRANCH  30  33
ATOM     33  C   UNL A   1      40.129  23.684  26.864  1.00  0.00     0.039 A 
ATOM     34  C   UNL A   1      40.129  24.737  25.949  1.00  0.00     0.014 A 
ATOM     35  C   UNL A   1      40.574  23.886  28.174  1.00  0.00     0.014 A 
ATOM     36  C   UNL A   1      40.533  26.006  26.365  1.00  0.00     0.010 A 
ATOM     37  C   UNL A   1      40.886  25.168  28.610  1.00  0.00     0.010 A 
ATOM     38  C   UNL A   1      40.883  26.241  27.707  1.00  0.00    -0.014 A 
BRANCH  38  39
ATOM     39  C   UNL A   1      41.256  27.601  28.173  1.00  0.00     0.031 A 
ATOM     40  C   UNL A   1      42.701  28.023  28.187  1.00  0.00     0.074 A 
ATOM     41  C   UNL A   1      40.298  28.438  28.615  1.00  0.00     0.049 A 
ATOM     42  N   UNL A   1      43.227  29.150  28.592  1.00  0.00    -0.248 NA
ATOM     43  C   UNL A   1      43.686  27.040  27.709  1.00  0.00     0.031 C 
ATOM     44  C   UNL A   1      38.869  28.125  28.678  1.00  0.00     0.029 A 
ATOM     45  N   UNL A   1      40.376  29.722  29.092  1.00  0.00    -0.354 N 
ATOM     46  C   UNL A   1      44.600  29.011  28.422  1.00  0.00     0.074 A 
ATOM     47  C   UNL A   1      44.829  27.664  27.946  1.00  0.00     0.031 C 
ATOM     48  C   UNL A   1      38.202  29.201  29.125  1.00  0.00     0.029 A 
ATOM     49  C   UNL A   1      39.157  30.257  29.441  1.00  0.00     0.049 A 
ATOM     50  H   UNL A   1      41.224  30.215  29.177  1.00  0.00     0.167 HD
ATOM     51  C   UNL A   1      45.576  29.930  28.624  1.00  0.00     0.034 A 
ATOM     52  C   UNL A   1      38.845  31.456  29.972  1.00  0.00     0.034 A 
ATOM     53  C   UNL A   1      45.327  31.268  29.100  1.00  0.00     0.049 A 
ATOM     54  C   UNL A   1      39.955  32.443  30.237  1.00  0.00     0.074 A 
ATOM     55  C   UNL A   1      46.235  32.294  29.297  1.00  0.00     0.029 A 
ATOM     56  N   UNL A   1      44.084  31.766  29.471  1.00  0.00    -0.354 N 
ATOM     57  N   UNL A   1      41.246  32.311  30.026  1.00  0.00    -0.248 NA
ATOM     58  C   UNL A   1      39.567  33.741  30.800  1.00  0.00     0.031 C 
ATOM     59  C   UNL A   1      45.561  33.372  29.875  1.00  0.00     0.029 A 
ATOM     60  C   UNL A   1      44.211  33.066  29.937  1.00  0.00     0.049 A 
ATOM     61  H   UNL A   1      43.237  31.268  29.411  1.00  0.00     0.167 HD
ATOM     62  C   UNL A   1      41.816  33.526  30.397  1.00  0.00     0.074 A 
ATOM     63  C   UNL A   1      40.728  34.379  30.829  1.00  0.00     0.031 C 
ATOM     64  C   UNL A   1      43.120  33.905  30.377  1.00  0.00     0.034 A 
BRANCH  51  65
ATOM     65  C   UNL A   1      47.003  29.505  28.363  1.00  0.00     0.023 A 
ATOM     66  C   UNL A   1      47.731  28.737  29.289  1.00  0.00     0.031 A 
ATOM     67  C   UNL A   1      47.651  29.888  27.175  1.00  0.00     0.131 A 
ATOM     68  C   UNL A   1      49.081  28.444  29.047  1.00  0.00     0.055 A 
ATOM     69  C   UNL A   1      48.967  29.512  26.898  1.00  0.00     0.041 A 
ATOM     70  F   UNL A   1      47.019  30.646  26.264  1.00  0.00    -0.206 F 
ATOM     71  C   UNL A   1      49.696  28.799  27.844  1.00  0.00     0.022 A 
BRANCH  68  72
ATOM     72  S   UNL A   1      50.067  27.735  30.394  1.00  0.00     0.124 S 
ATOM     73  O   UNL A   1      51.429  27.954  29.910  1.00  0.00    -0.237 OA
ATOM     74  O   UNL A   1      49.659  28.538  31.541  1.00  0.00    -0.237 OA
ATOM     75  O   UNL A   1      49.645  26.337  30.428  1.00  0.00    -0.744 OA
ENDBRANCH  68  72
ENDBRANCH  51  65
BRANCH  52  76
ATOM     76  C   UNL A   1      37.430  31.789  30.309  1.00  0.00     0.023 A 
ATOM     77  C   UNL A   1      36.521  32.191  29.317  1.00  0.00     0.031 A 
ATOM     78  C   UNL A   1      36.977  31.761  31.641  1.00  0.00     0.131 A 
ATOM     79  C   UNL A   1      35.228  32.602  29.676  1.00  0.00     0.055 A 
ATOM     80  C   UNL A   1      35.669  32.101  31.985  1.00  0.00     0.041 A 
ATOM     81  F   UNL A   1      37.804  31.386  32.632  1.00  0.00    -0.206 F 
ATOM     82  C   UNL A   1      34.789  32.541  31.001  1.00  0.00     0.022 A 
BRANCH  79  83
ATOM     83  S   UNL A   1      34.162  33.329  28.402  1.00  0.00     0.124 S 
ATOM     84  O   UNL A   1      35.136  34.015  27.561  1.00  0.00    -0.237 OA
ATOM     85  O   UNL A   1      33.533  32.147  27.823  1.00  0.00    -0.237 OA
ATOM     86  O   UNL A   1      33.269  34.200  29.163  1.00  0.00    -0.744 OA
ENDBRANCH  79  83
ENDBRANCH  52  76
BRANCH  64  87
ATOM     87  C   UNL A   1      43.434  35.326  30.784  1.00  0.00     0.023 A 
ATOM     88  C   UNL A   1      43.609  35.695  32.129  1.00  0.00     0.031 A 
ATOM     89  C   UNL A   1      43.546  36.331  29.806  1.00  0.00     0.131 A 
ATOM     90  C   UNL A   1      43.817  37.042  32.464  1.00  0.00     0.055 A 
ATOM     91  C   UNL A   1      43.834  37.655  30.139  1.00  0.00     0.041 A 
ATOM     92  F   UNL A   1      43.380  36.042  28.505  1.00  0.00    -0.206 F 
ATOM     93  C   UNL A   1      43.955  38.020  31.475  1.00  0.00     0.022 A 
BRANCH  90  94
ATOM     94  S   UNL A   1      43.778  37.518  34.213  1.00  0.00     0.124 S 
ATOM     95  O   UNL A   1      43.525  36.239  34.868  1.00  0.00    -0.237 OA
ATOM     96  O   UNL A   1      45.106  38.085  34.413  1.00  0.00    -0.237 OA
ATOM     97  O   UNL A   1      42.677  38.479  34.282  1.00  0.00    -0.744 OA
ENDBRANCH  90  94
ENDBRANCH  64  87
ENDBRANCH  38  39
ENDBRANCH  30  33
ENDBRANCH  28  29
ENDBRANCH  27  28
ENDBRANCH  26  27
ENDBRANCH   1  26
TORSDOF 21
ENDMDL
MODEL 3
REMARK VINA RESULT:     -10.5      5.425     10.141
REMARK SMILES COc1ccc(C(=O)NCCCCCCNC(=O)c2ccc(-c3c4nc(c(-c5cc(S(=O)(=O)[O-])ccc5F)c5ccc([nH]5)c(-c5cc(S(=O)(=O)[O-])ccc5F)c5nc(c(-c6cc(S(=O)(=O)[O-])ccc6F)c6ccc3[nH]6)C=C5)C=C4)cc2)cc1NCc1cc(C#N)cs1
REMARK SMILES IDX 12 1 11 2 10 3 9 4 7 5 8 6 6 8 3 9 4 10 83 11 5 12 82 13
REMARK SMILES IDX 2 14 1 15 84 16 85 18 86 19 87 20 92 21 88 22 91 23 89 24
REMARK SMILES IDX 90 25 13 26 14 27 15 28 16 29 17 30 18 32 19 33 20 34 81 35
REMARK SMILES IDX 21 36 80 37 22 38 23 39 24 40 74 41 25 42 79 43 73 44 75 45
REMARK SMILES IDX 26 46 78 47 72 48 71 49 27 51 59 52 39 53 58 54 40 55 43 56
REMARK SMILES IDX 57 57 76 58 41 59 42 60 56 62 77 63 44 64 28 65 29 66 37 67
REMARK SMILES IDX 30 68 36 69 38 70 35 71 31 72 32 73 33 74 34 75 60 76 61 77
REMARK SMILES IDX 69 78 62 79 68 80 70 81 67 82 63 83 64 84 65 85 66 86 45 87
REMARK SMILES IDX 46 88 54 89 47 90 53 91 55 92 52 93 48 94 49 95 50 96 51 97
REMARK H PARENT 9 7 84 17 16 31 75 50 43 61
REMARK Flexibility Score: inf
ROOT
ATOM      1  C   UNL A   1      35.625  31.539  27.856  1.00  0.00     0.002 C 
ENDROOT
BRANCH   1   2
ATOM      2  C   UNL A   1      34.240  31.010  27.466  1.00  0.00     0.021 C 
BRANCH   2   3
ATOM      3  C   UNL A   1      34.275  29.531  27.070  1.00  0.00     0.116 C 
BRANCH   3   4
ATOM      4  N   UNL A   1      33.223  28.810  27.763  1.00  0.00    -0.352 N 
ATOM      5  C   UNL A   1      32.025  28.288  27.344  1.00  0.00     0.251 C 
ATOM      6  O   UNL A   1      31.323  27.718  28.180  1.00  0.00    -0.269 OA
ATOM      7  H   UNL A   1      33.404  28.668  28.720  1.00  0.00     0.163 HD
BRANCH   5   8
ATOM      8  C   UNL A   1      31.580  28.325  25.923  1.00  0.00     0.042 A 
ATOM      9  C   UNL A   1      30.584  28.454  23.311  1.00  0.00     0.142 A 
ATOM     10  C   UNL A   1      30.757  29.625  24.060  1.00  0.00     0.049 A 
ATOM     11  C   UNL A   1      30.936  27.197  23.837  1.00  0.00     0.078 A 
ATOM     12  C   UNL A   1      31.216  29.556  25.376  1.00  0.00     0.018 A 
ATOM     13  C   UNL A   1      31.518  27.191  25.109  1.00  0.00     0.043 A 
BRANCH   9  14
ATOM     14  O   UNL A   1      30.191  28.623  22.005  1.00  0.00    -0.495 OA
ATOM     15  C   UNL A   1      29.735  29.944  21.727  1.00  0.00     0.278 C 
ENDBRANCH   9  14
BRANCH  11  16
ATOM     16  N   UNL A   1      30.682  26.019  23.159  1.00  0.00    -0.377 N 
ATOM     17  H   UNL A   1      29.758  25.681  23.181  1.00  0.00     0.161 HD
BRANCH  16  18
ATOM     18  C   UNL A   1      31.657  25.231  22.415  1.00  0.00     0.160 C 
BRANCH  18  19
ATOM     19  C   UNL A   1      32.283  24.080  23.167  1.00  0.00     0.025 A 
ATOM     20  C   UNL A   1      31.779  22.813  23.413  1.00  0.00     0.036 A 
ATOM     21  S   UNL A   1      33.803  24.298  23.934  1.00  0.00    -0.146 S 
ATOM     22  C   UNL A   1      32.642  22.032  24.247  1.00  0.00     0.063 A 
ATOM     23  C   UNL A   1      33.772  22.729  24.610  1.00  0.00     0.084 A 
BRANCH  22  24
ATOM     24  C   UNL A   1      32.389  20.687  24.678  1.00  0.00     0.100 C 
ATOM     25  N   UNL A   1      32.199  19.598  25.024  1.00  0.00    -0.192 NA
ENDBRANCH  22  24
ENDBRANCH  18  19
ENDBRANCH  16  18
ENDBRANCH  11  16
ENDBRANCH   5   8
ENDBRANCH   3   4
ENDBRANCH   2   3
ENDBRANCH   1   2
BRANCH   1  26
ATOM     26  C   UNL A   1      35.628  33.007  28.301  1.00  0.00     0.002 C 
BRANCH  26  27
ATOM     27  C   UNL A   1      34.237  33.638  28.403  1.00  0.00     0.021 C 
BRANCH  27  28
ATOM     28  C   UNL A   1      34.268  35.130  28.704  1.00  0.00     0.116 C 
BRANCH  28  29
ATOM     29  N   UNL A   1      33.441  35.448  29.857  1.00  0.00    -0.352 N 
ATOM     30  C   UNL A   1      33.501  34.942  31.130  1.00  0.00     0.251 C 
ATOM     31  H   UNL A   1      32.740  36.121  29.703  1.00  0.00     0.163 HD
ATOM     32  O   UNL A   1      32.550  35.087  31.890  1.00  0.00    -0.269 OA
BRANCH  30  33
ATOM     33  C   UNL A   1      34.712  34.217  31.567  1.00  0.00     0.039 A 
ATOM     34  C   UNL A   1      34.576  32.952  32.139  1.00  0.00     0.014 A 
ATOM     35  C   UNL A   1      35.978  34.792  31.416  1.00  0.00     0.014 A 
ATOM     36  C   UNL A   1      35.718  32.245  32.517  1.00  0.00     0.010 A 
ATOM     37  C   UNL A   1      37.115  34.048  31.706  1.00  0.00     0.010 A 
ATOM     38  C   UNL A   1      36.998  32.771  32.273  1.00  0.00    -0.014 A 
BRANCH  38  39
ATOM     39  C   UNL A   1      38.221  32.000  32.616  1.00  0.00     0.031 A 
ATOM     40  C   UNL A   1      38.957  32.283  33.897  1.00  0.00     0.074 A 
ATOM     41  C   UNL A   1      38.683  31.071  31.757  1.00  0.00     0.049 A 
ATOM     42  N   UNL A   1      40.059  31.745  34.352  1.00  0.00    -0.248 NA
ATOM     43  C   UNL A   1      38.397  33.329  34.768  1.00  0.00     0.031 C 
ATOM     44  C   UNL A   1      38.070  30.734  30.469  1.00  0.00     0.029 A 
ATOM     45  N   UNL A   1      39.771  30.239  31.832  1.00  0.00    -0.354 N 
ATOM     46  C   UNL A   1      40.326  32.387  35.557  1.00  0.00     0.074 A 
ATOM     47  C   UNL A   1      39.310  33.404  35.724  1.00  0.00     0.031 C 
ATOM     48  C   UNL A   1      38.767  29.738  29.898  1.00  0.00     0.029 A 
ATOM     49  C   UNL A   1      39.910  29.409  30.743  1.00  0.00     0.049 A 
ATOM     50  H   UNL A   1      40.395  30.235  32.594  1.00  0.00     0.167 HD
ATOM     51  C   UNL A   1      41.314  32.135  36.450  1.00  0.00     0.034 A 
ATOM     52  C   UNL A   1      40.859  28.498  30.449  1.00  0.00     0.034 A 
ATOM     53  C   UNL A   1      42.318  31.116  36.264  1.00  0.00     0.049 A 
ATOM     54  C   UNL A   1      41.977  28.273  31.435  1.00  0.00     0.074 A 
ATOM     55  C   UNL A   1      43.336  30.745  37.126  1.00  0.00     0.029 A 
ATOM     56  N   UNL A   1      42.444  30.315  35.136  1.00  0.00    -0.354 N 
ATOM     57  N   UNL A   1      42.188  28.857  32.593  1.00  0.00    -0.248 NA
ATOM     58  C   UNL A   1      42.979  27.260  31.080  1.00  0.00     0.031 C 
ATOM     59  C   UNL A   1      44.132  29.795  36.481  1.00  0.00     0.029 A 
ATOM     60  C   UNL A   1      43.549  29.486  35.262  1.00  0.00     0.049 A 
ATOM     61  H   UNL A   1      41.837  30.333  34.361  1.00  0.00     0.167 HD
ATOM     62  C   UNL A   1      43.327  28.253  33.120  1.00  0.00     0.074 A 
ATOM     63  C   UNL A   1      43.745  27.251  32.160  1.00  0.00     0.031 C 
ATOM     64  C   UNL A   1      43.966  28.498  34.293  1.00  0.00     0.034 A 
BRANCH  51  65
ATOM     65  C   UNL A   1      41.374  32.997  37.689  1.00  0.00     0.023 A 
ATOM     66  C   UNL A   1      40.714  32.637  38.878  1.00  0.00     0.031 A 
ATOM     67  C   UNL A   1      42.090  34.208  37.678  1.00  0.00     0.131 A 
ATOM     68  C   UNL A   1      40.721  33.511  39.975  1.00  0.00     0.055 A 
ATOM     69  C   UNL A   1      42.170  35.028  38.805  1.00  0.00     0.041 A 
ATOM     70  F   UNL A   1      42.717  34.622  36.565  1.00  0.00    -0.206 F 
ATOM     71  C   UNL A   1      41.470  34.690  39.958  1.00  0.00     0.022 A 
BRANCH  68  72
ATOM     72  S   UNL A   1      39.606  33.164  41.363  1.00  0.00     0.124 S 
ATOM     73  O   UNL A   1      40.267  33.875  42.456  1.00  0.00    -0.237 OA
ATOM     74  O   UNL A   1      38.343  33.731  40.904  1.00  0.00    -0.237 OA
ATOM     75  O   UNL A   1      39.636  31.708  41.471  1.00  0.00    -0.744 OA
ENDBRANCH  68  72
ENDBRANCH  51  65
BRANCH  52  76
ATOM     76  C   UNL A   1      40.810  27.744  29.161  1.00  0.00     0.023 A 
ATOM     77  C   UNL A   1      41.705  28.028  28.117  1.00  0.00     0.031 A 
ATOM     78  C   UNL A   1      39.829  26.761  28.936  1.00  0.00     0.131 A 
ATOM     79  C   UNL A   1      41.567  27.380  26.881  1.00  0.00     0.055 A 
ATOM     80  C   UNL A   1      39.741  26.067  27.728  1.00  0.00     0.041 A 
ATOM     81  F   UNL A   1      38.945  26.449  29.898  1.00  0.00    -0.206 F 
ATOM     82  C   UNL A   1      40.603  26.387  26.685  1.00  0.00     0.022 A 
BRANCH  79  83
ATOM     83  S   UNL A   1      42.590  27.935  25.490  1.00  0.00     0.124 S 
ATOM     84  O   UNL A   1      41.816  29.065  24.988  1.00  0.00    -0.237 OA
ATOM     85  O   UNL A   1      43.849  28.261  26.152  1.00  0.00    -0.237 OA
ATOM     86  O   UNL A   1      42.633  26.767  24.612  1.00  0.00    -0.744 OA
ENDBRANCH  79  83
ENDBRANCH  52  76
BRANCH  64  87
ATOM     87  C   UNL A   1      45.155  27.628  34.629  1.00  0.00     0.023 A 
ATOM     88  C   UNL A   1      45.010  26.363  35.224  1.00  0.00     0.031 A 
ATOM     89  C   UNL A   1      46.458  28.082  34.358  1.00  0.00     0.131 A 
ATOM     90  C   UNL A   1      46.146  25.629  35.592  1.00  0.00     0.055 A 
ATOM     91  C   UNL A   1      47.584  27.312  34.652  1.00  0.00     0.041 A 
ATOM     92  F   UNL A   1      46.662  29.286  33.798  1.00  0.00    -0.206 F 
ATOM     93  C   UNL A   1      47.432  26.084  35.288  1.00  0.00     0.022 A 
BRANCH  90  94
ATOM     94  S   UNL A   1      45.927  24.129  36.589  1.00  0.00     0.124 S 
ATOM     95  O   UNL A   1      46.269  24.603  37.925  1.00  0.00    -0.237 OA
ATOM     96  O   UNL A   1      44.521  23.810  36.367  1.00  0.00    -0.237 OA
ATOM     97  O   UNL A   1      46.877  23.186  36.002  1.00  0.00    -0.744 OA
ENDBRANCH  90  94
ENDBRANCH  64  87
ENDBRANCH  38  39
ENDBRANCH  30  33
ENDBRANCH  28  29
ENDBRANCH  27  28
ENDBRANCH  26  27
ENDBRANCH   1  26
TORSDOF 21
ENDMDL
