MODEL 1
REMARK VINA RESULT:      -8.1      0.000      0.000
REMARK SMILES CC1=C(CC(=O)NCCCCCCNC(=O)c2ccc(-c3c4nc(c(-c5cc(S(=O)(=O)[O-])ccc5F)c5ccc([nH]5)c(-c5cc(S(=O)(=O)[O-])ccc5F)c5nc(c(-c6cc(S(=O)(=O)[O-])ccc6F)c6ccc3[nH]6)C=C5)C=C4)cc2)c2cc(F)ccc2/C1=C\c1ccc([S@@+](C)[O-])cc1
REMARK SMILES IDX 10 1 9 2 8 3 7 4 5 5 6 6 4 8 3 9 1 10 2 11 87 12 80 13 86 14
REMARK SMILES IDX 88 15 81 16 85 17 82 18 84 19 83 20 89 21 90 22 97 23 91 24
REMARK SMILES IDX 96 25 92 26 93 27 94 28 95 29 11 30 12 31 13 32 14 33 15 34
REMARK SMILES IDX 16 36 17 37 18 38 79 39 19 40 78 41 20 42 21 43 22 44 72 45
REMARK SMILES IDX 23 46 77 47 71 48 73 49 24 50 76 51 70 52 69 53 25 55 57 56
REMARK SMILES IDX 37 57 56 58 38 59 41 60 55 61 74 62 39 63 40 64 54 66 75 67
REMARK SMILES IDX 42 68 26 69 27 70 35 71 28 72 34 73 36 74 33 75 29 76 30 77
REMARK SMILES IDX 31 78 32 79 58 80 59 81 67 82 60 83 66 84 68 85 65 86 61 87
REMARK SMILES IDX 62 88 63 89 64 90 43 91 44 92 52 93 45 94 51 95 53 96 50 97
REMARK SMILES IDX 46 98 47 99 48 100 49 101
REMARK H PARENT 7 7 14 35 73 54 41 65
REMARK Flexibility Score: inf
ROOT
ATOM      1  C   UNL A   1      42.909  23.985  28.657  1.00  0.00     0.002 C 
ENDROOT
BRANCH   1   2
ATOM      2  C   UNL A   1      43.880  23.742  29.819  1.00  0.00     0.021 C 
BRANCH   2   3
ATOM      3  C   UNL A   1      44.671  24.980  30.239  1.00  0.00     0.116 C 
BRANCH   3   4
ATOM      4  N   UNL A   1      44.594  25.202  31.667  1.00  0.00    -0.356 N 
ATOM      5  C   UNL A   1      44.087  26.273  32.341  1.00  0.00     0.224 C 
ATOM      6  O   UNL A   1      44.178  26.285  33.572  1.00  0.00    -0.275 OA
ATOM      7  H   UNL A   1      44.958  24.481  32.230  1.00  0.00     0.163 HD
BRANCH   5   8
ATOM      8  C   UNL A   1      43.381  27.403  31.591  1.00  0.00     0.136 C 
BRANCH   8   9
ATOM      9  C   UNL A   1      43.012  28.579  32.439  1.00  0.00    -0.027 C 
ATOM     10  C   UNL A   1      40.682  27.884  33.182  1.00  0.00     0.045 C 
ATOM     11  C   UNL A   1      41.855  28.808  33.107  1.00  0.00    -0.039 C 
ATOM     12  C   UNL A   1      41.939  30.103  33.806  1.00  0.00    -0.014 C 
ATOM     13  C   UNL A   1      43.946  29.671  32.762  1.00  0.00    -0.011 A 
ATOM     14  C   UNL A   1      43.326  30.582  33.637  1.00  0.00    -0.010 A 
ATOM     15  C   UNL A   1      40.905  30.726  34.408  1.00  0.00     0.017 C 
ATOM     16  C   UNL A   1      45.267  29.850  32.370  1.00  0.00     0.048 A 
ATOM     17  C   UNL A   1      44.046  31.644  34.171  1.00  0.00     0.012 A 
ATOM     18  C   UNL A   1      45.960  30.949  32.870  1.00  0.00     0.123 A 
ATOM     19  C   UNL A   1      45.369  31.836  33.769  1.00  0.00     0.040 A 
ATOM     20  F   UNL A   1      47.232  31.150  32.499  1.00  0.00    -0.207 F 
BRANCH  15  21
ATOM     21  C   UNL A   1      40.960  32.036  35.064  1.00  0.00    -0.025 A 
ATOM     22  C   UNL A   1      41.154  32.149  36.445  1.00  0.00     0.013 A 
ATOM     23  C   UNL A   1      40.718  33.185  34.307  1.00  0.00     0.013 A 
ATOM     24  C   UNL A   1      40.974  33.382  37.080  1.00  0.00     0.061 A 
ATOM     25  C   UNL A   1      40.561  34.420  34.940  1.00  0.00     0.061 A 
ATOM     26  C   UNL A   1      40.646  34.520  36.334  1.00  0.00     0.152 A 
BRANCH  26  27
ATOM     27  S   UNL A   1      40.160  36.057  37.157  1.00  0.00    -0.018 S 
ATOM     28  C   UNL A   1      39.187  35.376  38.514  1.00  0.00     0.346 C 
ATOM     29  O   UNL A   1      41.462  36.698  37.759  1.00  0.00    -0.612 OA
ENDBRANCH  26  27
ENDBRANCH  15  21
ENDBRANCH   8   9
ENDBRANCH   5   8
ENDBRANCH   3   4
ENDBRANCH   2   3
ENDBRANCH   1   2
BRANCH   1  30
ATOM     30  C   UNL A   1      43.376  23.471  27.290  1.00  0.00     0.002 C 
BRANCH  30  31
ATOM     31  C   UNL A   1      42.640  22.236  26.766  1.00  0.00     0.021 C 
BRANCH  31  32
ATOM     32  C   UNL A   1      41.452  21.793  27.612  1.00  0.00     0.116 C 
BRANCH  32  33
ATOM     33  N   UNL A   1      40.228  21.672  26.834  1.00  0.00    -0.352 N 
ATOM     34  C   UNL A   1      39.276  22.627  26.563  1.00  0.00     0.251 C 
ATOM     35  H   UNL A   1      40.059  20.782  26.448  1.00  0.00     0.163 HD
ATOM     36  O   UNL A   1      38.221  22.305  26.024  1.00  0.00    -0.269 OA
BRANCH  34  37
ATOM     37  C   UNL A   1      39.519  24.031  26.957  1.00  0.00     0.039 A 
ATOM     38  C   UNL A   1      40.055  24.942  26.042  1.00  0.00     0.014 A 
ATOM     39  C   UNL A   1      39.238  24.434  28.266  1.00  0.00     0.014 A 
ATOM     40  C   UNL A   1      40.459  26.199  26.480  1.00  0.00     0.010 A 
ATOM     41  C   UNL A   1      39.571  25.726  28.681  1.00  0.00     0.010 A 
ATOM     42  C   UNL A   1      40.230  26.604  27.805  1.00  0.00    -0.014 A 
BRANCH  42  43
ATOM     43  C   UNL A   1      40.681  27.950  28.246  1.00  0.00     0.031 A 
ATOM     44  C   UNL A   1      39.701  28.955  28.787  1.00  0.00     0.074 A 
ATOM     45  C   UNL A   1      41.995  28.244  28.208  1.00  0.00     0.049 A 
ATOM     46  N   UNL A   1      39.928  30.154  29.259  1.00  0.00    -0.248 NA
ATOM     47  C   UNL A   1      38.280  28.570  28.798  1.00  0.00     0.031 C 
ATOM     48  C   UNL A   1      43.035  27.344  27.708  1.00  0.00     0.029 A 
ATOM     49  N   UNL A   1      42.687  29.359  28.614  1.00  0.00    -0.354 N 
ATOM     50  C   UNL A   1      38.687  30.671  29.611  1.00  0.00     0.074 A 
ATOM     51  C   UNL A   1      37.703  29.669  29.266  1.00  0.00     0.031 C 
ATOM     52  C   UNL A   1      44.233  27.917  27.887  1.00  0.00     0.029 A 
ATOM     53  C   UNL A   1      44.048  29.252  28.449  1.00  0.00     0.049 A 
ATOM     54  H   UNL A   1      42.249  30.158  28.987  1.00  0.00     0.167 HD
ATOM     55  C   UNL A   1      38.399  31.864  30.184  1.00  0.00     0.034 A 
ATOM     56  C   UNL A   1      45.039  30.130  28.708  1.00  0.00     0.034 A 
ATOM     57  C   UNL A   1      39.393  32.846  30.538  1.00  0.00     0.049 A 
ATOM     58  C   UNL A   1      44.690  31.463  29.316  1.00  0.00     0.074 A 
ATOM     59  C   UNL A   1      39.201  34.071  31.151  1.00  0.00     0.029 A 
ATOM     60  N   UNL A   1      40.757  32.721  30.316  1.00  0.00    -0.354 N 
ATOM     61  N   UNL A   1      43.514  31.914  29.687  1.00  0.00    -0.248 NA
ATOM     62  C   UNL A   1      45.791  32.408  29.538  1.00  0.00     0.031 C 
ATOM     63  C   UNL A   1      40.437  34.710  31.248  1.00  0.00     0.029 A 
ATOM     64  C   UNL A   1      41.414  33.858  30.756  1.00  0.00     0.049 A 
ATOM     65  H   UNL A   1      41.193  31.939  29.907  1.00  0.00     0.167 HD
ATOM     66  C   UNL A   1      43.737  33.189  30.197  1.00  0.00     0.074 A 
ATOM     67  C   UNL A   1      45.164  33.425  30.117  1.00  0.00     0.031 C 
ATOM     68  C   UNL A   1      42.838  34.084  30.680  1.00  0.00     0.034 A 
BRANCH  55  69
ATOM     69  C   UNL A   1      36.958  32.191  30.489  1.00  0.00     0.023 A 
ATOM     70  C   UNL A   1      36.157  32.821  29.517  1.00  0.00     0.031 A 
ATOM     71  C   UNL A   1      36.421  32.004  31.775  1.00  0.00     0.131 A 
ATOM     72  C   UNL A   1      34.873  33.269  29.858  1.00  0.00     0.055 A 
ATOM     73  C   UNL A   1      35.128  32.421  32.098  1.00  0.00     0.041 A 
ATOM     74  F   UNL A   1      37.146  31.408  32.736  1.00  0.00    -0.206 F 
ATOM     75  C   UNL A   1      34.353  33.067  31.140  1.00  0.00     0.022 A 
BRANCH  72  76
ATOM     76  S   UNL A   1      33.852  34.184  28.670  1.00  0.00     0.124 S 
ATOM     77  O   UNL A   1      34.797  35.180  28.170  1.00  0.00    -0.237 OA
ATOM     78  O   UNL A   1      33.485  33.139  27.718  1.00  0.00    -0.237 OA
ATOM     79  O   UNL A   1      32.761  34.714  29.480  1.00  0.00    -0.744 OA
ENDBRANCH  72  76
ENDBRANCH  55  69
BRANCH  56  80
ATOM     80  C   UNL A   1      46.450  29.731  28.430  1.00  0.00     0.023 A 
ATOM     81  C   UNL A   1      47.219  29.069  29.405  1.00  0.00     0.031 A 
ATOM     82  C   UNL A   1      47.085  30.118  27.238  1.00  0.00     0.131 A 
ATOM     83  C   UNL A   1      48.594  28.890  29.205  1.00  0.00     0.055 A 
ATOM     84  C   UNL A   1      48.440  29.868  27.011  1.00  0.00     0.041 A 
ATOM     85  F   UNL A   1      46.397  30.764  26.284  1.00  0.00    -0.206 F 
ATOM     86  C   UNL A   1      49.206  29.270  28.007  1.00  0.00     0.022 A 
BRANCH  83  87
ATOM     87  S   UNL A   1      49.658  28.306  30.555  1.00  0.00     0.124 S 
ATOM     88  O   UNL A   1      48.931  27.133  31.029  1.00  0.00    -0.237 OA
ATOM     89  O   UNL A   1      50.909  28.032  29.850  1.00  0.00    -0.237 OA
ATOM     90  O   UNL A   1      49.702  29.439  31.473  1.00  0.00    -0.744 OA
ENDBRANCH  83  87
ENDBRANCH  56  80
BRANCH  68  91
ATOM     91  C   UNL A   1      43.342  35.423  31.163  1.00  0.00     0.023 A 
ATOM     92  C   UNL A   1      43.560  36.467  30.244  1.00  0.00     0.031 A 
ATOM     93  C   UNL A   1      43.749  35.611  32.494  1.00  0.00     0.131 A 
ATOM     94  C   UNL A   1      44.210  37.636  30.660  1.00  0.00     0.055 A 
ATOM     95  C   UNL A   1      44.354  36.796  32.915  1.00  0.00     0.041 A 
ATOM     96  F   UNL A   1      43.569  34.641  33.406  1.00  0.00    -0.206 F 
ATOM     97  C   UNL A   1      44.601  37.809  31.992  1.00  0.00     0.022 A 
BRANCH  94  98
ATOM     98  S   UNL A   1      44.651  38.935  29.473  1.00  0.00     0.124 S 
ATOM     99  O   UNL A   1      45.767  38.322  28.756  1.00  0.00    -0.237 OA
ATOM    100  O   UNL A   1      43.419  39.081  28.704  1.00  0.00    -0.237 OA
ATOM    101  O   UNL A   1      45.004  40.074  30.315  1.00  0.00    -0.744 OA
ENDBRANCH  94  98
ENDBRANCH  68  91
ENDBRANCH  42  43
ENDBRANCH  34  37
ENDBRANCH  32  33
ENDBRANCH  31  32
ENDBRANCH  30  31
ENDBRANCH   1  30
TORSDOF 19
ENDMDL
MODEL 2
REMARK VINA RESULT:      -8.0      3.360     10.232
REMARK SMILES CC1=C(CC(=O)NCCCCCCNC(=O)c2ccc(-c3c4nc(c(-c5cc(S(=O)(=O)[O-])ccc5F)c5ccc([nH]5)c(-c5cc(S(=O)(=O)[O-])ccc5F)c5nc(c(-c6cc(S(=O)(=O)[O-])ccc6F)c6ccc3[nH]6)C=C5)C=C4)cc2)c2cc(F)ccc2/C1=C\c1ccc([S@@+](C)[O-])cc1
REMARK SMILES IDX 10 1 9 2 8 3 7 4 5 5 6 6 4 8 3 9 1 10 2 11 87 12 80 13 86 14
REMARK SMILES IDX 88 15 81 16 85 17 82 18 84 19 83 20 89 21 90 22 97 23 91 24
REMARK SMILES IDX 96 25 92 26 93 27 94 28 95 29 11 30 12 31 13 32 14 33 15 34
REMARK SMILES IDX 16 36 17 37 18 38 79 39 19 40 78 41 20 42 21 43 22 44 72 45
REMARK SMILES IDX 23 46 77 47 71 48 73 49 24 50 76 51 70 52 69 53 25 55 57 56
REMARK SMILES IDX 37 57 56 58 38 59 41 60 55 61 74 62 39 63 40 64 54 66 75 67
REMARK SMILES IDX 42 68 26 69 27 70 35 71 28 72 34 73 36 74 33 75 29 76 30 77
REMARK SMILES IDX 31 78 32 79 58 80 59 81 67 82 60 83 66 84 68 85 65 86 61 87
REMARK SMILES IDX 62 88 63 89 64 90 43 91 44 92 52 93 45 94 51 95 53 96 50 97
REMARK SMILES IDX 46 98 47 99 48 100 49 101
REMARK H PARENT 7 7 14 35 73 54 41 65
REMARK Flexibility Score: inf
ROOT
ATOM      1  C   UNL A   1      33.003  35.932  32.087  1.00  0.00     0.002 C 
ENDROOT
BRANCH   1   2
ATOM      2  C   UNL A   1      32.607  35.805  30.610  1.00  0.00     0.021 C 
BRANCH   2   3
ATOM      3  C   UNL A   1      33.378  36.737  29.676  1.00  0.00     0.116 C 
BRANCH   3   4
ATOM      4  N   UNL A   1      33.809  36.051  28.477  1.00  0.00    -0.356 N 
ATOM      5  C   UNL A   1      34.621  34.962  28.358  1.00  0.00     0.224 C 
ATOM      6  O   UNL A   1      34.913  34.573  27.225  1.00  0.00    -0.275 OA
ATOM      7  H   UNL A   1      33.471  36.422  27.630  1.00  0.00     0.163 HD
BRANCH   5   8
ATOM      8  C   UNL A   1      35.112  34.218  29.600  1.00  0.00     0.136 C 
BRANCH   8   9
ATOM      9  C   UNL A   1      35.933  33.001  29.313  1.00  0.00    -0.027 C 
ATOM     10  C   UNL A   1      38.086  33.616  30.517  1.00  0.00     0.045 C 
ATOM     11  C   UNL A   1      37.211  32.738  29.680  1.00  0.00    -0.039 C 
ATOM     12  C   UNL A   1      37.609  31.414  29.168  1.00  0.00    -0.014 C 
ATOM     13  C   UNL A   1      35.403  31.807  28.633  1.00  0.00    -0.011 A 
ATOM     14  C   UNL A   1      36.395  30.809  28.583  1.00  0.00    -0.010 A 
ATOM     15  C   UNL A   1      38.864  30.921  29.187  1.00  0.00     0.017 C 
ATOM     16  C   UNL A   1      34.130  31.566  28.130  1.00  0.00     0.048 A 
ATOM     17  C   UNL A   1      36.097  29.547  28.083  1.00  0.00     0.012 A 
ATOM     18  C   UNL A   1      33.862  30.315  27.582  1.00  0.00     0.123 A 
ATOM     19  C   UNL A   1      34.825  29.307  27.563  1.00  0.00     0.040 A 
ATOM     20  F   UNL A   1      32.645  30.063  27.080  1.00  0.00    -0.207 F 
BRANCH  15  21
ATOM     21  C   UNL A   1      39.285  29.629  28.638  1.00  0.00    -0.025 A 
ATOM     22  C   UNL A   1      39.385  28.494  29.449  1.00  0.00     0.013 A 
ATOM     23  C   UNL A   1      39.685  29.557  27.301  1.00  0.00     0.013 A 
ATOM     24  C   UNL A   1      40.003  27.337  28.964  1.00  0.00     0.061 A 
ATOM     25  C   UNL A   1      40.281  28.393  26.811  1.00  0.00     0.061 A 
ATOM     26  C   UNL A   1      40.483  27.290  27.649  1.00  0.00     0.152 A 
BRANCH  26  27
ATOM     27  S   UNL A   1      41.507  25.908  27.087  1.00  0.00    -0.018 S 
ATOM     28  C   UNL A   1      40.616  24.542  27.856  1.00  0.00     0.346 C 
ATOM     29  O   UNL A   1      41.330  25.797  25.531  1.00  0.00    -0.612 OA
ENDBRANCH  26  27
ENDBRANCH  15  21
ENDBRANCH   8   9
ENDBRANCH   5   8
ENDBRANCH   3   4
ENDBRANCH   2   3
ENDBRANCH   1   2
BRANCH   1  30
ATOM     30  C   UNL A   1      33.923  34.827  32.621  1.00  0.00     0.002 C 
BRANCH  30  31
ATOM     31  C   UNL A   1      35.251  35.305  33.209  1.00  0.00     0.021 C 
BRANCH  31  32
ATOM     32  C   UNL A   1      36.283  34.205  33.435  1.00  0.00     0.116 C 
BRANCH  32  33
ATOM     33  N   UNL A   1      36.362  33.794  34.828  1.00  0.00    -0.352 N 
ATOM     34  C   UNL A   1      37.210  32.884  35.416  1.00  0.00     0.251 C 
ATOM     35  H   UNL A   1      35.719  34.228  35.435  1.00  0.00     0.163 HD
ATOM     36  O   UNL A   1      37.027  32.538  36.580  1.00  0.00    -0.269 OA
BRANCH  34  37
ATOM     37  C   UNL A   1      38.317  32.303  34.627  1.00  0.00     0.039 A 
ATOM     38  C   UNL A   1      39.643  32.637  34.911  1.00  0.00     0.014 A 
ATOM     39  C   UNL A   1      38.023  31.437  33.569  1.00  0.00     0.014 A 
ATOM     40  C   UNL A   1      40.654  32.241  34.042  1.00  0.00     0.010 A 
ATOM     41  C   UNL A   1      39.052  30.974  32.744  1.00  0.00     0.010 A 
ATOM     42  C   UNL A   1      40.371  31.412  32.944  1.00  0.00    -0.014 A 
BRANCH  42  43
ATOM     43  C   UNL A   1      41.471  31.012  32.027  1.00  0.00     0.031 A 
ATOM     44  C   UNL A   1      42.043  31.987  31.034  1.00  0.00     0.074 A 
ATOM     45  C   UNL A   1      41.993  29.775  32.133  1.00  0.00     0.049 A 
ATOM     46  N   UNL A   1      43.033  31.821  30.195  1.00  0.00    -0.248 NA
ATOM     47  C   UNL A   1      41.425  33.322  30.969  1.00  0.00     0.031 C 
ATOM     48  C   UNL A   1      41.519  28.750  33.064  1.00  0.00     0.029 A 
ATOM     49  N   UNL A   1      43.040  29.174  31.480  1.00  0.00    -0.354 N 
ATOM     50  C   UNL A   1      43.150  33.017  29.496  1.00  0.00     0.074 A 
ATOM     51  C   UNL A   1      42.108  33.891  29.984  1.00  0.00     0.031 C 
ATOM     52  C   UNL A   1      42.306  27.669  32.962  1.00  0.00     0.029 A 
ATOM     53  C   UNL A   1      43.297  27.894  31.913  1.00  0.00     0.049 A 
ATOM     54  H   UNL A   1      43.558  29.618  30.770  1.00  0.00     0.167 HD
ATOM     55  C   UNL A   1      44.056  33.356  28.548  1.00  0.00     0.034 A 
ATOM     56  C   UNL A   1      44.217  26.994  31.509  1.00  0.00     0.034 A 
ATOM     57  C   UNL A   1      45.100  32.479  28.084  1.00  0.00     0.049 A 
ATOM     58  C   UNL A   1      45.191  27.385  30.429  1.00  0.00     0.074 A 
ATOM     59  C   UNL A   1      46.085  32.745  27.148  1.00  0.00     0.029 A 
ATOM     60  N   UNL A   1      45.302  31.175  28.514  1.00  0.00    -0.354 N 
ATOM     61  N   UNL A   1      45.317  28.538  29.814  1.00  0.00    -0.248 NA
ATOM     62  C   UNL A   1      46.145  26.361  29.983  1.00  0.00     0.031 C 
ATOM     63  C   UNL A   1      46.844  31.588  26.970  1.00  0.00     0.029 A 
ATOM     64  C   UNL A   1      46.378  30.617  27.843  1.00  0.00     0.049 A 
ATOM     65  H   UNL A   1      44.761  30.716  29.195  1.00  0.00     0.167 HD
ATOM     66  C   UNL A   1      46.371  28.382  28.919  1.00  0.00     0.074 A 
ATOM     67  C   UNL A   1      46.868  27.033  29.096  1.00  0.00     0.031 C 
ATOM     68  C   UNL A   1      46.874  29.273  28.029  1.00  0.00     0.034 A 
BRANCH  55  69
ATOM     69  C   UNL A   1      43.987  34.737  27.944  1.00  0.00     0.023 A 
ATOM     70  C   UNL A   1      44.399  35.856  28.694  1.00  0.00     0.031 A 
ATOM     71  C   UNL A   1      43.395  34.959  26.688  1.00  0.00     0.131 A 
ATOM     72  C   UNL A   1      44.183  37.147  28.194  1.00  0.00     0.055 A 
ATOM     73  C   UNL A   1      43.216  36.247  26.179  1.00  0.00     0.041 A 
ATOM     74  F   UNL A   1      42.987  33.925  25.935  1.00  0.00    -0.206 F 
ATOM     75  C   UNL A   1      43.599  37.348  26.939  1.00  0.00     0.022 A 
BRANCH  72  76
ATOM     76  S   UNL A   1      44.595  38.616  29.175  1.00  0.00     0.124 S 
ATOM     77  O   UNL A   1      45.762  38.156  29.924  1.00  0.00    -0.237 OA
ATOM     78  O   UNL A   1      44.870  39.607  28.138  1.00  0.00    -0.237 OA
ATOM     79  O   UNL A   1      43.398  38.852  29.973  1.00  0.00    -0.744 OA
ENDBRANCH  72  76
ENDBRANCH  55  69
BRANCH  56  80
ATOM     80  C   UNL A   1      44.267  25.660  32.177  1.00  0.00     0.023 A 
ATOM     81  C   UNL A   1      44.750  25.529  33.492  1.00  0.00     0.031 A 
ATOM     82  C   UNL A   1      43.953  24.488  31.468  1.00  0.00     0.131 A 
ATOM     83  C   UNL A   1      44.985  24.256  34.025  1.00  0.00     0.055 A 
ATOM     84  C   UNL A   1      44.116  23.221  32.033  1.00  0.00     0.041 A 
ATOM     85  F   UNL A   1      43.502  24.561  30.206  1.00  0.00    -0.206 F 
ATOM     86  C   UNL A   1      44.655  23.100  33.310  1.00  0.00     0.022 A 
BRANCH  83  87
ATOM     87  S   UNL A   1      45.873  24.057  35.596  1.00  0.00     0.124 S 
ATOM     88  O   UNL A   1      44.968  23.197  36.350  1.00  0.00    -0.237 OA
ATOM     89  O   UNL A   1      47.119  23.433  35.156  1.00  0.00    -0.237 OA
ATOM     90  O   UNL A   1      46.008  25.424  36.089  1.00  0.00    -0.744 OA
ENDBRANCH  83  87
ENDBRANCH  56  80
BRANCH  68  91
ATOM     91  C   UNL A   1      48.022  28.844  27.148  1.00  0.00     0.023 A 
ATOM     92  C   UNL A   1      47.775  28.380  25.843  1.00  0.00     0.031 A 
ATOM     93  C   UNL A   1      49.330  28.748  27.653  1.00  0.00     0.131 A 
ATOM     94  C   UNL A   1      48.812  27.799  25.102  1.00  0.00     0.055 A 
ATOM     95  C   UNL A   1      50.371  28.212  26.894  1.00  0.00     0.041 A 
ATOM     96  F   UNL A   1      49.614  29.170  28.896  1.00  0.00    -0.206 F 
ATOM     97  C   UNL A   1      50.110  27.720  25.617  1.00  0.00     0.022 A 
BRANCH  94  98
ATOM     98  S   UNL A   1      48.499  27.046  23.481  1.00  0.00     0.124 S 
ATOM     99  O   UNL A   1      49.835  27.033  22.892  1.00  0.00    -0.237 OA
ATOM    100  O   UNL A   1      47.965  25.738  23.848  1.00  0.00    -0.237 OA
ATOM    101  O   UNL A   1      47.549  27.956  22.849  1.00  0.00    -0.744 OA
ENDBRANCH  94  98
ENDBRANCH  68  91
ENDBRANCH  42  43
ENDBRANCH  34  37
ENDBRANCH  32  33
ENDBRANCH  31  32
ENDBRANCH  30  31
ENDBRANCH   1  30
TORSDOF 19
ENDMDL
MODEL 3
REMARK VINA RESULT:      -7.6      3.147      7.167
REMARK SMILES CC1=C(CC(=O)NCCCCCCNC(=O)c2ccc(-c3c4nc(c(-c5cc(S(=O)(=O)[O-])ccc5F)c5ccc([nH]5)c(-c5cc(S(=O)(=O)[O-])ccc5F)c5nc(c(-c6cc(S(=O)(=O)[O-])ccc6F)c6ccc3[nH]6)C=C5)C=C4)cc2)c2cc(F)ccc2/C1=C\c1ccc([S@@+](C)[O-])cc1
REMARK SMILES IDX 10 1 9 2 8 3 7 4 5 5 6 6 4 8 3 9 1 10 2 11 87 12 80 13 86 14
REMARK SMILES IDX 88 15 81 16 85 17 82 18 84 19 83 20 89 21 90 22 97 23 91 24
REMARK SMILES IDX 96 25 92 26 93 27 94 28 95 29 11 30 12 31 13 32 14 33 15 34
REMARK SMILES IDX 16 36 17 37 18 38 79 39 19 40 78 41 20 42 21 43 22 44 72 45
REMARK SMILES IDX 23 46 77 47 71 48 73 49 24 50 76 51 70 52 69 53 25 55 57 56
REMARK SMILES IDX 37 57 56 58 38 59 41 60 55 61 74 62 39 63 40 64 54 66 75 67
REMARK SMILES IDX 42 68 26 69 27 70 35 71 28 72 34 73 36 74 33 75 29 76 30 77
REMARK SMILES IDX 31 78 32 79 58 80 59 81 67 82 60 83 66 84 68 85 65 86 61 87
REMARK SMILES IDX 62 88 63 89 64 90 43 91 44 92 52 93 45 94 51 95 53 96 50 97
REMARK SMILES IDX 46 98 47 99 48 100 49 101
REMARK H PARENT 7 7 14 35 73 54 41 65
REMARK Flexibility Score: inf
ROOT
ATOM      1  C   UNL A   1      41.678  24.047  28.305  1.00  0.00     0.002 C 
ENDROOT
BRANCH   1   2
ATOM      2  C   UNL A   1      40.437  24.882  27.966  1.00  0.00     0.021 C 
BRANCH   2   3
ATOM      3  C   UNL A   1      40.329  26.187  28.753  1.00  0.00     0.116 C 
BRANCH   3   4
ATOM      4  N   UNL A   1      40.905  27.297  28.024  1.00  0.00    -0.356 N 
ATOM      5  C   UNL A   1      41.126  28.575  28.444  1.00  0.00     0.224 C 
ATOM      6  O   UNL A   1      41.576  29.387  27.631  1.00  0.00    -0.275 OA
ATOM      7  H   UNL A   1      41.175  27.103  27.097  1.00  0.00     0.163 HD
BRANCH   5   8
ATOM      8  C   UNL A   1      40.866  28.974  29.897  1.00  0.00     0.136 C 
BRANCH   8   9
ATOM      9  C   UNL A   1      39.784  29.989  30.081  1.00  0.00    -0.027 C 
ATOM     10  C   UNL A   1      37.788  28.458  30.454  1.00  0.00     0.045 C 
ATOM     11  C   UNL A   1      38.461  29.785  30.298  1.00  0.00    -0.039 C 
ATOM     12  C   UNL A   1      37.774  31.084  30.413  1.00  0.00    -0.014 C 
ATOM     13  C   UNL A   1      40.035  31.439  30.150  1.00  0.00    -0.011 A 
ATOM     14  C   UNL A   1      38.829  32.118  30.405  1.00  0.00    -0.010 A 
ATOM     15  C   UNL A   1      36.436  31.252  30.443  1.00  0.00     0.017 C 
ATOM     16  C   UNL A   1      41.233  32.135  30.052  1.00  0.00     0.048 A 
ATOM     17  C   UNL A   1      38.828  33.491  30.622  1.00  0.00     0.012 A 
ATOM     18  C   UNL A   1      41.210  33.517  30.217  1.00  0.00     0.123 A 
ATOM     19  C   UNL A   1      40.027  34.196  30.509  1.00  0.00     0.040 A 
ATOM     20  F   UNL A   1      42.351  34.212  30.116  1.00  0.00    -0.207 F 
BRANCH  15  21
ATOM     21  C   UNL A   1      35.737  32.538  30.506  1.00  0.00    -0.025 A 
ATOM     22  C   UNL A   1      35.617  33.242  31.710  1.00  0.00     0.013 A 
ATOM     23  C   UNL A   1      35.097  33.021  29.361  1.00  0.00     0.013 A 
ATOM     24  C   UNL A   1      34.758  34.341  31.798  1.00  0.00     0.061 A 
ATOM     25  C   UNL A   1      34.256  34.132  29.446  1.00  0.00     0.061 A 
ATOM     26  C   UNL A   1      34.047  34.775  30.672  1.00  0.00     0.152 A 
BRANCH  26  27
ATOM     27  S   UNL A   1      32.745  36.023  30.824  1.00  0.00    -0.018 S 
ATOM     28  C   UNL A   1      32.775  36.271  32.610  1.00  0.00     0.346 C 
ATOM     29  O   UNL A   1      33.270  37.333  30.136  1.00  0.00    -0.612 OA
ENDBRANCH  26  27
ENDBRANCH  15  21
ENDBRANCH   8   9
ENDBRANCH   5   8
ENDBRANCH   3   4
ENDBRANCH   2   3
ENDBRANCH   1   2
BRANCH   1  30
ATOM     30  C   UNL A   1      41.564  22.546  28.009  1.00  0.00     0.002 C 
BRANCH  30  31
ATOM     31  C   UNL A   1      42.546  22.006  26.968  1.00  0.00     0.021 C 
BRANCH  31  32
ATOM     32  C   UNL A   1      42.249  22.423  25.532  1.00  0.00     0.116 C 
BRANCH  32  33
ATOM     33  N   UNL A   1      43.416  22.317  24.669  1.00  0.00    -0.352 N 
ATOM     34  C   UNL A   1      44.454  23.204  24.503  1.00  0.00     0.251 C 
ATOM     35  H   UNL A   1      43.470  21.496  24.129  1.00  0.00     0.163 HD
ATOM     36  O   UNL A   1      45.275  23.028  23.607  1.00  0.00    -0.269 OA
BRANCH  34  37
ATOM     37  C   UNL A   1      44.551  24.387  25.386  1.00  0.00     0.039 A 
ATOM     38  C   UNL A   1      45.631  24.533  26.259  1.00  0.00     0.014 A 
ATOM     39  C   UNL A   1      43.533  25.344  25.363  1.00  0.00     0.014 A 
ATOM     40  C   UNL A   1      45.610  25.540  27.217  1.00  0.00     0.010 A 
ATOM     41  C   UNL A   1      43.556  26.404  26.274  1.00  0.00     0.010 A 
ATOM     42  C   UNL A   1      44.570  26.483  27.243  1.00  0.00    -0.014 A 
BRANCH  42  43
ATOM     43  C   UNL A   1      44.570  27.544  28.284  1.00  0.00     0.031 A 
ATOM     44  C   UNL A   1      44.298  27.212  29.726  1.00  0.00     0.074 A 
ATOM     45  C   UNL A   1      44.872  28.808  27.929  1.00  0.00     0.049 A 
ATOM     46  N   UNL A   1      44.307  28.004  30.767  1.00  0.00    -0.248 NA
ATOM     47  C   UNL A   1      43.973  25.812  30.044  1.00  0.00     0.031 C 
ATOM     48  C   UNL A   1      45.156  29.242  26.561  1.00  0.00     0.029 A 
ATOM     49  N   UNL A   1      45.015  29.950  28.678  1.00  0.00    -0.354 N 
ATOM     50  C   UNL A   1      43.978  27.208  31.859  1.00  0.00     0.074 A 
ATOM     51  C   UNL A   1      43.741  25.876  31.349  1.00  0.00     0.031 C 
ATOM     52  C   UNL A   1      45.494  30.540  26.575  1.00  0.00     0.029 A 
ATOM     53  C   UNL A   1      45.384  31.050  27.938  1.00  0.00     0.049 A 
ATOM     54  H   UNL A   1      44.869  29.978  29.651  1.00  0.00     0.167 HD
ATOM     55  C   UNL A   1      43.898  27.556  33.165  1.00  0.00     0.034 A 
ATOM     56  C   UNL A   1      45.599  32.329  28.308  1.00  0.00     0.034 A 
ATOM     57  C   UNL A   1      44.153  28.884  33.660  1.00  0.00     0.049 A 
ATOM     58  C   UNL A   1      45.472  32.697  29.763  1.00  0.00     0.074 A 
ATOM     59  C   UNL A   1      44.127  29.326  34.972  1.00  0.00     0.029 A 
ATOM     60  N   UNL A   1      44.481  29.982  32.877  1.00  0.00    -0.354 N 
ATOM     61  N   UNL A   1      45.207  31.919  30.788  1.00  0.00    -0.248 NA
ATOM     62  C   UNL A   1      45.667  34.108  30.118  1.00  0.00     0.031 C 
ATOM     63  C   UNL A   1      44.382  30.698  34.977  1.00  0.00     0.029 A 
ATOM     64  C   UNL A   1      44.633  31.104  33.675  1.00  0.00     0.049 A 
ATOM     65  H   UNL A   1      44.590  29.966  31.899  1.00  0.00     0.167 HD
ATOM     66  C   UNL A   1      45.217  32.745  31.908  1.00  0.00     0.074 A 
ATOM     67  C   UNL A   1      45.545  34.075  31.440  1.00  0.00     0.031 C 
ATOM     68  C   UNL A   1      44.968  32.427  33.203  1.00  0.00     0.034 A 
BRANCH  55  69
ATOM     69  C   UNL A   1      43.535  26.495  34.175  1.00  0.00     0.023 A 
ATOM     70  C   UNL A   1      44.497  25.549  34.581  1.00  0.00     0.031 A 
ATOM     71  C   UNL A   1      42.214  26.337  34.630  1.00  0.00     0.131 A 
ATOM     72  C   UNL A   1      44.115  24.472  35.391  1.00  0.00     0.055 A 
ATOM     73  C   UNL A   1      41.848  25.281  35.467  1.00  0.00     0.041 A 
ATOM     74  F   UNL A   1      41.261  27.212  34.271  1.00  0.00    -0.206 F 
ATOM     75  C   UNL A   1      42.798  24.336  35.840  1.00  0.00     0.022 A 
BRANCH  72  76
ATOM     76  S   UNL A   1      45.297  23.173  35.844  1.00  0.00     0.124 S 
ATOM     77  O   UNL A   1      46.526  23.655  35.218  1.00  0.00    -0.237 OA
ATOM     78  O   UNL A   1      45.274  23.236  37.303  1.00  0.00    -0.237 OA
ATOM     79  O   UNL A   1      44.733  21.964  35.255  1.00  0.00    -0.744 OA
ENDBRANCH  72  76
ENDBRANCH  55  69
BRANCH  56  80
ATOM     80  C   UNL A   1      46.002  33.325  27.272  1.00  0.00     0.023 A 
ATOM     81  C   UNL A   1      47.353  33.487  26.913  1.00  0.00     0.031 A 
ATOM     82  C   UNL A   1      45.061  34.210  26.721  1.00  0.00     0.131 A 
ATOM     83  C   UNL A   1      47.735  34.560  26.099  1.00  0.00     0.055 A 
ATOM     84  C   UNL A   1      45.437  35.233  25.846  1.00  0.00     0.041 A 
ATOM     85  F   UNL A   1      43.763  34.104  27.042  1.00  0.00    -0.206 F 
ATOM     86  C   UNL A   1      46.783  35.424  25.548  1.00  0.00     0.022 A 
BRANCH  83  87
ATOM     87  S   UNL A   1      49.488  34.963  25.857  1.00  0.00     0.124 S 
ATOM     88  O   UNL A   1      49.446  35.793  24.658  1.00  0.00    -0.237 OA
ATOM     89  O   UNL A   1      49.806  35.665  27.099  1.00  0.00    -0.237 OA
ATOM     90  O   UNL A   1      50.122  33.658  25.705  1.00  0.00    -0.744 OA
ENDBRANCH  83  87
ENDBRANCH  56  80
BRANCH  68  91
ATOM     91  C   UNL A   1      45.024  33.525  34.238  1.00  0.00     0.023 A 
ATOM     92  C   UNL A   1      43.884  34.307  34.498  1.00  0.00     0.031 A 
ATOM     93  C   UNL A   1      46.238  33.892  34.845  1.00  0.00     0.131 A 
ATOM     94  C   UNL A   1      43.991  35.446  35.308  1.00  0.00     0.055 A 
ATOM     95  C   UNL A   1      46.329  35.000  35.688  1.00  0.00     0.041 A 
ATOM     96  F   UNL A   1      47.355  33.181  34.620  1.00  0.00    -0.206 F 
ATOM     97  C   UNL A   1      45.205  35.791  35.911  1.00  0.00     0.022 A 
BRANCH  94  98
ATOM     98  S   UNL A   1      42.583  36.567  35.539  1.00  0.00     0.124 S 
ATOM     99  O   UNL A   1      42.784  37.529  34.458  1.00  0.00    -0.237 OA
ATOM    100  O   UNL A   1      41.444  35.669  35.372  1.00  0.00    -0.237 OA
ATOM    101  O   UNL A   1      42.772  37.096  36.885  1.00  0.00    -0.744 OA
ENDBRANCH  94  98
ENDBRANCH  68  91
ENDBRANCH  42  43
ENDBRANCH  34  37
ENDBRANCH  32  33
ENDBRANCH  31  32
ENDBRANCH  30  31
ENDBRANCH   1  30
TORSDOF 19
ENDMDL
