MODEL 1
REMARK VINA RESULT:      -9.2      0.000      0.000
REMARK SMILES O=C(NCCCCCCNC(=O)c1ccc(-c2c3nc(c(-c4cc(S(=O)(=O)[O-])ccc4F)c4ccc([nH]4)c(-c4cc(S(=O)(=O)[O-])ccc4F)c4nc(c(-c5cc(S(=O)(=O)[O-])ccc5F)c5ccc2[nH]5)C=C4)C=C3)cc1)c1ccc(/[NH+]=C2\S[C@@H](Cc3ccc(F)cc3)C(=O)N2Cc2ccccc2)cc1
REMARK SMILES IDX 6 1 5 2 4 3 3 4 1 5 2 6 76 8 77 9 103 10 78 11 102 12 79 13
REMARK SMILES IDX 80 14 81 15 82 17 94 18 83 19 92 20 93 21 95 22 96 23 97 24
REMARK SMILES IDX 101 25 98 26 100 27 99 28 84 29 85 30 86 31 91 32 87 33
REMARK SMILES IDX 90 34 88 35 89 36 7 37 8 38 9 39 10 40 11 41 12 43 13 44
REMARK SMILES IDX 14 45 75 46 15 47 74 48 16 49 17 50 18 51 68 52 19 53 73 54
REMARK SMILES IDX 67 55 69 56 20 57 72 58 66 59 65 60 21 62 53 63 33 64 52 65
REMARK SMILES IDX 34 66 37 67 51 68 70 69 35 70 36 71 50 73 71 74 38 75 22 76
REMARK SMILES IDX 23 77 31 78 24 79 30 80 32 81 29 82 25 83 26 84 27 85 28 86
REMARK SMILES IDX 54 87 55 88 63 89 56 90 62 91 64 92 61 93 57 94 58 95 59 96
REMARK SMILES IDX 60 97 39 98 40 99 48 100 41 101 47 102 49 103 46 104 42 105
REMARK SMILES IDX 43 106 44 107 45 108
REMARK H PARENT 3 7 80 16 10 42 69 61 37 72
REMARK Flexibility Score: inf
ROOT
ATOM      1  C   UNL A   1      47.676  27.222  37.255  1.00  0.00     0.002 C 
ENDROOT
BRANCH   1   2
ATOM      2  C   UNL A   1      46.191  27.052  36.929  1.00  0.00     0.021 C 
BRANCH   2   3
ATOM      3  C   UNL A   1      45.558  28.224  36.186  1.00  0.00     0.116 C 
BRANCH   3   4
ATOM      4  N   UNL A   1      44.378  28.735  36.870  1.00  0.00    -0.352 N 
ATOM      5  O   UNL A   1      42.340  29.696  37.047  1.00  0.00    -0.269 OA
ATOM      6  C   UNL A   1      43.167  29.113  36.349  1.00  0.00     0.251 C 
ATOM      7  H   UNL A   1      44.462  28.820  37.848  1.00  0.00     0.163 HD
BRANCH   6   8
ATOM      8  C   UNL A   1      42.858  28.825  34.935  1.00  0.00     0.040 A 
ATOM      9  C   UNL A   1      43.368  29.639  33.923  1.00  0.00     0.018 A 
ATOM     10  C   UNL A   1      42.071  27.714  34.617  1.00  0.00     0.018 A 
ATOM     11  C   UNL A   1      42.998  29.401  32.604  1.00  0.00     0.052 A 
ATOM     12  C   UNL A   1      41.736  27.459  33.283  1.00  0.00     0.052 A 
ATOM     13  C   UNL A   1      42.166  28.324  32.275  1.00  0.00     0.125 A 
BRANCH  13  14
ATOM     14  N   UNL A   1      41.893  28.115  30.923  1.00  0.00    -0.235 N 
ATOM     15  C   UNL A   1      40.948  28.736  30.303  1.00  0.00     0.320 C 
ATOM     16  H   UNL A   1      42.441  27.468  30.423  1.00  0.00     0.313 HD
ATOM     17  S   UNL A   1      39.718  29.759  30.987  1.00  0.00    -0.022 SA
ATOM     18  N   UNL A   1      40.818  28.665  28.942  1.00  0.00    -0.186 N 
ATOM     19  C   UNL A   1      38.733  29.741  29.454  1.00  0.00     0.178 C 
ATOM     20  C   UNL A   1      39.703  29.254  28.385  1.00  0.00     0.324 C 
ATOM     21  O   UNL A   1      39.470  29.296  27.181  1.00  0.00    -0.245 OA
BRANCH  18  22
ATOM     22  C   UNL A   1      41.822  28.017  28.103  1.00  0.00     0.283 C 
BRANCH  22  23
ATOM     23  C   UNL A   1      41.549  26.544  27.863  1.00  0.00    -0.006 A 
ATOM     24  C   UNL A   1      42.214  25.553  28.596  1.00  0.00     0.008 A 
ATOM     25  C   UNL A   1      40.618  26.140  26.892  1.00  0.00     0.008 A 
ATOM     26  C   UNL A   1      41.943  24.200  28.367  1.00  0.00     0.000 A 
ATOM     27  C   UNL A   1      40.321  24.792  26.689  1.00  0.00     0.000 A 
ATOM     28  C   UNL A   1      40.989  23.820  27.425  1.00  0.00     0.000 A 
ENDBRANCH  22  23
ENDBRANCH  18  22
BRANCH  19  29
ATOM     29  C   UNL A   1      38.126  31.118  29.183  1.00  0.00     0.063 C 
BRANCH  29  30
ATOM     30  C   UNL A   1      36.730  31.090  28.596  1.00  0.00    -0.046 A 
ATOM     31  C   UNL A   1      36.089  32.295  28.268  1.00  0.00     0.007 A 
ATOM     32  C   UNL A   1      36.043  29.881  28.398  1.00  0.00     0.007 A 
ATOM     33  C   UNL A   1      34.801  32.293  27.730  1.00  0.00     0.039 A 
ATOM     34  C   UNL A   1      34.756  29.881  27.854  1.00  0.00     0.039 A 
ATOM     35  C   UNL A   1      34.149  31.085  27.521  1.00  0.00     0.123 A 
ATOM     36  F   UNL A   1      32.916  31.081  26.997  1.00  0.00    -0.207 F 
ENDBRANCH  29  30
ENDBRANCH  19  29
ENDBRANCH  13  14
ENDBRANCH   6   8
ENDBRANCH   3   4
ENDBRANCH   2   3
ENDBRANCH   1   2
BRANCH   1  37
ATOM     37  C   UNL A   1      47.985  28.091  38.477  1.00  0.00     0.002 C 
BRANCH  37  38
ATOM     38  C   UNL A   1      49.088  29.134  38.280  1.00  0.00     0.021 C 
BRANCH  38  39
ATOM     39  C   UNL A   1      48.854  30.465  38.989  1.00  0.00     0.116 C 
BRANCH  39  40
ATOM     40  N   UNL A   1      49.654  31.539  38.423  1.00  0.00    -0.352 N 
ATOM     41  C   UNL A   1      49.306  32.485  37.490  1.00  0.00     0.251 C 
ATOM     42  H   UNL A   1      50.578  31.597  38.758  1.00  0.00     0.163 HD
ATOM     43  O   UNL A   1      50.175  33.199  36.997  1.00  0.00    -0.269 OA
BRANCH  41  44
ATOM     44  C   UNL A   1      47.896  32.620  37.061  1.00  0.00     0.039 A 
ATOM     45  C   UNL A   1      47.260  33.854  37.212  1.00  0.00     0.014 A 
ATOM     46  C   UNL A   1      47.201  31.537  36.515  1.00  0.00     0.014 A 
ATOM     47  C   UNL A   1      45.949  34.019  36.757  1.00  0.00     0.010 A 
ATOM     48  C   UNL A   1      45.923  31.723  35.995  1.00  0.00     0.010 A 
ATOM     49  C   UNL A   1      45.281  32.967  36.112  1.00  0.00    -0.014 A 
BRANCH  49  50
ATOM     50  C   UNL A   1      43.915  33.148  35.552  1.00  0.00     0.031 A 
ATOM     51  C   UNL A   1      43.728  33.409  34.082  1.00  0.00     0.074 A 
ATOM     52  C   UNL A   1      42.850  33.136  36.377  1.00  0.00     0.049 A 
ATOM     53  N   UNL A   1      42.626  33.656  33.418  1.00  0.00    -0.248 NA
ATOM     54  C   UNL A   1      44.944  33.425  33.257  1.00  0.00     0.031 C 
ATOM     55  C   UNL A   1      42.906  32.926  37.825  1.00  0.00     0.029 A 
ATOM     56  N   UNL A   1      41.512  33.307  36.121  1.00  0.00    -0.354 N 
ATOM     57  C   UNL A   1      43.019  33.872  32.100  1.00  0.00     0.074 A 
ATOM     58  C   UNL A   1      44.463  33.788  32.077  1.00  0.00     0.031 C 
ATOM     59  C   UNL A   1      41.658  32.948  38.323  1.00  0.00     0.029 A 
ATOM     60  C   UNL A   1      40.718  33.225  37.242  1.00  0.00     0.049 A 
ATOM     61  H   UNL A   1      41.154  33.473  35.219  1.00  0.00     0.167 HD
ATOM     62  C   UNL A   1      42.244  34.098  31.010  1.00  0.00     0.034 A 
ATOM     63  C   UNL A   1      39.386  33.367  37.386  1.00  0.00     0.034 A 
ATOM     64  C   UNL A   1      40.802  34.168  31.052  1.00  0.00     0.049 A 
ATOM     65  C   UNL A   1      38.548  33.655  36.166  1.00  0.00     0.074 A 
ATOM     66  C   UNL A   1      39.916  34.326  30.000  1.00  0.00     0.029 A 
ATOM     67  N   UNL A   1      40.033  34.098  32.208  1.00  0.00    -0.354 N 
ATOM     68  N   UNL A   1      38.927  33.801  34.917  1.00  0.00    -0.248 NA
ATOM     69  C   UNL A   1      37.100  33.789  36.375  1.00  0.00     0.031 C 
ATOM     70  C   UNL A   1      38.624  34.433  30.527  1.00  0.00     0.029 A 
ATOM     71  C   UNL A   1      38.690  34.254  31.899  1.00  0.00     0.049 A 
ATOM     72  H   UNL A   1      40.390  33.960  33.116  1.00  0.00     0.167 HD
ATOM     73  C   UNL A   1      37.759  34.009  34.188  1.00  0.00     0.074 A 
ATOM     74  C   UNL A   1      36.664  33.958  35.135  1.00  0.00     0.031 C 
ATOM     75  C   UNL A   1      37.606  34.216  32.854  1.00  0.00     0.034 A 
BRANCH  62  76
ATOM     76  C   UNL A   1      42.946  34.322  29.691  1.00  0.00     0.023 A 
ATOM     77  C   UNL A   1      43.382  33.250  28.890  1.00  0.00     0.031 A 
ATOM     78  C   UNL A   1      43.217  35.627  29.240  1.00  0.00     0.131 A 
ATOM     79  C   UNL A   1      44.138  33.499  27.734  1.00  0.00     0.055 A 
ATOM     80  C   UNL A   1      43.890  35.869  28.040  1.00  0.00     0.041 A 
ATOM     81  F   UNL A   1      42.847  36.692  29.968  1.00  0.00    -0.206 F 
ATOM     82  C   UNL A   1      44.371  34.802  27.289  1.00  0.00     0.022 A 
BRANCH  79  83
ATOM     83  S   UNL A   1      44.951  32.099  26.914  1.00  0.00     0.124 S 
ATOM     84  O   UNL A   1      45.377  31.297  28.058  1.00  0.00    -0.237 OA
ATOM     85  O   UNL A   1      43.874  31.539  26.106  1.00  0.00    -0.237 OA
ATOM     86  O   UNL A   1      46.036  32.726  26.163  1.00  0.00    -0.744 OA
ENDBRANCH  79  83
ENDBRANCH  62  76
BRANCH  63  87
ATOM     87  C   UNL A   1      38.754  33.244  38.731  1.00  0.00     0.023 A 
ATOM     88  C   UNL A   1      38.959  34.223  39.716  1.00  0.00     0.031 A 
ATOM     89  C   UNL A   1      37.967  32.128  39.065  1.00  0.00     0.131 A 
ATOM     90  C   UNL A   1      38.422  34.047  41.001  1.00  0.00     0.055 A 
ATOM     91  C   UNL A   1      37.388  31.985  40.327  1.00  0.00     0.041 A 
ATOM     92  F   UNL A   1      37.735  31.163  38.159  1.00  0.00    -0.206 F 
ATOM     93  C   UNL A   1      37.625  32.942  41.308  1.00  0.00     0.022 A 
BRANCH  90  94
ATOM     94  S   UNL A   1      38.846  35.248  42.292  1.00  0.00     0.124 S 
ATOM     95  O   UNL A   1      39.371  36.357  41.503  1.00  0.00    -0.237 OA
ATOM     96  O   UNL A   1      37.555  35.472  42.934  1.00  0.00    -0.237 OA
ATOM     97  O   UNL A   1      39.830  34.539  43.106  1.00  0.00    -0.744 OA
ENDBRANCH  90  94
ENDBRANCH  63  87
BRANCH  75  98
ATOM     98  C   UNL A   1      36.193  34.357  32.338  1.00  0.00     0.023 A 
ATOM     99  C   UNL A   1      35.489  35.571  32.422  1.00  0.00     0.031 A 
ATOM    100  C   UNL A   1      35.538  33.253  31.766  1.00  0.00     0.131 A 
ATOM    101  C   UNL A   1      34.154  35.637  31.994  1.00  0.00     0.055 A 
ATOM    102  C   UNL A   1      34.232  33.340  31.280  1.00  0.00     0.041 A 
ATOM    103  F   UNL A   1      36.158  32.067  31.663  1.00  0.00    -0.206 F 
ATOM    104  C   UNL A   1      33.527  34.534  31.406  1.00  0.00     0.022 A 
BRANCH 101 105
ATOM    105  S   UNL A   1      33.211  37.155  32.307  1.00  0.00     0.124 S 
ATOM    106  O   UNL A   1      34.043  37.830  33.296  1.00  0.00    -0.237 OA
ATOM    107  O   UNL A   1      33.165  37.771  30.985  1.00  0.00    -0.237 OA
ATOM    108  O   UNL A   1      31.928  36.664  32.807  1.00  0.00    -0.744 OA
ENDBRANCH 101 105
ENDBRANCH  75  98
ENDBRANCH  49  50
ENDBRANCH  41  44
ENDBRANCH  39  40
ENDBRANCH  38  39
ENDBRANCH  37  38
ENDBRANCH   1  37
TORSDOF 21
ENDMDL
MODEL 2
REMARK VINA RESULT:      -9.1      5.572     10.861
REMARK SMILES O=C(NCCCCCCNC(=O)c1ccc(-c2c3nc(c(-c4cc(S(=O)(=O)[O-])ccc4F)c4ccc([nH]4)c(-c4cc(S(=O)(=O)[O-])ccc4F)c4nc(c(-c5cc(S(=O)(=O)[O-])ccc5F)c5ccc2[nH]5)C=C4)C=C3)cc1)c1ccc(/[NH+]=C2\S[C@@H](Cc3ccc(F)cc3)C(=O)N2Cc2ccccc2)cc1
REMARK SMILES IDX 6 1 5 2 4 3 3 4 1 5 2 6 76 8 77 9 103 10 78 11 102 12 79 13
REMARK SMILES IDX 80 14 81 15 82 17 94 18 83 19 92 20 93 21 95 22 96 23 97 24
REMARK SMILES IDX 101 25 98 26 100 27 99 28 84 29 85 30 86 31 91 32 87 33
REMARK SMILES IDX 90 34 88 35 89 36 7 37 8 38 9 39 10 40 11 41 12 43 13 44
REMARK SMILES IDX 14 45 75 46 15 47 74 48 16 49 17 50 18 51 68 52 19 53 73 54
REMARK SMILES IDX 67 55 69 56 20 57 72 58 66 59 65 60 21 62 53 63 33 64 52 65
REMARK SMILES IDX 34 66 37 67 51 68 70 69 35 70 36 71 50 73 71 74 38 75 22 76
REMARK SMILES IDX 23 77 31 78 24 79 30 80 32 81 29 82 25 83 26 84 27 85 28 86
REMARK SMILES IDX 54 87 55 88 63 89 56 90 62 91 64 92 61 93 57 94 58 95 59 96
REMARK SMILES IDX 60 97 39 98 40 99 48 100 41 101 47 102 49 103 46 104 42 105
REMARK SMILES IDX 43 106 44 107 45 108
REMARK H PARENT 3 7 80 16 10 42 69 61 37 72
REMARK Flexibility Score: inf
ROOT
ATOM      1  C   UNL A   1      38.115  33.029  31.682  1.00  0.00     0.002 C 
ENDROOT
BRANCH   1   2
ATOM      2  C   UNL A   1      38.013  33.532  30.240  1.00  0.00     0.021 C 
BRANCH   2   3
ATOM      3  C   UNL A   1      38.281  32.476  29.171  1.00  0.00     0.116 C 
BRANCH   3   4
ATOM      4  N   UNL A   1      37.049  31.925  28.624  1.00  0.00    -0.352 N 
ATOM      5  O   UNL A   1      35.754  30.421  27.541  1.00  0.00    -0.269 OA
ATOM      6  C   UNL A   1      36.801  30.667  28.138  1.00  0.00     0.251 C 
ATOM      7  H   UNL A   1      36.284  32.545  28.600  1.00  0.00     0.163 HD
BRANCH   6   8
ATOM      8  C   UNL A   1      37.804  29.600  28.323  1.00  0.00     0.040 A 
ATOM      9  C   UNL A   1      38.912  29.521  27.478  1.00  0.00     0.018 A 
ATOM     10  C   UNL A   1      37.649  28.686  29.370  1.00  0.00     0.018 A 
ATOM     11  C   UNL A   1      39.802  28.462  27.616  1.00  0.00     0.052 A 
ATOM     12  C   UNL A   1      38.571  27.646  29.526  1.00  0.00     0.052 A 
ATOM     13  C   UNL A   1      39.629  27.507  28.626  1.00  0.00     0.125 A 
BRANCH  13  14
ATOM     14  N   UNL A   1      40.600  26.511  28.739  1.00  0.00    -0.235 N 
ATOM     15  C   UNL A   1      40.506  25.380  28.128  1.00  0.00     0.320 C 
ATOM     16  H   UNL A   1      41.386  26.677  29.309  1.00  0.00     0.313 HD
ATOM     17  S   UNL A   1      39.144  24.758  27.241  1.00  0.00    -0.022 SA
ATOM     18  N   UNL A   1      41.551  24.496  28.094  1.00  0.00    -0.186 N 
ATOM     19  C   UNL A   1      39.839  23.074  27.192  1.00  0.00     0.178 C 
ATOM     20  C   UNL A   1      41.312  23.261  27.529  1.00  0.00     0.324 C 
ATOM     21  O   UNL A   1      42.159  22.382  27.403  1.00  0.00    -0.245 OA
BRANCH  18  22
ATOM     22  C   UNL A   1      42.873  24.843  28.608  1.00  0.00     0.283 C 
BRANCH  22  23
ATOM     23  C   UNL A   1      43.713  25.637  27.625  1.00  0.00    -0.006 A 
ATOM     24  C   UNL A   1      43.922  27.011  27.794  1.00  0.00     0.008 A 
ATOM     25  C   UNL A   1      44.302  25.006  26.518  1.00  0.00     0.008 A 
ATOM     26  C   UNL A   1      44.707  27.726  26.882  1.00  0.00     0.000 A 
ATOM     27  C   UNL A   1      45.114  25.711  25.629  1.00  0.00     0.000 A 
ATOM     28  C   UNL A   1      45.314  27.075  25.810  1.00  0.00     0.000 A 
ENDBRANCH  22  23
ENDBRANCH  18  22
BRANCH  19  29
ATOM     29  C   UNL A   1      39.574  22.417  25.837  1.00  0.00     0.063 C 
BRANCH  29  30
ATOM     30  C   UNL A   1      38.119  22.090  25.566  1.00  0.00    -0.046 A 
ATOM     31  C   UNL A   1      37.150  23.101  25.660  1.00  0.00     0.007 A 
ATOM     32  C   UNL A   1      37.709  20.784  25.250  1.00  0.00     0.007 A 
ATOM     33  C   UNL A   1      35.804  22.821  25.418  1.00  0.00     0.039 A 
ATOM     34  C   UNL A   1      36.363  20.507  25.002  1.00  0.00     0.039 A 
ATOM     35  C   UNL A   1      35.424  21.528  25.085  1.00  0.00     0.123 A 
ATOM     36  F   UNL A   1      34.133  21.259  24.845  1.00  0.00    -0.207 F 
ENDBRANCH  29  30
ENDBRANCH  19  29
ENDBRANCH  13  14
ENDBRANCH   6   8
ENDBRANCH   3   4
ENDBRANCH   2   3
ENDBRANCH   1   2
BRANCH   1  37
ATOM     37  C   UNL A   1      37.016  32.058  32.118  1.00  0.00     0.002 C 
BRANCH  37  38
ATOM     38  C   UNL A   1      36.852  31.887  33.630  1.00  0.00     0.021 C 
BRANCH  38  39
ATOM     39  C   UNL A   1      38.078  31.340  34.356  1.00  0.00     0.116 C 
BRANCH  39  40
ATOM     40  N   UNL A   1      38.260  29.915  34.135  1.00  0.00    -0.352 N 
ATOM     41  C   UNL A   1      39.108  29.270  33.267  1.00  0.00     0.251 C 
ATOM     42  H   UNL A   1      37.694  29.328  34.686  1.00  0.00     0.163 HD
ATOM     43  O   UNL A   1      38.988  28.062  33.088  1.00  0.00    -0.269 OA
BRANCH  41  44
ATOM     44  C   UNL A   1      40.139  30.036  32.532  1.00  0.00     0.039 A 
ATOM     45  C   UNL A   1      41.093  30.753  33.258  1.00  0.00     0.014 A 
ATOM     46  C   UNL A   1      40.166  30.052  31.135  1.00  0.00     0.014 A 
ATOM     47  C   UNL A   1      42.112  31.432  32.583  1.00  0.00     0.010 A 
ATOM     48  C   UNL A   1      41.224  30.665  30.467  1.00  0.00     0.010 A 
ATOM     49  C   UNL A   1      42.208  31.364  31.184  1.00  0.00    -0.014 A 
BRANCH  49  50
ATOM     50  C   UNL A   1      43.329  32.016  30.456  1.00  0.00     0.031 A 
ATOM     51  C   UNL A   1      44.599  31.256  30.186  1.00  0.00     0.074 A 
ATOM     52  C   UNL A   1      43.225  33.309  30.091  1.00  0.00     0.049 A 
ATOM     53  N   UNL A   1      45.709  31.668  29.626  1.00  0.00    -0.248 NA
ATOM     54  C   UNL A   1      44.637  29.857  30.636  1.00  0.00     0.031 C 
ATOM     55  C   UNL A   1      42.058  34.161  30.326  1.00  0.00     0.029 A 
ATOM     56  N   UNL A   1      44.112  34.136  29.448  1.00  0.00    -0.354 N 
ATOM     57  C   UNL A   1      46.581  30.584  29.668  1.00  0.00     0.074 A 
ATOM     58  C   UNL A   1      45.890  29.521  30.366  1.00  0.00     0.031 C 
ATOM     59  C   UNL A   1      42.288  35.377  29.806  1.00  0.00     0.029 A 
ATOM     60  C   UNL A   1      43.636  35.410  29.248  1.00  0.00     0.049 A 
ATOM     61  H   UNL A   1      45.006  33.844  29.157  1.00  0.00     0.167 HD
ATOM     62  C   UNL A   1      47.832  30.481  29.155  1.00  0.00     0.034 A 
ATOM     63  C   UNL A   1      44.220  36.488  28.687  1.00  0.00     0.034 A 
ATOM     64  C   UNL A   1      48.501  31.550  28.452  1.00  0.00     0.049 A 
ATOM     65  C   UNL A   1      45.626  36.361  28.156  1.00  0.00     0.074 A 
ATOM     66  C   UNL A   1      49.740  31.533  27.834  1.00  0.00     0.029 A 
ATOM     67  N   UNL A   1      47.995  32.834  28.284  1.00  0.00    -0.354 N 
ATOM     68  N   UNL A   1      46.418  35.313  28.154  1.00  0.00    -0.248 NA
ATOM     69  C   UNL A   1      46.212  37.560  27.545  1.00  0.00     0.031 C 
ATOM     70  C   UNL A   1      50.016  32.823  27.367  1.00  0.00     0.029 A 
ATOM     71  C   UNL A   1      48.914  33.626  27.612  1.00  0.00     0.049 A 
ATOM     72  H   UNL A   1      47.112  33.137  28.598  1.00  0.00     0.167 HD
ATOM     73  C   UNL A   1      47.583  35.720  27.510  1.00  0.00     0.074 A 
ATOM     74  C   UNL A   1      47.384  37.103  27.128  1.00  0.00     0.031 C 
ATOM     75  C   UNL A   1      48.712  35.011  27.250  1.00  0.00     0.034 A 
BRANCH  62  76
ATOM     76  C   UNL A   1      48.568  29.178  29.369  1.00  0.00     0.023 A 
ATOM     77  C   UNL A   1      48.466  28.109  28.460  1.00  0.00     0.031 A 
ATOM     78  C   UNL A   1      49.356  28.985  30.518  1.00  0.00     0.131 A 
ATOM     79  C   UNL A   1      49.064  26.875  28.757  1.00  0.00     0.055 A 
ATOM     80  C   UNL A   1      50.025  27.784  30.763  1.00  0.00     0.041 A 
ATOM     81  F   UNL A   1      49.477  29.958  31.436  1.00  0.00    -0.206 F 
ATOM     82  C   UNL A   1      49.866  26.713  29.888  1.00  0.00     0.022 A 
BRANCH  79  83
ATOM     83  S   UNL A   1      48.642  25.440  27.729  1.00  0.00     0.124 S 
ATOM     84  O   UNL A   1      48.635  26.028  26.392  1.00  0.00    -0.237 OA
ATOM     85  O   UNL A   1      49.734  24.516  28.016  1.00  0.00    -0.237 OA
ATOM     86  O   UNL A   1      47.331  25.034  28.230  1.00  0.00    -0.744 OA
ENDBRANCH  79  83
ENDBRANCH  62  76
BRANCH  63  87
ATOM     87  C   UNL A   1      43.488  37.784  28.599  1.00  0.00     0.023 A 
ATOM     88  C   UNL A   1      43.529  38.709  29.653  1.00  0.00     0.031 A 
ATOM     89  C   UNL A   1      42.705  38.101  27.474  1.00  0.00     0.131 A 
ATOM     90  C   UNL A   1      42.768  39.886  29.582  1.00  0.00     0.055 A 
ATOM     91  C   UNL A   1      41.993  39.298  27.385  1.00  0.00     0.041 A 
ATOM     92  F   UNL A   1      42.632  37.253  26.435  1.00  0.00    -0.206 F 
ATOM     93  C   UNL A   1      42.013  40.194  28.449  1.00  0.00     0.022 A 
BRANCH  90  94
ATOM     94  S   UNL A   1      42.717  40.977  31.031  1.00  0.00     0.124 S 
ATOM     95  O   UNL A   1      43.237  40.103  32.077  1.00  0.00    -0.237 OA
ATOM     96  O   UNL A   1      43.589  42.072  30.617  1.00  0.00    -0.237 OA
ATOM     97  O   UNL A   1      41.302  41.320  31.149  1.00  0.00    -0.744 OA
ENDBRANCH  90  94
ENDBRANCH  63  87
BRANCH  75  98
ATOM     98  C   UNL A   1      49.802  35.714  26.475  1.00  0.00     0.023 A 
ATOM     99  C   UNL A   1      50.872  36.361  27.118  1.00  0.00     0.031 A 
ATOM    100  C   UNL A   1      49.761  35.746  25.070  1.00  0.00     0.131 A 
ATOM    101  C   UNL A   1      51.824  37.060  26.360  1.00  0.00     0.055 A 
ATOM    102  C   UNL A   1      50.746  36.387  24.317  1.00  0.00     0.041 A 
ATOM    103  F   UNL A   1      48.761  35.149  24.401  1.00  0.00    -0.206 F 
ATOM    104  C   UNL A   1      51.778  37.061  24.964  1.00  0.00     0.022 A 
BRANCH 101 105
ATOM    105  S   UNL A   1      53.068  38.056  27.227  1.00  0.00     0.124 S 
ATOM    106  O   UNL A   1      52.395  39.344  27.348  1.00  0.00    -0.237 OA
ATOM    107  O   UNL A   1      53.251  37.313  28.470  1.00  0.00    -0.237 OA
ATOM    108  O   UNL A   1      54.215  38.038  26.321  1.00  0.00    -0.744 OA
ENDBRANCH 101 105
ENDBRANCH  75  98
ENDBRANCH  49  50
ENDBRANCH  41  44
ENDBRANCH  39  40
ENDBRANCH  38  39
ENDBRANCH  37  38
ENDBRANCH   1  37
TORSDOF 21
ENDMDL
MODEL 3
REMARK VINA RESULT:      -9.0      4.073      8.380
REMARK SMILES O=C(NCCCCCCNC(=O)c1ccc(-c2c3nc(c(-c4cc(S(=O)(=O)[O-])ccc4F)c4ccc([nH]4)c(-c4cc(S(=O)(=O)[O-])ccc4F)c4nc(c(-c5cc(S(=O)(=O)[O-])ccc5F)c5ccc2[nH]5)C=C4)C=C3)cc1)c1ccc(/[NH+]=C2\S[C@@H](Cc3ccc(F)cc3)C(=O)N2Cc2ccccc2)cc1
REMARK SMILES IDX 6 1 5 2 4 3 3 4 1 5 2 6 76 8 77 9 103 10 78 11 102 12 79 13
REMARK SMILES IDX 80 14 81 15 82 17 94 18 83 19 92 20 93 21 95 22 96 23 97 24
REMARK SMILES IDX 101 25 98 26 100 27 99 28 84 29 85 30 86 31 91 32 87 33
REMARK SMILES IDX 90 34 88 35 89 36 7 37 8 38 9 39 10 40 11 41 12 43 13 44
REMARK SMILES IDX 14 45 75 46 15 47 74 48 16 49 17 50 18 51 68 52 19 53 73 54
REMARK SMILES IDX 67 55 69 56 20 57 72 58 66 59 65 60 21 62 53 63 33 64 52 65
REMARK SMILES IDX 34 66 37 67 51 68 70 69 35 70 36 71 50 73 71 74 38 75 22 76
REMARK SMILES IDX 23 77 31 78 24 79 30 80 32 81 29 82 25 83 26 84 27 85 28 86
REMARK SMILES IDX 54 87 55 88 63 89 56 90 62 91 64 92 61 93 57 94 58 95 59 96
REMARK SMILES IDX 60 97 39 98 40 99 48 100 41 101 47 102 49 103 46 104 42 105
REMARK SMILES IDX 43 106 44 107 45 108
REMARK H PARENT 3 7 80 16 10 42 69 61 37 72
REMARK Flexibility Score: inf
ROOT
ATOM      1  C   UNL A   1      45.662  24.690  38.609  1.00  0.00     0.002 C 
ENDROOT
BRANCH   1   2
ATOM      2  C   UNL A   1      45.356  26.186  38.711  1.00  0.00     0.021 C 
BRANCH   2   3
ATOM      3  C   UNL A   1      44.233  26.676  37.802  1.00  0.00     0.116 C 
BRANCH   3   4
ATOM      4  N   UNL A   1      43.011  25.902  37.974  1.00  0.00    -0.352 N 
ATOM      5  O   UNL A   1      40.821  25.405  37.718  1.00  0.00    -0.269 OA
ATOM      6  C   UNL A   1      41.811  26.018  37.322  1.00  0.00     0.251 C 
ATOM      7  H   UNL A   1      43.054  25.193  38.656  1.00  0.00     0.163 HD
BRANCH   6   8
ATOM      8  C   UNL A   1      41.702  26.895  36.139  1.00  0.00     0.040 A 
ATOM      9  C   UNL A   1      41.947  26.388  34.862  1.00  0.00     0.018 A 
ATOM     10  C   UNL A   1      41.328  28.231  36.308  1.00  0.00     0.018 A 
ATOM     11  C   UNL A   1      41.921  27.247  33.770  1.00  0.00     0.052 A 
ATOM     12  C   UNL A   1      41.266  29.081  35.198  1.00  0.00     0.052 A 
ATOM     13  C   UNL A   1      41.600  28.601  33.930  1.00  0.00     0.125 A 
BRANCH  13  14
ATOM     14  N   UNL A   1      41.533  29.385  32.777  1.00  0.00    -0.235 N 
ATOM     15  C   UNL A   1      40.464  29.475  32.061  1.00  0.00     0.320 C 
ATOM     16  H   UNL A   1      42.332  29.887  32.499  1.00  0.00     0.313 HD
ATOM     17  S   UNL A   1      39.001  28.543  32.209  1.00  0.00    -0.022 SA
ATOM     18  N   UNL A   1      40.355  30.391  31.051  1.00  0.00    -0.186 N 
ATOM     19  C   UNL A   1      38.386  29.098  30.587  1.00  0.00     0.178 C 
ATOM     20  C   UNL A   1      39.228  30.324  30.259  1.00  0.00     0.324 C 
ATOM     21  O   UNL A   1      38.981  31.097  29.339  1.00  0.00    -0.245 OA
BRANCH  18  22
ATOM     22  C   UNL A   1      41.370  31.417  30.826  1.00  0.00     0.283 C 
BRANCH  22  23
ATOM     23  C   UNL A   1      41.234  32.612  31.751  1.00  0.00    -0.006 A 
ATOM     24  C   UNL A   1      39.998  33.241  31.947  1.00  0.00     0.008 A 
ATOM     25  C   UNL A   1      42.352  33.118  32.433  1.00  0.00     0.008 A 
ATOM     26  C   UNL A   1      39.889  34.337  32.811  1.00  0.00     0.000 A 
ATOM     27  C   UNL A   1      42.238  34.188  33.321  1.00  0.00     0.000 A 
ATOM     28  C   UNL A   1      41.004  34.801  33.507  1.00  0.00     0.000 A 
ENDBRANCH  22  23
ENDBRANCH  18  22
BRANCH  19  29
ATOM     29  C   UNL A   1      36.879  29.356  30.638  1.00  0.00     0.063 C 
BRANCH  29  30
ATOM     30  C   UNL A   1      36.483  30.667  31.286  1.00  0.00    -0.046 A 
ATOM     31  C   UNL A   1      35.851  31.659  30.520  1.00  0.00     0.007 A 
ATOM     32  C   UNL A   1      36.762  30.928  32.638  1.00  0.00     0.007 A 
ATOM     33  C   UNL A   1      35.480  32.874  31.097  1.00  0.00     0.039 A 
ATOM     34  C   UNL A   1      36.385  32.144  33.215  1.00  0.00     0.039 A 
ATOM     35  C   UNL A   1      35.745  33.103  32.440  1.00  0.00     0.123 A 
ATOM     36  F   UNL A   1      35.383  34.267  32.998  1.00  0.00    -0.207 F 
ENDBRANCH  29  30
ENDBRANCH  19  29
ENDBRANCH  13  14
ENDBRANCH   6   8
ENDBRANCH   3   4
ENDBRANCH   2   3
ENDBRANCH   1   2
BRANCH   1  37
ATOM     37  C   UNL A   1      45.301  23.860  39.844  1.00  0.00     0.002 C 
BRANCH  37  38
ATOM     38  C   UNL A   1      45.694  22.383  39.781  1.00  0.00     0.021 C 
BRANCH  38  39
ATOM     39  C   UNL A   1      46.800  22.048  38.785  1.00  0.00     0.116 C 
BRANCH  39  40
ATOM     40  N   UNL A   1      46.462  20.911  37.946  1.00  0.00    -0.352 N 
ATOM     41  C   UNL A   1      45.920  20.891  36.684  1.00  0.00     0.251 C 
ATOM     42  H   UNL A   1      46.649  20.028  38.338  1.00  0.00     0.163 HD
ATOM     43  O   UNL A   1      45.532  19.829  36.207  1.00  0.00    -0.269 OA
BRANCH  41  44
ATOM     44  C   UNL A   1      45.779  22.149  35.917  1.00  0.00     0.039 A 
ATOM     45  C   UNL A   1      46.880  22.636  35.210  1.00  0.00     0.014 A 
ATOM     46  C   UNL A   1      44.570  22.849  35.896  1.00  0.00     0.014 A 
ATOM     47  C   UNL A   1      46.750  23.789  34.430  1.00  0.00     0.010 A 
ATOM     48  C   UNL A   1      44.420  23.954  35.061  1.00  0.00     0.010 A 
ATOM     49  C   UNL A   1      45.510  24.438  34.320  1.00  0.00    -0.014 A 
BRANCH  49  50
ATOM     50  C   UNL A   1      45.334  25.620  33.434  1.00  0.00     0.031 A 
ATOM     51  C   UNL A   1      44.819  25.445  32.032  1.00  0.00     0.074 A 
ATOM     52  C   UNL A   1      45.694  26.842  33.874  1.00  0.00     0.049 A 
ATOM     53  N   UNL A   1      44.659  26.340  31.090  1.00  0.00    -0.248 NA
ATOM     54  C   UNL A   1      44.468  24.076  31.625  1.00  0.00     0.031 C 
ATOM     55  C   UNL A   1      46.238  27.134  35.202  1.00  0.00     0.029 A 
ATOM     56  N   UNL A   1      45.662  28.066  33.254  1.00  0.00    -0.354 N 
ATOM     57  C   UNL A   1      44.203  25.641  29.975  1.00  0.00     0.074 A 
ATOM     58  C   UNL A   1      44.175  24.242  30.345  1.00  0.00     0.031 C 
ATOM     59  C   UNL A   1      46.457  28.455  35.307  1.00  0.00     0.029 A 
ATOM     60  C   UNL A   1      46.120  29.097  34.041  1.00  0.00     0.049 A 
ATOM     61  H   UNL A   1      45.342  28.194  32.332  1.00  0.00     0.167 HD
ATOM     62  C   UNL A   1      43.824  26.126  28.766  1.00  0.00     0.034 A 
ATOM     63  C   UNL A   1      46.263  30.410  33.771  1.00  0.00     0.034 A 
ATOM     64  C   UNL A   1      43.849  27.528  28.421  1.00  0.00     0.049 A 
ATOM     65  C   UNL A   1      45.870  30.921  32.408  1.00  0.00     0.074 A 
ATOM     66  C   UNL A   1      43.426  28.134  27.250  1.00  0.00     0.029 A 
ATOM     67  N   UNL A   1      44.336  28.542  29.237  1.00  0.00    -0.354 N 
ATOM     68  N   UNL A   1      45.388  30.257  31.382  1.00  0.00    -0.248 NA
ATOM     69  C   UNL A   1      46.034  32.361  32.169  1.00  0.00     0.031 C 
ATOM     70  C   UNL A   1      43.732  29.498  27.327  1.00  0.00     0.029 A 
ATOM     71  C   UNL A   1      44.264  29.761  28.579  1.00  0.00     0.049 A 
ATOM     72  H   UNL A   1      44.683  28.414  30.150  1.00  0.00     0.167 HD
ATOM     73  C   UNL A   1      45.159  31.205  30.390  1.00  0.00     0.074 A 
ATOM     74  C   UNL A   1      45.544  32.487  30.944  1.00  0.00     0.031 C 
ATOM     75  C   UNL A   1      44.666  31.033  29.135  1.00  0.00     0.034 A 
BRANCH  62  76
ATOM     76  C   UNL A   1      43.387  25.125  27.721  1.00  0.00     0.023 A 
ATOM     77  C   UNL A   1      44.313  24.447  26.908  1.00  0.00     0.031 A 
ATOM     78  C   UNL A   1      42.020  24.869  27.509  1.00  0.00     0.131 A 
ATOM     79  C   UNL A   1      43.862  23.620  25.869  1.00  0.00     0.055 A 
ATOM     80  C   UNL A   1      41.580  23.972  26.532  1.00  0.00     0.041 A 
ATOM     81  F   UNL A   1      41.085  25.499  28.237  1.00  0.00    -0.206 F 
ATOM     82  C   UNL A   1      42.502  23.356  25.692  1.00  0.00     0.022 A 
BRANCH  79  83
ATOM     83  S   UNL A   1      45.067  23.027  24.649  1.00  0.00     0.124 S 
ATOM     84  O   UNL A   1      45.803  24.252  24.345  1.00  0.00    -0.237 OA
ATOM     85  O   UNL A   1      45.798  22.011  25.397  1.00  0.00    -0.237 OA
ATOM     86  O   UNL A   1      44.234  22.524  23.560  1.00  0.00    -0.744 OA
ENDBRANCH  79  83
ENDBRANCH  62  76
BRANCH  63  87
ATOM     87  C   UNL A   1      46.803  31.339  34.805  1.00  0.00     0.023 A 
ATOM     88  C   UNL A   1      45.950  31.968  35.726  1.00  0.00     0.031 A 
ATOM     89  C   UNL A   1      48.175  31.642  34.865  1.00  0.00     0.131 A 
ATOM     90  C   UNL A   1      46.469  32.899  36.638  1.00  0.00     0.055 A 
ATOM     91  C   UNL A   1      48.694  32.528  35.810  1.00  0.00     0.041 A 
ATOM     92  F   UNL A   1      49.036  31.066  34.010  1.00  0.00    -0.206 F 
ATOM     93  C   UNL A   1      47.837  33.172  36.697  1.00  0.00     0.022 A 
BRANCH  90  94
ATOM     94  S   UNL A   1      45.315  33.812  37.699  1.00  0.00     0.124 S 
ATOM     95  O   UNL A   1      44.398  32.757  38.115  1.00  0.00    -0.237 OA
ATOM     96  O   UNL A   1      46.203  34.336  38.732  1.00  0.00    -0.237 OA
ATOM     97  O   UNL A   1      44.748  34.815  36.801  1.00  0.00    -0.744 OA
ENDBRANCH  90  94
ENDBRANCH  63  87
BRANCH  75  98
ATOM     98  C   UNL A   1      44.475  32.274  28.295  1.00  0.00     0.023 A 
ATOM     99  C   UNL A   1      43.639  33.327  28.706  1.00  0.00     0.031 A 
ATOM    100  C   UNL A   1      45.132  32.396  27.058  1.00  0.00     0.131 A 
ATOM    101  C   UNL A   1      43.438  34.430  27.861  1.00  0.00     0.055 A 
ATOM    102  C   UNL A   1      44.980  33.525  26.252  1.00  0.00     0.041 A 
ATOM    103  F   UNL A   1      45.939  31.421  26.613  1.00  0.00    -0.206 F 
ATOM    104  C   UNL A   1      44.118  34.544  26.646  1.00  0.00     0.022 A 
BRANCH 101 105
ATOM    105  S   UNL A   1      42.196  35.668  28.325  1.00  0.00     0.124 S 
ATOM    106  O   UNL A   1      42.991  36.623  29.090  1.00  0.00    -0.237 OA
ATOM    107  O   UNL A   1      41.718  36.132  27.027  1.00  0.00    -0.237 OA
ATOM    108  O   UNL A   1      41.225  34.904  29.106  1.00  0.00    -0.744 OA
ENDBRANCH 101 105
ENDBRANCH  75  98
ENDBRANCH  49  50
ENDBRANCH  41  44
ENDBRANCH  39  40
ENDBRANCH  38  39
ENDBRANCH  37  38
ENDBRANCH   1  37
TORSDOF 21
ENDMDL
