MODEL 1
REMARK VINA RESULT:     -10.7      0.000      0.000
REMARK SMILES CC[C@](C)(NS(=O)(=O)c1ccc(C(=O)OC)cc1)C(=O)NCCCCCCNC(=O)c1ccc(-c2c3nc(c(-c4cc(S(=O)(=O)[O-])ccc4F)c4ccc([nH]4)c(-c4cc(S(=O)(=O)[O-])ccc4F)c4nc(c(-c5cc(S(=O)(=O)[O-])ccc5F)c5ccc2[nH]5)C=C4)C=C3)cc1
REMARK SMILES IDX 23 1 22 2 21 3 19 4 20 5 3 7 4 8 2 9 1 10 5 11 6 13 7 14
REMARK SMILES IDX 8 15 9 16 10 17 18 18 11 19 17 20 12 21 13 22 14 23 15 24
REMARK SMILES IDX 16 25 24 26 25 27 26 28 27 29 28 30 29 31 30 33 31 34 32 35
REMARK SMILES IDX 93 36 33 37 92 38 34 39 35 40 36 41 86 42 37 43 91 44 85 45
REMARK SMILES IDX 87 46 38 47 90 48 84 49 83 50 39 52 71 53 51 54 70 55 52 56
REMARK SMILES IDX 55 57 69 58 88 59 53 60 54 61 68 63 89 64 56 65 40 66 41 67
REMARK SMILES IDX 49 68 42 69 48 70 50 71 47 72 43 73 44 74 45 75 46 76 72 77
REMARK SMILES IDX 73 78 81 79 74 80 80 81 82 82 79 83 75 84 76 85 77 86 78 87
REMARK SMILES IDX 57 88 58 89 66 90 59 91 65 92 67 93 64 94 60 95 61 96 62 97
REMARK SMILES IDX 63 98
REMARK H PARENT 21 6 5 12 28 32 87 51 55 62
REMARK Flexibility Score: inf
ROOT
ATOM      1  C   UNL A   1      34.061  26.297  26.084  1.00  0.00     0.021 C 
ENDROOT
BRANCH   1   2
ATOM      2  C   UNL A   1      34.451  24.973  25.429  1.00  0.00     0.116 C 
BRANCH   2   3
ATOM      3  N   UNL A   1      34.222  23.791  26.247  1.00  0.00    -0.354 N 
ATOM      4  C   UNL A   1      34.464  22.461  26.105  1.00  0.00     0.241 C 
ATOM      5  O   UNL A   1      34.347  21.820  27.162  1.00  0.00    -0.273 OA
ATOM      6  H   UNL A   1      33.790  24.006  27.104  1.00  0.00     0.163 HD
BRANCH   4   7
ATOM      7  C   UNL A   1      34.810  21.725  24.780  1.00  0.00     0.108 C 
ATOM      8  C   UNL A   1      34.606  20.196  25.087  1.00  0.00     0.040 C 
BRANCH   7   9
ATOM      9  C   UNL A   1      36.300  22.001  24.428  1.00  0.00     0.030 C 
ATOM     10  C   UNL A   1      36.614  22.807  23.166  1.00  0.00     0.006 C 
ENDBRANCH   7   9
BRANCH   7  11
ATOM     11  N   UNL A   1      33.887  21.841  23.616  1.00  0.00    -0.196 NA
ATOM     12  H   UNL A   1      33.995  20.939  23.154  1.00  0.00     0.142 HD
BRANCH  11  13
ATOM     13  S   UNL A   1      32.275  22.159  23.423  1.00  0.00     0.241 S 
ATOM     14  O   UNL A   1      31.790  21.292  22.379  1.00  0.00    -0.207 OA
ATOM     15  O   UNL A   1      31.753  22.015  24.770  1.00  0.00    -0.207 OA
BRANCH  13  16
ATOM     16  C   UNL A   1      31.975  23.873  23.003  1.00  0.00     0.082 A 
ATOM     17  C   UNL A   1      30.793  24.529  23.320  1.00  0.00     0.022 A 
ATOM     18  C   UNL A   1      32.983  24.604  22.352  1.00  0.00     0.022 A 
ATOM     19  C   UNL A   1      30.694  25.921  23.212  1.00  0.00     0.017 A 
ATOM     20  C   UNL A   1      32.853  25.997  22.157  1.00  0.00     0.017 A 
ATOM     21  C   UNL A   1      31.732  26.672  22.655  1.00  0.00     0.060 A 
BRANCH  21  22
ATOM     22  C   UNL A   1      31.579  28.154  22.679  1.00  0.00     0.337 C 
ATOM     23  O   UNL A   1      32.496  28.911  22.388  1.00  0.00    -0.246 OA
BRANCH  22  24
ATOM     24  O   UNL A   1      30.333  28.539  23.044  1.00  0.00    -0.465 OA
ATOM     25  C   UNL A   1      29.709  29.398  22.081  1.00  0.00     0.282 C 
ENDBRANCH  22  24
ENDBRANCH  21  22
ENDBRANCH  13  16
ENDBRANCH  11  13
ENDBRANCH   7  11
ENDBRANCH   4   7
ENDBRANCH   2   3
ENDBRANCH   1   2
BRANCH   1  26
ATOM     26  C   UNL A   1      32.586  26.691  26.112  1.00  0.00     0.002 C 
BRANCH  26  27
ATOM     27  C   UNL A   1      32.189  27.735  27.147  1.00  0.00     0.002 C 
BRANCH  27  28
ATOM     28  C   UNL A   1      31.606  29.030  26.583  1.00  0.00     0.021 C 
BRANCH  28  29
ATOM     29  C   UNL A   1      32.629  30.012  26.017  1.00  0.00     0.116 C 
BRANCH  29  30
ATOM     30  N   UNL A   1      32.370  31.385  26.431  1.00  0.00    -0.352 N 
ATOM     31  C   UNL A   1      33.088  32.155  27.317  1.00  0.00     0.251 C 
ATOM     32  H   UNL A   1      31.583  31.815  26.025  1.00  0.00     0.163 HD
ATOM     33  O   UNL A   1      32.651  33.227  27.721  1.00  0.00    -0.269 OA
BRANCH  31  34
ATOM     34  C   UNL A   1      34.390  31.643  27.785  1.00  0.00     0.039 A 
ATOM     35  C   UNL A   1      35.453  32.528  27.976  1.00  0.00     0.014 A 
ATOM     36  C   UNL A   1      34.508  30.295  28.137  1.00  0.00     0.014 A 
ATOM     37  C   UNL A   1      36.618  32.069  28.593  1.00  0.00     0.010 A 
ATOM     38  C   UNL A   1      35.636  29.865  28.826  1.00  0.00     0.010 A 
ATOM     39  C   UNL A   1      36.703  30.746  29.061  1.00  0.00    -0.014 A 
BRANCH  39  40
ATOM     40  C   UNL A   1      37.906  30.260  29.786  1.00  0.00     0.031 A 
ATOM     41  C   UNL A   1      38.139  30.685  31.210  1.00  0.00     0.074 A 
ATOM     42  C   UNL A   1      38.810  29.487  29.151  1.00  0.00     0.049 A 
ATOM     43  N   UNL A   1      39.152  30.427  31.997  1.00  0.00    -0.248 NA
ATOM     44  C   UNL A   1      37.108  31.540  31.819  1.00  0.00     0.031 C 
ATOM     45  C   UNL A   1      38.713  29.042  27.758  1.00  0.00     0.029 A 
ATOM     46  N   UNL A   1      39.989  28.936  29.589  1.00  0.00    -0.354 N 
ATOM     47  C   UNL A   1      38.882  31.091  33.189  1.00  0.00     0.074 A 
ATOM     48  C   UNL A   1      37.654  31.829  32.990  1.00  0.00     0.031 C 
ATOM     49  C   UNL A   1      39.763  28.256  27.472  1.00  0.00     0.029 A 
ATOM     50  C   UNL A   1      40.637  28.180  28.639  1.00  0.00     0.049 A 
ATOM     51  H   UNL A   1      40.339  29.069  30.500  1.00  0.00     0.167 HD
ATOM     52  C   UNL A   1      39.577  31.064  34.352  1.00  0.00     0.034 A 
ATOM     53  C   UNL A   1      41.804  27.508  28.700  1.00  0.00     0.034 A 
ATOM     54  C   UNL A   1      40.798  30.318  34.534  1.00  0.00     0.049 A 
ATOM     55  C   UNL A   1      42.585  27.530  29.991  1.00  0.00     0.074 A 
ATOM     56  C   UNL A   1      41.567  30.190  35.678  1.00  0.00     0.029 A 
ATOM     57  N   UNL A   1      41.433  29.581  33.543  1.00  0.00    -0.354 N 
ATOM     58  N   UNL A   1      42.296  28.131  31.123  1.00  0.00    -0.248 NA
ATOM     59  C   UNL A   1      43.845  26.776  30.017  1.00  0.00     0.031 C 
ATOM     60  C   UNL A   1      42.703  29.438  35.359  1.00  0.00     0.029 A 
ATOM     61  C   UNL A   1      42.600  29.021  34.041  1.00  0.00     0.049 A 
ATOM     62  H   UNL A   1      41.103  29.471  32.623  1.00  0.00     0.167 HD
ATOM     63  C   UNL A   1      43.321  27.796  32.005  1.00  0.00     0.074 A 
ATOM     64  C   UNL A   1      44.226  26.930  31.276  1.00  0.00     0.031 C 
ATOM     65  C   UNL A   1      43.496  28.165  33.299  1.00  0.00     0.034 A 
BRANCH  52  66
ATOM     66  C   UNL A   1      39.034  31.878  35.503  1.00  0.00     0.023 A 
ATOM     67  C   UNL A   1      38.456  31.266  36.630  1.00  0.00     0.031 A 
ATOM     68  C   UNL A   1      39.063  33.283  35.463  1.00  0.00     0.131 A 
ATOM     69  C   UNL A   1      37.859  32.051  37.627  1.00  0.00     0.055 A 
ATOM     70  C   UNL A   1      38.548  34.060  36.503  1.00  0.00     0.041 A 
ATOM     71  F   UNL A   1      39.580  33.927  34.404  1.00  0.00    -0.206 F 
ATOM     72  C   UNL A   1      37.927  33.445  37.586  1.00  0.00     0.022 A 
BRANCH  69  73
ATOM     73  S   UNL A   1      36.860  31.226  38.896  1.00  0.00     0.124 S 
ATOM     74  O   UNL A   1      36.606  29.930  38.272  1.00  0.00    -0.237 OA
ATOM     75  O   UNL A   1      37.756  31.216  40.046  1.00  0.00    -0.237 OA
ATOM     76  O   UNL A   1      35.688  32.089  39.024  1.00  0.00    -0.744 OA
ENDBRANCH  69  73
ENDBRANCH  52  66
BRANCH  53  77
ATOM     77  C   UNL A   1      42.314  26.757  27.514  1.00  0.00     0.023 A 
ATOM     78  C   UNL A   1      42.177  25.363  27.428  1.00  0.00     0.031 A 
ATOM     79  C   UNL A   1      42.990  27.417  26.472  1.00  0.00     0.131 A 
ATOM     80  C   UNL A   1      42.748  24.667  26.350  1.00  0.00     0.055 A 
ATOM     81  C   UNL A   1      43.505  26.727  25.372  1.00  0.00     0.041 A 
ATOM     82  F   UNL A   1      43.151  28.749  26.502  1.00  0.00    -0.206 F 
ATOM     83  C   UNL A   1      43.397  25.341  25.315  1.00  0.00     0.022 A 
BRANCH  80  84
ATOM     84  S   UNL A   1      42.711  22.853  26.369  1.00  0.00     0.124 S 
ATOM     85  O   UNL A   1      42.616  22.545  24.947  1.00  0.00    -0.237 OA
ATOM     86  O   UNL A   1      43.981  22.531  27.012  1.00  0.00    -0.237 OA
ATOM     87  O   UNL A   1      41.519  22.546  27.157  1.00  0.00    -0.744 OA
ENDBRANCH  80  84
ENDBRANCH  53  77
BRANCH  65  88
ATOM     88  C   UNL A   1      44.690  27.589  34.025  1.00  0.00     0.023 A 
ATOM     89  C   UNL A   1      44.660  26.309  34.605  1.00  0.00     0.031 A 
ATOM     90  C   UNL A   1      45.875  28.338  34.136  1.00  0.00     0.131 A 
ATOM     91  C   UNL A   1      45.772  25.841  35.320  1.00  0.00     0.055 A 
ATOM     92  C   UNL A   1      47.002  27.839  34.789  1.00  0.00     0.041 A 
ATOM     93  F   UNL A   1      45.960  29.568  33.604  1.00  0.00    -0.206 F 
ATOM     94  C   UNL A   1      46.950  26.589  35.398  1.00  0.00     0.022 A 
BRANCH  91  95
ATOM     95  S   UNL A   1      45.625  24.281  36.234  1.00  0.00     0.124 S 
ATOM     96  O   UNL A   1      44.372  24.471  36.958  1.00  0.00    -0.237 OA
ATOM     97  O   UNL A   1      45.599  23.292  35.162  1.00  0.00    -0.237 OA
ATOM     98  O   UNL A   1      46.825  24.259  37.069  1.00  0.00    -0.744 OA
ENDBRANCH  91  95
ENDBRANCH  65  88
ENDBRANCH  39  40
ENDBRANCH  31  34
ENDBRANCH  29  30
ENDBRANCH  28  29
ENDBRANCH  27  28
ENDBRANCH  26  27
ENDBRANCH   1  26
TORSDOF 22
ENDMDL
MODEL 2
REMARK VINA RESULT:     -10.5      2.523      3.130
REMARK SMILES CC[C@](C)(NS(=O)(=O)c1ccc(C(=O)OC)cc1)C(=O)NCCCCCCNC(=O)c1ccc(-c2c3nc(c(-c4cc(S(=O)(=O)[O-])ccc4F)c4ccc([nH]4)c(-c4cc(S(=O)(=O)[O-])ccc4F)c4nc(c(-c5cc(S(=O)(=O)[O-])ccc5F)c5ccc2[nH]5)C=C4)C=C3)cc1
REMARK SMILES IDX 23 1 22 2 21 3 19 4 20 5 3 7 4 8 2 9 1 10 5 11 6 13 7 14
REMARK SMILES IDX 8 15 9 16 10 17 18 18 11 19 17 20 12 21 13 22 14 23 15 24
REMARK SMILES IDX 16 25 24 26 25 27 26 28 27 29 28 30 29 31 30 33 31 34 32 35
REMARK SMILES IDX 93 36 33 37 92 38 34 39 35 40 36 41 86 42 37 43 91 44 85 45
REMARK SMILES IDX 87 46 38 47 90 48 84 49 83 50 39 52 71 53 51 54 70 55 52 56
REMARK SMILES IDX 55 57 69 58 88 59 53 60 54 61 68 63 89 64 56 65 40 66 41 67
REMARK SMILES IDX 49 68 42 69 48 70 50 71 47 72 43 73 44 74 45 75 46 76 72 77
REMARK SMILES IDX 73 78 81 79 74 80 80 81 82 82 79 83 75 84 76 85 77 86 78 87
REMARK SMILES IDX 57 88 58 89 66 90 59 91 65 92 67 93 64 94 60 95 61 96 62 97
REMARK SMILES IDX 63 98
REMARK H PARENT 21 6 5 12 28 32 87 51 55 62
REMARK Flexibility Score: inf
ROOT
ATOM      1  C   UNL A   1      34.759  25.499  25.406  1.00  0.00     0.021 C 
ENDROOT
BRANCH   1   2
ATOM      2  C   UNL A   1      34.451  24.097  24.882  1.00  0.00     0.116 C 
BRANCH   2   3
ATOM      3  N   UNL A   1      34.528  23.038  25.877  1.00  0.00    -0.354 N 
ATOM      4  C   UNL A   1      33.988  21.797  26.005  1.00  0.00     0.241 C 
ATOM      5  O   UNL A   1      34.525  21.113  26.892  1.00  0.00    -0.273 OA
ATOM      6  H   UNL A   1      35.108  23.277  26.635  1.00  0.00     0.163 HD
BRANCH   4   7
ATOM      7  C   UNL A   1      32.788  21.229  25.198  1.00  0.00     0.108 C 
ATOM      8  C   UNL A   1      32.664  19.724  25.641  1.00  0.00     0.040 C 
BRANCH   7   9
ATOM      9  C   UNL A   1      33.121  21.309  23.681  1.00  0.00     0.030 C 
ATOM     10  C   UNL A   1      31.966  21.446  22.687  1.00  0.00     0.006 C 
ENDBRANCH   7   9
BRANCH   7  11
ATOM     11  N   UNL A   1      31.406  21.671  25.534  1.00  0.00    -0.196 NA
ATOM     12  H   UNL A   1      31.008  20.844  25.978  1.00  0.00     0.142 HD
BRANCH  11  13
ATOM     13  S   UNL A   1      30.750  22.909  26.413  1.00  0.00     0.241 S 
ATOM     14  O   UNL A   1      29.493  22.442  26.938  1.00  0.00    -0.207 OA
ATOM     15  O   UNL A   1      31.820  23.257  27.330  1.00  0.00    -0.207 OA
BRANCH  13  16
ATOM     16  C   UNL A   1      30.508  24.381  25.423  1.00  0.00     0.082 A 
ATOM     17  C   UNL A   1      30.027  25.571  25.951  1.00  0.00     0.022 A 
ATOM     18  C   UNL A   1      30.844  24.350  24.059  1.00  0.00     0.022 A 
ATOM     19  C   UNL A   1      30.095  26.760  25.216  1.00  0.00     0.017 A 
ATOM     20  C   UNL A   1      30.829  25.531  23.285  1.00  0.00     0.017 A 
ATOM     21  C   UNL A   1      30.522  26.758  23.886  1.00  0.00     0.060 A 
BRANCH  21  22
ATOM     22  C   UNL A   1      30.661  28.084  23.220  1.00  0.00     0.337 C 
ATOM     23  O   UNL A   1      31.719  28.467  22.740  1.00  0.00    -0.246 OA
BRANCH  22  24
ATOM     24  O   UNL A   1      29.499  28.781  23.210  1.00  0.00    -0.465 OA
ATOM     25  C   UNL A   1      29.344  29.590  22.037  1.00  0.00     0.282 C 
ENDBRANCH  22  24
ENDBRANCH  21  22
ENDBRANCH  13  16
ENDBRANCH  11  13
ENDBRANCH   7  11
ENDBRANCH   4   7
ENDBRANCH   2   3
ENDBRANCH   1   2
BRANCH   1  26
ATOM     26  C   UNL A   1      33.635  26.533  25.426  1.00  0.00     0.002 C 
BRANCH  26  27
ATOM     27  C   UNL A   1      33.532  27.389  26.681  1.00  0.00     0.002 C 
BRANCH  27  28
ATOM     28  C   UNL A   1      32.881  28.758  26.490  1.00  0.00     0.021 C 
BRANCH  28  29
ATOM     29  C   UNL A   1      33.839  29.887  26.116  1.00  0.00     0.116 C 
BRANCH  29  30
ATOM     30  N   UNL A   1      33.644  31.075  26.937  1.00  0.00    -0.352 N 
ATOM     31  C   UNL A   1      34.398  31.501  28.007  1.00  0.00     0.251 C 
ATOM     32  H   UNL A   1      32.879  31.645  26.695  1.00  0.00     0.163 HD
ATOM     33  O   UNL A   1      34.012  32.414  28.728  1.00  0.00    -0.269 OA
BRANCH  31  34
ATOM     34  C   UNL A   1      35.674  30.811  28.275  1.00  0.00     0.039 A 
ATOM     35  C   UNL A   1      36.880  31.459  28.003  1.00  0.00     0.014 A 
ATOM     36  C   UNL A   1      35.658  29.562  28.904  1.00  0.00     0.014 A 
ATOM     37  C   UNL A   1      38.076  30.879  28.430  1.00  0.00     0.010 A 
ATOM     38  C   UNL A   1      36.842  29.032  29.400  1.00  0.00     0.010 A 
ATOM     39  C   UNL A   1      38.064  29.684  29.170  1.00  0.00    -0.014 A 
BRANCH  39  40
ATOM     40  C   UNL A   1      39.320  29.089  29.697  1.00  0.00     0.031 A 
ATOM     41  C   UNL A   1      39.987  29.703  30.897  1.00  0.00     0.074 A 
ATOM     42  C   UNL A   1      39.886  28.040  29.067  1.00  0.00     0.049 A 
ATOM     43  N   UNL A   1      41.116  29.381  31.474  1.00  0.00    -0.248 NA
ATOM     44  C   UNL A   1      39.307  30.855  31.511  1.00  0.00     0.031 C 
ATOM     45  C   UNL A   1      39.353  27.382  27.871  1.00  0.00     0.029 A 
ATOM     46  N   UNL A   1      41.033  27.337  29.343  1.00  0.00    -0.354 N 
ATOM     47  C   UNL A   1      41.283  30.290  32.512  1.00  0.00     0.074 A 
ATOM     48  C   UNL A   1      40.182  31.225  32.432  1.00  0.00     0.031 C 
ATOM     49  C   UNL A   1      40.148  26.352  27.543  1.00  0.00     0.029 A 
ATOM     50  C   UNL A   1      41.275  26.302  28.469  1.00  0.00     0.049 A 
ATOM     51  H   UNL A   1      41.628  27.554  30.097  1.00  0.00     0.167 HD
ATOM     52  C   UNL A   1      42.246  30.324  33.465  1.00  0.00     0.034 A 
ATOM     53  C   UNL A   1      42.292  25.417  28.419  1.00  0.00     0.034 A 
ATOM     54  C   UNL A   1      43.333  29.380  33.533  1.00  0.00     0.049 A 
ATOM     55  C   UNL A   1      43.379  25.503  29.462  1.00  0.00     0.074 A 
ATOM     56  C   UNL A   1      44.346  29.297  34.473  1.00  0.00     0.029 A 
ATOM     57  N   UNL A   1      43.556  28.357  32.619  1.00  0.00    -0.354 N 
ATOM     58  N   UNL A   1      43.501  26.346  30.462  1.00  0.00    -0.248 NA
ATOM     59  C   UNL A   1      44.461  24.514  29.375  1.00  0.00     0.031 C 
ATOM     60  C   UNL A   1      45.219  28.275  34.087  1.00  0.00     0.029 A 
ATOM     61  C   UNL A   1      44.705  27.660  32.956  1.00  0.00     0.049 A 
ATOM     62  H   UNL A   1      42.981  28.157  31.846  1.00  0.00     0.167 HD
ATOM     63  C   UNL A   1      44.654  25.963  31.143  1.00  0.00     0.074 A 
ATOM     64  C   UNL A   1      45.181  24.807  30.447  1.00  0.00     0.031 C 
ATOM     65  C   UNL A   1      45.223  26.512  32.246  1.00  0.00     0.034 A 
BRANCH  52  66
ATOM     66  C   UNL A   1      42.167  31.429  34.492  1.00  0.00     0.023 A 
ATOM     67  C   UNL A   1      41.195  31.420  35.509  1.00  0.00     0.031 A 
ATOM     68  C   UNL A   1      43.048  32.522  34.438  1.00  0.00     0.131 A 
ATOM     69  C   UNL A   1      41.076  32.517  36.377  1.00  0.00     0.055 A 
ATOM     70  C   UNL A   1      42.983  33.568  35.360  1.00  0.00     0.041 A 
ATOM     71  F   UNL A   1      43.982  32.601  33.476  1.00  0.00    -0.206 F 
ATOM     72  C   UNL A   1      41.981  33.578  36.327  1.00  0.00     0.022 A 
BRANCH  69  73
ATOM     73  S   UNL A   1      39.627  32.606  37.463  1.00  0.00     0.124 S 
ATOM     74  O   UNL A   1      38.989  33.837  37.001  1.00  0.00    -0.237 OA
ATOM     75  O   UNL A   1      38.923  31.368  37.155  1.00  0.00    -0.237 OA
ATOM     76  O   UNL A   1      40.207  32.679  38.802  1.00  0.00    -0.744 OA
ENDBRANCH  69  73
ENDBRANCH  52  66
BRANCH  53  77
ATOM     77  C   UNL A   1      42.341  24.374  27.351  1.00  0.00     0.023 A 
ATOM     78  C   UNL A   1      41.701  23.136  27.520  1.00  0.00     0.031 A 
ATOM     79  C   UNL A   1      43.070  24.581  26.166  1.00  0.00     0.131 A 
ATOM     80  C   UNL A   1      41.840  22.135  26.545  1.00  0.00     0.055 A 
ATOM     81  C   UNL A   1      43.157  23.603  25.172  1.00  0.00     0.041 A 
ATOM     82  F   UNL A   1      43.702  25.745  25.950  1.00  0.00    -0.206 F 
ATOM     83  C   UNL A   1      42.551  22.366  25.366  1.00  0.00     0.022 A 
BRANCH  80  84
ATOM     84  S   UNL A   1      41.156  20.490  26.884  1.00  0.00     0.124 S 
ATOM     85  O   UNL A   1      40.877  20.575  28.313  1.00  0.00    -0.237 OA
ATOM     86  O   UNL A   1      39.993  20.458  26.004  1.00  0.00    -0.237 OA
ATOM     87  O   UNL A   1      42.243  19.586  26.512  1.00  0.00    -0.744 OA
ENDBRANCH  80  84
ENDBRANCH  53  77
BRANCH  65  88
ATOM     88  C   UNL A   1      46.455  25.835  32.797  1.00  0.00     0.023 A 
ATOM     89  C   UNL A   1      47.733  26.066  32.260  1.00  0.00     0.031 A 
ATOM     90  C   UNL A   1      46.344  24.942  33.879  1.00  0.00     0.131 A 
ATOM     91  C   UNL A   1      48.840  25.368  32.766  1.00  0.00     0.055 A 
ATOM     92  C   UNL A   1      47.459  24.304  34.423  1.00  0.00     0.041 A 
ATOM     93  F   UNL A   1      45.148  24.680  34.430  1.00  0.00    -0.206 F 
ATOM     94  C   UNL A   1      48.714  24.505  33.858  1.00  0.00     0.022 A 
BRANCH  91  95
ATOM     95  S   UNL A   1      50.433  25.529  31.914  1.00  0.00     0.124 S 
ATOM     96  O   UNL A   1      51.277  26.106  32.955  1.00  0.00    -0.237 OA
ATOM     97  O   UNL A   1      50.730  24.149  31.544  1.00  0.00    -0.237 OA
ATOM     98  O   UNL A   1      50.134  26.420  30.794  1.00  0.00    -0.744 OA
ENDBRANCH  91  95
ENDBRANCH  65  88
ENDBRANCH  39  40
ENDBRANCH  31  34
ENDBRANCH  29  30
ENDBRANCH  28  29
ENDBRANCH  27  28
ENDBRANCH  26  27
ENDBRANCH   1  26
TORSDOF 22
ENDMDL
MODEL 3
REMARK VINA RESULT:     -10.5      1.446      7.537
REMARK SMILES CC[C@](C)(NS(=O)(=O)c1ccc(C(=O)OC)cc1)C(=O)NCCCCCCNC(=O)c1ccc(-c2c3nc(c(-c4cc(S(=O)(=O)[O-])ccc4F)c4ccc([nH]4)c(-c4cc(S(=O)(=O)[O-])ccc4F)c4nc(c(-c5cc(S(=O)(=O)[O-])ccc5F)c5ccc2[nH]5)C=C4)C=C3)cc1
REMARK SMILES IDX 23 1 22 2 21 3 19 4 20 5 3 7 4 8 2 9 1 10 5 11 6 13 7 14
REMARK SMILES IDX 8 15 9 16 10 17 18 18 11 19 17 20 12 21 13 22 14 23 15 24
REMARK SMILES IDX 16 25 24 26 25 27 26 28 27 29 28 30 29 31 30 33 31 34 32 35
REMARK SMILES IDX 93 36 33 37 92 38 34 39 35 40 36 41 86 42 37 43 91 44 85 45
REMARK SMILES IDX 87 46 38 47 90 48 84 49 83 50 39 52 71 53 51 54 70 55 52 56
REMARK SMILES IDX 55 57 69 58 88 59 53 60 54 61 68 63 89 64 56 65 40 66 41 67
REMARK SMILES IDX 49 68 42 69 48 70 50 71 47 72 43 73 44 74 45 75 46 76 72 77
REMARK SMILES IDX 73 78 81 79 74 80 80 81 82 82 79 83 75 84 76 85 77 86 78 87
REMARK SMILES IDX 57 88 58 89 66 90 59 91 65 92 67 93 64 94 60 95 61 96 62 97
REMARK SMILES IDX 63 98
REMARK H PARENT 21 6 5 12 28 32 87 51 55 62
REMARK Flexibility Score: inf
ROOT
ATOM      1  C   UNL A   1      35.551  24.508  25.003  1.00  0.00     0.021 C 
ENDROOT
BRANCH   1   2
ATOM      2  C   UNL A   1      35.480  22.982  24.968  1.00  0.00     0.116 C 
BRANCH   2   3
ATOM      3  N   UNL A   1      34.903  22.366  26.153  1.00  0.00    -0.354 N 
ATOM      4  C   UNL A   1      33.906  21.471  26.385  1.00  0.00     0.241 C 
ATOM      5  O   UNL A   1      33.910  21.012  27.538  1.00  0.00    -0.273 OA
ATOM      6  H   UNL A   1      35.338  22.668  26.983  1.00  0.00     0.163 HD
BRANCH   4   7
ATOM      7  C   UNL A   1      32.800  21.047  25.378  1.00  0.00     0.108 C 
ATOM      8  C   UNL A   1      32.704  19.481  25.501  1.00  0.00     0.040 C 
BRANCH   7   9
ATOM      9  C   UNL A   1      33.252  21.439  23.942  1.00  0.00     0.030 C 
ATOM     10  C   UNL A   1      32.261  21.257  22.790  1.00  0.00     0.006 C 
ENDBRANCH   7   9
BRANCH   7  11
ATOM     11  N   UNL A   1      31.378  21.378  25.671  1.00  0.00    -0.196 NA
ATOM     12  H   UNL A   1      31.054  20.551  26.172  1.00  0.00     0.142 HD
BRANCH  11  13
ATOM     13  S   UNL A   1      30.596  22.608  26.454  1.00  0.00     0.241 S 
ATOM     14  O   UNL A   1      29.265  22.146  26.755  1.00  0.00    -0.207 OA
ATOM     15  O   UNL A   1      31.503  22.928  27.541  1.00  0.00    -0.207 OA
BRANCH  13  16
ATOM     16  C   UNL A   1      30.532  24.100  25.465  1.00  0.00     0.082 A 
ATOM     17  C   UNL A   1      30.710  24.098  24.090  1.00  0.00     0.022 A 
ATOM     18  C   UNL A   1      30.259  25.325  26.097  1.00  0.00     0.022 A 
ATOM     19  C   UNL A   1      30.399  25.228  23.325  1.00  0.00     0.017 A 
ATOM     20  C   UNL A   1      30.032  26.493  25.336  1.00  0.00     0.017 A 
ATOM     21  C   UNL A   1      30.031  26.429  23.937  1.00  0.00     0.060 A 
BRANCH  21  22
ATOM     22  C   UNL A   1      29.617  27.545  23.040  1.00  0.00     0.337 C 
ATOM     23  O   UNL A   1      28.548  28.124  23.168  1.00  0.00    -0.246 OA
BRANCH  22  24
ATOM     24  O   UNL A   1      30.553  27.826  22.102  1.00  0.00    -0.465 OA
ATOM     25  C   UNL A   1      31.579  28.705  22.582  1.00  0.00     0.282 C 
ENDBRANCH  22  24
ENDBRANCH  21  22
ENDBRANCH  13  16
ENDBRANCH  11  13
ENDBRANCH   7  11
ENDBRANCH   4   7
ENDBRANCH   2   3
ENDBRANCH   1   2
BRANCH   1  26
ATOM     26  C   UNL A   1      34.249  25.301  24.920  1.00  0.00     0.002 C 
BRANCH  26  27
ATOM     27  C   UNL A   1      34.008  26.314  26.032  1.00  0.00     0.002 C 
BRANCH  27  28
ATOM     28  C   UNL A   1      33.237  27.568  25.620  1.00  0.00     0.021 C 
BRANCH  28  29
ATOM     29  C   UNL A   1      34.084  28.826  25.447  1.00  0.00     0.116 C 
BRANCH  29  30
ATOM     30  N   UNL A   1      33.327  30.045  25.697  1.00  0.00    -0.352 N 
ATOM     31  C   UNL A   1      33.432  30.907  26.765  1.00  0.00     0.251 C 
ATOM     32  H   UNL A   1      32.656  30.282  25.017  1.00  0.00     0.163 HD
ATOM     33  O   UNL A   1      32.602  31.790  26.948  1.00  0.00    -0.269 OA
BRANCH  31  34
ATOM     34  C   UNL A   1      34.561  30.723  27.697  1.00  0.00     0.039 A 
ATOM     35  C   UNL A   1      34.639  29.561  28.467  1.00  0.00     0.014 A 
ATOM     36  C   UNL A   1      35.596  31.664  27.712  1.00  0.00     0.014 A 
ATOM     37  C   UNL A   1      35.799  29.309  29.203  1.00  0.00     0.010 A 
ATOM     38  C   UNL A   1      36.779  31.367  28.378  1.00  0.00     0.010 A 
ATOM     39  C   UNL A   1      36.894  30.188  29.130  1.00  0.00    -0.014 A 
BRANCH  39  40
ATOM     40  C   UNL A   1      38.163  29.899  29.848  1.00  0.00     0.031 A 
ATOM     41  C   UNL A   1      39.139  28.913  29.266  1.00  0.00     0.074 A 
ATOM     42  C   UNL A   1      38.411  30.478  31.040  1.00  0.00     0.049 A 
ATOM     43  N   UNL A   1      40.268  28.474  29.760  1.00  0.00    -0.248 NA
ATOM     44  C   UNL A   1      38.779  28.319  27.969  1.00  0.00     0.031 C 
ATOM     45  C   UNL A   1      37.523  31.422  31.724  1.00  0.00     0.029 A 
ATOM     46  N   UNL A   1      39.483  30.363  31.891  1.00  0.00    -0.354 N 
ATOM     47  C   UNL A   1      40.749  27.551  28.838  1.00  0.00     0.074 A 
ATOM     48  C   UNL A   1      39.749  27.434  27.800  1.00  0.00     0.031 C 
ATOM     49  C   UNL A   1      38.104  31.827  32.864  1.00  0.00     0.029 A 
ATOM     50  C   UNL A   1      39.381  31.138  33.023  1.00  0.00     0.049 A 
ATOM     51  H   UNL A   1      40.254  29.779  31.707  1.00  0.00     0.167 HD
ATOM     52  C   UNL A   1      41.930  26.885  28.840  1.00  0.00     0.034 A 
ATOM     53  C   UNL A   1      40.218  31.273  34.072  1.00  0.00     0.034 A 
ATOM     54  C   UNL A   1      42.918  27.018  29.882  1.00  0.00     0.049 A 
ATOM     55  C   UNL A   1      41.506  30.486  34.076  1.00  0.00     0.074 A 
ATOM     56  C   UNL A   1      44.162  26.420  29.970  1.00  0.00     0.029 A 
ATOM     57  N   UNL A   1      42.770  27.797  31.022  1.00  0.00    -0.354 N 
ATOM     58  N   UNL A   1      41.965  29.646  33.176  1.00  0.00    -0.248 NA
ATOM     59  C   UNL A   1      42.392  30.671  35.232  1.00  0.00     0.031 C 
ATOM     60  C   UNL A   1      44.734  26.778  31.196  1.00  0.00     0.029 A 
ATOM     61  C   UNL A   1      43.887  27.671  31.833  1.00  0.00     0.049 A 
ATOM     62  H   UNL A   1      41.987  28.358  31.225  1.00  0.00     0.167 HD
ATOM     63  C   UNL A   1      43.211  29.232  33.642  1.00  0.00     0.074 A 
ATOM     64  C   UNL A   1      43.434  29.926  34.894  1.00  0.00     0.031 C 
ATOM     65  C   UNL A   1      44.092  28.364  33.085  1.00  0.00     0.034 A 
BRANCH  52  66
ATOM     66  C   UNL A   1      42.199  25.946  27.688  1.00  0.00     0.023 A 
ATOM     67  C   UNL A   1      41.760  24.610  27.710  1.00  0.00     0.031 A 
ATOM     68  C   UNL A   1      42.930  26.377  26.568  1.00  0.00     0.131 A 
ATOM     69  C   UNL A   1      42.124  23.733  26.677  1.00  0.00     0.055 A 
ATOM     70  C   UNL A   1      43.212  25.523  25.499  1.00  0.00     0.041 A 
ATOM     71  F   UNL A   1      43.398  27.634  26.498  1.00  0.00    -0.206 F 
ATOM     72  C   UNL A   1      42.823  24.188  25.557  1.00  0.00     0.022 A 
BRANCH  69  73
ATOM     73  S   UNL A   1      41.806  21.961  26.893  1.00  0.00     0.124 S 
ATOM     74  O   UNL A   1      42.682  21.641  28.018  1.00  0.00    -0.237 OA
ATOM     75  O   UNL A   1      40.375  21.928  27.169  1.00  0.00    -0.237 OA
ATOM     76  O   UNL A   1      42.210  21.382  25.614  1.00  0.00    -0.744 OA
ENDBRANCH  69  73
ENDBRANCH  52  66
BRANCH  53  77
ATOM     77  C   UNL A   1      39.877  32.182  35.206  1.00  0.00     0.023 A 
ATOM     78  C   UNL A   1      39.035  31.756  36.245  1.00  0.00     0.031 A 
ATOM     79  C   UNL A   1      40.349  33.506  35.244  1.00  0.00     0.131 A 
ATOM     80  C   UNL A   1      38.650  32.656  37.252  1.00  0.00     0.055 A 
ATOM     81  C   UNL A   1      40.012  34.382  36.279  1.00  0.00     0.041 A 
ATOM     82  F   UNL A   1      41.158  33.968  34.277  1.00  0.00    -0.206 F 
ATOM     83  C   UNL A   1      39.146  33.962  37.283  1.00  0.00     0.022 A 
BRANCH  80  84
ATOM     84  S   UNL A   1      37.416  32.125  38.470  1.00  0.00     0.124 S 
ATOM     85  O   UNL A   1      38.059  32.499  39.724  1.00  0.00    -0.237 OA
ATOM     86  O   UNL A   1      36.251  32.914  38.085  1.00  0.00    -0.237 OA
ATOM     87  O   UNL A   1      37.301  30.687  38.231  1.00  0.00    -0.744 OA
ENDBRANCH  80  84
ENDBRANCH  53  77
BRANCH  65  88
ATOM     88  C   UNL A   1      45.403  28.155  33.804  1.00  0.00     0.023 A 
ATOM     89  C   UNL A   1      45.577  27.131  34.750  1.00  0.00     0.031 A 
ATOM     90  C   UNL A   1      46.496  28.999  33.535  1.00  0.00     0.131 A 
ATOM     91  C   UNL A   1      46.795  27.013  35.437  1.00  0.00     0.055 A 
ATOM     92  C   UNL A   1      47.728  28.833  34.170  1.00  0.00     0.041 A 
ATOM     93  F   UNL A   1      46.388  29.997  32.643  1.00  0.00    -0.206 F 
ATOM     94  C   UNL A   1      47.878  27.844  35.137  1.00  0.00     0.022 A 
BRANCH  91  95
ATOM     95  S   UNL A   1      46.914  25.821  36.799  1.00  0.00     0.124 S 
ATOM     96  O   UNL A   1      47.472  24.650  36.129  1.00  0.00    -0.237 OA
ATOM     97  O   UNL A   1      47.801  26.503  37.735  1.00  0.00    -0.237 OA
ATOM     98  O   UNL A   1      45.531  25.675  37.249  1.00  0.00    -0.744 OA
ENDBRANCH  91  95
ENDBRANCH  65  88
ENDBRANCH  39  40
ENDBRANCH  31  34
ENDBRANCH  29  30
ENDBRANCH  28  29
ENDBRANCH  27  28
ENDBRANCH  26  27
ENDBRANCH   1  26
TORSDOF 22
ENDMDL
