MODEL 1
REMARK VINA RESULT:     -13.0      0.000      0.000
REMARK SMILES O=C(NCCCCCCNC(=O)[C@H]1Cc2c([nH]c3ccccc23)[C@H](c2c[nH]c3ccccc23)[NH2+]1)c1ccc(-c2c3nc(c(-c4cc(S(=O)(=O)[O-])ccc4F)c4ccc([nH]4)c(-c4cc(S(=O)(=O)[O-])ccc4F)c4nc(c(-c5cc(S(=O)(=O)[O-])ccc5F)c5ccc2[nH]5)C=C4)C=C3)cc1
REMARK SMILES IDX 5 1 4 2 3 3 1 4 2 5 35 7 36 8 97 9 37 10 96 11 38 12 39 13
REMARK SMILES IDX 40 14 90 15 41 16 95 17 89 18 91 19 42 20 94 21 88 22 87 23
REMARK SMILES IDX 43 25 75 26 55 27 74 28 56 29 59 30 73 31 92 32 57 33 58 34
REMARK SMILES IDX 72 36 93 37 60 38 44 39 45 40 53 41 46 42 52 43 54 44 51 45
REMARK SMILES IDX 47 46 48 47 49 48 50 49 76 50 77 51 85 52 78 53 84 54 86 55
REMARK SMILES IDX 83 56 79 57 80 58 81 59 82 60 61 61 62 62 70 63 63 64 69 65
REMARK SMILES IDX 71 66 68 67 64 68 65 69 66 70 67 71 6 72 7 73 8 74 9 75
REMARK SMILES IDX 10 76 11 77 12 79 13 80 14 81 34 82 15 83 24 84 16 87 23 88
REMARK SMILES IDX 17 89 18 90 22 91 19 93 21 94 20 95 25 96 26 97 33 98 27 99
REMARK SMILES IDX 28 100 32 101 29 103 31 104 30 105
REMARK H PARENT 3 6 91 24 59 35 10 78 34 85 34 86 17 92 27 102
REMARK Flexibility Score: inf
ROOT
ATOM      1  C   UNL A   1      34.793  22.038  27.166  1.00  0.00     0.021 C 
ENDROOT
BRANCH   1   2
ATOM      2  C   UNL A   1      35.799  22.445  26.096  1.00  0.00     0.116 C 
BRANCH   2   3
ATOM      3  N   UNL A   1      36.762  21.386  25.824  1.00  0.00    -0.352 N 
ATOM      4  O   UNL A   1      38.775  20.501  25.323  1.00  0.00    -0.269 OA
ATOM      5  C   UNL A   1      38.134  21.442  25.789  1.00  0.00     0.251 C 
ATOM      6  H   UNL A   1      36.372  20.502  25.639  1.00  0.00     0.163 HD
BRANCH   5   7
ATOM      7  C   UNL A   1      38.836  22.638  26.302  1.00  0.00     0.039 A 
ATOM      8  C   UNL A   1      38.391  23.915  25.957  1.00  0.00     0.014 A 
ATOM      9  C   UNL A   1      39.948  22.484  27.135  1.00  0.00     0.014 A 
ATOM     10  C   UNL A   1      39.152  25.025  26.299  1.00  0.00     0.010 A 
ATOM     11  C   UNL A   1      40.652  23.614  27.569  1.00  0.00     0.010 A 
ATOM     12  C   UNL A   1      40.284  24.892  27.122  1.00  0.00    -0.014 A 
BRANCH  12  13
ATOM     13  C   UNL A   1      41.029  26.116  27.524  1.00  0.00     0.031 A 
ATOM     14  C   UNL A   1      42.418  26.388  27.008  1.00  0.00     0.074 A 
ATOM     15  C   UNL A   1      40.420  27.011  28.326  1.00  0.00     0.049 A 
ATOM     16  N   UNL A   1      43.188  27.425  27.220  1.00  0.00    -0.248 NA
ATOM     17  C   UNL A   1      43.023  25.358  26.151  1.00  0.00     0.031 C 
ATOM     18  C   UNL A   1      39.075  26.854  28.891  1.00  0.00     0.029 A 
ATOM     19  N   UNL A   1      40.827  28.238  28.785  1.00  0.00    -0.354 N 
ATOM     20  C   UNL A   1      44.377  27.166  26.545  1.00  0.00     0.074 A 
ATOM     21  C   UNL A   1      44.236  25.855  25.946  1.00  0.00     0.031 C 
ATOM     22  C   UNL A   1      38.745  27.966  29.560  1.00  0.00     0.029 A 
ATOM     23  C   UNL A   1      39.879  28.882  29.547  1.00  0.00     0.049 A 
ATOM     24  H   UNL A   1      41.712  28.620  28.587  1.00  0.00     0.167 HD
ATOM     25  C   UNL A   1      45.477  27.954  26.431  1.00  0.00     0.034 A 
ATOM     26  C   UNL A   1      39.921  30.069  30.181  1.00  0.00     0.034 A 
ATOM     27  C   UNL A   1      45.595  29.261  27.036  1.00  0.00     0.049 A 
ATOM     28  C   UNL A   1      41.172  30.899  30.077  1.00  0.00     0.074 A 
ATOM     29  C   UNL A   1      46.648  30.157  26.951  1.00  0.00     0.029 A 
ATOM     30  N   UNL A   1      44.640  29.856  27.850  1.00  0.00    -0.354 N 
ATOM     31  N   UNL A   1      42.276  30.652  29.409  1.00  0.00    -0.248 NA
ATOM     32  C   UNL A   1      41.179  32.171  30.807  1.00  0.00     0.031 C 
ATOM     33  C   UNL A   1      46.365  31.249  27.778  1.00  0.00     0.029 A 
ATOM     34  C   UNL A   1      45.095  31.086  28.304  1.00  0.00     0.049 A 
ATOM     35  H   UNL A   1      43.765  29.462  28.073  1.00  0.00     0.167 HD
ATOM     36  C   UNL A   1      43.096  31.758  29.613  1.00  0.00     0.074 A 
ATOM     37  C   UNL A   1      42.349  32.677  30.448  1.00  0.00     0.031 C 
ATOM     38  C   UNL A   1      44.349  31.993  29.149  1.00  0.00     0.034 A 
BRANCH  25  39
ATOM     39  C   UNL A   1      46.660  27.397  25.669  1.00  0.00     0.023 A 
ATOM     40  C   UNL A   1      47.060  27.918  24.426  1.00  0.00     0.031 A 
ATOM     41  C   UNL A   1      47.390  26.313  26.189  1.00  0.00     0.131 A 
ATOM     42  C   UNL A   1      48.104  27.307  23.712  1.00  0.00     0.055 A 
ATOM     43  C   UNL A   1      48.483  25.765  25.514  1.00  0.00     0.041 A 
ATOM     44  F   UNL A   1      47.046  25.756  27.361  1.00  0.00    -0.206 F 
ATOM     45  C   UNL A   1      48.836  26.252  24.259  1.00  0.00     0.022 A 
BRANCH  42  46
ATOM     46  S   UNL A   1      48.388  27.813  21.992  1.00  0.00     0.124 S 
ATOM     47  O   UNL A   1      47.285  28.748  21.773  1.00  0.00    -0.237 OA
ATOM     48  O   UNL A   1      49.720  28.401  22.052  1.00  0.00    -0.237 OA
ATOM     49  O   UNL A   1      48.290  26.561  21.246  1.00  0.00    -0.744 OA
ENDBRANCH  42  46
ENDBRANCH  25  39
BRANCH  26  50
ATOM     50  C   UNL A   1      38.756  30.535  30.987  1.00  0.00     0.023 A 
ATOM     51  C   UNL A   1      37.797  31.401  30.438  1.00  0.00     0.031 A 
ATOM     52  C   UNL A   1      38.605  30.152  32.332  1.00  0.00     0.131 A 
ATOM     53  C   UNL A   1      36.760  31.895  31.244  1.00  0.00     0.055 A 
ATOM     54  C   UNL A   1      37.535  30.595  33.111  1.00  0.00     0.041 A 
ATOM     55  F   UNL A   1      39.493  29.325  32.907  1.00  0.00    -0.206 F 
ATOM     56  C   UNL A   1      36.613  31.484  32.571  1.00  0.00     0.022 A 
BRANCH  53  57
ATOM     57  S   UNL A   1      35.659  33.160  30.556  1.00  0.00     0.124 S 
ATOM     58  O   UNL A   1      36.182  33.305  29.203  1.00  0.00    -0.237 OA
ATOM     59  O   UNL A   1      34.352  32.520  30.674  1.00  0.00    -0.237 OA
ATOM     60  O   UNL A   1      35.870  34.308  31.435  1.00  0.00    -0.744 OA
ENDBRANCH  53  57
ENDBRANCH  26  50
BRANCH  38  61
ATOM     61  C   UNL A   1      44.965  33.330  29.492  1.00  0.00     0.023 A 
ATOM     62  C   UNL A   1      44.794  34.461  28.674  1.00  0.00     0.031 A 
ATOM     63  C   UNL A   1      45.767  33.463  30.640  1.00  0.00     0.131 A 
ATOM     64  C   UNL A   1      45.477  35.650  28.972  1.00  0.00     0.055 A 
ATOM     65  C   UNL A   1      46.382  34.670  30.974  1.00  0.00     0.041 A 
ATOM     66  F   UNL A   1      45.972  32.417  31.457  1.00  0.00    -0.206 F 
ATOM     67  C   UNL A   1      46.254  35.767  30.127  1.00  0.00     0.022 A 
BRANCH  64  68
ATOM     68  S   UNL A   1      45.442  37.001  27.763  1.00  0.00     0.124 S 
ATOM     69  O   UNL A   1      46.538  36.637  26.870  1.00  0.00    -0.237 OA
ATOM     70  O   UNL A   1      44.099  36.883  27.203  1.00  0.00    -0.237 OA
ATOM     71  O   UNL A   1      45.672  38.194  28.575  1.00  0.00    -0.744 OA
ENDBRANCH  64  68
ENDBRANCH  38  61
ENDBRANCH  12  13
ENDBRANCH   5   7
ENDBRANCH   2   3
ENDBRANCH   1   2
BRANCH   1  72
ATOM     72  C   UNL A   1      33.369  22.537  26.916  1.00  0.00     0.002 C 
BRANCH  72  73
ATOM     73  C   UNL A   1      32.540  21.691  25.942  1.00  0.00     0.002 C 
BRANCH  73  74
ATOM     74  C   UNL A   1      31.588  22.495  25.051  1.00  0.00     0.021 C 
BRANCH  74  75
ATOM     75  C   UNL A   1      31.936  22.437  23.561  1.00  0.00     0.116 C 
BRANCH  75  76
ATOM     76  N   UNL A   1      33.301  22.869  23.360  1.00  0.00    -0.351 N 
ATOM     77  C   UNL A   1      33.861  24.111  23.425  1.00  0.00     0.278 C 
ATOM     78  H   UNL A   1      33.931  22.146  23.141  1.00  0.00     0.163 HD
ATOM     79  O   UNL A   1      35.038  24.184  23.054  1.00  0.00    -0.268 OA
BRANCH  77  80
ATOM     80  C   UNL A   1      33.072  25.341  23.952  1.00  0.00     0.277 C 
ATOM     81  C   UNL A   1      34.081  26.115  24.849  1.00  0.00     0.114 C 
ATOM     82  N   UNL A   1      32.542  26.137  22.804  1.00  0.00    -0.324 N 
ATOM     83  C   UNL A   1      33.615  27.497  25.099  1.00  0.00    -0.006 A 
ATOM     84  C   UNL A   1      31.942  27.448  23.132  1.00  0.00     0.264 C 
ATOM     85  H   UNL A   1      31.827  25.576  22.342  1.00  0.00     0.347 HD
ATOM     86  H   UNL A   1      33.354  26.349  22.226  1.00  0.00     0.347 HD
ATOM     87  C   UNL A   1      32.665  28.081  24.290  1.00  0.00     0.083 A 
ATOM     88  C   UNL A   1      34.022  28.446  26.074  1.00  0.00     0.003 A 
ATOM     89  N   UNL A   1      32.510  29.373  24.719  1.00  0.00    -0.353 N 
ATOM     90  C   UNL A   1      33.308  29.617  25.815  1.00  0.00     0.046 A 
ATOM     91  C   UNL A   1      34.932  28.431  27.147  1.00  0.00     0.010 A 
ATOM     92  H   UNL A   1      31.912  30.036  24.301  1.00  0.00     0.166 HD
ATOM     93  C   UNL A   1      33.453  30.775  26.588  1.00  0.00     0.026 A 
ATOM     94  C   UNL A   1      35.086  29.578  27.933  1.00  0.00     0.001 A 
ATOM     95  C   UNL A   1      34.355  30.731  27.656  1.00  0.00     0.002 A 
BRANCH  84  96
ATOM     96  C   UNL A   1      30.424  27.468  23.324  1.00  0.00     0.041 A 
ATOM     97  C   UNL A   1      29.680  26.334  23.648  1.00  0.00     0.093 A 
ATOM     98  C   UNL A   1      29.445  28.529  23.262  1.00  0.00     0.009 A 
ATOM     99  N   UNL A   1      28.347  26.635  23.632  1.00  0.00    -0.361 N 
ATOM    100  C   UNL A   1      28.172  27.969  23.389  1.00  0.00     0.046 A 
ATOM    101  C   UNL A   1      29.492  29.925  23.107  1.00  0.00     0.011 A 
ATOM    102  H   UNL A   1      27.620  25.986  23.773  1.00  0.00     0.166 HD
ATOM    103  C   UNL A   1      26.984  28.709  23.289  1.00  0.00     0.026 A 
ATOM    104  C   UNL A   1      28.325  30.690  22.995  1.00  0.00     0.001 A 
ATOM    105  C   UNL A   1      27.083  30.082  23.071  1.00  0.00     0.002 A 
ENDBRANCH  84  96
ENDBRANCH  77  80
ENDBRANCH  75  76
ENDBRANCH  74  75
ENDBRANCH  73  74
ENDBRANCH  72  73
ENDBRANCH   1  72
TORSDOF 17
ENDMDL
MODEL 2
REMARK VINA RESULT:     -13.0      4.561      9.828
REMARK SMILES O=C(NCCCCCCNC(=O)[C@H]1Cc2c([nH]c3ccccc23)[C@H](c2c[nH]c3ccccc23)[NH2+]1)c1ccc(-c2c3nc(c(-c4cc(S(=O)(=O)[O-])ccc4F)c4ccc([nH]4)c(-c4cc(S(=O)(=O)[O-])ccc4F)c4nc(c(-c5cc(S(=O)(=O)[O-])ccc5F)c5ccc2[nH]5)C=C4)C=C3)cc1
REMARK SMILES IDX 5 1 4 2 3 3 1 4 2 5 35 7 36 8 97 9 37 10 96 11 38 12 39 13
REMARK SMILES IDX 40 14 90 15 41 16 95 17 89 18 91 19 42 20 94 21 88 22 87 23
REMARK SMILES IDX 43 25 75 26 55 27 74 28 56 29 59 30 73 31 92 32 57 33 58 34
REMARK SMILES IDX 72 36 93 37 60 38 44 39 45 40 53 41 46 42 52 43 54 44 51 45
REMARK SMILES IDX 47 46 48 47 49 48 50 49 76 50 77 51 85 52 78 53 84 54 86 55
REMARK SMILES IDX 83 56 79 57 80 58 81 59 82 60 61 61 62 62 70 63 63 64 69 65
REMARK SMILES IDX 71 66 68 67 64 68 65 69 66 70 67 71 6 72 7 73 8 74 9 75
REMARK SMILES IDX 10 76 11 77 12 79 13 80 14 81 34 82 15 83 24 84 16 87 23 88
REMARK SMILES IDX 17 89 18 90 22 91 19 93 21 94 20 95 25 96 26 97 33 98 27 99
REMARK SMILES IDX 28 100 32 101 29 103 31 104 30 105
REMARK H PARENT 3 6 91 24 59 35 10 78 34 85 34 86 17 92 27 102
REMARK Flexibility Score: inf
ROOT
ATOM      1  C   UNL A   1      33.017  27.715  26.134  1.00  0.00     0.021 C 
ENDROOT
BRANCH   1   2
ATOM      2  C   UNL A   1      34.259  28.597  26.194  1.00  0.00     0.116 C 
BRANCH   2   3
ATOM      3  N   UNL A   1      33.938  29.963  26.585  1.00  0.00    -0.352 N 
ATOM      4  O   UNL A   1      33.984  31.806  27.883  1.00  0.00    -0.269 OA
ATOM      5  C   UNL A   1      34.530  30.762  27.533  1.00  0.00     0.251 C 
ATOM      6  H   UNL A   1      33.188  30.373  26.098  1.00  0.00     0.163 HD
BRANCH   5   7
ATOM      7  C   UNL A   1      35.817  30.356  28.138  1.00  0.00     0.039 A 
ATOM      8  C   UNL A   1      37.017  30.618  27.476  1.00  0.00     0.014 A 
ATOM      9  C   UNL A   1      35.826  29.709  29.377  1.00  0.00     0.014 A 
ATOM     10  C   UNL A   1      38.203  30.084  27.964  1.00  0.00     0.010 A 
ATOM     11  C   UNL A   1      37.038  29.267  29.920  1.00  0.00     0.010 A 
ATOM     12  C   UNL A   1      38.233  29.416  29.200  1.00  0.00    -0.014 A 
BRANCH  12  13
ATOM     13  C   UNL A   1      39.537  28.923  29.720  1.00  0.00     0.031 A 
ATOM     14  C   UNL A   1      40.178  29.545  30.933  1.00  0.00     0.074 A 
ATOM     15  C   UNL A   1      40.118  27.868  29.115  1.00  0.00     0.049 A 
ATOM     16  N   UNL A   1      41.285  29.208  31.545  1.00  0.00    -0.248 NA
ATOM     17  C   UNL A   1      39.493  30.701  31.529  1.00  0.00     0.031 C 
ATOM     18  C   UNL A   1      39.591  27.184  27.930  1.00  0.00     0.029 A 
ATOM     19  N   UNL A   1      41.257  27.166  29.420  1.00  0.00    -0.354 N 
ATOM     20  C   UNL A   1      41.445  30.121  32.583  1.00  0.00     0.074 A 
ATOM     21  C   UNL A   1      40.336  31.048  32.492  1.00  0.00     0.031 C 
ATOM     22  C   UNL A   1      40.363  26.125  27.652  1.00  0.00     0.029 A 
ATOM     23  C   UNL A   1      41.487  26.100  28.580  1.00  0.00     0.049 A 
ATOM     24  H   UNL A   1      41.851  27.402  30.167  1.00  0.00     0.167 HD
ATOM     25  C   UNL A   1      42.421  30.172  33.525  1.00  0.00     0.034 A 
ATOM     26  C   UNL A   1      42.497  25.210  28.547  1.00  0.00     0.034 A 
ATOM     27  C   UNL A   1      43.518  29.234  33.598  1.00  0.00     0.049 A 
ATOM     28  C   UNL A   1      43.590  25.322  29.575  1.00  0.00     0.074 A 
ATOM     29  C   UNL A   1      44.537  29.172  34.534  1.00  0.00     0.029 A 
ATOM     30  N   UNL A   1      43.751  28.204  32.695  1.00  0.00    -0.354 N 
ATOM     31  N   UNL A   1      43.709  26.173  30.568  1.00  0.00    -0.248 NA
ATOM     32  C   UNL A   1      44.682  24.347  29.481  1.00  0.00     0.031 C 
ATOM     33  C   UNL A   1      45.428  28.164  34.149  1.00  0.00     0.029 A 
ATOM     34  C   UNL A   1      44.918  27.529  33.030  1.00  0.00     0.049 A 
ATOM     35  H   UNL A   1      43.173  27.984  31.929  1.00  0.00     0.167 HD
ATOM     36  C   UNL A   1      44.875  25.812  31.237  1.00  0.00     0.074 A 
ATOM     37  C   UNL A   1      45.407  24.656  30.545  1.00  0.00     0.031 C 
ATOM     38  C   UNL A   1      45.450  26.383  32.326  1.00  0.00     0.034 A 
BRANCH  25  39
ATOM     39  C   UNL A   1      42.376  31.314  34.518  1.00  0.00     0.023 A 
ATOM     40  C   UNL A   1      41.430  31.363  35.557  1.00  0.00     0.031 A 
ATOM     41  C   UNL A   1      43.285  32.382  34.410  1.00  0.00     0.131 A 
ATOM     42  C   UNL A   1      41.365  32.488  36.394  1.00  0.00     0.055 A 
ATOM     43  C   UNL A   1      43.271  33.458  35.300  1.00  0.00     0.041 A 
ATOM     44  F   UNL A   1      44.199  32.405  33.427  1.00  0.00    -0.206 F 
ATOM     45  C   UNL A   1      42.297  33.523  36.291  1.00  0.00     0.022 A 
BRANCH  42  46
ATOM     46  S   UNL A   1      39.950  32.650  37.518  1.00  0.00     0.124 S 
ATOM     47  O   UNL A   1      40.577  32.421  38.819  1.00  0.00    -0.237 OA
ATOM     48  O   UNL A   1      39.496  34.011  37.260  1.00  0.00    -0.237 OA
ATOM     49  O   UNL A   1      39.041  31.594  37.080  1.00  0.00    -0.744 OA
ENDBRANCH  42  46
ENDBRANCH  25  39
BRANCH  26  50
ATOM     50  C   UNL A   1      42.536  24.153  27.496  1.00  0.00     0.023 A 
ATOM     51  C   UNL A   1      41.925  22.906  27.702  1.00  0.00     0.031 A 
ATOM     52  C   UNL A   1      43.220  24.360  26.285  1.00  0.00     0.131 A 
ATOM     53  C   UNL A   1      42.051  21.898  26.735  1.00  0.00     0.055 A 
ATOM     54  C   UNL A   1      43.288  23.376  25.298  1.00  0.00     0.041 A 
ATOM     55  F   UNL A   1      43.822  25.534  26.035  1.00  0.00    -0.206 F 
ATOM     56  C   UNL A   1      42.715  22.130  25.527  1.00  0.00     0.022 A 
BRANCH  53  57
ATOM     57  S   UNL A   1      41.418  20.244  27.121  1.00  0.00     0.124 S 
ATOM     58  O   UNL A   1      42.652  19.477  27.249  1.00  0.00    -0.237 OA
ATOM     59  O   UNL A   1      40.680  20.483  28.356  1.00  0.00    -0.237 OA
ATOM     60  O   UNL A   1      40.595  19.915  25.958  1.00  0.00    -0.744 OA
ENDBRANCH  53  57
ENDBRANCH  26  50
BRANCH  38  61
ATOM     61  C   UNL A   1      46.695  25.718  32.868  1.00  0.00     0.023 A 
ATOM     62  C   UNL A   1      47.971  25.984  32.341  1.00  0.00     0.031 A 
ATOM     63  C   UNL A   1      46.595  24.774  33.905  1.00  0.00     0.131 A 
ATOM     64  C   UNL A   1      49.082  25.260  32.798  1.00  0.00     0.055 A 
ATOM     65  C   UNL A   1      47.715  24.111  34.409  1.00  0.00     0.041 A 
ATOM     66  F   UNL A   1      45.403  24.473  34.445  1.00  0.00    -0.206 F 
ATOM     67  C   UNL A   1      48.965  24.340  33.842  1.00  0.00     0.022 A 
BRANCH  64  68
ATOM     68  S   UNL A   1      50.660  25.441  31.922  1.00  0.00     0.124 S 
ATOM     69  O   UNL A   1      51.579  25.748  33.014  1.00  0.00    -0.237 OA
ATOM     70  O   UNL A   1      50.824  24.130  31.301  1.00  0.00    -0.237 OA
ATOM     71  O   UNL A   1      50.411  26.541  30.992  1.00  0.00    -0.744 OA
ENDBRANCH  64  68
ENDBRANCH  38  61
ENDBRANCH  12  13
ENDBRANCH   5   7
ENDBRANCH   2   3
ENDBRANCH   1   2
BRANCH   1  72
ATOM     72  C   UNL A   1      31.717  28.473  25.860  1.00  0.00     0.002 C 
BRANCH  72  73
ATOM     73  C   UNL A   1      30.993  28.084  24.565  1.00  0.00     0.002 C 
BRANCH  73  74
ATOM     74  C   UNL A   1      31.550  26.834  23.876  1.00  0.00     0.021 C 
BRANCH  74  75
ATOM     75  C   UNL A   1      30.616  25.621  23.943  1.00  0.00     0.116 C 
BRANCH  75  76
ATOM     76  N   UNL A   1      30.375  25.267  25.323  1.00  0.00    -0.351 N 
ATOM     77  C   UNL A   1      30.865  24.243  26.079  1.00  0.00     0.278 C 
ATOM     78  H   UNL A   1      29.754  25.865  25.797  1.00  0.00     0.163 HD
ATOM     79  O   UNL A   1      30.352  24.114  27.197  1.00  0.00    -0.268 OA
BRANCH  77  80
ATOM     80  C   UNL A   1      32.006  23.319  25.570  1.00  0.00     0.277 C 
ATOM     81  C   UNL A   1      33.322  24.002  26.044  1.00  0.00     0.114 C 
ATOM     82  N   UNL A   1      31.815  21.934  26.096  1.00  0.00    -0.324 N 
ATOM     83  C   UNL A   1      34.459  23.057  25.987  1.00  0.00    -0.006 A 
ATOM     84  C   UNL A   1      32.925  20.983  25.871  1.00  0.00     0.264 C 
ATOM     85  H   UNL A   1      30.981  21.547  25.656  1.00  0.00     0.347 HD
ATOM     86  H   UNL A   1      31.749  22.038  27.109  1.00  0.00     0.347 HD
ATOM     87  C   UNL A   1      34.248  21.697  25.934  1.00  0.00     0.083 A 
ATOM     88  C   UNL A   1      35.858  23.295  26.020  1.00  0.00     0.003 A 
ATOM     89  N   UNL A   1      35.478  21.096  25.976  1.00  0.00    -0.353 N 
ATOM     90  C   UNL A   1      36.477  22.044  26.008  1.00  0.00     0.046 A 
ATOM     91  C   UNL A   1      36.664  24.449  26.068  1.00  0.00     0.010 A 
ATOM     92  H   UNL A   1      35.628  20.122  25.983  1.00  0.00     0.166 HD
ATOM     93  C   UNL A   1      37.868  21.891  26.030  1.00  0.00     0.026 A 
ATOM     94  C   UNL A   1      38.056  24.313  26.086  1.00  0.00     0.001 A 
ATOM     95  C   UNL A   1      38.647  23.052  26.066  1.00  0.00     0.002 A 
BRANCH  84  96
ATOM     96  C   UNL A   1      32.811  20.094  24.631  1.00  0.00     0.041 A 
ATOM     97  C   UNL A   1      32.063  20.442  23.507  1.00  0.00     0.093 A 
ATOM     98  C   UNL A   1      33.389  18.814  24.290  1.00  0.00     0.009 A 
ATOM     99  N   UNL A   1      32.051  19.404  22.619  1.00  0.00    -0.361 N 
ATOM    100  C   UNL A   1      32.847  18.390  23.075  1.00  0.00     0.046 A 
ATOM    101  C   UNL A   1      34.325  17.950  24.884  1.00  0.00     0.011 A 
ATOM    102  H   UNL A   1      31.544  19.388  21.775  1.00  0.00     0.166 HD
ATOM    103  C   UNL A   1      33.129  17.145  22.491  1.00  0.00     0.026 A 
ATOM    104  C   UNL A   1      34.621  16.699  24.330  1.00  0.00     0.001 A 
ATOM    105  C   UNL A   1      34.015  16.297  23.152  1.00  0.00     0.002 A 
ENDBRANCH  84  96
ENDBRANCH  77  80
ENDBRANCH  75  76
ENDBRANCH  74  75
ENDBRANCH  73  74
ENDBRANCH  72  73
ENDBRANCH   1  72
TORSDOF 17
ENDMDL
MODEL 3
REMARK VINA RESULT:     -12.9      2.632      3.252
REMARK SMILES O=C(NCCCCCCNC(=O)[C@H]1Cc2c([nH]c3ccccc23)[C@H](c2c[nH]c3ccccc23)[NH2+]1)c1ccc(-c2c3nc(c(-c4cc(S(=O)(=O)[O-])ccc4F)c4ccc([nH]4)c(-c4cc(S(=O)(=O)[O-])ccc4F)c4nc(c(-c5cc(S(=O)(=O)[O-])ccc5F)c5ccc2[nH]5)C=C4)C=C3)cc1
REMARK SMILES IDX 5 1 4 2 3 3 1 4 2 5 35 7 36 8 97 9 37 10 96 11 38 12 39 13
REMARK SMILES IDX 40 14 90 15 41 16 95 17 89 18 91 19 42 20 94 21 88 22 87 23
REMARK SMILES IDX 43 25 75 26 55 27 74 28 56 29 59 30 73 31 92 32 57 33 58 34
REMARK SMILES IDX 72 36 93 37 60 38 44 39 45 40 53 41 46 42 52 43 54 44 51 45
REMARK SMILES IDX 47 46 48 47 49 48 50 49 76 50 77 51 85 52 78 53 84 54 86 55
REMARK SMILES IDX 83 56 79 57 80 58 81 59 82 60 61 61 62 62 70 63 63 64 69 65
REMARK SMILES IDX 71 66 68 67 64 68 65 69 66 70 67 71 6 72 7 73 8 74 9 75
REMARK SMILES IDX 10 76 11 77 12 79 13 80 14 81 34 82 15 83 24 84 16 87 23 88
REMARK SMILES IDX 17 89 18 90 22 91 19 93 21 94 20 95 25 96 26 97 33 98 27 99
REMARK SMILES IDX 28 100 32 101 29 103 31 104 30 105
REMARK H PARENT 3 6 91 24 59 35 10 78 34 85 34 86 17 92 27 102
REMARK Flexibility Score: inf
ROOT
ATOM      1  C   UNL A   1      35.751  23.244  24.673  1.00  0.00     0.021 C 
ENDROOT
BRANCH   1   2
ATOM      2  C   UNL A   1      36.748  23.614  25.765  1.00  0.00     0.116 C 
BRANCH   2   3
ATOM      3  N   UNL A   1      37.708  22.545  26.010  1.00  0.00    -0.352 N 
ATOM      4  O   UNL A   1      39.743  21.627  26.327  1.00  0.00    -0.269 OA
ATOM      5  C   UNL A   1      39.027  22.625  26.385  1.00  0.00     0.251 C 
ATOM      6  H   UNL A   1      37.360  21.633  25.887  1.00  0.00     0.163 HD
BRANCH   5   7
ATOM      7  C   UNL A   1      39.583  23.915  26.849  1.00  0.00     0.039 A 
ATOM      8  C   UNL A   1      39.683  24.186  28.214  1.00  0.00     0.014 A 
ATOM      9  C   UNL A   1      40.009  24.861  25.913  1.00  0.00     0.014 A 
ATOM     10  C   UNL A   1      40.044  25.458  28.638  1.00  0.00     0.010 A 
ATOM     11  C   UNL A   1      40.475  26.107  26.348  1.00  0.00     0.010 A 
ATOM     12  C   UNL A   1      40.459  26.431  27.714  1.00  0.00    -0.014 A 
BRANCH  12  13
ATOM     13  C   UNL A   1      40.906  27.759  28.216  1.00  0.00     0.031 A 
ATOM     14  C   UNL A   1      42.360  28.150  28.197  1.00  0.00     0.074 A 
ATOM     15  C   UNL A   1      39.976  28.634  28.647  1.00  0.00     0.049 A 
ATOM     16  N   UNL A   1      42.914  29.283  28.553  1.00  0.00    -0.248 NA
ATOM     17  C   UNL A   1      43.317  27.138  27.729  1.00  0.00     0.031 C 
ATOM     18  C   UNL A   1      38.536  28.365  28.713  1.00  0.00     0.029 A 
ATOM     19  N   UNL A   1      40.088  29.930  29.082  1.00  0.00    -0.354 N 
ATOM     20  C   UNL A   1      44.284  29.114  28.375  1.00  0.00     0.074 A 
ATOM     21  C   UNL A   1      44.477  27.755  27.913  1.00  0.00     0.031 C 
ATOM     22  C   UNL A   1      37.896  29.478  29.095  1.00  0.00     0.029 A 
ATOM     23  C   UNL A   1      38.879  30.515  29.383  1.00  0.00     0.049 A 
ATOM     24  H   UNL A   1      40.950  30.396  29.169  1.00  0.00     0.167 HD
ATOM     25  C   UNL A   1      45.282  30.013  28.572  1.00  0.00     0.034 A 
ATOM     26  C   UNL A   1      38.591  31.742  29.856  1.00  0.00     0.034 A 
ATOM     27  C   UNL A   1      45.066  31.365  29.032  1.00  0.00     0.049 A 
ATOM     28  C   UNL A   1      39.723  32.701  30.110  1.00  0.00     0.074 A 
ATOM     29  C   UNL A   1      46.001  32.369  29.226  1.00  0.00     0.029 A 
ATOM     30  N   UNL A   1      43.835  31.904  29.384  1.00  0.00    -0.354 N 
ATOM     31  N   UNL A   1      41.010  32.535  29.908  1.00  0.00    -0.248 NA
ATOM     32  C   UNL A   1      39.362  34.016  30.651  1.00  0.00     0.031 C 
ATOM     33  C   UNL A   1      45.350  33.479  29.774  1.00  0.00     0.029 A 
ATOM     34  C   UNL A   1      43.993  33.209  29.832  1.00  0.00     0.049 A 
ATOM     35  H   UNL A   1      42.974  31.430  29.325  1.00  0.00     0.167 HD
ATOM     36  C   UNL A   1      41.607  33.740  30.266  1.00  0.00     0.074 A 
ATOM     37  C   UNL A   1      40.536  34.625  30.676  1.00  0.00     0.031 C 
ATOM     38  C   UNL A   1      42.920  34.083  30.253  1.00  0.00     0.034 A 
BRANCH  25  39
ATOM     39  C   UNL A   1      46.702  29.542  28.344  1.00  0.00     0.023 A 
ATOM     40  C   UNL A   1      47.484  28.998  29.379  1.00  0.00     0.031 A 
ATOM     41  C   UNL A   1      47.291  29.656  27.071  1.00  0.00     0.131 A 
ATOM     42  C   UNL A   1      48.827  28.664  29.142  1.00  0.00     0.055 A 
ATOM     43  C   UNL A   1      48.601  29.241  26.822  1.00  0.00     0.041 A 
ATOM     44  F   UNL A   1      46.605  30.187  26.046  1.00  0.00    -0.206 F 
ATOM     45  C   UNL A   1      49.383  28.756  27.865  1.00  0.00     0.022 A 
BRANCH  42  46
ATOM     46  S   UNL A   1      49.880  28.255  30.563  1.00  0.00     0.124 S 
ATOM     47  O   UNL A   1      51.076  27.732  29.904  1.00  0.00    -0.237 OA
ATOM     48  O   UNL A   1      50.030  29.544  31.226  1.00  0.00    -0.237 OA
ATOM     49  O   UNL A   1      49.098  27.262  31.295  1.00  0.00    -0.744 OA
ENDBRANCH  42  46
ENDBRANCH  25  39
BRANCH  26  50
ATOM     50  C   UNL A   1      37.179  32.129  30.141  1.00  0.00     0.023 A 
ATOM     51  C   UNL A   1      36.414  32.822  29.191  1.00  0.00     0.031 A 
ATOM     52  C   UNL A   1      36.587  31.844  31.385  1.00  0.00     0.131 A 
ATOM     53  C   UNL A   1      35.118  33.252  29.516  1.00  0.00     0.055 A 
ATOM     54  C   UNL A   1      35.275  32.217  31.680  1.00  0.00     0.041 A 
ATOM     55  F   UNL A   1      37.273  31.182  32.330  1.00  0.00    -0.206 F 
ATOM     56  C   UNL A   1      34.538  32.939  30.748  1.00  0.00     0.022 A 
BRANCH  53  57
ATOM     57  S   UNL A   1      34.237  34.311  28.340  1.00  0.00     0.124 S 
ATOM     58  O   UNL A   1      34.055  35.531  29.118  1.00  0.00    -0.237 OA
ATOM     59  O   UNL A   1      35.186  34.391  27.234  1.00  0.00    -0.237 OA
ATOM     60  O   UNL A   1      33.014  33.562  28.057  1.00  0.00    -0.744 OA
ENDBRANCH  53  57
ENDBRANCH  26  50
BRANCH  38  61
ATOM     61  C   UNL A   1      43.259  35.504  30.642  1.00  0.00     0.023 A 
ATOM     62  C   UNL A   1      43.342  36.537  29.692  1.00  0.00     0.031 A 
ATOM     63  C   UNL A   1      43.537  35.820  31.984  1.00  0.00     0.131 A 
ATOM     64  C   UNL A   1      43.770  37.815  30.083  1.00  0.00     0.055 A 
ATOM     65  C   UNL A   1      43.888  37.111  32.380  1.00  0.00     0.041 A 
ATOM     66  F   UNL A   1      43.480  34.874  32.936  1.00  0.00    -0.206 F 
ATOM     67  C   UNL A   1      44.024  38.113  31.424  1.00  0.00     0.022 A 
BRANCH  64  68
ATOM     68  S   UNL A   1      44.116  39.048  28.799  1.00  0.00     0.124 S 
ATOM     69  O   UNL A   1      45.061  39.932  29.474  1.00  0.00    -0.237 OA
ATOM     70  O   UNL A   1      44.665  38.231  27.722  1.00  0.00    -0.237 OA
ATOM     71  O   UNL A   1      42.805  39.634  28.525  1.00  0.00    -0.744 OA
ENDBRANCH  64  68
ENDBRANCH  38  61
ENDBRANCH  12  13
ENDBRANCH   5   7
ENDBRANCH   2   3
ENDBRANCH   1   2
BRANCH   1  72
ATOM     72  C   UNL A   1      34.528  22.470  25.170  1.00  0.00     0.002 C 
BRANCH  72  73
ATOM     73  C   UNL A   1      33.997  21.399  24.209  1.00  0.00     0.002 C 
BRANCH  73  74
ATOM     74  C   UNL A   1      32.583  21.663  23.681  1.00  0.00     0.021 C 
BRANCH  74  75
ATOM     75  C   UNL A   1      32.241  23.149  23.542  1.00  0.00     0.116 C 
BRANCH  75  76
ATOM     76  N   UNL A   1      32.838  23.678  22.336  1.00  0.00    -0.351 N 
ATOM     77  C   UNL A   1      32.808  24.932  21.803  1.00  0.00     0.278 C 
ATOM     78  H   UNL A   1      33.353  23.022  21.813  1.00  0.00     0.163 HD
ATOM     79  O   UNL A   1      33.295  25.041  20.672  1.00  0.00    -0.268 OA
BRANCH  77  80
ATOM     80  C   UNL A   1      32.221  26.141  22.581  1.00  0.00     0.277 C 
ATOM     81  C   UNL A   1      33.253  26.440  23.707  1.00  0.00     0.114 C 
ATOM     82  N   UNL A   1      31.989  27.285  21.648  1.00  0.00    -0.324 N 
ATOM     83  C   UNL A   1      33.041  27.789  24.276  1.00  0.00    -0.006 A 
ATOM     84  C   UNL A   1      31.624  28.578  22.267  1.00  0.00     0.264 C 
ATOM     85  H   UNL A   1      31.236  27.021  21.014  1.00  0.00     0.347 HD
ATOM     86  H   UNL A   1      32.888  27.448  21.194  1.00  0.00     0.347 HD
ATOM     87  C   UNL A   1      32.322  28.742  23.590  1.00  0.00     0.083 A 
ATOM     88  C   UNL A   1      33.513  28.364  25.485  1.00  0.00     0.003 A 
ATOM     89  N   UNL A   1      32.375  29.896  24.327  1.00  0.00    -0.353 N 
ATOM     90  C   UNL A   1      33.076  29.690  25.495  1.00  0.00     0.046 A 
ATOM     91  C   UNL A   1      34.276  27.894  26.572  1.00  0.00     0.010 A 
ATOM     92  H   UNL A   1      31.969  30.753  24.060  1.00  0.00     0.166 HD
ATOM     93  C   UNL A   1      33.356  30.568  26.548  1.00  0.00     0.026 A 
ATOM     94  C   UNL A   1      34.560  28.759  27.634  1.00  0.00     0.001 A 
ATOM     95  C   UNL A   1      34.105  30.075  27.621  1.00  0.00     0.002 A 
BRANCH  84  96
ATOM     96  C   UNL A   1      30.128  28.881  22.365  1.00  0.00     0.041 A 
ATOM     97  C   UNL A   1      29.540  30.015  21.805  1.00  0.00     0.093 A 
ATOM     98  C   UNL A   1      29.023  28.166  22.963  1.00  0.00     0.009 A 
ATOM     99  N   UNL A   1      28.222  30.075  22.160  1.00  0.00    -0.361 N 
ATOM    100  C   UNL A   1      27.879  28.962  22.876  1.00  0.00     0.046 A 
ATOM    101  C   UNL A   1      28.860  26.915  23.580  1.00  0.00     0.011 A 
ATOM    102  H   UNL A   1      27.609  30.812  21.933  1.00  0.00     0.166 HD
ATOM    103  C   UNL A   1      26.642  28.606  23.435  1.00  0.00     0.026 A 
ATOM    104  C   UNL A   1      27.641  26.534  24.154  1.00  0.00     0.001 A 
ATOM    105  C   UNL A   1      26.547  27.382  24.093  1.00  0.00     0.002 A 
ENDBRANCH  84  96
ENDBRANCH  77  80
ENDBRANCH  75  76
ENDBRANCH  74  75
ENDBRANCH  73  74
ENDBRANCH  72  73
ENDBRANCH   1  72
TORSDOF 17
ENDMDL
