MODEL 1
REMARK VINA RESULT:     -11.8      0.000      0.000
REMARK SMILES O=C(C[C@H](Cc1ccc(Cl)cc1)C(=O)Nc1cc(Cl)ccc1Cl)NCCCCCCNC(=O)c1ccc(-c2c3nc(c(-c4cc(S(=O)(=O)[O-])ccc4F)c4ccc([nH]4)c(-c4cc(S(=O)(=O)[O-])ccc4F)c4nc(c(-c5cc(S(=O)(=O)[O-])ccc5F)c5ccc2[nH]5)C=C4)C=C3)cc1
REMARK SMILES IDX 27 1 26 2 25 3 24 4 1 5 2 6 3 8 4 9 13 10 14 11 15 12 16 14
REMARK SMILES IDX 17 15 22 16 18 17 21 18 23 19 19 20 20 21 5 22 6 23 7 24
REMARK SMILES IDX 12 25 8 26 11 27 9 28 10 29 28 30 29 31 30 32 31 33 32 34
REMARK SMILES IDX 33 36 34 37 35 38 96 39 36 40 95 41 37 42 38 43 39 44 89 45
REMARK SMILES IDX 40 46 94 47 88 48 90 49 41 50 93 51 87 52 86 53 42 55 74 56
REMARK SMILES IDX 54 57 73 58 55 59 58 60 72 61 91 62 56 63 57 64 71 66 92 67
REMARK SMILES IDX 59 68 43 69 44 70 52 71 45 72 51 73 53 74 50 75 46 76 47 77
REMARK SMILES IDX 48 78 49 79 75 80 76 81 84 82 77 83 83 84 85 85 82 86 78 87
REMARK SMILES IDX 79 88 80 89 81 90 60 91 61 92 69 93 62 94 68 95 70 96 67 97
REMARK SMILES IDX 63 98 64 99 65 100 66 101
REMARK H PARENT 24 7 15 13 31 35 90 54 58 65
REMARK Flexibility Score: inf
ROOT
ATOM      1  C   UNL A   1      31.262  30.294  25.427  1.00  0.00     0.002 C 
ENDROOT
BRANCH   1   2
ATOM      2  C   UNL A   1      31.749  28.870  25.125  1.00  0.00     0.021 C 
BRANCH   2   3
ATOM      3  C   UNL A   1      33.266  28.700  25.242  1.00  0.00     0.116 C 
BRANCH   3   4
ATOM      4  N   UNL A   1      33.702  27.559  24.461  1.00  0.00    -0.356 N 
ATOM      5  O   UNL A   1      33.772  28.702  22.490  1.00  0.00    -0.275 OA
ATOM      6  C   UNL A   1      33.779  27.639  23.099  1.00  0.00     0.220 C 
ATOM      7  H   UNL A   1      33.944  26.720  24.917  1.00  0.00     0.163 HD
BRANCH   6   8
ATOM      8  C   UNL A   1      33.701  26.313  22.388  1.00  0.00     0.113 C 
BRANCH   8   9
ATOM      9  C   UNL A   1      33.460  25.023  23.197  1.00  0.00     0.092 C 
BRANCH   9  10
ATOM     10  C   UNL A   1      31.918  24.660  22.889  1.00  0.00     0.228 C 
ATOM     11  O   UNL A   1      31.135  25.573  22.601  1.00  0.00    -0.274 OA
ATOM     12  N   UNL A   1      31.470  23.334  22.744  1.00  0.00    -0.324 N 
ATOM     13  H   UNL A   1      30.817  23.142  22.032  1.00  0.00     0.169 HD
BRANCH  12  14
ATOM     14  C   UNL A   1      31.899  22.267  23.552  1.00  0.00     0.061 A 
ATOM     15  C   UNL A   1      32.250  20.867  22.596  1.00  0.00     0.048 A 
ATOM     16  C   UNL A   1      31.956  22.088  25.288  1.00  0.00     0.064 A 
ATOM     17  C   UNL A   1      32.585  19.049  23.409  1.00  0.00     0.043 A 
ATOM     18  C   UNL A   1      32.291  20.522  26.113  1.00  0.00     0.024 A 
ATOM     19  Cl  UNL A   1      31.517  23.439  26.268  1.00  0.00    -0.082 Cl
ATOM     20  Cl  UNL A   1      32.909  17.381  22.822  1.00  0.00    -0.084 Cl
ATOM     21  C   UNL A   1      32.604  18.999  25.228  1.00  0.00     0.022 A 
ENDBRANCH  12  14
ENDBRANCH   9  10
BRANCH   9  22
ATOM     22  C   UNL A   1      34.674  23.928  23.392  1.00  0.00     0.049 C 
BRANCH  22  23
ATOM     23  C   UNL A   1      34.888  23.107  24.831  1.00  0.00    -0.047 A 
ATOM     24  C   UNL A   1      35.766  24.282  25.769  1.00  0.00     0.005 A 
ATOM     25  C   UNL A   1      35.496  21.429  24.543  1.00  0.00     0.005 A 
ATOM     26  C   UNL A   1      37.472  23.959  26.140  1.00  0.00     0.021 A 
ATOM     27  C   UNL A   1      37.162  20.928  24.940  1.00  0.00     0.021 A 
ATOM     28  C   UNL A   1      38.278  22.152  25.692  1.00  0.00     0.041 A 
ATOM     29  Cl  UNL A   1      39.887  21.314  25.795  1.00  0.00    -0.084 Cl
ENDBRANCH  22  23
ENDBRANCH   9  22
ENDBRANCH   8   9
ENDBRANCH   6   8
ENDBRANCH   3   4
ENDBRANCH   2   3
ENDBRANCH   1   2
BRANCH   1  30
ATOM     30  C   UNL A   1      31.719  30.846  26.781  1.00  0.00     0.002 C 
BRANCH  30  31
ATOM     31  C   UNL A   1      31.580  32.362  26.924  1.00  0.00     0.021 C 
BRANCH  31  32
ATOM     32  C   UNL A   1      32.903  33.094  27.119  1.00  0.00     0.116 C 
BRANCH  32  33
ATOM     33  N   UNL A   1      32.728  34.345  27.838  1.00  0.00    -0.352 N 
ATOM     34  C   UNL A   1      33.319  34.767  29.003  1.00  0.00     0.251 C 
ATOM     35  H   UNL A   1      32.095  34.980  27.432  1.00  0.00     0.163 HD
ATOM     36  O   UNL A   1      32.883  35.756  29.585  1.00  0.00    -0.269 OA
BRANCH  34  37
ATOM     37  C   UNL A   1      34.460  34.009  29.559  1.00  0.00     0.039 A 
ATOM     38  C   UNL A   1      35.747  34.292  29.100  1.00  0.00     0.014 A 
ATOM     39  C   UNL A   1      34.262  33.036  30.543  1.00  0.00     0.014 A 
ATOM     40  C   UNL A   1      36.842  33.648  29.679  1.00  0.00     0.010 A 
ATOM     41  C   UNL A   1      35.358  32.459  31.177  1.00  0.00     0.010 A 
ATOM     42  C   UNL A   1      36.661  32.762  30.754  1.00  0.00    -0.014 A 
BRANCH  42  43
ATOM     43  C   UNL A   1      37.827  32.167  31.458  1.00  0.00     0.031 A 
ATOM     44  C   UNL A   1      38.608  31.047  30.830  1.00  0.00     0.074 A 
ATOM     45  C   UNL A   1      38.145  32.601  32.694  1.00  0.00     0.049 A 
ATOM     46  N   UNL A   1      39.617  30.369  31.314  1.00  0.00    -0.248 NA
ATOM     47  C   UNL A   1      38.177  30.615  29.494  1.00  0.00     0.031 C 
ATOM     48  C   UNL A   1      37.430  33.649  33.426  1.00  0.00     0.029 A 
ATOM     49  N   UNL A   1      39.140  32.214  33.555  1.00  0.00    -0.354 N 
ATOM     50  C   UNL A   1      39.944  29.429  30.342  1.00  0.00     0.074 A 
ATOM     51  C   UNL A   1      38.972  29.578  29.279  1.00  0.00     0.031 C 
ATOM     52  C   UNL A   1      38.027  33.840  34.612  1.00  0.00     0.029 A 
ATOM     53  C   UNL A   1      39.128  32.891  34.753  1.00  0.00     0.049 A 
ATOM     54  H   UNL A   1      39.800  31.517  33.337  1.00  0.00     0.167 HD
ATOM     55  C   UNL A   1      40.974  28.546  30.327  1.00  0.00     0.034 A 
ATOM     56  C   UNL A   1      39.897  32.752  35.850  1.00  0.00     0.034 A 
ATOM     57  C   UNL A   1      41.921  28.403  31.407  1.00  0.00     0.049 A 
ATOM     58  C   UNL A   1      40.998  31.724  35.840  1.00  0.00     0.074 A 
ATOM     59  C   UNL A   1      43.027  27.573  31.480  1.00  0.00     0.029 A 
ATOM     60  N   UNL A   1      41.865  29.091  32.614  1.00  0.00    -0.354 N 
ATOM     61  N   UNL A   1      41.334  30.884  34.888  1.00  0.00    -0.248 NA
ATOM     62  C   UNL A   1      41.828  31.632  37.047  1.00  0.00     0.031 C 
ATOM     63  C   UNL A   1      43.582  27.693  32.759  1.00  0.00     0.029 A 
ATOM     64  C   UNL A   1      42.886  28.669  33.454  1.00  0.00     0.049 A 
ATOM     65  H   UNL A   1      41.198  29.779  32.840  1.00  0.00     0.167 HD
ATOM     66  C   UNL A   1      42.430  30.176  35.376  1.00  0.00     0.074 A 
ATOM     67  C   UNL A   1      42.708  30.705  36.696  1.00  0.00     0.031 C 
ATOM     68  C   UNL A   1      43.141  29.182  34.782  1.00  0.00     0.034 A 
BRANCH  55  69
ATOM     69  C   UNL A   1      41.094  27.647  29.116  1.00  0.00     0.023 A 
ATOM     70  C   UNL A   1      42.090  27.852  28.143  1.00  0.00     0.031 A 
ATOM     71  C   UNL A   1      40.173  26.608  28.897  1.00  0.00     0.131 A 
ATOM     72  C   UNL A   1      42.077  27.106  26.955  1.00  0.00     0.055 A 
ATOM     73  C   UNL A   1      40.228  25.800  27.759  1.00  0.00     0.041 A 
ATOM     74  F   UNL A   1      39.184  26.373  29.774  1.00  0.00    -0.206 F 
ATOM     75  C   UNL A   1      41.170  26.061  26.768  1.00  0.00     0.022 A 
BRANCH  72  76
ATOM     76  S   UNL A   1      43.129  27.653  25.582  1.00  0.00     0.124 S 
ATOM     77  O   UNL A   1      43.673  26.383  25.105  1.00  0.00    -0.237 OA
ATOM     78  O   UNL A   1      42.176  28.312  24.697  1.00  0.00    -0.237 OA
ATOM     79  O   UNL A   1      44.100  28.534  26.225  1.00  0.00    -0.744 OA
ENDBRANCH  72  76
ENDBRANCH  55  69
BRANCH  56  80
ATOM     80  C   UNL A   1      39.628  33.585  37.057  1.00  0.00     0.023 A 
ATOM     81  C   UNL A   1      38.919  33.076  38.157  1.00  0.00     0.031 A 
ATOM     82  C   UNL A   1      40.078  34.917  37.124  1.00  0.00     0.131 A 
ATOM     83  C   UNL A   1      38.655  33.902  39.261  1.00  0.00     0.055 A 
ATOM     84  C   UNL A   1      39.863  35.716  38.247  1.00  0.00     0.041 A 
ATOM     85  F   UNL A   1      40.762  35.454  36.100  1.00  0.00    -0.206 F 
ATOM     86  C   UNL A   1      39.138  35.211  39.322  1.00  0.00     0.022 A 
BRANCH  83  87
ATOM     87  S   UNL A   1      37.605  33.264  40.595  1.00  0.00     0.124 S 
ATOM     88  O   UNL A   1      37.542  34.408  41.497  1.00  0.00    -0.237 OA
ATOM     89  O   UNL A   1      36.373  32.939  39.883  1.00  0.00    -0.237 OA
ATOM     90  O   UNL A   1      38.353  32.114  41.096  1.00  0.00    -0.744 OA
ENDBRANCH  83  87
ENDBRANCH  56  80
BRANCH  68  91
ATOM     91  C   UNL A   1      44.311  28.619  35.555  1.00  0.00     0.023 A 
ATOM     92  C   UNL A   1      44.157  27.563  36.471  1.00  0.00     0.031 A 
ATOM     93  C   UNL A   1      45.601  29.154  35.380  1.00  0.00     0.131 A 
ATOM     94  C   UNL A   1      45.258  27.117  37.218  1.00  0.00     0.055 A 
ATOM     95  C   UNL A   1      46.706  28.656  36.072  1.00  0.00     0.041 A 
ATOM     96  F   UNL A   1      45.810  30.169  34.526  1.00  0.00    -0.206 F 
ATOM     97  C   UNL A   1      46.536  27.641  37.008  1.00  0.00     0.022 A 
BRANCH  94  98
ATOM     98  S   UNL A   1      44.977  25.917  38.550  1.00  0.00     0.124 S 
ATOM     99  O   UNL A   1      44.156  24.913  37.882  1.00  0.00    -0.237 OA
ATOM    100  O   UNL A   1      46.335  25.506  38.891  1.00  0.00    -0.237 OA
ATOM    101  O   UNL A   1      44.290  26.698  39.576  1.00  0.00    -0.744 OA
ENDBRANCH  94  98
ENDBRANCH  68  91
ENDBRANCH  42  43
ENDBRANCH  34  37
ENDBRANCH  32  33
ENDBRANCH  31  32
ENDBRANCH  30  31
ENDBRANCH   1  30
TORSDOF 21
ENDMDL
MODEL 2
REMARK VINA RESULT:     -11.3      1.953      8.135
REMARK SMILES O=C(C[C@H](Cc1ccc(Cl)cc1)C(=O)Nc1cc(Cl)ccc1Cl)NCCCCCCNC(=O)c1ccc(-c2c3nc(c(-c4cc(S(=O)(=O)[O-])ccc4F)c4ccc([nH]4)c(-c4cc(S(=O)(=O)[O-])ccc4F)c4nc(c(-c5cc(S(=O)(=O)[O-])ccc5F)c5ccc2[nH]5)C=C4)C=C3)cc1
REMARK SMILES IDX 27 1 26 2 25 3 24 4 1 5 2 6 3 8 4 9 13 10 14 11 15 12 16 14
REMARK SMILES IDX 17 15 22 16 18 17 21 18 23 19 19 20 20 21 5 22 6 23 7 24
REMARK SMILES IDX 12 25 8 26 11 27 9 28 10 29 28 30 29 31 30 32 31 33 32 34
REMARK SMILES IDX 33 36 34 37 35 38 96 39 36 40 95 41 37 42 38 43 39 44 89 45
REMARK SMILES IDX 40 46 94 47 88 48 90 49 41 50 93 51 87 52 86 53 42 55 74 56
REMARK SMILES IDX 54 57 73 58 55 59 58 60 72 61 91 62 56 63 57 64 71 66 92 67
REMARK SMILES IDX 59 68 43 69 44 70 52 71 45 72 51 73 53 74 50 75 46 76 47 77
REMARK SMILES IDX 48 78 49 79 75 80 76 81 84 82 77 83 83 84 85 85 82 86 78 87
REMARK SMILES IDX 79 88 80 89 81 90 60 91 61 92 69 93 62 94 68 95 70 96 67 97
REMARK SMILES IDX 63 98 64 99 65 100 66 101
REMARK H PARENT 24 7 15 13 31 35 90 54 58 65
REMARK Flexibility Score: inf
ROOT
ATOM      1  C   UNL A   1      34.641  29.743  27.926  1.00  0.00     0.002 C 
ENDROOT
BRANCH   1   2
ATOM      2  C   UNL A   1      34.404  29.256  26.490  1.00  0.00     0.021 C 
BRANCH   2   3
ATOM      3  C   UNL A   1      32.925  29.165  26.107  1.00  0.00     0.116 C 
BRANCH   3   4
ATOM      4  N   UNL A   1      32.540  27.778  25.929  1.00  0.00    -0.356 N 
ATOM      5  O   UNL A   1      31.122  27.751  27.714  1.00  0.00    -0.275 OA
ATOM      6  C   UNL A   1      31.762  27.149  26.859  1.00  0.00     0.220 C 
ATOM      7  H   UNL A   1      32.842  27.287  25.131  1.00  0.00     0.163 HD
BRANCH   6   8
ATOM      8  C   UNL A   1      31.882  25.647  26.865  1.00  0.00     0.113 C 
BRANCH   8   9
ATOM      9  C   UNL A   1      30.961  24.802  25.963  1.00  0.00     0.092 C 
BRANCH   9  10
ATOM     10  C   UNL A   1      30.997  23.338  26.643  1.00  0.00     0.228 C 
ATOM     11  O   UNL A   1      30.294  23.124  27.637  1.00  0.00    -0.274 OA
ATOM     12  N   UNL A   1      31.642  22.243  26.040  1.00  0.00    -0.324 N 
ATOM     13  H   UNL A   1      31.198  21.365  26.079  1.00  0.00     0.169 HD
BRANCH  12  14
ATOM     14  C   UNL A   1      32.883  22.326  25.382  1.00  0.00     0.061 A 
ATOM     15  C   UNL A   1      34.119  22.882  26.459  1.00  0.00     0.048 A 
ATOM     16  C   UNL A   1      33.308  22.142  23.699  1.00  0.00     0.064 A 
ATOM     17  C   UNL A   1      35.953  23.433  25.819  1.00  0.00     0.043 A 
ATOM     18  C   UNL A   1      34.928  22.562  23.034  1.00  0.00     0.024 A 
ATOM     19  Cl  UNL A   1      32.072  21.684  22.585  1.00  0.00    -0.082 Cl
ATOM     20  Cl  UNL A   1      37.457  24.101  26.544  1.00  0.00    -0.084 Cl
ATOM     21  C   UNL A   1      36.261  23.203  24.041  1.00  0.00     0.022 A 
ENDBRANCH  12  14
ENDBRANCH   9  10
BRANCH   9  22
ATOM     22  C   UNL A   1      29.646  25.487  25.248  1.00  0.00     0.049 C 
BRANCH  22  23
ATOM     23  C   UNL A   1      29.662  25.946  23.642  1.00  0.00    -0.047 A 
ATOM     24  C   UNL A   1      30.779  24.793  22.968  1.00  0.00     0.005 A 
ATOM     25  C   UNL A   1      29.875  27.733  23.474  1.00  0.00     0.005 A 
ATOM     26  C   UNL A   1      32.366  25.376  22.425  1.00  0.00     0.021 A 
ATOM     27  C   UNL A   1      31.383  28.469  22.866  1.00  0.00     0.021 A 
ATOM     28  C   UNL A   1      32.744  27.369  22.369  1.00  0.00     0.041 A 
ATOM     29  Cl  UNL A   1      34.121  28.483  21.965  1.00  0.00    -0.084 Cl
ENDBRANCH  22  23
ENDBRANCH   9  22
ENDBRANCH   8   9
ENDBRANCH   6   8
ENDBRANCH   3   4
ENDBRANCH   2   3
ENDBRANCH   1   2
BRANCH   1  30
ATOM     30  C   UNL A   1      35.580  30.949  28.039  1.00  0.00     0.002 C 
BRANCH  30  31
ATOM     31  C   UNL A   1      34.957  32.276  27.604  1.00  0.00     0.021 C 
BRANCH  31  32
ATOM     32  C   UNL A   1      33.502  32.450  28.027  1.00  0.00     0.116 C 
BRANCH  32  33
ATOM     33  N   UNL A   1      33.249  33.780  28.556  1.00  0.00    -0.352 N 
ATOM     34  C   UNL A   1      33.799  34.398  29.651  1.00  0.00     0.251 C 
ATOM     35  H   UNL A   1      32.589  34.314  28.058  1.00  0.00     0.163 HD
ATOM     36  O   UNL A   1      33.302  35.435  30.081  1.00  0.00    -0.269 OA
BRANCH  34  37
ATOM     37  C   UNL A   1      34.971  33.793  30.320  1.00  0.00     0.039 A 
ATOM     38  C   UNL A   1      34.766  32.763  31.239  1.00  0.00     0.014 A 
ATOM     39  C   UNL A   1      36.267  34.227  30.027  1.00  0.00     0.014 A 
ATOM     40  C   UNL A   1      35.866  32.122  31.811  1.00  0.00     0.010 A 
ATOM     41  C   UNL A   1      37.361  33.532  30.532  1.00  0.00     0.010 A 
ATOM     42  C   UNL A   1      37.172  32.469  31.427  1.00  0.00    -0.014 A 
BRANCH  42  43
ATOM     43  C   UNL A   1      38.345  31.710  31.935  1.00  0.00     0.031 A 
ATOM     44  C   UNL A   1      38.981  32.076  33.247  1.00  0.00     0.074 A 
ATOM     45  C   UNL A   1      38.872  30.724  31.182  1.00  0.00     0.049 A 
ATOM     46  N   UNL A   1      40.039  31.566  33.825  1.00  0.00    -0.248 NA
ATOM     47  C   UNL A   1      38.361  33.180  33.992  1.00  0.00     0.031 C 
ATOM     48  C   UNL A   1      38.371  30.310  29.870  1.00  0.00     0.029 A 
ATOM     49  N   UNL A   1      39.945  29.899  31.403  1.00  0.00    -0.354 N 
ATOM     50  C   UNL A   1      40.212  32.287  35.002  1.00  0.00     0.074 A 
ATOM     51  C   UNL A   1      39.196  33.319  35.009  1.00  0.00     0.031 C 
ATOM     52  C   UNL A   1      39.117  29.292  29.417  1.00  0.00     0.029 A 
ATOM     53  C   UNL A   1      40.185  29.018  30.373  1.00  0.00     0.049 A 
ATOM     54  H   UNL A   1      40.492  29.933  32.221  1.00  0.00     0.167 HD
ATOM     55  C   UNL A   1      41.117  32.088  35.994  1.00  0.00     0.034 A 
ATOM     56  C   UNL A   1      41.165  28.108  30.204  1.00  0.00     0.034 A 
ATOM     57  C   UNL A   1      42.133  31.063  35.956  1.00  0.00     0.049 A 
ATOM     58  C   UNL A   1      42.197  27.942  31.288  1.00  0.00     0.074 A 
ATOM     59  C   UNL A   1      43.072  30.744  36.922  1.00  0.00     0.029 A 
ATOM     60  N   UNL A   1      42.360  30.203  34.887  1.00  0.00    -0.354 N 
ATOM     61  N   UNL A   1      42.312  28.590  32.425  1.00  0.00    -0.248 NA
ATOM     62  C   UNL A   1      43.226  26.917  31.071  1.00  0.00     0.031 C 
ATOM     63  C   UNL A   1      43.919  29.759  36.403  1.00  0.00     0.029 A 
ATOM     64  C   UNL A   1      43.453  29.388  35.151  1.00  0.00     0.049 A 
ATOM     65  H   UNL A   1      41.823  30.175  34.063  1.00  0.00     0.167 HD
ATOM     66  C   UNL A   1      43.416  28.036  33.068  1.00  0.00     0.074 A 
ATOM     67  C   UNL A   1      43.915  26.988  32.200  1.00  0.00     0.031 C 
ATOM     68  C   UNL A   1      43.963  28.363  34.268  1.00  0.00     0.034 A 
BRANCH  55  69
ATOM     69  C   UNL A   1      41.060  33.028  37.178  1.00  0.00     0.023 A 
ATOM     70  C   UNL A   1      40.338  32.703  38.341  1.00  0.00     0.031 A 
ATOM     71  C   UNL A   1      41.685  34.286  37.128  1.00  0.00     0.131 A 
ATOM     72  C   UNL A   1      40.170  33.660  39.354  1.00  0.00     0.055 A 
ATOM     73  C   UNL A   1      41.600  35.195  38.186  1.00  0.00     0.041 A 
ATOM     74  F   UNL A   1      42.372  34.668  36.039  1.00  0.00    -0.206 F 
ATOM     75  C   UNL A   1      40.821  34.894  39.298  1.00  0.00     0.022 A 
BRANCH  72  76
ATOM     76  S   UNL A   1      38.933  33.342  40.643  1.00  0.00     0.124 S 
ATOM     77  O   UNL A   1      39.277  31.980  41.049  1.00  0.00    -0.237 OA
ATOM     78  O   UNL A   1      39.215  34.389  41.617  1.00  0.00    -0.237 OA
ATOM     79  O   UNL A   1      37.661  33.469  39.936  1.00  0.00    -0.744 OA
ENDBRANCH  72  76
ENDBRANCH  55  69
BRANCH  56  80
ATOM     80  C   UNL A   1      41.231  27.312  28.945  1.00  0.00     0.023 A 
ATOM     81  C   UNL A   1      42.198  27.574  27.962  1.00  0.00     0.031 A 
ATOM     82  C   UNL A   1      40.313  26.272  28.706  1.00  0.00     0.131 A 
ATOM     83  C   UNL A   1      42.207  26.826  26.774  1.00  0.00     0.055 A 
ATOM     84  C   UNL A   1      40.361  25.494  27.549  1.00  0.00     0.041 A 
ATOM     85  F   UNL A   1      39.367  25.979  29.614  1.00  0.00    -0.206 F 
ATOM     86  C   UNL A   1      41.308  25.776  26.569  1.00  0.00     0.022 A 
BRANCH  83  87
ATOM     87  S   UNL A   1      43.367  27.290  25.460  1.00  0.00     0.124 S 
ATOM     88  O   UNL A   1      42.510  28.055  24.563  1.00  0.00    -0.237 OA
ATOM     89  O   UNL A   1      44.370  28.052  26.197  1.00  0.00    -0.237 OA
ATOM     90  O   UNL A   1      43.825  26.004  24.941  1.00  0.00    -0.744 OA
ENDBRANCH  83  87
ENDBRANCH  56  80
BRANCH  68  91
ATOM     91  C   UNL A   1      45.156  27.555  34.723  1.00  0.00     0.023 A 
ATOM     92  C   UNL A   1      45.010  26.368  35.463  1.00  0.00     0.031 A 
ATOM     93  C   UNL A   1      46.462  27.985  34.420  1.00  0.00     0.131 A 
ATOM     94  C   UNL A   1      46.146  25.686  35.924  1.00  0.00     0.055 A 
ATOM     95  C   UNL A   1      47.586  27.261  34.819  1.00  0.00     0.041 A 
ATOM     96  F   UNL A   1      46.665  29.115  33.724  1.00  0.00    -0.206 F 
ATOM     97  C   UNL A   1      47.433  26.112  35.588  1.00  0.00     0.022 A 
BRANCH  94  98
ATOM     98  S   UNL A   1      45.921  24.293  37.066  1.00  0.00     0.124 S 
ATOM     99  O   UNL A   1      47.208  23.613  36.968  1.00  0.00    -0.237 OA
ATOM    100  O   UNL A   1      45.649  24.967  38.331  1.00  0.00    -0.237 OA
ATOM    101  O   UNL A   1      44.790  23.564  36.497  1.00  0.00    -0.744 OA
ENDBRANCH  94  98
ENDBRANCH  68  91
ENDBRANCH  42  43
ENDBRANCH  34  37
ENDBRANCH  32  33
ENDBRANCH  31  32
ENDBRANCH  30  31
ENDBRANCH   1  30
TORSDOF 21
ENDMDL
MODEL 3
REMARK VINA RESULT:     -11.3      2.102      7.766
REMARK SMILES O=C(C[C@H](Cc1ccc(Cl)cc1)C(=O)Nc1cc(Cl)ccc1Cl)NCCCCCCNC(=O)c1ccc(-c2c3nc(c(-c4cc(S(=O)(=O)[O-])ccc4F)c4ccc([nH]4)c(-c4cc(S(=O)(=O)[O-])ccc4F)c4nc(c(-c5cc(S(=O)(=O)[O-])ccc5F)c5ccc2[nH]5)C=C4)C=C3)cc1
REMARK SMILES IDX 27 1 26 2 25 3 24 4 1 5 2 6 3 8 4 9 13 10 14 11 15 12 16 14
REMARK SMILES IDX 17 15 22 16 18 17 21 18 23 19 19 20 20 21 5 22 6 23 7 24
REMARK SMILES IDX 12 25 8 26 11 27 9 28 10 29 28 30 29 31 30 32 31 33 32 34
REMARK SMILES IDX 33 36 34 37 35 38 96 39 36 40 95 41 37 42 38 43 39 44 89 45
REMARK SMILES IDX 40 46 94 47 88 48 90 49 41 50 93 51 87 52 86 53 42 55 74 56
REMARK SMILES IDX 54 57 73 58 55 59 58 60 72 61 91 62 56 63 57 64 71 66 92 67
REMARK SMILES IDX 59 68 43 69 44 70 52 71 45 72 51 73 53 74 50 75 46 76 47 77
REMARK SMILES IDX 48 78 49 79 75 80 76 81 84 82 77 83 83 84 85 85 82 86 78 87
REMARK SMILES IDX 79 88 80 89 81 90 60 91 61 92 69 93 62 94 68 95 70 96 67 97
REMARK SMILES IDX 63 98 64 99 65 100 66 101
REMARK H PARENT 24 7 15 13 31 35 90 54 58 65
REMARK Flexibility Score: inf
ROOT
ATOM      1  C   UNL A   1      34.071  29.798  27.431  1.00  0.00     0.002 C 
ENDROOT
BRANCH   1   2
ATOM      2  C   UNL A   1      32.926  29.892  26.413  1.00  0.00     0.021 C 
BRANCH   2   3
ATOM      3  C   UNL A   1      31.856  28.811  26.589  1.00  0.00     0.116 C 
BRANCH   3   4
ATOM      4  N   UNL A   1      32.276  27.584  25.942  1.00  0.00    -0.356 N 
ATOM      5  O   UNL A   1      30.466  26.383  26.635  1.00  0.00    -0.275 OA
ATOM      6  C   UNL A   1      31.592  26.420  26.151  1.00  0.00     0.220 C 
ATOM      7  H   UNL A   1      33.061  27.590  25.347  1.00  0.00     0.163 HD
BRANCH   6   8
ATOM      8  C   UNL A   1      32.391  25.168  25.900  1.00  0.00     0.113 C 
BRANCH   8   9
ATOM      9  C   UNL A   1      31.699  23.923  25.313  1.00  0.00     0.092 C 
BRANCH   9  10
ATOM     10  C   UNL A   1      31.519  22.947  26.587  1.00  0.00     0.228 C 
ATOM     11  O   UNL A   1      30.896  23.360  27.572  1.00  0.00    -0.274 OA
ATOM     12  N   UNL A   1      31.871  21.585  26.549  1.00  0.00    -0.324 N 
ATOM     13  H   UNL A   1      31.270  20.940  26.987  1.00  0.00     0.169 HD
BRANCH  12  14
ATOM     14  C   UNL A   1      33.028  21.089  25.921  1.00  0.00     0.061 A 
ATOM     15  C   UNL A   1      32.710  19.577  25.142  1.00  0.00     0.048 A 
ATOM     16  C   UNL A   1      34.683  21.641  25.958  1.00  0.00     0.064 A 
ATOM     17  C   UNL A   1      34.178  18.400  24.409  1.00  0.00     0.043 A 
ATOM     18  C   UNL A   1      36.060  20.690  25.293  1.00  0.00     0.024 A 
ATOM     19  Cl  UNL A   1      35.046  23.096  26.813  1.00  0.00    -0.082 Cl
ATOM     20  Cl  UNL A   1      34.307  16.793  23.615  1.00  0.00    -0.084 Cl
ATOM     21  C   UNL A   1      35.860  19.087  24.522  1.00  0.00     0.022 A 
ENDBRANCH  12  14
ENDBRANCH   9  10
BRANCH   9  22
ATOM     22  C   UNL A   1      30.625  24.077  24.075  1.00  0.00     0.049 C 
BRANCH  22  23
ATOM     23  C   UNL A   1      31.056  24.790  22.626  1.00  0.00    -0.047 A 
ATOM     24  C   UNL A   1      32.694  24.227  22.442  1.00  0.00     0.005 A 
ATOM     25  C   UNL A   1      30.611  26.541  22.600  1.00  0.00     0.005 A 
ATOM     26  C   UNL A   1      34.013  25.404  22.609  1.00  0.00     0.021 A 
ATOM     27  C   UNL A   1      31.829  27.844  22.678  1.00  0.00     0.021 A 
ATOM     28  C   UNL A   1      33.587  27.383  22.756  1.00  0.00     0.041 A 
ATOM     29  Cl  UNL A   1      34.472  28.954  22.976  1.00  0.00    -0.084 Cl
ENDBRANCH  22  23
ENDBRANCH   9  22
ENDBRANCH   8   9
ENDBRANCH   6   8
ENDBRANCH   3   4
ENDBRANCH   2   3
ENDBRANCH   1   2
BRANCH   1  30
ATOM     30  C   UNL A   1      34.519  31.146  28.006  1.00  0.00     0.002 C 
BRANCH  30  31
ATOM     31  C   UNL A   1      33.949  32.363  27.279  1.00  0.00     0.021 C 
BRANCH  31  32
ATOM     32  C   UNL A   1      32.617  32.854  27.835  1.00  0.00     0.116 C 
BRANCH  32  33
ATOM     33  N   UNL A   1      32.586  34.302  27.964  1.00  0.00    -0.352 N 
ATOM     34  C   UNL A   1      33.312  35.115  28.799  1.00  0.00     0.251 C 
ATOM     35  H   UNL A   1      31.955  34.766  27.369  1.00  0.00     0.163 HD
ATOM     36  O   UNL A   1      32.994  36.292  28.933  1.00  0.00    -0.269 OA
BRANCH  34  37
ATOM     37  C   UNL A   1      34.456  34.554  29.551  1.00  0.00     0.039 A 
ATOM     38  C   UNL A   1      34.211  33.878  30.748  1.00  0.00     0.014 A 
ATOM     39  C   UNL A   1      35.761  34.679  29.068  1.00  0.00     0.014 A 
ATOM     40  C   UNL A   1      35.270  33.268  31.422  1.00  0.00     0.010 A 
ATOM     41  C   UNL A   1      36.800  33.999  29.695  1.00  0.00     0.010 A 
ATOM     42  C   UNL A   1      36.565  33.283  30.878  1.00  0.00    -0.014 A 
BRANCH  42  43
ATOM     43  C   UNL A   1      37.673  32.531  31.523  1.00  0.00     0.031 A 
ATOM     44  C   UNL A   1      38.226  32.974  32.848  1.00  0.00     0.074 A 
ATOM     45  C   UNL A   1      38.220  31.479  30.882  1.00  0.00     0.049 A 
ATOM     46  N   UNL A   1      39.224  32.479  33.536  1.00  0.00    -0.248 NA
ATOM     47  C   UNL A   1      37.592  34.147  33.465  1.00  0.00     0.031 C 
ATOM     48  C   UNL A   1      37.800  30.984  29.569  1.00  0.00     0.029 A 
ATOM     49  N   UNL A   1      39.247  30.643  31.238  1.00  0.00    -0.354 N 
ATOM     50  C   UNL A   1      39.337  33.279  34.669  1.00  0.00     0.074 A 
ATOM     51  C   UNL A   1      38.357  34.336  34.529  1.00  0.00     0.031 C 
ATOM     52  C   UNL A   1      38.542  29.915  29.245  1.00  0.00     0.029 A 
ATOM     53  C   UNL A   1      39.531  29.682  30.294  1.00  0.00     0.049 A 
ATOM     54  H   UNL A   1      39.736  30.722  32.090  1.00  0.00     0.167 HD
ATOM     55  C   UNL A   1      40.162  33.129  35.736  1.00  0.00     0.034 A 
ATOM     56  C   UNL A   1      40.489  28.737  30.262  1.00  0.00     0.034 A 
ATOM     57  C   UNL A   1      41.144  32.076  35.845  1.00  0.00     0.049 A 
ATOM     58  C   UNL A   1      41.437  28.622  31.427  1.00  0.00     0.074 A 
ATOM     59  C   UNL A   1      42.001  31.803  36.897  1.00  0.00     0.029 A 
ATOM     60  N   UNL A   1      41.418  31.134  34.860  1.00  0.00    -0.354 N 
ATOM     61  N   UNL A   1      41.492  29.348  32.521  1.00  0.00    -0.248 NA
ATOM     62  C   UNL A   1      42.444  27.556  31.359  1.00  0.00     0.031 C 
ATOM     63  C   UNL A   1      42.850  30.760  36.512  1.00  0.00     0.029 A 
ATOM     64  C   UNL A   1      42.462  30.312  35.259  1.00  0.00     0.049 A 
ATOM     65  H   UNL A   1      40.940  31.061  34.002  1.00  0.00     0.167 HD
ATOM     66  C   UNL A   1      42.529  28.812  33.280  1.00  0.00     0.074 A 
ATOM     67  C   UNL A   1      43.054  27.690  32.528  1.00  0.00     0.031 C 
ATOM     68  C   UNL A   1      43.000  29.211  34.491  1.00  0.00     0.034 A 
BRANCH  55  69
ATOM     69  C   UNL A   1      40.052  34.154  36.843  1.00  0.00     0.023 A 
ATOM     70  C   UNL A   1      40.999  35.184  36.989  1.00  0.00     0.031 A 
ATOM     71  C   UNL A   1      39.023  34.073  37.798  1.00  0.00     0.131 A 
ATOM     72  C   UNL A   1      40.961  36.019  38.117  1.00  0.00     0.055 A 
ATOM     73  C   UNL A   1      38.932  34.973  38.862  1.00  0.00     0.041 A 
ATOM     74  F   UNL A   1      38.100  33.101  37.729  1.00  0.00    -0.206 F 
ATOM     75  C   UNL A   1      39.916  35.940  39.039  1.00  0.00     0.022 A 
BRANCH  72  76
ATOM     76  S   UNL A   1      42.399  37.070  38.459  1.00  0.00     0.124 S 
ATOM     77  O   UNL A   1      42.993  37.197  37.129  1.00  0.00    -0.237 OA
ATOM     78  O   UNL A   1      41.788  38.276  39.004  1.00  0.00    -0.237 OA
ATOM     79  O   UNL A   1      43.182  36.281  39.407  1.00  0.00    -0.744 OA
ENDBRANCH  72  76
ENDBRANCH  55  69
BRANCH  56  80
ATOM     80  C   UNL A   1      40.618  27.849  29.071  1.00  0.00     0.023 A 
ATOM     81  C   UNL A   1      41.523  28.136  28.037  1.00  0.00     0.031 A 
ATOM     82  C   UNL A   1      39.825  26.693  28.949  1.00  0.00     0.131 A 
ATOM     83  C   UNL A   1      41.591  27.296  26.914  1.00  0.00     0.055 A 
ATOM     84  C   UNL A   1      39.936  25.830  27.859  1.00  0.00     0.041 A 
ATOM     85  F   UNL A   1      38.943  26.371  29.910  1.00  0.00    -0.206 F 
ATOM     86  C   UNL A   1      40.818  26.135  26.827  1.00  0.00     0.022 A 
BRANCH  83  87
ATOM     87  S   UNL A   1      42.656  27.778  25.528  1.00  0.00     0.124 S 
ATOM     88  O   UNL A   1      42.577  26.601  24.670  1.00  0.00    -0.237 OA
ATOM     89  O   UNL A   1      41.988  28.978  25.035  1.00  0.00    -0.237 OA
ATOM     90  O   UNL A   1      43.954  28.005  26.159  1.00  0.00    -0.744 OA
ENDBRANCH  83  87
ENDBRANCH  56  80
BRANCH  68  91
ATOM     91  C   UNL A   1      44.130  28.405  35.088  1.00  0.00     0.023 A 
ATOM     92  C   UNL A   1      43.900  27.393  36.036  1.00  0.00     0.031 A 
ATOM     93  C   UNL A   1      45.462  28.662  34.708  1.00  0.00     0.131 A 
ATOM     94  C   UNL A   1      44.985  26.717  36.616  1.00  0.00     0.055 A 
ATOM     95  C   UNL A   1      46.530  27.935  35.235  1.00  0.00     0.041 A 
ATOM     96  F   UNL A   1      45.745  29.622  33.813  1.00  0.00    -0.206 F 
ATOM     97  C   UNL A   1      46.297  26.965  36.205  1.00  0.00     0.022 A 
BRANCH  94  98
ATOM     98  S   UNL A   1      44.667  25.585  37.998  1.00  0.00     0.124 S 
ATOM     99  O   UNL A   1      46.018  25.269  38.446  1.00  0.00    -0.237 OA
ATOM    100  O   UNL A   1      43.871  26.410  38.901  1.00  0.00    -0.237 OA
ATOM    101  O   UNL A   1      43.946  24.478  37.373  1.00  0.00    -0.744 OA
ENDBRANCH  94  98
ENDBRANCH  68  91
ENDBRANCH  42  43
ENDBRANCH  34  37
ENDBRANCH  32  33
ENDBRANCH  31  32
ENDBRANCH  30  31
ENDBRANCH   1  30
TORSDOF 21
ENDMDL
