MODEL 1
REMARK VINA RESULT:     -10.7      0.000      0.000
REMARK SMILES NS(=O)(=O)c1ccc(-n2nc(C(=O)NCCCC(=O)NCCCCCCNC(=O)c3ccc(-c4c5nc(c(-c6cc(S(=O)(=O)[O-])ccc6F)c6ccc([nH]6)c(-c6cc(S(=O)(=O)[O-])ccc6F)c6nc(c(-c7cc(S(=O)(=O)[O-])ccc7F)c7ccc4[nH]7)C=C6)C=C5)cc3)cc2-c2ccccc2)cc1
REMARK SMILES IDX 21 1 20 2 18 3 19 4 17 6 16 7 15 8 14 9 12 10 13 11 11 13
REMARK SMILES IDX 9 14 10 15 94 16 93 17 8 18 5 19 6 20 102 21 7 22 101 23
REMARK SMILES IDX 2 24 3 25 4 26 1 27 95 30 96 31 100 32 97 33 99 34 98 35
REMARK SMILES IDX 22 36 23 37 24 38 25 39 26 40 27 41 28 42 29 44 30 45 31 46
REMARK SMILES IDX 92 47 32 48 91 49 33 50 34 51 35 52 85 53 36 54 90 55 84 56
REMARK SMILES IDX 86 57 37 58 89 59 83 60 82 61 38 63 70 64 50 65 69 66 51 67
REMARK SMILES IDX 54 68 68 69 87 70 52 71 53 72 67 74 88 75 55 76 39 77 40 78
REMARK SMILES IDX 48 79 41 80 47 81 49 82 46 83 42 84 43 85 44 86 45 87 71 88
REMARK SMILES IDX 72 89 80 90 73 91 79 92 81 93 78 94 74 95 75 96 76 97 77 98
REMARK SMILES IDX 56 99 57 100 65 101 58 102 64 103 66 104 63 105 59 106
REMARK SMILES IDX 60 107 61 108 62 109
REMARK H PARENT 20 5 14 12 1 28 1 29 27 43 86 62 54 73
REMARK Flexibility Score: inf
ROOT
ATOM      1  C   UNL A   1      33.912  31.419  27.284  1.00  0.00     0.116 C 
ENDROOT
BRANCH   1   2
ATOM      2  N   UNL A   1      34.278  30.028  27.126  1.00  0.00    -0.356 N 
ATOM      3  C   UNL A   1      33.806  29.090  26.261  1.00  0.00     0.220 C 
ATOM      4  O   UNL A   1      34.217  27.933  26.371  1.00  0.00    -0.275 OA
ATOM      5  H   UNL A   1      34.978  29.709  27.740  1.00  0.00     0.163 HD
BRANCH   3   6
ATOM      6  C   UNL A   1      32.836  29.469  25.158  1.00  0.00     0.102 C 
BRANCH   6   7
ATOM      7  C   UNL A   1      33.334  29.217  23.735  1.00  0.00     0.031 C 
BRANCH   7   8
ATOM      8  C   UNL A   1      33.715  27.776  23.401  1.00  0.00     0.116 C 
BRANCH   8   9
ATOM      9  N   UNL A   1      33.518  27.382  22.009  1.00  0.00    -0.351 N 
ATOM     10  C   UNL A   1      33.165  26.150  21.468  1.00  0.00     0.271 C 
ATOM     11  O   UNL A   1      33.009  26.094  20.248  1.00  0.00    -0.267 OA
ATOM     12  H   UNL A   1      33.657  28.100  21.351  1.00  0.00     0.163 HD
BRANCH  10  13
ATOM     13  C   UNL A   1      33.003  24.990  22.360  1.00  0.00     0.151 A 
ATOM     14  N   UNL A   1      33.280  23.074  23.267  1.00  0.00    -0.232 N 
ATOM     15  N   UNL A   1      33.631  23.797  22.168  1.00  0.00    -0.162 NA
ATOM     16  C   UNL A   1      32.782  23.925  24.241  1.00  0.00     0.075 A 
ATOM     17  C   UNL A   1      32.247  24.971  23.554  1.00  0.00     0.065 A 
BRANCH  14  18
ATOM     18  C   UNL A   1      33.478  21.674  23.470  1.00  0.00     0.065 A 
ATOM     19  C   UNL A   1      33.364  19.023  24.363  1.00  0.00     0.082 A 
ATOM     20  C   UNL A   1      32.391  19.483  23.484  1.00  0.00     0.024 A 
ATOM     21  C   UNL A   1      34.442  19.852  24.724  1.00  0.00     0.024 A 
ATOM     22  C   UNL A   1      32.453  20.800  23.044  1.00  0.00     0.030 A 
ATOM     23  C   UNL A   1      34.512  21.184  24.264  1.00  0.00     0.030 A 
BRANCH  19  24
ATOM     24  S   UNL A   1      33.269  17.339  24.915  1.00  0.00     0.238 S 
ATOM     25  O   UNL A   1      32.283  17.260  25.954  1.00  0.00    -0.207 OA
ATOM     26  O   UNL A   1      34.628  16.847  25.037  1.00  0.00    -0.207 OA
BRANCH  24  27
ATOM     27  N   UNL A   1      32.645  16.504  23.598  1.00  0.00    -0.225 NA
ATOM     28  H   UNL A   1      32.207  15.640  23.920  1.00  0.00     0.137 HD
ATOM     29  H   UNL A   1      33.400  16.281  22.948  1.00  0.00     0.137 HD
ENDBRANCH  24  27
ENDBRANCH  19  24
ENDBRANCH  14  18
BRANCH  16  30
ATOM     30  C   UNL A   1      32.799  23.612  25.646  1.00  0.00     0.000 A 
ATOM     31  C   UNL A   1      34.019  23.679  26.347  1.00  0.00     0.010 A 
ATOM     32  C   UNL A   1      31.675  23.034  26.206  1.00  0.00     0.010 A 
ATOM     33  C   UNL A   1      34.169  22.983  27.530  1.00  0.00     0.001 A 
ATOM     34  C   UNL A   1      31.842  22.340  27.380  1.00  0.00     0.001 A 
ATOM     35  C   UNL A   1      33.088  22.269  28.008  1.00  0.00     0.000 A 
ENDBRANCH  16  30
ENDBRANCH  10  13
ENDBRANCH   8   9
ENDBRANCH   7   8
ENDBRANCH   6   7
ENDBRANCH   3   6
ENDBRANCH   1   2
BRANCH   1  36
ATOM     36  C   UNL A   1      34.462  31.977  28.599  1.00  0.00     0.021 C 
BRANCH  36  37
ATOM     37  C   UNL A   1      35.681  31.216  29.129  1.00  0.00     0.002 C 
BRANCH  37  38
ATOM     38  C   UNL A   1      37.035  31.688  28.580  1.00  0.00     0.002 C 
BRANCH  38  39
ATOM     39  C   UNL A   1      37.363  33.176  28.774  1.00  0.00     0.021 C 
BRANCH  39  40
ATOM     40  C   UNL A   1      38.336  33.440  29.914  1.00  0.00     0.116 C 
BRANCH  40  41
ATOM     41  N   UNL A   1      37.663  33.492  31.211  1.00  0.00    -0.352 N 
ATOM     42  C   UNL A   1      37.537  32.489  32.153  1.00  0.00     0.251 C 
ATOM     43  H   UNL A   1      37.247  34.354  31.445  1.00  0.00     0.163 HD
ATOM     44  O   UNL A   1      36.635  32.532  32.983  1.00  0.00    -0.269 OA
BRANCH  42  45
ATOM     45  C   UNL A   1      38.513  31.381  32.147  1.00  0.00     0.039 A 
ATOM     46  C   UNL A   1      38.162  30.084  31.767  1.00  0.00     0.014 A 
ATOM     47  C   UNL A   1      39.819  31.671  32.540  1.00  0.00     0.014 A 
ATOM     48  C   UNL A   1      39.157  29.104  31.733  1.00  0.00     0.010 A 
ATOM     49  C   UNL A   1      40.823  30.763  32.333  1.00  0.00     0.010 A 
ATOM     50  C   UNL A   1      40.492  29.457  32.006  1.00  0.00    -0.014 A 
BRANCH  50  51
ATOM     51  C   UNL A   1      41.602  28.525  31.804  1.00  0.00     0.031 A 
ATOM     52  C   UNL A   1      42.269  28.155  33.083  1.00  0.00     0.074 A 
ATOM     53  C   UNL A   1      41.858  27.944  30.604  1.00  0.00     0.049 A 
ATOM     54  N   UNL A   1      43.476  28.427  33.437  1.00  0.00    -0.248 NA
ATOM     55  C   UNL A   1      41.454  27.614  34.181  1.00  0.00     0.031 C 
ATOM     56  C   UNL A   1      41.121  28.122  29.349  1.00  0.00     0.029 A 
ATOM     57  N   UNL A   1      42.800  27.018  30.250  1.00  0.00    -0.354 N 
ATOM     58  C   UNL A   1      43.653  27.922  34.726  1.00  0.00     0.074 A 
ATOM     59  C   UNL A   1      42.336  27.575  35.181  1.00  0.00     0.031 C 
ATOM     60  C   UNL A   1      41.544  27.225  28.430  1.00  0.00     0.029 A 
ATOM     61  C   UNL A   1      42.649  26.447  28.968  1.00  0.00     0.049 A 
ATOM     62  H   UNL A   1      43.536  26.766  30.851  1.00  0.00     0.167 HD
ATOM     63  C   UNL A   1      44.909  27.700  35.212  1.00  0.00     0.034 A 
ATOM     64  C   UNL A   1      43.361  25.405  28.420  1.00  0.00     0.034 A 
ATOM     65  C   UNL A   1      45.880  28.321  34.328  1.00  0.00     0.049 A 
ATOM     66  C   UNL A   1      44.643  25.400  29.190  1.00  0.00     0.074 A 
ATOM     67  C   UNL A   1      46.215  29.631  34.055  1.00  0.00     0.029 A 
ATOM     68  N   UNL A   1      46.348  27.566  33.266  1.00  0.00    -0.354 N 
ATOM     69  N   UNL A   1      45.515  26.367  29.086  1.00  0.00    -0.248 NA
ATOM     70  C   UNL A   1      44.732  24.640  30.435  1.00  0.00     0.031 C 
ATOM     71  C   UNL A   1      46.475  29.662  32.655  1.00  0.00     0.029 A 
ATOM     72  C   UNL A   1      46.397  28.363  32.143  1.00  0.00     0.049 A 
ATOM     73  H   UNL A   1      46.605  26.617  33.307  1.00  0.00     0.167 HD
ATOM     74  C   UNL A   1      45.935  26.625  30.384  1.00  0.00     0.074 A 
ATOM     75  C   UNL A   1      45.518  25.456  31.151  1.00  0.00     0.031 C 
ATOM     76  C   UNL A   1      46.306  27.882  30.770  1.00  0.00     0.034 A 
BRANCH  63  77
ATOM     77  C   UNL A   1      45.317  26.667  36.248  1.00  0.00     0.023 A 
ATOM     78  C   UNL A   1      45.868  25.468  35.745  1.00  0.00     0.031 A 
ATOM     79  C   UNL A   1      44.980  26.640  37.617  1.00  0.00     0.131 A 
ATOM     80  C   UNL A   1      45.890  24.288  36.505  1.00  0.00     0.055 A 
ATOM     81  C   UNL A   1      45.067  25.477  38.400  1.00  0.00     0.041 A 
ATOM     82  F   UNL A   1      44.485  27.697  38.265  1.00  0.00    -0.206 F 
ATOM     83  C   UNL A   1      45.483  24.282  37.834  1.00  0.00     0.022 A 
BRANCH  80  84
ATOM     84  S   UNL A   1      46.201  22.722  35.647  1.00  0.00     0.124 S 
ATOM     85  O   UNL A   1      47.183  22.075  36.511  1.00  0.00    -0.237 OA
ATOM     86  O   UNL A   1      44.869  22.124  35.632  1.00  0.00    -0.237 OA
ATOM     87  O   UNL A   1      46.711  23.142  34.344  1.00  0.00    -0.744 OA
ENDBRANCH  80  84
ENDBRANCH  63  77
BRANCH  64  88
ATOM     88  C   UNL A   1      42.967  24.300  27.438  1.00  0.00     0.023 A 
ATOM     89  C   UNL A   1      43.918  23.651  26.595  1.00  0.00     0.031 A 
ATOM     90  C   UNL A   1      41.724  23.626  27.534  1.00  0.00     0.131 A 
ATOM     91  C   UNL A   1      43.652  22.363  26.039  1.00  0.00     0.055 A 
ATOM     92  C   UNL A   1      41.515  22.314  27.078  1.00  0.00     0.041 A 
ATOM     93  F   UNL A   1      40.687  24.147  28.199  1.00  0.00    -0.206 F 
ATOM     94  C   UNL A   1      42.494  21.659  26.362  1.00  0.00     0.022 A 
BRANCH  91  95
ATOM     95  S   UNL A   1      44.805  21.523  24.896  1.00  0.00     0.124 S 
ATOM     96  O   UNL A   1      46.100  21.930  25.433  1.00  0.00    -0.237 OA
ATOM     97  O   UNL A   1      44.454  20.117  25.043  1.00  0.00    -0.237 OA
ATOM     98  O   UNL A   1      44.472  22.104  23.594  1.00  0.00    -0.744 OA
ENDBRANCH  91  95
ENDBRANCH  64  88
BRANCH  76  99
ATOM     99  C   UNL A   1      46.484  28.919  29.673  1.00  0.00     0.023 A 
ATOM    100  C   UNL A   1      45.465  29.769  29.176  1.00  0.00     0.031 A 
ATOM    101  C   UNL A   1      47.790  29.124  29.198  1.00  0.00     0.131 A 
ATOM    102  C   UNL A   1      45.778  30.770  28.232  1.00  0.00     0.055 A 
ATOM    103  C   UNL A   1      48.100  30.133  28.289  1.00  0.00     0.041 A 
ATOM    104  F   UNL A   1      48.803  28.364  29.647  1.00  0.00    -0.206 F 
ATOM    105  C   UNL A   1      47.094  30.958  27.800  1.00  0.00     0.022 A 
BRANCH 102 106
ATOM    106  S   UNL A   1      44.475  31.838  27.529  1.00  0.00     0.124 S 
ATOM    107  O   UNL A   1      45.160  33.105  27.303  1.00  0.00    -0.237 OA
ATOM    108  O   UNL A   1      44.074  31.107  26.331  1.00  0.00    -0.237 OA
ATOM    109  O   UNL A   1      43.460  31.876  28.584  1.00  0.00    -0.744 OA
ENDBRANCH 102 106
ENDBRANCH  76  99
ENDBRANCH  50  51
ENDBRANCH  42  45
ENDBRANCH  40  41
ENDBRANCH  39  40
ENDBRANCH  38  39
ENDBRANCH  37  38
ENDBRANCH  36  37
ENDBRANCH   1  36
TORSDOF 24
ENDMDL
MODEL 2
REMARK VINA RESULT:     -10.5      4.074      9.178
REMARK SMILES NS(=O)(=O)c1ccc(-n2nc(C(=O)NCCCC(=O)NCCCCCCNC(=O)c3ccc(-c4c5nc(c(-c6cc(S(=O)(=O)[O-])ccc6F)c6ccc([nH]6)c(-c6cc(S(=O)(=O)[O-])ccc6F)c6nc(c(-c7cc(S(=O)(=O)[O-])ccc7F)c7ccc4[nH]7)C=C6)C=C5)cc3)cc2-c2ccccc2)cc1
REMARK SMILES IDX 21 1 20 2 18 3 19 4 17 6 16 7 15 8 14 9 12 10 13 11 11 13
REMARK SMILES IDX 9 14 10 15 94 16 93 17 8 18 5 19 6 20 102 21 7 22 101 23
REMARK SMILES IDX 2 24 3 25 4 26 1 27 95 30 96 31 100 32 97 33 99 34 98 35
REMARK SMILES IDX 22 36 23 37 24 38 25 39 26 40 27 41 28 42 29 44 30 45 31 46
REMARK SMILES IDX 92 47 32 48 91 49 33 50 34 51 35 52 85 53 36 54 90 55 84 56
REMARK SMILES IDX 86 57 37 58 89 59 83 60 82 61 38 63 70 64 50 65 69 66 51 67
REMARK SMILES IDX 54 68 68 69 87 70 52 71 53 72 67 74 88 75 55 76 39 77 40 78
REMARK SMILES IDX 48 79 41 80 47 81 49 82 46 83 42 84 43 85 44 86 45 87 71 88
REMARK SMILES IDX 72 89 80 90 73 91 79 92 81 93 78 94 74 95 75 96 76 97 77 98
REMARK SMILES IDX 56 99 57 100 65 101 58 102 64 103 66 104 63 105 59 106
REMARK SMILES IDX 60 107 61 108 62 109
REMARK H PARENT 20 5 14 12 1 28 1 29 27 43 86 62 54 73
REMARK Flexibility Score: inf
ROOT
ATOM      1  C   UNL A   1      38.986  27.594  29.973  1.00  0.00     0.116 C 
ENDROOT
BRANCH   1   2
ATOM      2  N   UNL A   1      39.036  28.991  30.347  1.00  0.00    -0.356 N 
ATOM      3  C   UNL A   1      38.825  30.108  29.599  1.00  0.00     0.220 C 
ATOM      4  O   UNL A   1      39.008  31.207  30.126  1.00  0.00    -0.275 OA
ATOM      5  H   UNL A   1      39.259  29.161  31.291  1.00  0.00     0.163 HD
BRANCH   3   6
ATOM      6  C   UNL A   1      38.329  30.002  28.170  1.00  0.00     0.102 C 
BRANCH   6   7
ATOM      7  C   UNL A   1      36.922  29.426  28.008  1.00  0.00     0.031 C 
BRANCH   7   8
ATOM      8  C   UNL A   1      35.907  29.821  29.078  1.00  0.00     0.116 C 
BRANCH   8   9
ATOM      9  N   UNL A   1      35.178  31.060  28.824  1.00  0.00    -0.351 N 
ATOM     10  C   UNL A   1      34.135  31.322  27.941  1.00  0.00     0.271 C 
ATOM     11  O   UNL A   1      33.652  32.455  27.959  1.00  0.00    -0.267 OA
ATOM     12  H   UNL A   1      35.469  31.831  29.362  1.00  0.00     0.163 HD
BRANCH  10  13
ATOM     13  C   UNL A   1      33.670  30.256  27.038  1.00  0.00     0.151 A 
ATOM     14  N   UNL A   1      32.781  28.449  26.322  1.00  0.00    -0.232 N 
ATOM     15  N   UNL A   1      33.177  29.063  27.470  1.00  0.00    -0.162 NA
ATOM     16  C   UNL A   1      32.696  29.384  25.303  1.00  0.00     0.075 A 
ATOM     17  C   UNL A   1      33.605  30.344  25.629  1.00  0.00     0.065 A 
BRANCH  14  18
ATOM     18  C   UNL A   1      32.398  27.081  26.171  1.00  0.00     0.065 A 
ATOM     19  C   UNL A   1      31.558  24.442  26.577  1.00  0.00     0.082 A 
ATOM     20  C   UNL A   1      30.608  25.454  26.529  1.00  0.00     0.024 A 
ATOM     21  C   UNL A   1      32.913  24.730  26.332  1.00  0.00     0.024 A 
ATOM     22  C   UNL A   1      31.031  26.763  26.327  1.00  0.00     0.030 A 
ATOM     23  C   UNL A   1      33.340  26.056  26.111  1.00  0.00     0.030 A 
BRANCH  19  24
ATOM     24  S   UNL A   1      30.999  22.778  26.837  1.00  0.00     0.238 S 
ATOM     25  O   UNL A   1      31.162  22.051  25.611  1.00  0.00    -0.207 OA
ATOM     26  O   UNL A   1      29.760  22.849  27.587  1.00  0.00    -0.207 OA
BRANCH  24  27
ATOM     27  N   UNL A   1      32.104  22.133  27.926  1.00  0.00    -0.225 NA
ATOM     28  H   UNL A   1      32.586  22.891  28.411  1.00  0.00     0.137 HD
ATOM     29  H   UNL A   1      32.785  21.565  27.422  1.00  0.00     0.137 HD
ENDBRANCH  24  27
ENDBRANCH  19  24
ENDBRANCH  14  18
BRANCH  16  30
ATOM     30  C   UNL A   1      31.856  29.217  24.146  1.00  0.00     0.000 A 
ATOM     31  C   UNL A   1      30.552  29.749  24.165  1.00  0.00     0.010 A 
ATOM     32  C   UNL A   1      32.266  28.347  23.154  1.00  0.00     0.010 A 
ATOM     33  C   UNL A   1      29.595  29.248  23.306  1.00  0.00     0.001 A 
ATOM     34  C   UNL A   1      31.300  27.852  22.311  1.00  0.00     0.001 A 
ATOM     35  C   UNL A   1      29.968  28.257  22.420  1.00  0.00     0.000 A 
ENDBRANCH  16  30
ENDBRANCH  10  13
ENDBRANCH   8   9
ENDBRANCH   7   8
ENDBRANCH   6   7
ENDBRANCH   3   6
ENDBRANCH   1   2
BRANCH   1  36
ATOM     36  C   UNL A   1      40.280  27.175  29.271  1.00  0.00     0.021 C 
BRANCH  36  37
ATOM     37  C   UNL A   1      40.065  26.618  27.861  1.00  0.00     0.002 C 
BRANCH  37  38
ATOM     38  C   UNL A   1      39.219  25.337  27.787  1.00  0.00     0.002 C 
BRANCH  38  39
ATOM     39  C   UNL A   1      39.997  24.014  27.741  1.00  0.00     0.021 C 
BRANCH  39  40
ATOM     40  C   UNL A   1      39.820  23.251  26.436  1.00  0.00     0.116 C 
BRANCH  40  41
ATOM     41  N   UNL A   1      40.514  21.964  26.451  1.00  0.00    -0.352 N 
ATOM     42  C   UNL A   1      41.819  21.690  26.090  1.00  0.00     0.251 C 
ATOM     43  H   UNL A   1      39.984  21.194  26.759  1.00  0.00     0.163 HD
ATOM     44  O   UNL A   1      42.144  20.551  25.769  1.00  0.00    -0.269 OA
BRANCH  42  45
ATOM     45  C   UNL A   1      42.809  22.785  26.113  1.00  0.00     0.039 A 
ATOM     46  C   UNL A   1      42.873  23.750  25.104  1.00  0.00     0.014 A 
ATOM     47  C   UNL A   1      43.695  22.831  27.188  1.00  0.00     0.014 A 
ATOM     48  C   UNL A   1      43.800  24.787  25.228  1.00  0.00     0.010 A 
ATOM     49  C   UNL A   1      44.472  23.938  27.400  1.00  0.00     0.010 A 
ATOM     50  C   UNL A   1      44.590  24.881  26.390  1.00  0.00    -0.014 A 
BRANCH  50  51
ATOM     51  C   UNL A   1      45.438  26.041  26.665  1.00  0.00     0.031 A 
ATOM     52  C   UNL A   1      46.806  25.887  26.096  1.00  0.00     0.074 A 
ATOM     53  C   UNL A   1      44.957  27.183  27.218  1.00  0.00     0.049 A 
ATOM     54  N   UNL A   1      47.913  25.798  26.748  1.00  0.00    -0.248 NA
ATOM     55  C   UNL A   1      46.953  25.582  24.665  1.00  0.00     0.031 C 
ATOM     56  C   UNL A   1      43.578  27.466  27.626  1.00  0.00     0.029 A 
ATOM     57  N   UNL A   1      45.580  28.370  27.487  1.00  0.00    -0.354 N 
ATOM     58  C   UNL A   1      48.932  25.625  25.811  1.00  0.00     0.074 A 
ATOM     59  C   UNL A   1      48.263  25.347  24.571  1.00  0.00     0.031 C 
ATOM     60  C   UNL A   1      43.444  28.775  27.940  1.00  0.00     0.029 A 
ATOM     61  C   UNL A   1      44.735  29.439  27.854  1.00  0.00     0.049 A 
ATOM     62  H   UNL A   1      46.557  28.472  27.428  1.00  0.00     0.167 HD
ATOM     63  C   UNL A   1      50.228  25.893  26.146  1.00  0.00     0.034 A 
ATOM     64  C   UNL A   1      45.077  30.759  28.039  1.00  0.00     0.034 A 
ATOM     65  C   UNL A   1      50.324  26.066  27.584  1.00  0.00     0.049 A 
ATOM     66  C   UNL A   1      46.542  30.714  28.336  1.00  0.00     0.074 A 
ATOM     67  C   UNL A   1      50.225  25.202  28.654  1.00  0.00     0.029 A 
ATOM     68  N   UNL A   1      50.115  27.339  28.087  1.00  0.00    -0.354 N 
ATOM     69  N   UNL A   1      47.007  30.189  29.439  1.00  0.00    -0.248 NA
ATOM     70  C   UNL A   1      47.502  30.751  27.236  1.00  0.00     0.031 C 
ATOM     71  C   UNL A   1      49.534  25.936  29.661  1.00  0.00     0.029 A 
ATOM     72  C   UNL A   1      49.332  27.247  29.217  1.00  0.00     0.049 A 
ATOM     73  H   UNL A   1      50.469  28.173  27.701  1.00  0.00     0.167 HD
ATOM     74  C   UNL A   1      48.111  29.441  29.053  1.00  0.00     0.074 A 
ATOM     75  C   UNL A   1      48.440  29.922  27.715  1.00  0.00     0.031 C 
ATOM     76  C   UNL A   1      48.463  28.302  29.722  1.00  0.00     0.034 A 
BRANCH  63  77
ATOM     77  C   UNL A   1      51.338  26.342  25.210  1.00  0.00     0.023 A 
ATOM     78  C   UNL A   1      52.564  25.652  25.328  1.00  0.00     0.031 A 
ATOM     79  C   UNL A   1      51.386  27.516  24.431  1.00  0.00     0.131 A 
ATOM     80  C   UNL A   1      53.770  26.205  24.868  1.00  0.00     0.055 A 
ATOM     81  C   UNL A   1      52.582  28.035  23.909  1.00  0.00     0.041 A 
ATOM     82  F   UNL A   1      50.311  28.269  24.183  1.00  0.00    -0.206 F 
ATOM     83  C   UNL A   1      53.789  27.403  24.164  1.00  0.00     0.022 A 
BRANCH  80  84
ATOM     84  S   UNL A   1      55.324  25.469  25.444  1.00  0.00     0.124 S 
ATOM     85  O   UNL A   1      55.473  26.045  26.778  1.00  0.00    -0.237 OA
ATOM     86  O   UNL A   1      55.013  24.044  25.393  1.00  0.00    -0.237 OA
ATOM     87  O   UNL A   1      56.304  25.931  24.464  1.00  0.00    -0.744 OA
ENDBRANCH  80  84
ENDBRANCH  63  77
BRANCH  64  88
ATOM     88  C   UNL A   1      44.310  32.060  27.793  1.00  0.00     0.023 A 
ATOM     89  C   UNL A   1      43.745  32.827  28.856  1.00  0.00     0.031 A 
ATOM     90  C   UNL A   1      44.394  32.753  26.560  1.00  0.00     0.131 A 
ATOM     91  C   UNL A   1      43.445  34.212  28.686  1.00  0.00     0.055 A 
ATOM     92  C   UNL A   1      44.203  34.139  26.434  1.00  0.00     0.041 A 
ATOM     93  F   UNL A   1      44.803  32.152  25.438  1.00  0.00    -0.206 F 
ATOM     94  C   UNL A   1      43.766  34.884  27.509  1.00  0.00     0.022 A 
BRANCH  91  95
ATOM     95  S   UNL A   1      42.654  35.218  29.990  1.00  0.00     0.124 S 
ATOM     96  O   UNL A   1      43.418  34.826  31.169  1.00  0.00    -0.237 OA
ATOM     97  O   UNL A   1      42.844  36.584  29.518  1.00  0.00    -0.237 OA
ATOM     98  O   UNL A   1      41.265  34.755  29.977  1.00  0.00    -0.744 OA
ENDBRANCH  91  95
ENDBRANCH  64  88
BRANCH  76  99
ATOM     99  C   UNL A   1      47.761  28.031  31.043  1.00  0.00     0.023 A 
ATOM    100  C   UNL A   1      46.533  27.340  31.192  1.00  0.00     0.031 A 
ATOM    101  C   UNL A   1      48.445  28.399  32.213  1.00  0.00     0.131 A 
ATOM    102  C   UNL A   1      46.036  27.053  32.481  1.00  0.00     0.055 A 
ATOM    103  C   UNL A   1      47.966  28.087  33.484  1.00  0.00     0.041 A 
ATOM    104  F   UNL A   1      49.625  29.038  32.138  1.00  0.00    -0.206 F 
ATOM    105  C   UNL A   1      46.757  27.415  33.622  1.00  0.00     0.022 A 
BRANCH 102 106
ATOM    106  S   UNL A   1      44.428  26.218  32.702  1.00  0.00     0.124 S 
ATOM    107  O   UNL A   1      44.276  26.150  34.151  1.00  0.00    -0.237 OA
ATOM    108  O   UNL A   1      43.505  27.110  32.006  1.00  0.00    -0.237 OA
ATOM    109  O   UNL A   1      44.625  24.921  32.051  1.00  0.00    -0.744 OA
ENDBRANCH 102 106
ENDBRANCH  76  99
ENDBRANCH  50  51
ENDBRANCH  42  45
ENDBRANCH  40  41
ENDBRANCH  39  40
ENDBRANCH  38  39
ENDBRANCH  37  38
ENDBRANCH  36  37
ENDBRANCH   1  36
TORSDOF 24
ENDMDL
MODEL 3
REMARK VINA RESULT:     -10.4      3.897      9.119
REMARK SMILES NS(=O)(=O)c1ccc(-n2nc(C(=O)NCCCC(=O)NCCCCCCNC(=O)c3ccc(-c4c5nc(c(-c6cc(S(=O)(=O)[O-])ccc6F)c6ccc([nH]6)c(-c6cc(S(=O)(=O)[O-])ccc6F)c6nc(c(-c7cc(S(=O)(=O)[O-])ccc7F)c7ccc4[nH]7)C=C6)C=C5)cc3)cc2-c2ccccc2)cc1
REMARK SMILES IDX 21 1 20 2 18 3 19 4 17 6 16 7 15 8 14 9 12 10 13 11 11 13
REMARK SMILES IDX 9 14 10 15 94 16 93 17 8 18 5 19 6 20 102 21 7 22 101 23
REMARK SMILES IDX 2 24 3 25 4 26 1 27 95 30 96 31 100 32 97 33 99 34 98 35
REMARK SMILES IDX 22 36 23 37 24 38 25 39 26 40 27 41 28 42 29 44 30 45 31 46
REMARK SMILES IDX 92 47 32 48 91 49 33 50 34 51 35 52 85 53 36 54 90 55 84 56
REMARK SMILES IDX 86 57 37 58 89 59 83 60 82 61 38 63 70 64 50 65 69 66 51 67
REMARK SMILES IDX 54 68 68 69 87 70 52 71 53 72 67 74 88 75 55 76 39 77 40 78
REMARK SMILES IDX 48 79 41 80 47 81 49 82 46 83 42 84 43 85 44 86 45 87 71 88
REMARK SMILES IDX 72 89 80 90 73 91 79 92 81 93 78 94 74 95 75 96 76 97 77 98
REMARK SMILES IDX 56 99 57 100 65 101 58 102 64 103 66 104 63 105 59 106
REMARK SMILES IDX 60 107 61 108 62 109
REMARK H PARENT 20 5 14 12 1 28 1 29 27 43 86 62 54 73
REMARK Flexibility Score: inf
ROOT
ATOM      1  C   UNL A   1      38.806  28.268  30.617  1.00  0.00     0.116 C 
ENDROOT
BRANCH   1   2
ATOM      2  N   UNL A   1      38.629  29.703  30.691  1.00  0.00    -0.356 N 
ATOM      3  C   UNL A   1      38.637  30.639  29.704  1.00  0.00     0.220 C 
ATOM      4  O   UNL A   1      38.545  31.826  30.024  1.00  0.00    -0.275 OA
ATOM      5  H   UNL A   1      38.479  30.057  31.598  1.00  0.00     0.163 HD
BRANCH   3   6
ATOM      6  C   UNL A   1      38.706  30.229  28.246  1.00  0.00     0.102 C 
BRANCH   6   7
ATOM      7  C   UNL A   1      37.356  29.973  27.575  1.00  0.00     0.031 C 
BRANCH   7   8
ATOM      8  C   UNL A   1      36.159  29.820  28.510  1.00  0.00     0.116 C 
BRANCH   8   9
ATOM      9  N   UNL A   1      35.210  30.930  28.502  1.00  0.00    -0.351 N 
ATOM     10  C   UNL A   1      34.032  31.097  27.781  1.00  0.00     0.271 C 
ATOM     11  O   UNL A   1      33.377  32.116  28.000  1.00  0.00    -0.267 OA
ATOM     12  H   UNL A   1      35.441  31.677  29.100  1.00  0.00     0.163 HD
BRANCH  10  13
ATOM     13  C   UNL A   1      33.633  30.070  26.805  1.00  0.00     0.151 A 
ATOM     14  N   UNL A   1      33.478  28.205  25.771  1.00  0.00    -0.232 N 
ATOM     15  N   UNL A   1      34.221  28.846  26.714  1.00  0.00    -0.162 NA
ATOM     16  C   UNL A   1      32.281  28.880  25.588  1.00  0.00     0.075 A 
ATOM     17  C   UNL A   1      32.560  30.179  25.891  1.00  0.00     0.065 A 
BRANCH  14  18
ATOM     18  C   UNL A   1      33.793  26.971  25.124  1.00  0.00     0.065 A 
ATOM     19  C   UNL A   1      33.708  24.534  23.750  1.00  0.00     0.082 A 
ATOM     20  C   UNL A   1      33.653  25.719  23.028  1.00  0.00     0.024 A 
ATOM     21  C   UNL A   1      33.897  24.561  25.144  1.00  0.00     0.024 A 
ATOM     22  C   UNL A   1      33.696  26.926  23.716  1.00  0.00     0.030 A 
ATOM     23  C   UNL A   1      33.956  25.787  25.839  1.00  0.00     0.030 A 
BRANCH  19  24
ATOM     24  S   UNL A   1      33.651  23.003  22.855  1.00  0.00     0.238 S 
ATOM     25  O   UNL A   1      34.635  22.119  23.410  1.00  0.00    -0.207 OA
ATOM     26  O   UNL A   1      33.547  23.328  21.445  1.00  0.00    -0.207 OA
BRANCH  24  27
ATOM     27  N   UNL A   1      32.152  22.351  23.239  1.00  0.00    -0.225 NA
ATOM     28  H   UNL A   1      32.115  22.147  24.239  1.00  0.00     0.137 HD
ATOM     29  H   UNL A   1      32.010  21.489  22.711  1.00  0.00     0.137 HD
ENDBRANCH  24  27
ENDBRANCH  19  24
ENDBRANCH  14  18
BRANCH  16  30
ATOM     30  C   UNL A   1      31.088  28.252  25.086  1.00  0.00     0.000 A 
ATOM     31  C   UNL A   1      30.631  27.067  25.695  1.00  0.00     0.010 A 
ATOM     32  C   UNL A   1      30.566  28.693  23.884  1.00  0.00     0.010 A 
ATOM     33  C   UNL A   1      29.795  26.216  25.000  1.00  0.00     0.001 A 
ATOM     34  C   UNL A   1      29.741  27.832  23.201  1.00  0.00     0.001 A 
ATOM     35  C   UNL A   1      29.402  26.583  23.728  1.00  0.00     0.000 A 
ENDBRANCH  16  30
ENDBRANCH  10  13
ENDBRANCH   8   9
ENDBRANCH   7   8
ENDBRANCH   6   7
ENDBRANCH   3   6
ENDBRANCH   1   2
BRANCH   1  36
ATOM     36  C   UNL A   1      40.293  27.909  30.580  1.00  0.00     0.021 C 
BRANCH  36  37
ATOM     37  C   UNL A   1      40.728  27.219  29.283  1.00  0.00     0.002 C 
BRANCH  37  38
ATOM     38  C   UNL A   1      39.585  26.649  28.430  1.00  0.00     0.002 C 
BRANCH  38  39
ATOM     39  C   UNL A   1      39.437  25.121  28.432  1.00  0.00     0.021 C 
BRANCH  39  40
ATOM     40  C   UNL A   1      39.289  24.524  27.040  1.00  0.00     0.116 C 
BRANCH  40  41
ATOM     41  N   UNL A   1      39.854  23.178  26.954  1.00  0.00    -0.352 N 
ATOM     42  C   UNL A   1      41.090  22.798  26.467  1.00  0.00     0.251 C 
ATOM     43  H   UNL A   1      39.281  22.450  27.285  1.00  0.00     0.163 HD
ATOM     44  O   UNL A   1      41.275  21.646  26.085  1.00  0.00    -0.269 OA
BRANCH  42  45
ATOM     45  C   UNL A   1      42.179  23.794  26.433  1.00  0.00     0.039 A 
ATOM     46  C   UNL A   1      42.336  24.686  25.370  1.00  0.00     0.014 A 
ATOM     47  C   UNL A   1      43.064  23.818  27.511  1.00  0.00     0.014 A 
ATOM     48  C   UNL A   1      43.357  25.637  25.440  1.00  0.00     0.010 A 
ATOM     49  C   UNL A   1      43.942  24.858  27.662  1.00  0.00     0.010 A 
ATOM     50  C   UNL A   1      44.150  25.724  26.600  1.00  0.00    -0.014 A 
BRANCH  50  51
ATOM     51  C   UNL A   1      45.105  26.813  26.812  1.00  0.00     0.031 A 
ATOM     52  C   UNL A   1      46.453  26.497  26.265  1.00  0.00     0.074 A 
ATOM     53  C   UNL A   1      44.733  28.026  27.293  1.00  0.00     0.049 A 
ATOM     54  N   UNL A   1      47.544  26.342  26.929  1.00  0.00    -0.248 NA
ATOM     55  C   UNL A   1      46.573  26.094  24.856  1.00  0.00     0.031 C 
ATOM     56  C   UNL A   1      43.386  28.463  27.673  1.00  0.00     0.029 A 
ATOM     57  N   UNL A   1      45.465  29.163  27.496  1.00  0.00    -0.354 N 
ATOM     58  C   UNL A   1      48.545  26.018  26.012  1.00  0.00     0.074 A 
ATOM     59  C   UNL A   1      47.855  25.731  24.785  1.00  0.00     0.031 C 
ATOM     60  C   UNL A   1      43.376  29.794  27.908  1.00  0.00     0.029 A 
ATOM     61  C   UNL A   1      44.724  30.327  27.793  1.00  0.00     0.049 A 
ATOM     62  H   UNL A   1      46.447  29.168  27.439  1.00  0.00     0.167 HD
ATOM     63  C   UNL A   1      49.860  26.182  26.341  1.00  0.00     0.034 A 
ATOM     64  C   UNL A   1      45.190  31.617  27.902  1.00  0.00     0.034 A 
ATOM     65  C   UNL A   1      49.968  26.431  27.767  1.00  0.00     0.049 A 
ATOM     66  C   UNL A   1      46.643  31.452  28.213  1.00  0.00     0.074 A 
ATOM     67  C   UNL A   1      49.785  25.645  28.886  1.00  0.00     0.029 A 
ATOM     68  N   UNL A   1      49.881  27.746  28.192  1.00  0.00    -0.354 N 
ATOM     69  N   UNL A   1      47.053  30.952  29.349  1.00  0.00    -0.248 NA
ATOM     70  C   UNL A   1      47.605  31.332  27.120  1.00  0.00     0.031 C 
ATOM     71  C   UNL A   1      49.165  26.500  29.841  1.00  0.00     0.029 A 
ATOM     72  C   UNL A   1      49.090  27.795  29.319  1.00  0.00     0.049 A 
ATOM     73  H   UNL A   1      50.313  28.517  27.760  1.00  0.00     0.167 HD
ATOM     74  C   UNL A   1      48.083  30.081  29.016  1.00  0.00     0.074 A 
ATOM     75  C   UNL A   1      48.459  30.448  27.655  1.00  0.00     0.031 C 
ATOM     76  C   UNL A   1      48.323  28.956  29.754  1.00  0.00     0.034 A 
BRANCH  63  77
ATOM     77  C   UNL A   1      51.009  26.467  25.389  1.00  0.00     0.023 A 
ATOM     78  C   UNL A   1      50.780  27.476  24.427  1.00  0.00     0.031 A 
ATOM     79  C   UNL A   1      52.164  25.687  25.172  1.00  0.00     0.131 A 
ATOM     80  C   UNL A   1      51.538  27.557  23.248  1.00  0.00     0.055 A 
ATOM     81  C   UNL A   1      52.965  25.814  24.026  1.00  0.00     0.041 A 
ATOM     82  F   UNL A   1      52.551  24.717  26.004  1.00  0.00    -0.206 F 
ATOM     83  C   UNL A   1      52.629  26.723  23.035  1.00  0.00     0.022 A 
BRANCH  80  84
ATOM     84  S   UNL A   1      50.905  28.582  21.893  1.00  0.00     0.124 S 
ATOM     85  O   UNL A   1      51.593  28.031  20.729  1.00  0.00    -0.237 OA
ATOM     86  O   UNL A   1      49.470  28.322  21.970  1.00  0.00    -0.237 OA
ATOM     87  O   UNL A   1      51.316  29.934  22.266  1.00  0.00    -0.744 OA
ENDBRANCH  80  84
ENDBRANCH  63  77
BRANCH  64  88
ATOM     88  C   UNL A   1      44.550  32.968  27.574  1.00  0.00     0.023 A 
ATOM     89  C   UNL A   1      44.699  34.109  28.417  1.00  0.00     0.031 A 
ATOM     90  C   UNL A   1      44.063  33.266  26.277  1.00  0.00     0.131 A 
ATOM     91  C   UNL A   1      44.504  35.430  27.912  1.00  0.00     0.055 A 
ATOM     92  C   UNL A   1      43.984  34.569  25.758  1.00  0.00     0.041 A 
ATOM     93  F   UNL A   1      43.769  32.306  25.395  1.00  0.00    -0.206 F 
ATOM     94  C   UNL A   1      44.244  35.658  26.562  1.00  0.00     0.022 A 
BRANCH  91  95
ATOM     95  S   UNL A   1      44.610  36.918  28.967  1.00  0.00     0.124 S 
ATOM     96  O   UNL A   1      44.721  37.979  27.970  1.00  0.00    -0.237 OA
ATOM     97  O   UNL A   1      43.370  36.873  29.732  1.00  0.00    -0.237 OA
ATOM     98  O   UNL A   1      45.822  36.688  29.755  1.00  0.00    -0.744 OA
ENDBRANCH  91  95
ENDBRANCH  64  88
BRANCH  76  99
ATOM     99  C   UNL A   1      47.596  28.832  31.084  1.00  0.00     0.023 A 
ATOM    100  C   UNL A   1      46.350  28.185  31.279  1.00  0.00     0.031 A 
ATOM    101  C   UNL A   1      48.271  29.299  32.223  1.00  0.00     0.131 A 
ATOM    102  C   UNL A   1      45.828  28.038  32.581  1.00  0.00     0.055 A 
ATOM    103  C   UNL A   1      47.767  29.124  33.510  1.00  0.00     0.041 A 
ATOM    104  F   UNL A   1      49.466  29.902  32.105  1.00  0.00    -0.206 F 
ATOM    105  C   UNL A   1      46.540  28.495  33.694  1.00  0.00     0.022 A 
BRANCH 102 106
ATOM    106  S   UNL A   1      44.198  27.264  32.856  1.00  0.00     0.124 S 
ATOM    107  O   UNL A   1      44.505  25.840  32.930  1.00  0.00    -0.237 OA
ATOM    108  O   UNL A   1      43.754  27.885  34.100  1.00  0.00    -0.237 OA
ATOM    109  O   UNL A   1      43.429  27.659  31.673  1.00  0.00    -0.744 OA
ENDBRANCH 102 106
ENDBRANCH  76  99
ENDBRANCH  50  51
ENDBRANCH  42  45
ENDBRANCH  40  41
ENDBRANCH  39  40
ENDBRANCH  38  39
ENDBRANCH  37  38
ENDBRANCH  36  37
ENDBRANCH   1  36
TORSDOF 24
ENDMDL
