MODEL 1
REMARK VINA RESULT:     -11.3      0.000      0.000
REMARK SMILES O=C(NCCCCCCNC(=O)[C@H]1CCCCN1S(=O)(=O)c1cc[nH]c1)c1ccc(-c2c3nc(c(-c4cc(S(=O)(=O)[O-])ccc4F)c4ccc([nH]4)c(-c4cc(S(=O)(=O)[O-])ccc4F)c4nc(c(-c5cc(S(=O)(=O)[O-])ccc5F)c5ccc2[nH]5)C=C4)C=C3)cc1
REMARK SMILES IDX 6 1 5 2 4 3 3 4 1 5 2 6 27 8 28 9 89 10 29 11 88 12 30 13
REMARK SMILES IDX 31 14 32 15 82 16 33 17 87 18 81 19 83 20 34 21 86 22 80 23
REMARK SMILES IDX 79 24 35 26 67 27 47 28 66 29 48 30 51 31 65 32 84 33 49 34
REMARK SMILES IDX 50 35 64 37 85 38 52 39 36 40 37 41 45 42 38 43 44 44 46 45
REMARK SMILES IDX 43 46 39 47 40 48 41 49 42 50 68 51 69 52 77 53 70 54 76 55
REMARK SMILES IDX 78 56 75 57 71 58 72 59 73 60 74 61 53 62 54 63 62 64 55 65
REMARK SMILES IDX 61 66 63 67 60 68 56 69 57 70 58 71 59 72 7 73 8 74 9 75
REMARK SMILES IDX 10 76 11 77 12 79 13 80 14 81 18 82 15 83 17 84 16 85 19 86
REMARK SMILES IDX 20 87 21 88 22 89 23 90 26 91 24 92 25 93
REMARK H PARENT 3 7 83 25 51 36 10 78 25 94
REMARK Flexibility Score: inf
ROOT
ATOM      1  C   UNL A   1      34.419  23.287  25.332  1.00  0.00     0.002 C 
ENDROOT
BRANCH   1   2
ATOM      2  C   UNL A   1      35.699  23.419  26.164  1.00  0.00     0.021 C 
BRANCH   2   3
ATOM      3  C   UNL A   1      36.905  24.044  25.454  1.00  0.00     0.116 C 
BRANCH   3   4
ATOM      4  N   UNL A   1      38.160  23.317  25.561  1.00  0.00    -0.352 N 
ATOM      5  O   UNL A   1      40.196  22.685  26.240  1.00  0.00    -0.269 OA
ATOM      6  C   UNL A   1      39.298  23.524  26.301  1.00  0.00     0.251 C 
ATOM      7  H   UNL A   1      38.202  22.518  24.989  1.00  0.00     0.163 HD
BRANCH   6   8
ATOM      8  C   UNL A   1      39.507  24.751  27.107  1.00  0.00     0.039 A 
ATOM      9  C   UNL A   1      40.210  25.858  26.633  1.00  0.00     0.014 A 
ATOM     10  C   UNL A   1      38.955  24.787  28.400  1.00  0.00     0.014 A 
ATOM     11  C   UNL A   1      40.469  26.930  27.478  1.00  0.00     0.010 A 
ATOM     12  C   UNL A   1      39.174  25.885  29.237  1.00  0.00     0.010 A 
ATOM     13  C   UNL A   1      39.950  26.953  28.781  1.00  0.00    -0.014 A 
BRANCH  13  14
ATOM     14  C   UNL A   1      40.072  28.241  29.512  1.00  0.00     0.031 A 
ATOM     15  C   UNL A   1      41.208  28.159  30.556  1.00  0.00     0.074 A 
ATOM     16  C   UNL A   1      39.130  29.211  29.285  1.00  0.00     0.049 A 
ATOM     17  N   UNL A   1      41.242  28.561  31.790  1.00  0.00    -0.248 NA
ATOM     18  C   UNL A   1      42.428  27.371  30.220  1.00  0.00     0.031 C 
ATOM     19  C   UNL A   1      38.106  29.178  28.213  1.00  0.00     0.029 A 
ATOM     20  N   UNL A   1      38.827  30.411  29.901  1.00  0.00    -0.354 N 
ATOM     21  C   UNL A   1      42.543  28.293  32.292  1.00  0.00     0.074 A 
ATOM     22  C   UNL A   1      43.156  27.420  31.338  1.00  0.00     0.031 C 
ATOM     23  C   UNL A   1      37.277  30.248  28.294  1.00  0.00     0.029 A 
ATOM     24  C   UNL A   1      37.661  31.081  29.419  1.00  0.00     0.049 A 
ATOM     25  H   UNL A   1      39.380  30.780  30.627  1.00  0.00     0.167 HD
ATOM     26  C   UNL A   1      43.083  28.938  33.373  1.00  0.00     0.034 A 
ATOM     27  C   UNL A   1      37.037  32.204  29.910  1.00  0.00     0.034 A 
ATOM     28  C   UNL A   1      42.142  29.884  33.874  1.00  0.00     0.049 A 
ATOM     29  C   UNL A   1      37.894  32.637  31.020  1.00  0.00     0.074 A 
ATOM     30  C   UNL A   1      40.950  29.777  34.536  1.00  0.00     0.029 A 
ATOM     31  N   UNL A   1      42.295  31.179  33.433  1.00  0.00    -0.354 N 
ATOM     32  N   UNL A   1      39.028  33.244  30.875  1.00  0.00    -0.248 NA
ATOM     33  C   UNL A   1      37.452  32.384  32.398  1.00  0.00     0.031 C 
ATOM     34  C   UNL A   1      40.211  30.875  34.051  1.00  0.00     0.029 A 
ATOM     35  C   UNL A   1      41.037  31.685  33.256  1.00  0.00     0.049 A 
ATOM     36  H   UNL A   1      43.145  31.650  33.276  1.00  0.00     0.167 HD
ATOM     37  C   UNL A   1      39.575  33.158  32.127  1.00  0.00     0.074 A 
ATOM     38  C   UNL A   1      38.478  32.933  33.045  1.00  0.00     0.031 C 
ATOM     39  C   UNL A   1      40.846  32.703  32.245  1.00  0.00     0.034 A 
BRANCH  26  40
ATOM     40  C   UNL A   1      44.484  29.055  33.940  1.00  0.00     0.023 A 
ATOM     41  C   UNL A   1      44.590  29.041  35.361  1.00  0.00     0.031 A 
ATOM     42  C   UNL A   1      45.628  29.466  33.250  1.00  0.00     0.131 A 
ATOM     43  C   UNL A   1      45.709  29.555  36.029  1.00  0.00     0.055 A 
ATOM     44  C   UNL A   1      46.780  29.913  33.921  1.00  0.00     0.041 A 
ATOM     45  F   UNL A   1      45.660  29.532  31.913  1.00  0.00    -0.206 F 
ATOM     46  C   UNL A   1      46.811  29.998  35.312  1.00  0.00     0.022 A 
BRANCH  43  47
ATOM     47  S   UNL A   1      45.605  29.800  37.827  1.00  0.00     0.124 S 
ATOM     48  O   UNL A   1      46.147  28.549  38.344  1.00  0.00    -0.237 OA
ATOM     49  O   UNL A   1      46.438  30.984  38.021  1.00  0.00    -0.237 OA
ATOM     50  O   UNL A   1      44.177  30.003  38.059  1.00  0.00    -0.744 OA
ENDBRANCH  43  47
ENDBRANCH  26  40
BRANCH  27  51
ATOM     51  C   UNL A   1      35.797  33.080  29.730  1.00  0.00     0.023 A 
ATOM     52  C   UNL A   1      35.199  33.915  30.686  1.00  0.00     0.031 A 
ATOM     53  C   UNL A   1      35.185  33.144  28.428  1.00  0.00     0.131 A 
ATOM     54  C   UNL A   1      34.127  34.784  30.309  1.00  0.00     0.055 A 
ATOM     55  C   UNL A   1      34.204  34.056  28.046  1.00  0.00     0.041 A 
ATOM     56  F   UNL A   1      35.521  32.312  27.432  1.00  0.00    -0.206 F 
ATOM     57  C   UNL A   1      33.675  34.897  28.990  1.00  0.00     0.022 A 
BRANCH  54  58
ATOM     58  S   UNL A   1      33.267  35.833  31.518  1.00  0.00     0.124 S 
ATOM     59  O   UNL A   1      32.603  36.805  30.655  1.00  0.00    -0.237 OA
ATOM     60  O   UNL A   1      32.396  34.893  32.214  1.00  0.00    -0.237 OA
ATOM     61  O   UNL A   1      34.362  36.370  32.328  1.00  0.00    -0.744 OA
ENDBRANCH  54  58
ENDBRANCH  27  51
BRANCH  39  62
ATOM     62  C   UNL A   1      41.709  32.952  31.004  1.00  0.00     0.023 A 
ATOM     63  C   UNL A   1      42.144  31.871  30.209  1.00  0.00     0.031 A 
ATOM     64  C   UNL A   1      42.247  34.207  30.670  1.00  0.00     0.131 A 
ATOM     65  C   UNL A   1      43.091  32.057  29.180  1.00  0.00     0.055 A 
ATOM     66  C   UNL A   1      43.176  34.402  29.640  1.00  0.00     0.041 A 
ATOM     67  F   UNL A   1      41.906  35.299  31.350  1.00  0.00    -0.206 F 
ATOM     68  C   UNL A   1      43.610  33.320  28.891  1.00  0.00     0.022 A 
BRANCH  65  69
ATOM     69  S   UNL A   1      43.640  30.633  28.199  1.00  0.00     0.124 S 
ATOM     70  O   UNL A   1      44.351  31.260  27.091  1.00  0.00    -0.237 OA
ATOM     71  O   UNL A   1      44.462  29.890  29.148  1.00  0.00    -0.237 OA
ATOM     72  O   UNL A   1      42.388  29.971  27.830  1.00  0.00    -0.744 OA
ENDBRANCH  65  69
ENDBRANCH  39  62
ENDBRANCH  13  14
ENDBRANCH   6   8
ENDBRANCH   3   4
ENDBRANCH   2   3
ENDBRANCH   1   2
BRANCH   1  73
ATOM     73  C   UNL A   1      33.341  22.365  25.896  1.00  0.00     0.002 C 
BRANCH  73  74
ATOM     74  C   UNL A   1      32.428  23.014  26.928  1.00  0.00     0.021 C 
BRANCH  74  75
ATOM     75  C   UNL A   1      31.003  23.365  26.500  1.00  0.00     0.116 C 
BRANCH  75  76
ATOM     76  N   UNL A   1      30.758  24.768  26.775  1.00  0.00    -0.355 N 
ATOM     77  C   UNL A   1      31.077  25.908  26.104  1.00  0.00     0.238 C 
ATOM     78  H   UNL A   1      30.263  24.928  27.611  1.00  0.00     0.163 HD
ATOM     79  O   UNL A   1      31.015  26.927  26.806  1.00  0.00    -0.273 OA
BRANCH  77  80
ATOM     80  C   UNL A   1      31.399  25.991  24.589  1.00  0.00     0.162 C 
ATOM     81  C   UNL A   1      30.156  25.458  23.808  1.00  0.00     0.030 C 
ATOM     82  N   UNL A   1      31.733  27.311  23.925  1.00  0.00    -0.185 NA
ATOM     83  C   UNL A   1      28.972  26.440  23.796  1.00  0.00     0.004 C 
ATOM     84  C   UNL A   1      30.650  28.307  24.110  1.00  0.00     0.103 C 
ATOM     85  C   UNL A   1      29.399  27.842  23.378  1.00  0.00     0.017 C 
BRANCH  82  86
ATOM     86  S   UNL A   1      33.297  27.895  24.173  1.00  0.00     0.245 S 
ATOM     87  O   UNL A   1      34.121  26.758  24.514  1.00  0.00    -0.207 OA
ATOM     88  O   UNL A   1      33.619  28.809  23.097  1.00  0.00    -0.207 OA
BRANCH  86  89
ATOM     89  C   UNL A   1      33.533  28.877  25.583  1.00  0.00     0.100 A 
ATOM     90  C   UNL A   1      32.779  30.039  25.896  1.00  0.00     0.041 A 
ATOM     91  C   UNL A   1      34.183  28.489  26.743  1.00  0.00     0.104 A 
ATOM     92  C   UNL A   1      32.915  30.263  27.249  1.00  0.00     0.083 A 
ATOM     93  N   UNL A   1      33.772  29.319  27.755  1.00  0.00    -0.366 N 
ATOM     94  H   UNL A   1      34.050  29.249  28.697  1.00  0.00     0.165 HD
ENDBRANCH  86  89
ENDBRANCH  82  86
ENDBRANCH  77  80
ENDBRANCH  75  76
ENDBRANCH  74  75
ENDBRANCH  73  74
ENDBRANCH   1  73
TORSDOF 18
ENDMDL
MODEL 2
REMARK VINA RESULT:     -11.1      3.547      8.287
REMARK SMILES O=C(NCCCCCCNC(=O)[C@H]1CCCCN1S(=O)(=O)c1cc[nH]c1)c1ccc(-c2c3nc(c(-c4cc(S(=O)(=O)[O-])ccc4F)c4ccc([nH]4)c(-c4cc(S(=O)(=O)[O-])ccc4F)c4nc(c(-c5cc(S(=O)(=O)[O-])ccc5F)c5ccc2[nH]5)C=C4)C=C3)cc1
REMARK SMILES IDX 6 1 5 2 4 3 3 4 1 5 2 6 27 8 28 9 89 10 29 11 88 12 30 13
REMARK SMILES IDX 31 14 32 15 82 16 33 17 87 18 81 19 83 20 34 21 86 22 80 23
REMARK SMILES IDX 79 24 35 26 67 27 47 28 66 29 48 30 51 31 65 32 84 33 49 34
REMARK SMILES IDX 50 35 64 37 85 38 52 39 36 40 37 41 45 42 38 43 44 44 46 45
REMARK SMILES IDX 43 46 39 47 40 48 41 49 42 50 68 51 69 52 77 53 70 54 76 55
REMARK SMILES IDX 78 56 75 57 71 58 72 59 73 60 74 61 53 62 54 63 62 64 55 65
REMARK SMILES IDX 61 66 63 67 60 68 56 69 57 70 58 71 59 72 7 73 8 74 9 75
REMARK SMILES IDX 10 76 11 77 12 79 13 80 14 81 18 82 15 83 17 84 16 85 19 86
REMARK SMILES IDX 20 87 21 88 22 89 23 90 26 91 24 92 25 93
REMARK H PARENT 3 7 83 25 51 36 10 78 25 94
REMARK Flexibility Score: inf
ROOT
ATOM      1  C   UNL A   1      31.816  28.540  27.509  1.00  0.00     0.002 C 
ENDROOT
BRANCH   1   2
ATOM      2  C   UNL A   1      31.631  29.809  26.669  1.00  0.00     0.021 C 
BRANCH   2   3
ATOM      3  C   UNL A   1      32.798  30.802  26.678  1.00  0.00     0.116 C 
BRANCH   3   4
ATOM      4  N   UNL A   1      32.533  32.098  27.282  1.00  0.00    -0.352 N 
ATOM      5  O   UNL A   1      32.826  34.046  28.343  1.00  0.00    -0.269 OA
ATOM      6  C   UNL A   1      33.308  32.962  28.015  1.00  0.00     0.251 C 
ATOM      7  H   UNL A   1      31.615  32.420  27.136  1.00  0.00     0.163 HD
BRANCH   6   8
ATOM      8  C   UNL A   1      34.668  32.604  28.483  1.00  0.00     0.039 A 
ATOM      9  C   UNL A   1      34.901  31.670  29.492  1.00  0.00     0.014 A 
ATOM     10  C   UNL A   1      35.761  33.235  27.863  1.00  0.00     0.014 A 
ATOM     11  C   UNL A   1      36.192  31.463  29.964  1.00  0.00     0.010 A 
ATOM     12  C   UNL A   1      37.067  32.994  28.303  1.00  0.00     0.010 A 
ATOM     13  C   UNL A   1      37.281  32.119  29.371  1.00  0.00    -0.014 A 
BRANCH  13  14
ATOM     14  C   UNL A   1      38.630  31.646  29.778  1.00  0.00     0.031 A 
ATOM     15  C   UNL A   1      39.389  32.768  30.520  1.00  0.00     0.074 A 
ATOM     16  C   UNL A   1      39.049  30.417  29.339  1.00  0.00     0.049 A 
ATOM     17  N   UNL A   1      40.619  33.167  30.404  1.00  0.00    -0.248 NA
ATOM     18  C   UNL A   1      38.617  33.682  31.410  1.00  0.00     0.031 C 
ATOM     19  C   UNL A   1      38.196  29.410  28.662  1.00  0.00     0.029 A 
ATOM     20  N   UNL A   1      40.265  29.760  29.359  1.00  0.00    -0.354 N 
ATOM     21  C   UNL A   1      40.827  34.198  31.356  1.00  0.00     0.074 A 
ATOM     22  C   UNL A   1      39.525  34.573  31.816  1.00  0.00     0.031 C 
ATOM     23  C   UNL A   1      38.920  28.326  28.288  1.00  0.00     0.029 A 
ATOM     24  C   UNL A   1      40.308  28.508  28.671  1.00  0.00     0.049 A 
ATOM     25  H   UNL A   1      41.053  30.131  29.818  1.00  0.00     0.167 HD
ATOM     26  C   UNL A   1      42.065  34.559  31.820  1.00  0.00     0.034 A 
ATOM     27  C   UNL A   1      41.387  27.699  28.403  1.00  0.00     0.034 A 
ATOM     28  C   UNL A   1      43.056  33.744  31.201  1.00  0.00     0.049 A 
ATOM     29  C   UNL A   1      42.513  28.365  29.067  1.00  0.00     0.074 A 
ATOM     30  C   UNL A   1      43.558  33.661  29.931  1.00  0.00     0.029 A 
ATOM     31  N   UNL A   1      43.465  32.642  31.917  1.00  0.00    -0.354 N 
ATOM     32  N   UNL A   1      42.725  28.346  30.344  1.00  0.00    -0.248 NA
ATOM     33  C   UNL A   1      43.483  29.104  28.248  1.00  0.00     0.031 C 
ATOM     34  C   UNL A   1      43.840  32.289  29.784  1.00  0.00     0.029 A 
ATOM     35  C   UNL A   1      43.658  31.635  31.013  1.00  0.00     0.049 A 
ATOM     36  H   UNL A   1      43.595  32.590  32.892  1.00  0.00     0.167 HD
ATOM     37  C   UNL A   1      43.665  29.327  30.505  1.00  0.00     0.074 A 
ATOM     38  C   UNL A   1      44.301  29.510  29.218  1.00  0.00     0.031 C 
ATOM     39  C   UNL A   1      43.454  30.272  31.454  1.00  0.00     0.034 A 
BRANCH  26  40
ATOM     40  C   UNL A   1      42.551  35.395  32.988  1.00  0.00     0.023 A 
ATOM     41  C   UNL A   1      41.921  35.150  34.242  1.00  0.00     0.031 A 
ATOM     42  C   UNL A   1      43.320  36.560  32.912  1.00  0.00     0.131 A 
ATOM     43  C   UNL A   1      41.939  36.090  35.280  1.00  0.00     0.055 A 
ATOM     44  C   UNL A   1      43.398  37.469  33.982  1.00  0.00     0.041 A 
ATOM     45  F   UNL A   1      43.959  36.912  31.790  1.00  0.00    -0.206 F 
ATOM     46  C   UNL A   1      42.675  37.259  35.155  1.00  0.00     0.022 A 
BRANCH  43  47
ATOM     47  S   UNL A   1      40.832  35.832  36.700  1.00  0.00     0.124 S 
ATOM     48  O   UNL A   1      40.505  34.416  36.585  1.00  0.00    -0.237 OA
ATOM     49  O   UNL A   1      41.689  36.200  37.824  1.00  0.00    -0.237 OA
ATOM     50  O   UNL A   1      39.726  36.750  36.438  1.00  0.00    -0.744 OA
ENDBRANCH  43  47
ENDBRANCH  26  40
BRANCH  27  51
ATOM     51  C   UNL A   1      41.797  26.432  27.651  1.00  0.00     0.023 A 
ATOM     52  C   UNL A   1      41.922  25.136  28.173  1.00  0.00     0.031 A 
ATOM     53  C   UNL A   1      42.015  26.517  26.230  1.00  0.00     0.131 A 
ATOM     54  C   UNL A   1      42.172  24.032  27.299  1.00  0.00     0.055 A 
ATOM     55  C   UNL A   1      42.167  25.429  25.374  1.00  0.00     0.041 A 
ATOM     56  F   UNL A   1      42.085  27.688  25.581  1.00  0.00    -0.206 F 
ATOM     57  C   UNL A   1      42.233  24.168  25.908  1.00  0.00     0.022 A 
BRANCH  54  58
ATOM     58  S   UNL A   1      42.416  22.343  27.926  1.00  0.00     0.124 S 
ATOM     59  O   UNL A   1      43.251  22.576  29.100  1.00  0.00    -0.237 OA
ATOM     60  O   UNL A   1      41.055  21.885  28.186  1.00  0.00    -0.237 OA
ATOM     61  O   UNL A   1      43.087  21.671  26.812  1.00  0.00    -0.744 OA
ENDBRANCH  54  58
ENDBRANCH  27  51
BRANCH  39  62
ATOM     62  C   UNL A   1      42.580  29.794  32.618  1.00  0.00     0.023 A 
ATOM     63  C   UNL A   1      41.296  30.344  32.818  1.00  0.00     0.031 A 
ATOM     64  C   UNL A   1      43.034  28.928  33.628  1.00  0.00     0.131 A 
ATOM     65  C   UNL A   1      40.555  30.061  33.985  1.00  0.00     0.055 A 
ATOM     66  C   UNL A   1      42.297  28.631  34.782  1.00  0.00     0.041 A 
ATOM     67  F   UNL A   1      44.229  28.349  33.545  1.00  0.00    -0.206 F 
ATOM     68  C   UNL A   1      41.051  29.205  34.970  1.00  0.00     0.022 A 
BRANCH  65  69
ATOM     69  S   UNL A   1      38.918  30.810  34.210  1.00  0.00     0.124 S 
ATOM     70  O   UNL A   1      38.238  30.476  32.964  1.00  0.00    -0.237 OA
ATOM     71  O   UNL A   1      38.423  30.140  35.408  1.00  0.00    -0.237 OA
ATOM     72  O   UNL A   1      39.216  32.232  34.387  1.00  0.00    -0.744 OA
ENDBRANCH  65  69
ENDBRANCH  39  62
ENDBRANCH  13  14
ENDBRANCH   6   8
ENDBRANCH   3   4
ENDBRANCH   2   3
ENDBRANCH   1   2
BRANCH   1  73
ATOM     73  C   UNL A   1      32.430  27.341  26.792  1.00  0.00     0.002 C 
BRANCH  73  74
ATOM     74  C   UNL A   1      31.593  26.794  25.641  1.00  0.00     0.021 C 
BRANCH  74  75
ATOM     75  C   UNL A   1      30.812  25.503  25.879  1.00  0.00     0.116 C 
BRANCH  75  76
ATOM     76  N   UNL A   1      31.563  24.654  26.784  1.00  0.00    -0.355 N 
ATOM     77  C   UNL A   1      32.360  23.570  26.583  1.00  0.00     0.238 C 
ATOM     78  H   UNL A   1      31.481  24.913  27.730  1.00  0.00     0.163 HD
ATOM     79  O   UNL A   1      32.547  22.898  27.608  1.00  0.00    -0.273 OA
BRANCH  77  80
ATOM     80  C   UNL A   1      33.066  23.216  25.247  1.00  0.00     0.162 C 
ATOM     81  C   UNL A   1      34.322  24.136  25.117  1.00  0.00     0.030 C 
ATOM     82  N   UNL A   1      33.583  21.819  24.974  1.00  0.00    -0.185 NA
ATOM     83  C   UNL A   1      35.479  23.732  26.046  1.00  0.00     0.004 C 
ATOM     84  C   UNL A   1      34.548  21.379  26.010  1.00  0.00     0.103 C 
ATOM     85  C   UNL A   1      35.798  22.245  25.943  1.00  0.00     0.017 C 
BRANCH  82  86
ATOM     86  S   UNL A   1      32.427  20.671  24.534  1.00  0.00     0.245 S 
ATOM     87  O   UNL A   1      31.345  20.778  25.485  1.00  0.00    -0.207 OA
ATOM     88  O   UNL A   1      32.229  20.749  23.102  1.00  0.00    -0.207 OA
BRANCH  86  89
ATOM     89  C   UNL A   1      32.871  19.010  24.762  1.00  0.00     0.100 A 
ATOM     90  C   UNL A   1      33.820  18.310  23.971  1.00  0.00     0.041 A 
ATOM     91  C   UNL A   1      32.676  18.269  25.916  1.00  0.00     0.104 A 
ATOM     92  C   UNL A   1      34.243  17.223  24.706  1.00  0.00     0.083 A 
ATOM     93  N   UNL A   1      33.541  17.204  25.884  1.00  0.00    -0.366 N 
ATOM     94  H   UNL A   1      33.642  16.531  26.596  1.00  0.00     0.165 HD
ENDBRANCH  86  89
ENDBRANCH  82  86
ENDBRANCH  77  80
ENDBRANCH  75  76
ENDBRANCH  74  75
ENDBRANCH  73  74
ENDBRANCH   1  73
TORSDOF 18
ENDMDL
MODEL 3
REMARK VINA RESULT:     -11.0      3.234      8.065
REMARK SMILES O=C(NCCCCCCNC(=O)[C@H]1CCCCN1S(=O)(=O)c1cc[nH]c1)c1ccc(-c2c3nc(c(-c4cc(S(=O)(=O)[O-])ccc4F)c4ccc([nH]4)c(-c4cc(S(=O)(=O)[O-])ccc4F)c4nc(c(-c5cc(S(=O)(=O)[O-])ccc5F)c5ccc2[nH]5)C=C4)C=C3)cc1
REMARK SMILES IDX 6 1 5 2 4 3 3 4 1 5 2 6 27 8 28 9 89 10 29 11 88 12 30 13
REMARK SMILES IDX 31 14 32 15 82 16 33 17 87 18 81 19 83 20 34 21 86 22 80 23
REMARK SMILES IDX 79 24 35 26 67 27 47 28 66 29 48 30 51 31 65 32 84 33 49 34
REMARK SMILES IDX 50 35 64 37 85 38 52 39 36 40 37 41 45 42 38 43 44 44 46 45
REMARK SMILES IDX 43 46 39 47 40 48 41 49 42 50 68 51 69 52 77 53 70 54 76 55
REMARK SMILES IDX 78 56 75 57 71 58 72 59 73 60 74 61 53 62 54 63 62 64 55 65
REMARK SMILES IDX 61 66 63 67 60 68 56 69 57 70 58 71 59 72 7 73 8 74 9 75
REMARK SMILES IDX 10 76 11 77 12 79 13 80 14 81 18 82 15 83 17 84 16 85 19 86
REMARK SMILES IDX 20 87 21 88 22 89 23 90 26 91 24 92 25 93
REMARK H PARENT 3 7 83 25 51 36 10 78 25 94
REMARK Flexibility Score: inf
ROOT
ATOM      1  C   UNL A   1      32.983  28.772  26.705  1.00  0.00     0.002 C 
ENDROOT
BRANCH   1   2
ATOM      2  C   UNL A   1      32.285  30.021  27.256  1.00  0.00     0.021 C 
BRANCH   2   3
ATOM      3  C   UNL A   1      32.559  31.331  26.511  1.00  0.00     0.116 C 
BRANCH   3   4
ATOM      4  N   UNL A   1      32.312  32.557  27.256  1.00  0.00    -0.352 N 
ATOM      5  O   UNL A   1      32.628  34.363  28.536  1.00  0.00    -0.269 OA
ATOM      6  C   UNL A   1      33.092  33.312  28.095  1.00  0.00     0.251 C 
ATOM      7  H   UNL A   1      31.404  32.915  27.132  1.00  0.00     0.163 HD
BRANCH   6   8
ATOM      8  C   UNL A   1      34.435  32.870  28.540  1.00  0.00     0.039 A 
ATOM      9  C   UNL A   1      34.631  32.028  29.634  1.00  0.00     0.014 A 
ATOM     10  C   UNL A   1      35.549  33.319  27.809  1.00  0.00     0.014 A 
ATOM     11  C   UNL A   1      35.920  31.743  30.071  1.00  0.00     0.010 A 
ATOM     12  C   UNL A   1      36.847  32.996  28.216  1.00  0.00     0.010 A 
ATOM     13  C   UNL A   1      37.033  32.221  29.363  1.00  0.00    -0.014 A 
BRANCH  13  14
ATOM     14  C   UNL A   1      38.351  31.659  29.761  1.00  0.00     0.031 A 
ATOM     15  C   UNL A   1      39.215  32.749  30.433  1.00  0.00     0.074 A 
ATOM     16  C   UNL A   1      38.660  30.382  29.370  1.00  0.00     0.049 A 
ATOM     17  N   UNL A   1      40.470  33.042  30.271  1.00  0.00    -0.248 NA
ATOM     18  C   UNL A   1      38.541  33.760  31.297  1.00  0.00     0.031 C 
ATOM     19  C   UNL A   1      37.713  29.418  28.760  1.00  0.00     0.029 A 
ATOM     20  N   UNL A   1      39.821  29.631  29.393  1.00  0.00    -0.354 N 
ATOM     21  C   UNL A   1      40.784  34.095  31.170  1.00  0.00     0.074 A 
ATOM     22  C   UNL A   1      39.527  34.593  31.641  1.00  0.00     0.031 C 
ATOM     23  C   UNL A   1      38.338  28.264  28.420  1.00  0.00     0.029 A 
ATOM     24  C   UNL A   1      39.747  28.351  28.763  1.00  0.00     0.049 A 
ATOM     25  H   UNL A   1      40.647  29.959  29.816  1.00  0.00     0.167 HD
ATOM     26  C   UNL A   1      42.057  34.376  31.589  1.00  0.00     0.034 A 
ATOM     27  C   UNL A   1      40.751  27.447  28.508  1.00  0.00     0.034 A 
ATOM     28  C   UNL A   1      42.964  33.457  30.985  1.00  0.00     0.049 A 
ATOM     29  C   UNL A   1      41.942  28.050  29.116  1.00  0.00     0.074 A 
ATOM     30  C   UNL A   1      43.425  33.278  29.710  1.00  0.00     0.029 A 
ATOM     31  N   UNL A   1      43.304  32.359  31.742  1.00  0.00    -0.354 N 
ATOM     32  N   UNL A   1      42.186  28.070  30.387  1.00  0.00    -0.248 NA
ATOM     33  C   UNL A   1      42.946  28.672  28.242  1.00  0.00     0.031 C 
ATOM     34  C   UNL A   1      43.593  31.882  29.620  1.00  0.00     0.029 A 
ATOM     35  C   UNL A   1      43.393  31.300  30.881  1.00  0.00     0.049 A 
ATOM     36  H   UNL A   1      43.454  32.340  32.715  1.00  0.00     0.167 HD
ATOM     37  C   UNL A   1      43.204  28.979  30.482  1.00  0.00     0.074 A 
ATOM     38  C   UNL A   1      43.819  29.053  29.173  1.00  0.00     0.031 C 
ATOM     39  C   UNL A   1      43.093  29.979  31.390  1.00  0.00     0.034 A 
BRANCH  26  40
ATOM     40  C   UNL A   1      42.638  35.221  32.705  1.00  0.00     0.023 A 
ATOM     41  C   UNL A   1      41.992  35.120  33.971  1.00  0.00     0.031 A 
ATOM     42  C   UNL A   1      43.530  36.288  32.561  1.00  0.00     0.131 A 
ATOM     43  C   UNL A   1      42.118  36.113  34.951  1.00  0.00     0.055 A 
ATOM     44  C   UNL A   1      43.712  37.245  33.575  1.00  0.00     0.041 A 
ATOM     45  F   UNL A   1      44.197  36.501  31.420  1.00  0.00    -0.206 F 
ATOM     46  C   UNL A   1      42.977  37.185  34.758  1.00  0.00     0.022 A 
BRANCH  43  47
ATOM     47  S   UNL A   1      40.998  36.061  36.383  1.00  0.00     0.124 S 
ATOM     48  O   UNL A   1      39.769  36.623  35.836  1.00  0.00    -0.237 OA
ATOM     49  O   UNL A   1      40.967  34.634  36.692  1.00  0.00    -0.237 OA
ATOM     50  O   UNL A   1      41.676  36.894  37.373  1.00  0.00    -0.744 OA
ENDBRANCH  43  47
ENDBRANCH  26  40
BRANCH  27  51
ATOM     51  C   UNL A   1      41.039  26.120  27.806  1.00  0.00     0.023 A 
ATOM     52  C   UNL A   1      42.145  25.806  27.001  1.00  0.00     0.031 A 
ATOM     53  C   UNL A   1      40.141  25.016  28.028  1.00  0.00     0.131 A 
ATOM     54  C   UNL A   1      42.338  24.466  26.541  1.00  0.00     0.055 A 
ATOM     55  C   UNL A   1      40.382  23.696  27.654  1.00  0.00     0.041 A 
ATOM     56  F   UNL A   1      38.959  25.162  28.644  1.00  0.00    -0.206 F 
ATOM     57  C   UNL A   1      41.499  23.410  26.912  1.00  0.00     0.022 A 
BRANCH  54  58
ATOM     58  S   UNL A   1      43.711  24.015  25.437  1.00  0.00     0.124 S 
ATOM     59  O   UNL A   1      43.096  22.994  24.594  1.00  0.00    -0.237 OA
ATOM     60  O   UNL A   1      44.037  25.277  24.781  1.00  0.00    -0.237 OA
ATOM     61  O   UNL A   1      44.731  23.522  26.362  1.00  0.00    -0.744 OA
ENDBRANCH  54  58
ENDBRANCH  27  51
BRANCH  39  62
ATOM     62  C   UNL A   1      42.215  29.624  32.594  1.00  0.00     0.023 A 
ATOM     63  C   UNL A   1      40.991  30.295  32.806  1.00  0.00     0.031 A 
ATOM     64  C   UNL A   1      42.620  28.759  33.625  1.00  0.00     0.131 A 
ATOM     65  C   UNL A   1      40.263  30.123  34.002  1.00  0.00     0.055 A 
ATOM     66  C   UNL A   1      41.894  28.572  34.808  1.00  0.00     0.041 A 
ATOM     67  F   UNL A   1      43.756  28.072  33.533  1.00  0.00    -0.206 F 
ATOM     68  C   UNL A   1      40.709  29.262  35.006  1.00  0.00     0.022 A 
BRANCH  65  69
ATOM     69  S   UNL A   1      38.707  31.024  34.240  1.00  0.00     0.124 S 
ATOM     70  O   UNL A   1      39.150  32.410  34.338  1.00  0.00    -0.237 OA
ATOM     71  O   UNL A   1      37.950  30.677  33.041  1.00  0.00    -0.237 OA
ATOM     72  O   UNL A   1      38.173  30.460  35.481  1.00  0.00    -0.744 OA
ENDBRANCH  65  69
ENDBRANCH  39  62
ENDBRANCH  13  14
ENDBRANCH   6   8
ENDBRANCH   3   4
ENDBRANCH   2   3
ENDBRANCH   1   2
BRANCH   1  73
ATOM     73  C   UNL A   1      33.944  28.997  25.541  1.00  0.00     0.002 C 
BRANCH  73  74
ATOM     74  C   UNL A   1      33.296  28.942  24.163  1.00  0.00     0.021 C 
BRANCH  74  75
ATOM     75  C   UNL A   1      34.208  28.740  22.953  1.00  0.00     0.116 C 
BRANCH  75  76
ATOM     76  N   UNL A   1      33.632  27.726  22.091  1.00  0.00    -0.355 N 
ATOM     77  C   UNL A   1      33.336  26.412  22.283  1.00  0.00     0.238 C 
ATOM     78  H   UNL A   1      33.411  28.052  21.188  1.00  0.00     0.163 HD
ATOM     79  O   UNL A   1      33.185  25.780  21.228  1.00  0.00    -0.273 OA
BRANCH  77  80
ATOM     80  C   UNL A   1      33.106  25.742  23.664  1.00  0.00     0.162 C 
ATOM     81  C   UNL A   1      31.694  26.176  24.173  1.00  0.00     0.030 C 
ATOM     82  N   UNL A   1      33.125  24.235  23.822  1.00  0.00    -0.185 NA
ATOM     83  C   UNL A   1      30.536  25.480  23.438  1.00  0.00     0.004 C 
ATOM     84  C   UNL A   1      32.130  23.578  22.941  1.00  0.00     0.103 C 
ATOM     85  C   UNL A   1      30.725  23.969  23.380  1.00  0.00     0.017 C 
BRANCH  82  86
ATOM     86  S   UNL A   1      34.649  23.510  23.852  1.00  0.00     0.245 S 
ATOM     87  O   UNL A   1      34.967  23.144  22.491  1.00  0.00    -0.207 OA
ATOM     88  O   UNL A   1      35.522  24.319  24.676  1.00  0.00    -0.207 OA
BRANCH  86  89
ATOM     89  C   UNL A   1      34.743  21.956  24.617  1.00  0.00     0.100 A 
ATOM     90  C   UNL A   1      33.808  20.903  24.427  1.00  0.00     0.041 A 
ATOM     91  C   UNL A   1      35.875  21.398  25.186  1.00  0.00     0.104 A 
ATOM     92  C   UNL A   1      34.434  19.731  24.793  1.00  0.00     0.083 A 
ATOM     93  N   UNL A   1      35.687  20.041  25.256  1.00  0.00    -0.366 N 
ATOM     94  H   UNL A   1      36.349  19.391  25.587  1.00  0.00     0.165 HD
ENDBRANCH  86  89
ENDBRANCH  82  86
ENDBRANCH  77  80
ENDBRANCH  75  76
ENDBRANCH  74  75
ENDBRANCH  73  74
ENDBRANCH   1  73
TORSDOF 18
ENDMDL
