MODEL 1
REMARK VINA RESULT:     -11.0      0.000      0.000
REMARK SMILES NC(=O)CC[C@@H](C(=O)NCCCCCCNC(=O)c1ccc(-c2c3nc(c(-c4cc(S(=O)(=O)[O-])ccc4F)c4ccc([nH]4)c(-c4cc(S(=O)(=O)[O-])ccc4F)c4nc(c(-c5cc(S(=O)(=O)[O-])ccc5F)c5ccc2[nH]5)C=C4)C=C3)cc1)N1C(=O)/C(=C/c2ccc(C=O)cc2)SC1=S
REMARK SMILES IDX 12 1 11 2 10 3 9 4 7 5 8 6 6 8 5 9 4 10 2 11 1 12 3 15 82 16
REMARK SMILES IDX 83 17 96 18 84 19 85 20 95 21 97 22 86 23 87 24 88 25 94 26
REMARK SMILES IDX 89 27 93 28 90 29 91 30 92 31 13 32 14 33 15 34 16 35 17 36
REMARK SMILES IDX 18 38 19 39 20 40 81 41 21 42 80 43 22 44 23 45 24 46 74 47
REMARK SMILES IDX 25 48 79 49 73 50 75 51 26 52 78 53 72 54 71 55 27 57 59 58
REMARK SMILES IDX 39 59 58 60 40 61 43 62 57 63 76 64 41 65 42 66 56 68 77 69
REMARK SMILES IDX 44 70 28 71 29 72 37 73 30 74 36 75 38 76 35 77 31 78 32 79
REMARK SMILES IDX 33 80 34 81 60 82 61 83 69 84 62 85 68 86 70 87 67 88 63 89
REMARK SMILES IDX 64 90 65 91 66 92 45 93 46 94 54 95 47 96 53 97 55 98 52 99
REMARK SMILES IDX 48 100 49 101 50 102 51 103
REMARK H PARENT 9 7 1 13 1 14 16 37 75 56 43 67
REMARK Flexibility Score: inf
ROOT
ATOM      1  C   UNL A   1      34.631  31.704  28.507  1.00  0.00     0.002 C 
ENDROOT
BRANCH   1   2
ATOM      2  C   UNL A   1      33.865  31.009  27.379  1.00  0.00     0.021 C 
BRANCH   2   3
ATOM      3  C   UNL A   1      33.904  29.486  27.468  1.00  0.00     0.116 C 
BRANCH   3   4
ATOM      4  N   UNL A   1      32.588  28.938  27.677  1.00  0.00    -0.354 N 
ATOM      5  C   UNL A   1      31.838  28.119  26.899  1.00  0.00     0.243 C 
ATOM      6  O   UNL A   1      30.941  27.513  27.500  1.00  0.00    -0.273 OA
ATOM      7  H   UNL A   1      32.163  29.203  28.525  1.00  0.00     0.163 HD
BRANCH   5   8
ATOM      8  C   UNL A   1      32.152  27.822  25.403  1.00  0.00     0.181 C 
BRANCH   8   9
ATOM      9  C   UNL A   1      31.444  28.509  24.216  1.00  0.00     0.045 C 
BRANCH   9  10
ATOM     10  C   UNL A   1      32.109  28.801  22.874  1.00  0.00     0.102 C 
BRANCH  10  11
ATOM     11  C   UNL A   1      33.546  28.424  22.551  1.00  0.00     0.217 C 
ATOM     12  N   UNL A   1      34.585  29.114  23.074  1.00  0.00    -0.370 N 
ATOM     13  H   UNL A   1      35.509  28.856  22.852  1.00  0.00     0.159 HD
ATOM     14  H   UNL A   1      34.417  29.876  23.674  1.00  0.00     0.159 HD
ATOM     15  O   UNL A   1      33.791  27.558  21.712  1.00  0.00    -0.275 OA
ENDBRANCH  10  11
ENDBRANCH   9  10
ENDBRANCH   8   9
BRANCH   8  16
ATOM     16  N   UNL A   1      31.983  26.347  25.215  1.00  0.00    -0.280 N 
ATOM     17  C   UNL A   1      33.111  25.549  25.312  1.00  0.00     0.266 C 
ATOM     18  C   UNL A   1      30.827  25.713  24.781  1.00  0.00     0.149 C 
ATOM     19  O   UNL A   1      34.243  25.936  25.584  1.00  0.00    -0.268 OA
ATOM     20  C   UNL A   1      32.793  24.152  24.926  1.00  0.00     0.081 C 
ATOM     21  S   UNL A   1      31.098  23.977  24.718  1.00  0.00    -0.054 SA
ATOM     22  S   UNL A   1      29.360  26.354  24.300  1.00  0.00    -0.052 S 
ATOM     23  C   UNL A   1      33.740  23.227  24.710  1.00  0.00     0.029 C 
BRANCH  23  24
ATOM     24  C   UNL A   1      33.473  21.853  24.270  1.00  0.00    -0.024 A 
ATOM     25  C   UNL A   1      34.031  20.786  24.982  1.00  0.00     0.009 A 
ATOM     26  C   UNL A   1      32.642  21.589  23.171  1.00  0.00     0.009 A 
ATOM     27  C   UNL A   1      33.714  19.470  24.638  1.00  0.00     0.012 A 
ATOM     28  C   UNL A   1      32.313  20.274  22.830  1.00  0.00     0.012 A 
ATOM     29  C   UNL A   1      32.842  19.219  23.576  1.00  0.00     0.014 A 
BRANCH  29  30
ATOM     30  C   UNL A   1      32.451  17.835  23.243  1.00  0.00     0.260 C 
ATOM     31  O   UNL A   1      32.107  17.507  22.114  1.00  0.00    -0.298 OA
ENDBRANCH  29  30
ENDBRANCH  23  24
ENDBRANCH   8  16
ENDBRANCH   5   8
ENDBRANCH   3   4
ENDBRANCH   2   3
ENDBRANCH   1   2
BRANCH   1  32
ATOM     32  C   UNL A   1      34.875  33.200  28.277  1.00  0.00     0.002 C 
BRANCH  32  33
ATOM     33  C   UNL A   1      33.624  34.082  28.348  1.00  0.00     0.021 C 
BRANCH  33  34
ATOM     34  C   UNL A   1      33.873  35.488  28.888  1.00  0.00     0.116 C 
BRANCH  34  35
ATOM     35  N   UNL A   1      33.137  35.723  30.120  1.00  0.00    -0.352 N 
ATOM     36  C   UNL A   1      33.274  35.120  31.344  1.00  0.00     0.251 C 
ATOM     37  H   UNL A   1      32.440  36.415  30.067  1.00  0.00     0.163 HD
ATOM     38  O   UNL A   1      32.388  35.246  32.185  1.00  0.00    -0.269 OA
BRANCH  36  39
ATOM     39  C   UNL A   1      34.480  34.317  31.638  1.00  0.00     0.039 A 
ATOM     40  C   UNL A   1      35.739  34.894  31.468  1.00  0.00     0.014 A 
ATOM     41  C   UNL A   1      34.364  32.989  32.061  1.00  0.00     0.014 A 
ATOM     42  C   UNL A   1      36.883  34.155  31.772  1.00  0.00     0.010 A 
ATOM     43  C   UNL A   1      35.502  32.280  32.435  1.00  0.00     0.010 A 
ATOM     44  C   UNL A   1      36.774  32.852  32.289  1.00  0.00    -0.014 A 
BRANCH  44  45
ATOM     45  C   UNL A   1      37.981  32.074  32.675  1.00  0.00     0.031 A 
ATOM     46  C   UNL A   1      38.696  32.384  33.963  1.00  0.00     0.074 A 
ATOM     47  C   UNL A   1      38.459  31.131  31.838  1.00  0.00     0.049 A 
ATOM     48  N   UNL A   1      39.795  31.862  34.444  1.00  0.00    -0.248 NA
ATOM     49  C   UNL A   1      38.113  33.435  34.812  1.00  0.00     0.031 C 
ATOM     50  C   UNL A   1      37.866  30.767  30.548  1.00  0.00     0.029 A 
ATOM     51  N   UNL A   1      39.554  30.310  31.939  1.00  0.00    -0.354 N 
ATOM     52  C   UNL A   1      40.046  32.532  35.636  1.00  0.00     0.074 A 
ATOM     53  C   UNL A   1      39.009  33.530  35.783  1.00  0.00     0.031 C 
ATOM     54  C   UNL A   1      38.585  29.777  29.996  1.00  0.00     0.029 A 
ATOM     55  C   UNL A   1      39.721  29.471  30.860  1.00  0.00     0.049 A 
ATOM     56  H   UNL A   1      40.163  30.318  32.712  1.00  0.00     0.167 HD
ATOM     57  C   UNL A   1      41.041  32.322  36.532  1.00  0.00     0.034 A 
ATOM     58  C   UNL A   1      40.687  28.570  30.591  1.00  0.00     0.034 A 
ATOM     59  C   UNL A   1      42.054  31.305  36.378  1.00  0.00     0.049 A 
ATOM     60  C   UNL A   1      41.801  28.382  31.594  1.00  0.00     0.074 A 
ATOM     61  C   UNL A   1      43.060  30.957  37.262  1.00  0.00     0.029 A 
ATOM     62  N   UNL A   1      42.198  30.484  35.268  1.00  0.00    -0.354 N 
ATOM     63  N   UNL A   1      41.982  28.977  32.751  1.00  0.00    -0.248 NA
ATOM     64  C   UNL A   1      42.834  27.393  31.260  1.00  0.00     0.031 C 
ATOM     65  C   UNL A   1      43.862  29.988  36.653  1.00  0.00     0.029 A 
ATOM     66  C   UNL A   1      43.303  29.660  35.428  1.00  0.00     0.049 A 
ATOM     67  H   UNL A   1      41.603  30.484  34.483  1.00  0.00     0.167 HD
ATOM     68  C   UNL A   1      43.125  28.400  33.299  1.00  0.00     0.074 A 
ATOM     69  C   UNL A   1      43.578  27.402  32.355  1.00  0.00     0.031 C 
ATOM     70  C   UNL A   1      43.743  28.666  34.478  1.00  0.00     0.034 A 
BRANCH  57  71
ATOM     71  C   UNL A   1      41.110  33.224  37.740  1.00  0.00     0.023 A 
ATOM     72  C   UNL A   1      40.336  32.992  38.889  1.00  0.00     0.031 A 
ATOM     73  C   UNL A   1      41.984  34.327  37.746  1.00  0.00     0.131 A 
ATOM     74  C   UNL A   1      40.414  33.877  39.976  1.00  0.00     0.055 A 
ATOM     75  C   UNL A   1      42.112  35.159  38.859  1.00  0.00     0.041 A 
ATOM     76  F   UNL A   1      42.731  34.612  36.668  1.00  0.00    -0.206 F 
ATOM     77  C   UNL A   1      41.317  34.943  39.979  1.00  0.00     0.022 A 
BRANCH  74  78
ATOM     78  S   UNL A   1      39.235  33.684  41.341  1.00  0.00     0.124 S 
ATOM     79  O   UNL A   1      38.774  35.057  41.531  1.00  0.00    -0.237 OA
ATOM     80  O   UNL A   1      38.259  32.753  40.787  1.00  0.00    -0.237 OA
ATOM     81  O   UNL A   1      40.054  33.153  42.429  1.00  0.00    -0.744 OA
ENDBRANCH  74  78
ENDBRANCH  57  71
BRANCH  58  82
ATOM     82  C   UNL A   1      40.675  27.783  29.322  1.00  0.00     0.023 A 
ATOM     83  C   UNL A   1      41.577  28.074  28.286  1.00  0.00     0.031 A 
ATOM     84  C   UNL A   1      39.707  26.789  29.088  1.00  0.00     0.131 A 
ATOM     85  C   UNL A   1      41.445  27.438  27.042  1.00  0.00     0.055 A 
ATOM     86  C   UNL A   1      39.626  26.107  27.872  1.00  0.00     0.041 A 
ATOM     87  F   UNL A   1      38.818  26.467  30.042  1.00  0.00    -0.206 F 
ATOM     88  C   UNL A   1      40.486  26.446  26.833  1.00  0.00     0.022 A 
BRANCH  85  89
ATOM     89  S   UNL A   1      42.458  28.029  25.658  1.00  0.00     0.124 S 
ATOM     90  O   UNL A   1      41.662  29.147  25.165  1.00  0.00    -0.237 OA
ATOM     91  O   UNL A   1      43.709  28.376  26.325  1.00  0.00    -0.237 OA
ATOM     92  O   UNL A   1      42.528  26.871  24.769  1.00  0.00    -0.744 OA
ENDBRANCH  85  89
ENDBRANCH  58  82
BRANCH  70  93
ATOM     93  C   UNL A   1      44.940  27.819  34.835  1.00  0.00     0.023 A 
ATOM     94  C   UNL A   1      44.813  26.612  35.543  1.00  0.00     0.031 A 
ATOM     95  C   UNL A   1      46.233  28.237  34.468  1.00  0.00     0.131 A 
ATOM     96  C   UNL A   1      45.960  25.895  35.916  1.00  0.00     0.055 A 
ATOM     97  C   UNL A   1      47.365  27.484  34.779  1.00  0.00     0.041 A 
ATOM     98  F   UNL A   1      46.415  29.383  33.794  1.00  0.00    -0.206 F 
ATOM     99  C   UNL A   1      47.234  26.313  35.520  1.00  0.00     0.022 A 
BRANCH  96 100
ATOM    100  S   UNL A   1      45.776  24.463  37.012  1.00  0.00     0.124 S 
ATOM    101  O   UNL A   1      44.828  23.635  36.271  1.00  0.00    -0.237 OA
ATOM    102  O   UNL A   1      47.141  23.952  37.091  1.00  0.00    -0.237 OA
ATOM    103  O   UNL A   1      45.260  25.041  38.250  1.00  0.00    -0.744 OA
ENDBRANCH  96 100
ENDBRANCH  70  93
ENDBRANCH  44  45
ENDBRANCH  36  39
ENDBRANCH  34  35
ENDBRANCH  33  34
ENDBRANCH  32  33
ENDBRANCH   1  32
TORSDOF 22
ENDMDL
MODEL 2
REMARK VINA RESULT:     -10.7      5.666     10.392
REMARK SMILES NC(=O)CC[C@@H](C(=O)NCCCCCCNC(=O)c1ccc(-c2c3nc(c(-c4cc(S(=O)(=O)[O-])ccc4F)c4ccc([nH]4)c(-c4cc(S(=O)(=O)[O-])ccc4F)c4nc(c(-c5cc(S(=O)(=O)[O-])ccc5F)c5ccc2[nH]5)C=C4)C=C3)cc1)N1C(=O)/C(=C/c2ccc(C=O)cc2)SC1=S
REMARK SMILES IDX 12 1 11 2 10 3 9 4 7 5 8 6 6 8 5 9 4 10 2 11 1 12 3 15 82 16
REMARK SMILES IDX 83 17 96 18 84 19 85 20 95 21 97 22 86 23 87 24 88 25 94 26
REMARK SMILES IDX 89 27 93 28 90 29 91 30 92 31 13 32 14 33 15 34 16 35 17 36
REMARK SMILES IDX 18 38 19 39 20 40 81 41 21 42 80 43 22 44 23 45 24 46 74 47
REMARK SMILES IDX 25 48 79 49 73 50 75 51 26 52 78 53 72 54 71 55 27 57 59 58
REMARK SMILES IDX 39 59 58 60 40 61 43 62 57 63 76 64 41 65 42 66 56 68 77 69
REMARK SMILES IDX 44 70 28 71 29 72 37 73 30 74 36 75 38 76 35 77 31 78 32 79
REMARK SMILES IDX 33 80 34 81 60 82 61 83 69 84 62 85 68 86 70 87 67 88 63 89
REMARK SMILES IDX 64 90 65 91 66 92 45 93 46 94 54 95 47 96 53 97 55 98 52 99
REMARK SMILES IDX 48 100 49 101 50 102 51 103
REMARK H PARENT 9 7 1 13 1 14 16 37 75 56 43 67
REMARK Flexibility Score: inf
ROOT
ATOM      1  C   UNL A   1      35.096  20.686  25.610  1.00  0.00     0.002 C 
ENDROOT
BRANCH   1   2
ATOM      2  C   UNL A   1      34.093  20.643  24.454  1.00  0.00     0.021 C 
BRANCH   2   3
ATOM      3  C   UNL A   1      32.650  20.868  24.896  1.00  0.00     0.116 C 
BRANCH   3   4
ATOM      4  N   UNL A   1      32.560  21.907  25.890  1.00  0.00    -0.354 N 
ATOM      5  C   UNL A   1      32.290  23.229  25.767  1.00  0.00     0.243 C 
ATOM      6  O   UNL A   1      31.898  23.777  26.805  1.00  0.00    -0.273 OA
ATOM      7  H   UNL A   1      32.722  21.605  26.814  1.00  0.00     0.163 HD
BRANCH   5   8
ATOM      8  C   UNL A   1      32.310  23.991  24.408  1.00  0.00     0.181 C 
BRANCH   8   9
ATOM      9  C   UNL A   1      33.365  23.771  23.305  1.00  0.00     0.045 C 
BRANCH   9  10
ATOM     10  C   UNL A   1      33.176  24.171  21.845  1.00  0.00     0.102 C 
BRANCH  10  11
ATOM     11  C   UNL A   1      32.892  25.595  21.396  1.00  0.00     0.217 C 
ATOM     12  N   UNL A   1      31.710  25.926  20.828  1.00  0.00    -0.370 N 
ATOM     13  H   UNL A   1      31.544  26.853  20.542  1.00  0.00     0.159 HD
ATOM     14  H   UNL A   1      31.016  25.239  20.699  1.00  0.00     0.159 HD
ATOM     15  O   UNL A   1      33.777  26.449  21.430  1.00  0.00    -0.275 OA
ENDBRANCH  10  11
ENDBRANCH   9  10
ENDBRANCH   8   9
BRANCH   8  16
ATOM     16  N   UNL A   1      32.323  25.451  24.737  1.00  0.00    -0.280 N 
ATOM     17  C   UNL A   1      33.483  25.985  25.271  1.00  0.00     0.266 C 
ATOM     18  C   UNL A   1      31.221  26.296  24.716  1.00  0.00     0.149 C 
ATOM     19  O   UNL A   1      34.531  25.375  25.463  1.00  0.00    -0.268 OA
ATOM     20  C   UNL A   1      33.262  27.389  25.697  1.00  0.00     0.081 C 
ATOM     21  S   UNL A   1      31.718  27.920  25.168  1.00  0.00    -0.054 SA
ATOM     22  S   UNL A   1      29.614  25.965  24.399  1.00  0.00    -0.052 S 
ATOM     23  C   UNL A   1      34.142  28.065  26.450  1.00  0.00     0.029 C 
BRANCH  23  24
ATOM     24  C   UNL A   1      33.936  29.432  26.943  1.00  0.00    -0.024 A 
ATOM     25  C   UNL A   1      35.030  30.154  27.433  1.00  0.00     0.009 A 
ATOM     26  C   UNL A   1      32.673  30.039  26.899  1.00  0.00     0.009 A 
ATOM     27  C   UNL A   1      34.874  31.487  27.819  1.00  0.00     0.012 A 
ATOM     28  C   UNL A   1      32.514  31.376  27.273  1.00  0.00     0.012 A 
ATOM     29  C   UNL A   1      33.622  32.099  27.719  1.00  0.00     0.014 A 
BRANCH  29  30
ATOM     30  C   UNL A   1      33.459  33.525  28.065  1.00  0.00     0.260 C 
ATOM     31  O   UNL A   1      32.399  34.118  27.908  1.00  0.00    -0.298 OA
ENDBRANCH  29  30
ENDBRANCH  23  24
ENDBRANCH   8  16
ENDBRANCH   5   8
ENDBRANCH   3   4
ENDBRANCH   2   3
ENDBRANCH   1   2
BRANCH   1  32
ATOM     32  C   UNL A   1      36.455  21.294  25.245  1.00  0.00     0.002 C 
BRANCH  32  33
ATOM     33  C   UNL A   1      37.612  20.292  25.151  1.00  0.00     0.021 C 
BRANCH  33  34
ATOM     34  C   UNL A   1      38.964  20.846  25.594  1.00  0.00     0.116 C 
BRANCH  34  35
ATOM     35  N   UNL A   1      39.902  19.778  25.899  1.00  0.00    -0.352 N 
ATOM     36  C   UNL A   1      41.251  19.845  26.134  1.00  0.00     0.251 C 
ATOM     37  H   UNL A   1      39.511  18.876  25.944  1.00  0.00     0.163 HD
ATOM     38  O   UNL A   1      41.925  18.819  26.099  1.00  0.00    -0.269 OA
BRANCH  36  39
ATOM     39  C   UNL A   1      41.885  21.150  26.417  1.00  0.00     0.039 A 
ATOM     40  C   UNL A   1      42.168  22.012  25.356  1.00  0.00     0.014 A 
ATOM     41  C   UNL A   1      42.218  21.510  27.726  1.00  0.00     0.014 A 
ATOM     42  C   UNL A   1      42.738  23.260  25.615  1.00  0.00     0.010 A 
ATOM     43  C   UNL A   1      42.717  22.783  27.988  1.00  0.00     0.010 A 
ATOM     44  C   UNL A   1      42.989  23.670  26.936  1.00  0.00    -0.014 A 
BRANCH  44  45
ATOM     45  C   UNL A   1      43.539  25.018  27.232  1.00  0.00     0.031 A 
ATOM     46  C   UNL A   1      42.666  26.064  27.874  1.00  0.00     0.074 A 
ATOM     47  C   UNL A   1      44.804  25.314  26.870  1.00  0.00     0.049 A 
ATOM     48  N   UNL A   1      42.941  27.311  28.154  1.00  0.00    -0.248 NA
ATOM     49  C   UNL A   1      41.296  25.660  28.228  1.00  0.00     0.031 C 
ATOM     50  C   UNL A   1      45.733  24.390  26.212  1.00  0.00     0.029 A 
ATOM     51  N   UNL A   1      45.529  26.472  26.995  1.00  0.00    -0.354 N 
ATOM     52  C   UNL A   1      41.778  27.847  28.695  1.00  0.00     0.074 A 
ATOM     53  C   UNL A   1      40.779  26.800  28.661  1.00  0.00     0.031 C 
ATOM     54  C   UNL A   1      46.909  25.008  26.021  1.00  0.00     0.029 A 
ATOM     55  C   UNL A   1      46.807  26.386  26.490  1.00  0.00     0.049 A 
ATOM     56  H   UNL A   1      45.169  27.289  27.409  1.00  0.00     0.167 HD
ATOM     57  C   UNL A   1      41.568  29.092  29.188  1.00  0.00     0.034 A 
ATOM     58  C   UNL A   1      47.779  27.316  26.401  1.00  0.00     0.034 A 
ATOM     59  C   UNL A   1      42.585  30.115  29.234  1.00  0.00     0.049 A 
ATOM     60  C   UNL A   1      47.504  28.704  26.930  1.00  0.00     0.074 A 
ATOM     61  C   UNL A   1      42.501  31.383  29.782  1.00  0.00     0.029 A 
ATOM     62  N   UNL A   1      43.862  29.995  28.703  1.00  0.00    -0.354 N 
ATOM     63  N   UNL A   1      46.418  29.171  27.502  1.00  0.00    -0.248 NA
ATOM     64  C   UNL A   1      48.589  29.687  26.810  1.00  0.00     0.031 C 
ATOM     65  C   UNL A   1      43.693  32.058  29.508  1.00  0.00     0.029 A 
ATOM     66  C   UNL A   1      44.559  31.183  28.873  1.00  0.00     0.049 A 
ATOM     67  H   UNL A   1      44.221  29.187  28.270  1.00  0.00     0.167 HD
ATOM     68  C   UNL A   1      46.709  30.488  27.850  1.00  0.00     0.074 A 
ATOM     69  C   UNL A   1      48.075  30.733  27.437  1.00  0.00     0.031 C 
ATOM     70  C   UNL A   1      45.923  31.412  28.458  1.00  0.00     0.034 A 
BRANCH  57  71
ATOM     71  C   UNL A   1      40.185  29.433  29.687  1.00  0.00     0.023 A 
ATOM     72  C   UNL A   1      39.879  29.489  31.057  1.00  0.00     0.031 A 
ATOM     73  C   UNL A   1      39.159  29.728  28.770  1.00  0.00     0.131 A 
ATOM     74  C   UNL A   1      38.570  29.782  31.470  1.00  0.00     0.055 A 
ATOM     75  C   UNL A   1      37.879  30.093  29.189  1.00  0.00     0.041 A 
ATOM     76  F   UNL A   1      39.386  29.668  27.449  1.00  0.00    -0.206 F 
ATOM     77  C   UNL A   1      37.575  30.112  30.547  1.00  0.00     0.022 A 
BRANCH  74  78
ATOM     78  S   UNL A   1      38.155  29.616  33.228  1.00  0.00     0.124 S 
ATOM     79  O   UNL A   1      37.359  28.391  33.230  1.00  0.00    -0.237 OA
ATOM     80  O   UNL A   1      39.468  29.525  33.856  1.00  0.00    -0.237 OA
ATOM     81  O   UNL A   1      37.407  30.837  33.521  1.00  0.00    -0.744 OA
ENDBRANCH  74  78
ENDBRANCH  57  71
BRANCH  58  82
ATOM     82  C   UNL A   1      49.097  26.995  25.778  1.00  0.00     0.023 A 
ATOM     83  C   UNL A   1      50.190  26.602  26.569  1.00  0.00     0.031 A 
ATOM     84  C   UNL A   1      49.314  27.159  24.397  1.00  0.00     0.131 A 
ATOM     85  C   UNL A   1      51.461  26.464  25.991  1.00  0.00     0.055 A 
ATOM     86  C   UNL A   1      50.566  26.949  23.815  1.00  0.00     0.041 A 
ATOM     87  F   UNL A   1      48.307  27.531  23.591  1.00  0.00    -0.206 F 
ATOM     88  C   UNL A   1      51.653  26.619  24.617  1.00  0.00     0.022 A 
BRANCH  85  89
ATOM     89  S   UNL A   1      52.886  26.214  27.086  1.00  0.00     0.124 S 
ATOM     90  O   UNL A   1      53.427  24.957  26.583  1.00  0.00    -0.237 OA
ATOM     91  O   UNL A   1      53.682  27.408  26.822  1.00  0.00    -0.237 OA
ATOM     92  O   UNL A   1      52.284  26.149  28.416  1.00  0.00    -0.744 OA
ENDBRANCH  85  89
ENDBRANCH  58  82
BRANCH  70  93
ATOM     93  C   UNL A   1      46.547  32.751  28.769  1.00  0.00     0.023 A 
ATOM     94  C   UNL A   1      46.575  33.796  27.829  1.00  0.00     0.031 A 
ATOM     95  C   UNL A   1      47.132  32.980  30.028  1.00  0.00     0.131 A 
ATOM     96  C   UNL A   1      47.230  34.997  28.138  1.00  0.00     0.055 A 
ATOM     97  C   UNL A   1      47.718  34.202  30.355  1.00  0.00     0.041 A 
ATOM     98  F   UNL A   1      47.137  32.018  30.964  1.00  0.00    -0.206 F 
ATOM     99  C   UNL A   1      47.783  35.215  29.403  1.00  0.00     0.022 A 
BRANCH  96 100
ATOM    100  S   UNL A   1      47.438  36.238  26.832  1.00  0.00     0.124 S 
ATOM    101  O   UNL A   1      47.690  35.405  25.660  1.00  0.00    -0.237 OA
ATOM    102  O   UNL A   1      46.155  36.933  26.854  1.00  0.00    -0.237 OA
ATOM    103  O   UNL A   1      48.578  37.029  27.288  1.00  0.00    -0.744 OA
ENDBRANCH  96 100
ENDBRANCH  70  93
ENDBRANCH  44  45
ENDBRANCH  36  39
ENDBRANCH  34  35
ENDBRANCH  33  34
ENDBRANCH  32  33
ENDBRANCH   1  32
TORSDOF 22
ENDMDL
MODEL 3
REMARK VINA RESULT:     -10.3      1.428      7.596
REMARK SMILES NC(=O)CC[C@@H](C(=O)NCCCCCCNC(=O)c1ccc(-c2c3nc(c(-c4cc(S(=O)(=O)[O-])ccc4F)c4ccc([nH]4)c(-c4cc(S(=O)(=O)[O-])ccc4F)c4nc(c(-c5cc(S(=O)(=O)[O-])ccc5F)c5ccc2[nH]5)C=C4)C=C3)cc1)N1C(=O)/C(=C/c2ccc(C=O)cc2)SC1=S
REMARK SMILES IDX 12 1 11 2 10 3 9 4 7 5 8 6 6 8 5 9 4 10 2 11 1 12 3 15 82 16
REMARK SMILES IDX 83 17 96 18 84 19 85 20 95 21 97 22 86 23 87 24 88 25 94 26
REMARK SMILES IDX 89 27 93 28 90 29 91 30 92 31 13 32 14 33 15 34 16 35 17 36
REMARK SMILES IDX 18 38 19 39 20 40 81 41 21 42 80 43 22 44 23 45 24 46 74 47
REMARK SMILES IDX 25 48 79 49 73 50 75 51 26 52 78 53 72 54 71 55 27 57 59 58
REMARK SMILES IDX 39 59 58 60 40 61 43 62 57 63 76 64 41 65 42 66 56 68 77 69
REMARK SMILES IDX 44 70 28 71 29 72 37 73 30 74 36 75 38 76 35 77 31 78 32 79
REMARK SMILES IDX 33 80 34 81 60 82 61 83 69 84 62 85 68 86 70 87 67 88 63 89
REMARK SMILES IDX 64 90 65 91 66 92 45 93 46 94 54 95 47 96 53 97 55 98 52 99
REMARK SMILES IDX 48 100 49 101 50 102 51 103
REMARK H PARENT 9 7 1 13 1 14 16 37 75 56 43 67
REMARK Flexibility Score: inf
ROOT
ATOM      1  C   UNL A   1      34.370  31.957  28.495  1.00  0.00     0.002 C 
ENDROOT
BRANCH   1   2
ATOM      2  C   UNL A   1      33.501  31.340  27.396  1.00  0.00     0.021 C 
BRANCH   2   3
ATOM      3  C   UNL A   1      33.726  29.841  27.217  1.00  0.00     0.116 C 
BRANCH   3   4
ATOM      4  N   UNL A   1      32.541  29.089  27.544  1.00  0.00    -0.354 N 
ATOM      5  C   UNL A   1      31.882  28.131  26.848  1.00  0.00     0.243 C 
ATOM      6  O   UNL A   1      31.150  27.404  27.534  1.00  0.00    -0.273 OA
ATOM      7  H   UNL A   1      32.145  29.308  28.419  1.00  0.00     0.163 HD
BRANCH   5   8
ATOM      8  C   UNL A   1      32.124  27.838  25.338  1.00  0.00     0.181 C 
BRANCH   8   9
ATOM      9  C   UNL A   1      31.362  28.529  24.188  1.00  0.00     0.045 C 
BRANCH   9  10
ATOM     10  C   UNL A   1      30.617  29.853  24.327  1.00  0.00     0.102 C 
BRANCH  10  11
ATOM     11  C   UNL A   1      29.586  30.344  23.322  1.00  0.00     0.217 C 
ATOM     12  N   UNL A   1      28.607  31.202  23.689  1.00  0.00    -0.370 N 
ATOM     13  H   UNL A   1      27.948  31.509  23.026  1.00  0.00     0.159 HD
ATOM     14  H   UNL A   1      28.552  31.518  24.620  1.00  0.00     0.159 HD
ATOM     15  O   UNL A   1      29.551  29.878  22.185  1.00  0.00    -0.275 OA
ENDBRANCH  10  11
ENDBRANCH   9  10
ENDBRANCH   8   9
BRANCH   8  16
ATOM     16  N   UNL A   1      31.947  26.364  25.153  1.00  0.00    -0.280 N 
ATOM     17  C   UNL A   1      33.072  25.560  25.239  1.00  0.00     0.266 C 
ATOM     18  C   UNL A   1      30.784  25.735  24.733  1.00  0.00     0.149 C 
ATOM     19  O   UNL A   1      34.209  25.942  25.499  1.00  0.00    -0.268 OA
ATOM     20  C   UNL A   1      32.743  24.164  24.858  1.00  0.00     0.081 C 
ATOM     21  S   UNL A   1      31.046  23.998  24.669  1.00  0.00    -0.054 SA
ATOM     22  S   UNL A   1      29.315  26.382  24.266  1.00  0.00    -0.052 S 
ATOM     23  C   UNL A   1      33.684  23.235  24.633  1.00  0.00     0.029 C 
BRANCH  23  24
ATOM     24  C   UNL A   1      33.406  21.861  24.197  1.00  0.00    -0.024 A 
ATOM     25  C   UNL A   1      33.971  20.793  24.901  1.00  0.00     0.009 A 
ATOM     26  C   UNL A   1      32.557  21.600  23.112  1.00  0.00     0.009 A 
ATOM     27  C   UNL A   1      33.645  19.478  24.562  1.00  0.00     0.012 A 
ATOM     28  C   UNL A   1      32.219  20.286  22.776  1.00  0.00     0.012 A 
ATOM     29  C   UNL A   1      32.756  19.230  23.514  1.00  0.00     0.014 A 
BRANCH  29  30
ATOM     30  C   UNL A   1      32.355  17.847  23.187  1.00  0.00     0.260 C 
ATOM     31  O   UNL A   1      33.108  17.066  22.618  1.00  0.00    -0.298 OA
ENDBRANCH  29  30
ENDBRANCH  23  24
ENDBRANCH   8  16
ENDBRANCH   5   8
ENDBRANCH   3   4
ENDBRANCH   2   3
ENDBRANCH   1   2
BRANCH   1  32
ATOM     32  C   UNL A   1      34.444  33.488  28.456  1.00  0.00     0.002 C 
BRANCH  32  33
ATOM     33  C   UNL A   1      33.176  34.213  28.919  1.00  0.00     0.021 C 
BRANCH  33  34
ATOM     34  C   UNL A   1      33.408  35.640  29.408  1.00  0.00     0.116 C 
BRANCH  34  35
ATOM     35  N   UNL A   1      32.631  35.925  30.605  1.00  0.00    -0.352 N 
ATOM     36  C   UNL A   1      32.796  35.453  31.882  1.00  0.00     0.251 C 
ATOM     37  H   UNL A   1      31.880  36.548  30.480  1.00  0.00     0.163 HD
ATOM     38  O   UNL A   1      31.886  35.581  32.697  1.00  0.00    -0.269 OA
BRANCH  36  39
ATOM     39  C   UNL A   1      34.058  34.786  32.263  1.00  0.00     0.039 A 
ATOM     40  C   UNL A   1      35.255  35.501  32.186  1.00  0.00     0.014 A 
ATOM     41  C   UNL A   1      34.060  33.450  32.677  1.00  0.00     0.014 A 
ATOM     42  C   UNL A   1      36.448  34.890  32.573  1.00  0.00     0.010 A 
ATOM     43  C   UNL A   1      35.240  32.868  33.133  1.00  0.00     0.010 A 
ATOM     44  C   UNL A   1      36.448  33.579  33.080  1.00  0.00    -0.014 A 
BRANCH  44  45
ATOM     45  C   UNL A   1      37.702  32.937  33.554  1.00  0.00     0.031 A 
ATOM     46  C   UNL A   1      38.364  31.871  32.721  1.00  0.00     0.074 A 
ATOM     47  C   UNL A   1      38.209  33.275  34.757  1.00  0.00     0.049 A 
ATOM     48  N   UNL A   1      39.422  31.152  32.990  1.00  0.00    -0.248 NA
ATOM     49  C   UNL A   1      37.739  31.555  31.426  1.00  0.00     0.031 C 
ATOM     50  C   UNL A   1      37.635  34.273  35.665  1.00  0.00     0.029 A 
ATOM     51  N   UNL A   1      39.314  32.818  35.429  1.00  0.00    -0.354 N 
ATOM     52  C   UNL A   1      39.580  30.287  31.912  1.00  0.00     0.074 A 
ATOM     53  C   UNL A   1      38.479  30.541  31.006  1.00  0.00     0.031 C 
ATOM     54  C   UNL A   1      38.409  34.372  36.757  1.00  0.00     0.029 A 
ATOM     55  C   UNL A   1      39.502  33.410  36.658  1.00  0.00     0.049 A 
ATOM     56  H   UNL A   1      39.917  32.130  35.067  1.00  0.00     0.167 HD
ATOM     57  C   UNL A   1      40.560  29.377  31.692  1.00  0.00     0.034 A 
ATOM     58  C   UNL A   1      40.439  33.191  37.603  1.00  0.00     0.034 A 
ATOM     59  C   UNL A   1      41.662  29.156  32.597  1.00  0.00     0.049 A 
ATOM     60  C   UNL A   1      41.500  32.148  37.342  1.00  0.00     0.074 A 
ATOM     61  C   UNL A   1      42.749  28.315  32.434  1.00  0.00     0.029 A 
ATOM     62  N   UNL A   1      41.813  29.765  33.835  1.00  0.00    -0.354 N 
ATOM     63  N   UNL A   1      41.671  31.389  36.284  1.00  0.00    -0.248 NA
ATOM     64  C   UNL A   1      42.498  31.940  38.398  1.00  0.00     0.031 C 
ATOM     65  C   UNL A   1      43.510  28.351  33.606  1.00  0.00     0.029 A 
ATOM     66  C   UNL A   1      42.952  29.285  34.464  1.00  0.00     0.049 A 
ATOM     67  H   UNL A   1      41.202  30.439  34.212  1.00  0.00     0.167 HD
ATOM     68  C   UNL A   1      42.824  30.647  36.533  1.00  0.00     0.074 A 
ATOM     69  C   UNL A   1      43.311  31.063  37.831  1.00  0.00     0.031 C 
ATOM     70  C   UNL A   1      43.429  29.710  35.759  1.00  0.00     0.034 A 
BRANCH  57  71
ATOM     71  C   UNL A   1      40.474  28.529  30.447  1.00  0.00     0.023 A 
ATOM     72  C   UNL A   1      41.349  28.707  29.361  1.00  0.00     0.031 A 
ATOM     73  C   UNL A   1      39.509  27.509  30.355  1.00  0.00     0.131 A 
ATOM     74  C   UNL A   1      41.209  27.911  28.213  1.00  0.00     0.055 A 
ATOM     75  C   UNL A   1      39.425  26.673  29.241  1.00  0.00     0.041 A 
ATOM     76  F   UNL A   1      38.631  27.308  31.350  1.00  0.00    -0.206 F 
ATOM     77  C   UNL A   1      40.271  26.877  28.156  1.00  0.00     0.022 A 
BRANCH  74  78
ATOM     78  S   UNL A   1      42.195  28.322  26.747  1.00  0.00     0.124 S 
ATOM     79  O   UNL A   1      41.204  28.198  25.680  1.00  0.00    -0.237 OA
ATOM     80  O   UNL A   1      42.652  29.675  27.041  1.00  0.00    -0.237 OA
ATOM     81  O   UNL A   1      43.239  27.299  26.738  1.00  0.00    -0.744 OA
ENDBRANCH  74  78
ENDBRANCH  57  71
BRANCH  58  82
ATOM     82  C   UNL A   1      40.426  33.948  38.890  1.00  0.00     0.023 A 
ATOM     83  C   UNL A   1      39.621  33.529  39.962  1.00  0.00     0.031 A 
ATOM     84  C   UNL A   1      41.145  35.148  39.040  1.00  0.00     0.131 A 
ATOM     85  C   UNL A   1      39.493  34.339  41.101  1.00  0.00     0.055 A 
ATOM     86  C   UNL A   1      41.071  35.913  40.206  1.00  0.00     0.041 A 
ATOM     87  F   UNL A   1      41.932  35.598  38.050  1.00  0.00    -0.206 F 
ATOM     88  C   UNL A   1      40.224  35.520  41.237  1.00  0.00     0.022 A 
BRANCH  85  89
ATOM     89  S   UNL A   1      38.248  33.892  42.344  1.00  0.00     0.124 S 
ATOM     90  O   UNL A   1      37.089  34.647  41.884  1.00  0.00    -0.237 OA
ATOM     91  O   UNL A   1      38.174  32.443  42.189  1.00  0.00    -0.237 OA
ATOM     92  O   UNL A   1      38.839  34.355  43.597  1.00  0.00    -0.744 OA
ENDBRANCH  85  89
ENDBRANCH  58  82
BRANCH  70  93
ATOM     93  C   UNL A   1      44.719  29.120  36.273  1.00  0.00     0.023 A 
ATOM     94  C   UNL A   1      44.746  27.948  37.048  1.00  0.00     0.031 A 
ATOM     95  C   UNL A   1      45.944  29.751  35.988  1.00  0.00     0.131 A 
ATOM     96  C   UNL A   1      45.963  27.478  37.563  1.00  0.00     0.055 A 
ATOM     97  C   UNL A   1      47.159  29.239  36.444  1.00  0.00     0.041 A 
ATOM     98  F   UNL A   1      45.980  30.875  35.255  1.00  0.00    -0.206 F 
ATOM     99  C   UNL A   1      47.172  28.104  37.249  1.00  0.00     0.022 A 
BRANCH  96 100
ATOM    100  S   UNL A   1      45.937  26.094  38.735  1.00  0.00     0.124 S 
ATOM    101  O   UNL A   1      46.037  24.941  37.845  1.00  0.00    -0.237 OA
ATOM    102  O   UNL A   1      47.109  26.363  39.562  1.00  0.00    -0.237 OA
ATOM    103  O   UNL A   1      44.653  26.244  39.416  1.00  0.00    -0.744 OA
ENDBRANCH  96 100
ENDBRANCH  70  93
ENDBRANCH  44  45
ENDBRANCH  36  39
ENDBRANCH  34  35
ENDBRANCH  33  34
ENDBRANCH  32  33
ENDBRANCH   1  32
TORSDOF 22
ENDMDL
