MODEL 1
REMARK VINA RESULT:     -12.2      0.000      0.000
REMARK SMILES Cc1nc(-c2ccc3c(c2)CCN3S(=O)(=O)c2ccc(F)c(C(=O)NCCCCCCNC(=O)c3ccc(-c4c5nc(c(-c6cc(S(=O)(=O)[O-])ccc6F)c6ccc([nH]6)c(-c6cc(S(=O)(=O)[O-])ccc6F)c6nc(c(-c7cc(S(=O)(=O)[O-])ccc7F)c7ccc4[nH]7)C=C6)C=C5)cc3)c2)cs1
REMARK SMILES IDX 28 1 27 2 26 3 25 4 23 5 24 6 22 8 17 9 18 10 98 11 19 12
REMARK SMILES IDX 20 13 21 14 14 15 15 16 16 17 13 18 5 19 6 20 10 21 7 22
REMARK SMILES IDX 9 23 8 24 11 25 12 26 4 27 1 28 2 29 3 30 100 31 99 32 29 33
REMARK SMILES IDX 30 34 31 35 32 36 33 37 34 39 35 40 36 41 97 42 37 43 96 44
REMARK SMILES IDX 38 45 39 46 40 47 90 48 41 49 95 50 89 51 91 52 42 53 94 54
REMARK SMILES IDX 88 55 87 56 43 58 75 59 55 60 74 61 56 62 59 63 73 64 92 65
REMARK SMILES IDX 57 66 58 67 72 69 93 70 60 71 44 72 45 73 53 74 46 75 52 76
REMARK SMILES IDX 54 77 51 78 47 79 48 80 49 81 50 82 76 83 77 84 85 85 78 86
REMARK SMILES IDX 84 87 86 88 83 89 79 90 80 91 81 92 82 93 61 94 62 95 70 96
REMARK SMILES IDX 63 97 69 98 71 99 68 100 64 101 65 102 66 103 67 104
REMARK H PARENT 25 7 32 38 91 57 59 68
REMARK Flexibility Score: inf
ROOT
ATOM      1  C   UNL A   1      35.121  30.939  28.573  1.00  0.00     0.002 C 
ENDROOT
BRANCH   1   2
ATOM      2  C   UNL A   1      35.520  29.671  27.823  1.00  0.00     0.021 C 
BRANCH   2   3
ATOM      3  C   UNL A   1      34.452  29.019  26.956  1.00  0.00     0.116 C 
BRANCH   3   4
ATOM      4  N   UNL A   1      33.250  28.617  27.664  1.00  0.00    -0.352 N 
ATOM      5  C   UNL A   1      32.135  27.932  27.237  1.00  0.00     0.254 C 
ATOM      6  O   UNL A   1      31.266  27.677  28.074  1.00  0.00    -0.269 OA
ATOM      7  H   UNL A   1      33.229  28.881  28.612  1.00  0.00     0.163 HD
BRANCH   5   8
ATOM      8  C   UNL A   1      31.883  27.547  25.819  1.00  0.00     0.076 A 
ATOM      9  C   UNL A   1      32.080  25.867  24.077  1.00  0.00     0.089 A 
ATOM     10  C   UNL A   1      31.300  26.643  23.211  1.00  0.00     0.025 A 
ATOM     11  C   UNL A   1      32.296  26.263  25.404  1.00  0.00     0.039 A 
ATOM     12  C   UNL A   1      30.963  27.932  23.594  1.00  0.00     0.041 A 
ATOM     13  C   UNL A   1      31.342  28.399  24.851  1.00  0.00     0.136 A 
ATOM     14  F   UNL A   1      31.270  29.723  25.039  1.00  0.00    -0.206 F 
BRANCH   9  15
ATOM     15  S   UNL A   1      32.877  24.438  23.392  1.00  0.00     0.264 S 
ATOM     16  O   UNL A   1      33.997  24.929  22.614  1.00  0.00    -0.201 OA
ATOM     17  O   UNL A   1      31.863  23.623  22.750  1.00  0.00    -0.201 OA
BRANCH  15  18
ATOM     18  N   UNL A   1      33.496  23.523  24.710  1.00  0.00    -0.266 N 
ATOM     19  C   UNL A   1      37.443  22.340  25.672  1.00  0.00     0.001 A 
ATOM     20  C   UNL A   1      37.229  23.675  25.301  1.00  0.00     0.012 A 
ATOM     21  C   UNL A   1      36.351  21.465  25.723  1.00  0.00     0.016 A 
ATOM     22  C   UNL A   1      35.950  24.133  24.964  1.00  0.00     0.028 A 
ATOM     23  C   UNL A   1      35.089  21.941  25.356  1.00  0.00    -0.021 A 
ATOM     24  C   UNL A   1      34.894  23.246  24.904  1.00  0.00     0.055 A 
ATOM     25  C   UNL A   1      33.778  21.255  25.567  1.00  0.00     0.060 C 
ATOM     26  C   UNL A   1      32.798  22.188  24.840  1.00  0.00     0.140 C 
BRANCH  19  27
ATOM     27  C   UNL A   1      38.776  21.953  26.105  1.00  0.00     0.081 A 
ATOM     28  C   UNL A   1      41.345  19.359  26.071  1.00  0.00     0.079 C 
ATOM     29  C   UNL A   1      40.497  20.567  26.266  1.00  0.00     0.090 A 
ATOM     30  N   UNL A   1      39.300  20.723  25.741  1.00  0.00    -0.242 NA
ATOM     31  S   UNL A   1      41.055  21.878  27.227  1.00  0.00    -0.127 S 
ATOM     32  C   UNL A   1      39.587  22.715  26.919  1.00  0.00     0.095 A 
ENDBRANCH  19  27
ENDBRANCH  15  18
ENDBRANCH   9  15
ENDBRANCH   5   8
ENDBRANCH   3   4
ENDBRANCH   2   3
ENDBRANCH   1   2
BRANCH   1  33
ATOM     33  C   UNL A   1      34.794  32.165  27.719  1.00  0.00     0.002 C 
BRANCH  33  34
ATOM     34  C   UNL A   1      33.501  32.910  28.061  1.00  0.00     0.021 C 
BRANCH  34  35
ATOM     35  C   UNL A   1      33.602  34.431  28.090  1.00  0.00     0.116 C 
BRANCH  35  36
ATOM     36  N   UNL A   1      33.000  35.009  29.280  1.00  0.00    -0.352 N 
ATOM     37  C   UNL A   1      33.351  34.838  30.598  1.00  0.00     0.251 C 
ATOM     38  H   UNL A   1      32.232  35.604  29.119  1.00  0.00     0.163 HD
ATOM     39  O   UNL A   1      32.620  35.263  31.486  1.00  0.00    -0.269 OA
BRANCH  37  40
ATOM     40  C   UNL A   1      34.600  34.121  30.935  1.00  0.00     0.039 A 
ATOM     41  C   UNL A   1      35.819  34.619  30.467  1.00  0.00     0.014 A 
ATOM     42  C   UNL A   1      34.567  32.965  31.720  1.00  0.00     0.014 A 
ATOM     43  C   UNL A   1      37.011  33.996  30.844  1.00  0.00     0.010 A 
ATOM     44  C   UNL A   1      35.757  32.390  32.153  1.00  0.00     0.010 A 
ATOM     45  C   UNL A   1      36.992  32.899  31.720  1.00  0.00    -0.014 A 
BRANCH  45  46
ATOM     46  C   UNL A   1      38.244  32.262  32.204  1.00  0.00     0.031 A 
ATOM     47  C   UNL A   1      38.896  31.179  31.391  1.00  0.00     0.074 A 
ATOM     48  C   UNL A   1      38.741  32.594  33.411  1.00  0.00     0.049 A 
ATOM     49  N   UNL A   1      39.897  30.398  31.704  1.00  0.00    -0.248 NA
ATOM     50  C   UNL A   1      38.323  30.920  30.061  1.00  0.00     0.031 C 
ATOM     51  C   UNL A   1      38.187  33.615  34.303  1.00  0.00     0.029 A 
ATOM     52  N   UNL A   1      39.817  32.098  34.103  1.00  0.00    -0.354 N 
ATOM     53  C   UNL A   1      40.060  29.539  30.623  1.00  0.00     0.074 A 
ATOM     54  C   UNL A   1      39.022  29.866  29.668  1.00  0.00     0.031 C 
ATOM     55  C   UNL A   1      38.937  33.683  35.413  1.00  0.00     0.029 A 
ATOM     56  C   UNL A   1      39.990  32.674  35.339  1.00  0.00     0.049 A 
ATOM     57  H   UNL A   1      40.409  31.396  33.748  1.00  0.00     0.167 HD
ATOM     58  C   UNL A   1      40.997  28.577  30.439  1.00  0.00     0.034 A 
ATOM     59  C   UNL A   1      40.878  32.409  36.317  1.00  0.00     0.034 A 
ATOM     60  C   UNL A   1      42.035  28.276  31.396  1.00  0.00     0.049 A 
ATOM     61  C   UNL A   1      41.891  31.318  36.108  1.00  0.00     0.074 A 
ATOM     62  C   UNL A   1      43.070  27.366  31.280  1.00  0.00     0.029 A 
ATOM     63  N   UNL A   1      42.167  28.870  32.645  1.00  0.00    -0.354 N 
ATOM     64  N   UNL A   1      42.043  30.522  35.076  1.00  0.00    -0.248 NA
ATOM     65  C   UNL A   1      42.849  31.089  37.197  1.00  0.00     0.031 C 
ATOM     66  C   UNL A   1      43.780  27.354  32.487  1.00  0.00     0.029 A 
ATOM     67  C   UNL A   1      43.240  28.317  33.326  1.00  0.00     0.049 A 
ATOM     68  H   UNL A   1      41.584  29.582  32.995  1.00  0.00     0.167 HD
ATOM     69  C   UNL A   1      43.124  29.701  35.386  1.00  0.00     0.074 A 
ATOM     70  C   UNL A   1      43.592  30.112  36.695  1.00  0.00     0.031 C 
ATOM     71  C   UNL A   1      43.679  28.705  34.649  1.00  0.00     0.034 A 
BRANCH  58  72
ATOM     72  C   UNL A   1      40.915  27.756  29.176  1.00  0.00     0.023 A 
ATOM     73  C   UNL A   1      41.830  27.923  28.120  1.00  0.00     0.031 A 
ATOM     74  C   UNL A   1      39.897  26.799  29.019  1.00  0.00     0.131 A 
ATOM     75  C   UNL A   1      41.671  27.191  26.934  1.00  0.00     0.055 A 
ATOM     76  C   UNL A   1      39.790  26.019  27.866  1.00  0.00     0.041 A 
ATOM     77  F   UNL A   1      38.983  26.610  29.984  1.00  0.00    -0.206 F 
ATOM     78  C   UNL A   1      40.673  26.221  26.809  1.00  0.00     0.022 A 
BRANCH  75  79
ATOM     79  S   UNL A   1      42.718  27.603  25.511  1.00  0.00     0.124 S 
ATOM     80  O   UNL A   1      42.061  28.806  25.003  1.00  0.00    -0.237 OA
ATOM     81  O   UNL A   1      44.025  27.800  26.127  1.00  0.00    -0.237 OA
ATOM     82  O   UNL A   1      42.604  26.428  24.651  1.00  0.00    -0.744 OA
ENDBRANCH  75  79
ENDBRANCH  58  72
BRANCH  59  83
ATOM     83  C   UNL A   1      40.824  33.188  37.583  1.00  0.00     0.023 A 
ATOM     84  C   UNL A   1      40.014  32.774  38.651  1.00  0.00     0.031 A 
ATOM     85  C   UNL A   1      41.632  34.325  37.762  1.00  0.00     0.131 A 
ATOM     86  C   UNL A   1      40.031  33.494  39.856  1.00  0.00     0.055 A 
ATOM     87  C   UNL A   1      41.669  35.017  38.973  1.00  0.00     0.041 A 
ATOM     88  F   UNL A   1      42.435  34.748  36.773  1.00  0.00    -0.206 F 
ATOM     89  C   UNL A   1      40.864  34.602  40.028  1.00  0.00     0.022 A 
BRANCH  86  90
ATOM     90  S   UNL A   1      38.956  32.951  41.214  1.00  0.00     0.124 S 
ATOM     91  O   UNL A   1      37.802  33.828  41.047  1.00  0.00    -0.237 OA
ATOM     92  O   UNL A   1      38.744  31.543  40.894  1.00  0.00    -0.237 OA
ATOM     93  O   UNL A   1      39.765  33.200  42.406  1.00  0.00    -0.744 OA
ENDBRANCH  86  90
ENDBRANCH  59  83
BRANCH  71  94
ATOM     94  C   UNL A   1      44.867  27.989  35.241  1.00  0.00     0.023 A 
ATOM     95  C   UNL A   1      44.711  26.846  36.043  1.00  0.00     0.031 A 
ATOM     96  C   UNL A   1      46.172  28.449  34.990  1.00  0.00     0.131 A 
ATOM     97  C   UNL A   1      45.839  26.228  36.606  1.00  0.00     0.055 A 
ATOM     98  C   UNL A   1      47.293  27.794  35.503  1.00  0.00     0.041 A 
ATOM     99  F   UNL A   1      46.380  29.537  34.233  1.00  0.00    -0.206 F 
ATOM    100  C   UNL A   1      47.130  26.684  36.325  1.00  0.00     0.022 A 
BRANCH  97 101
ATOM    101  S   UNL A   1      45.591  24.865  37.776  1.00  0.00     0.124 S 
ATOM    102  O   UNL A   1      46.888  24.800  38.442  1.00  0.00    -0.237 OA
ATOM    103  O   UNL A   1      44.481  25.347  38.590  1.00  0.00    -0.237 OA
ATOM    104  O   UNL A   1      45.279  23.726  36.914  1.00  0.00    -0.744 OA
ENDBRANCH  97 101
ENDBRANCH  71  94
ENDBRANCH  45  46
ENDBRANCH  37  40
ENDBRANCH  35  36
ENDBRANCH  34  35
ENDBRANCH  33  34
ENDBRANCH   1  33
TORSDOF 19
ENDMDL
MODEL 2
REMARK VINA RESULT:     -12.1      0.711      7.363
REMARK SMILES Cc1nc(-c2ccc3c(c2)CCN3S(=O)(=O)c2ccc(F)c(C(=O)NCCCCCCNC(=O)c3ccc(-c4c5nc(c(-c6cc(S(=O)(=O)[O-])ccc6F)c6ccc([nH]6)c(-c6cc(S(=O)(=O)[O-])ccc6F)c6nc(c(-c7cc(S(=O)(=O)[O-])ccc7F)c7ccc4[nH]7)C=C6)C=C5)cc3)c2)cs1
REMARK SMILES IDX 28 1 27 2 26 3 25 4 23 5 24 6 22 8 17 9 18 10 98 11 19 12
REMARK SMILES IDX 20 13 21 14 14 15 15 16 16 17 13 18 5 19 6 20 10 21 7 22
REMARK SMILES IDX 9 23 8 24 11 25 12 26 4 27 1 28 2 29 3 30 100 31 99 32 29 33
REMARK SMILES IDX 30 34 31 35 32 36 33 37 34 39 35 40 36 41 97 42 37 43 96 44
REMARK SMILES IDX 38 45 39 46 40 47 90 48 41 49 95 50 89 51 91 52 42 53 94 54
REMARK SMILES IDX 88 55 87 56 43 58 75 59 55 60 74 61 56 62 59 63 73 64 92 65
REMARK SMILES IDX 57 66 58 67 72 69 93 70 60 71 44 72 45 73 53 74 46 75 52 76
REMARK SMILES IDX 54 77 51 78 47 79 48 80 49 81 50 82 76 83 77 84 85 85 78 86
REMARK SMILES IDX 84 87 86 88 83 89 79 90 80 91 81 92 82 93 61 94 62 95 70 96
REMARK SMILES IDX 63 97 69 98 71 99 68 100 64 101 65 102 66 103 67 104
REMARK H PARENT 25 7 32 38 91 57 59 68
REMARK Flexibility Score: inf
ROOT
ATOM      1  C   UNL A   1      35.162  30.986  28.659  1.00  0.00     0.002 C 
ENDROOT
BRANCH   1   2
ATOM      2  C   UNL A   1      35.437  29.765  27.785  1.00  0.00     0.021 C 
BRANCH   2   3
ATOM      3  C   UNL A   1      34.295  29.275  26.908  1.00  0.00     0.116 C 
BRANCH   3   4
ATOM      4  N   UNL A   1      33.137  28.780  27.629  1.00  0.00    -0.352 N 
ATOM      5  C   UNL A   1      32.069  28.018  27.213  1.00  0.00     0.254 C 
ATOM      6  O   UNL A   1      31.234  27.694  28.060  1.00  0.00    -0.269 OA
ATOM      7  H   UNL A   1      33.111  29.035  28.579  1.00  0.00     0.163 HD
BRANCH   5   8
ATOM      8  C   UNL A   1      31.825  27.626  25.795  1.00  0.00     0.076 A 
ATOM      9  C   UNL A   1      32.088  25.962  24.046  1.00  0.00     0.089 A 
ATOM     10  C   UNL A   1      31.265  26.703  23.190  1.00  0.00     0.025 A 
ATOM     11  C   UNL A   1      32.295  26.365  25.373  1.00  0.00     0.039 A 
ATOM     12  C   UNL A   1      30.870  27.973  23.579  1.00  0.00     0.041 A 
ATOM     13  C   UNL A   1      31.236  28.454  24.835  1.00  0.00     0.136 A 
ATOM     14  F   UNL A   1      31.102  29.772  25.028  1.00  0.00    -0.206 F 
BRANCH   9  15
ATOM     15  S   UNL A   1      32.948  24.576  23.351  1.00  0.00     0.264 S 
ATOM     16  O   UNL A   1      34.099  25.116  22.656  1.00  0.00    -0.201 OA
ATOM     17  O   UNL A   1      31.985  23.771  22.622  1.00  0.00    -0.201 OA
BRANCH  15  18
ATOM     18  N   UNL A   1      33.511  23.618  24.663  1.00  0.00    -0.266 N 
ATOM     19  C   UNL A   1      37.384  22.218  25.633  1.00  0.00     0.001 A 
ATOM     20  C   UNL A   1      37.243  23.566  25.273  1.00  0.00     0.012 A 
ATOM     21  C   UNL A   1      36.246  21.402  25.672  1.00  0.00     0.016 A 
ATOM     22  C   UNL A   1      35.992  24.094  24.934  1.00  0.00     0.028 A 
ATOM     23  C   UNL A   1      35.014  21.948  25.304  1.00  0.00    -0.021 A 
ATOM     24  C   UNL A   1      34.890  23.265  24.861  1.00  0.00     0.055 A 
ATOM     25  C   UNL A   1      33.666  21.331  25.503  1.00  0.00     0.060 C 
ATOM     26  C   UNL A   1      32.742  22.321  24.779  1.00  0.00     0.140 C 
BRANCH  19  27
ATOM     27  C   UNL A   1      38.692  21.756  26.069  1.00  0.00     0.081 A 
ATOM     28  C   UNL A   1      41.732  22.560  27.925  1.00  0.00     0.079 C 
ATOM     29  C   UNL A   1      40.639  21.969  27.104  1.00  0.00     0.090 A 
ATOM     30  N   UNL A   1      39.494  22.567  26.856  1.00  0.00    -0.242 NA
ATOM     31  S   UNL A   1      40.819  20.408  26.407  1.00  0.00    -0.127 S 
ATOM     32  C   UNL A   1      39.251  20.545  25.720  1.00  0.00     0.095 A 
ENDBRANCH  19  27
ENDBRANCH  15  18
ENDBRANCH   9  15
ENDBRANCH   5   8
ENDBRANCH   3   4
ENDBRANCH   2   3
ENDBRANCH   1   2
BRANCH   1  33
ATOM     33  C   UNL A   1      35.260  32.352  27.976  1.00  0.00     0.002 C 
BRANCH  33  34
ATOM     34  C   UNL A   1      34.010  33.235  28.034  1.00  0.00     0.021 C 
BRANCH  34  35
ATOM     35  C   UNL A   1      34.257  34.712  28.321  1.00  0.00     0.116 C 
BRANCH  35  36
ATOM     36  N   UNL A   1      33.423  35.218  29.399  1.00  0.00    -0.352 N 
ATOM     37  C   UNL A   1      33.502  34.965  30.747  1.00  0.00     0.251 C 
ATOM     38  H   UNL A   1      32.700  35.828  29.124  1.00  0.00     0.163 HD
ATOM     39  O   UNL A   1      32.604  35.338  31.495  1.00  0.00    -0.269 OA
BRANCH  37  40
ATOM     40  C   UNL A   1      34.661  34.219  31.284  1.00  0.00     0.039 A 
ATOM     41  C   UNL A   1      34.445  33.008  31.947  1.00  0.00     0.014 A 
ATOM     42  C   UNL A   1      35.960  34.711  31.124  1.00  0.00     0.014 A 
ATOM     43  C   UNL A   1      35.536  32.256  32.388  1.00  0.00     0.010 A 
ATOM     44  C   UNL A   1      37.047  33.928  31.499  1.00  0.00     0.010 A 
ATOM     45  C   UNL A   1      36.847  32.692  32.135  1.00  0.00    -0.014 A 
BRANCH  45  46
ATOM     46  C   UNL A   1      38.031  31.881  32.519  1.00  0.00     0.031 A 
ATOM     47  C   UNL A   1      38.760  32.180  33.799  1.00  0.00     0.074 A 
ATOM     48  C   UNL A   1      38.499  30.938  31.678  1.00  0.00     0.049 A 
ATOM     49  N   UNL A   1      39.892  31.696  34.239  1.00  0.00    -0.248 NA
ATOM     50  C   UNL A   1      38.148  33.183  34.685  1.00  0.00     0.031 C 
ATOM     51  C   UNL A   1      37.891  30.570  30.398  1.00  0.00     0.029 A 
ATOM     52  N   UNL A   1      39.603  30.128  31.767  1.00  0.00    -0.354 N 
ATOM     53  C   UNL A   1      40.143  32.350  35.440  1.00  0.00     0.074 A 
ATOM     54  C   UNL A   1      39.066  33.299  35.632  1.00  0.00     0.031 C 
ATOM     55  C   UNL A   1      38.617  29.594  29.832  1.00  0.00     0.029 A 
ATOM     56  C   UNL A   1      39.772  29.307  30.678  1.00  0.00     0.049 A 
ATOM     57  H   UNL A   1      40.215  30.135  32.537  1.00  0.00     0.167 HD
ATOM     58  C   UNL A   1      41.168  32.165  36.307  1.00  0.00     0.034 A 
ATOM     59  C   UNL A   1      40.756  28.438  30.376  1.00  0.00     0.034 A 
ATOM     60  C   UNL A   1      42.223  31.201  36.107  1.00  0.00     0.049 A 
ATOM     61  C   UNL A   1      41.901  28.267  31.335  1.00  0.00     0.074 A 
ATOM     62  C   UNL A   1      43.273  30.890  36.953  1.00  0.00     0.029 A 
ATOM     63  N   UNL A   1      42.369  30.399  34.982  1.00  0.00    -0.354 N 
ATOM     64  N   UNL A   1      42.119  28.882  32.474  1.00  0.00    -0.248 NA
ATOM     65  C   UNL A   1      42.931  27.288  30.968  1.00  0.00     0.031 C 
ATOM     66  C   UNL A   1      44.094  29.958  36.307  1.00  0.00     0.029 A 
ATOM     67  C   UNL A   1      43.514  29.625  35.093  1.00  0.00     0.049 A 
ATOM     68  H   UNL A   1      41.750  30.382  34.217  1.00  0.00     0.167 HD
ATOM     69  C   UNL A   1      43.310  28.356  32.967  1.00  0.00     0.074 A 
ATOM     70  C   UNL A   1      43.752  27.364  32.006  1.00  0.00     0.031 C 
ATOM     71  C   UNL A   1      43.970  28.664  34.113  1.00  0.00     0.034 A 
BRANCH  58  72
ATOM     72  C   UNL A   1      41.216  33.050  37.529  1.00  0.00     0.023 A 
ATOM     73  C   UNL A   1      40.570  32.698  38.728  1.00  0.00     0.031 A 
ATOM     74  C   UNL A   1      41.910  34.272  37.489  1.00  0.00     0.131 A 
ATOM     75  C   UNL A   1      40.579  33.586  39.814  1.00  0.00     0.055 A 
ATOM     76  C   UNL A   1      41.979  35.117  38.599  1.00  0.00     0.041 A 
ATOM     77  F   UNL A   1      42.528  34.671  36.366  1.00  0.00    -0.206 F 
ATOM     78  C   UNL A   1      41.301  34.781  39.767  1.00  0.00     0.022 A 
BRANCH  75  79
ATOM     79  S   UNL A   1      39.539  33.210  41.252  1.00  0.00     0.124 S 
ATOM     80  O   UNL A   1      39.706  31.763  41.364  1.00  0.00    -0.237 OA
ATOM     81  O   UNL A   1      40.157  34.008  42.305  1.00  0.00    -0.237 OA
ATOM     82  O   UNL A   1      38.209  33.649  40.836  1.00  0.00    -0.744 OA
ENDBRANCH  75  79
ENDBRANCH  58  72
BRANCH  59  83
ATOM     83  C   UNL A   1      40.694  27.682  29.096  1.00  0.00     0.023 A 
ATOM     84  C   UNL A   1      41.568  27.979  28.039  1.00  0.00     0.031 A 
ATOM     85  C   UNL A   1      39.800  26.608  28.938  1.00  0.00     0.131 A 
ATOM     86  C   UNL A   1      41.529  27.208  26.867  1.00  0.00     0.055 A 
ATOM     87  C   UNL A   1      39.788  25.824  27.784  1.00  0.00     0.041 A 
ATOM     88  F   UNL A   1      38.956  26.277  29.929  1.00  0.00    -0.206 F 
ATOM     89  C   UNL A   1      40.656  26.125  26.739  1.00  0.00     0.022 A 
BRANCH  86  90
ATOM     90  S   UNL A   1      42.654  27.629  25.507  1.00  0.00     0.124 S 
ATOM     91  O   UNL A   1      42.551  26.444  24.661  1.00  0.00    -0.237 OA
ATOM     92  O   UNL A   1      42.053  28.849  24.977  1.00  0.00    -0.237 OA
ATOM     93  O   UNL A   1      43.941  27.812  26.175  1.00  0.00    -0.744 OA
ENDBRANCH  86  90
ENDBRANCH  59  83
BRANCH  71  94
ATOM     94  C   UNL A   1      45.246  27.910  34.397  1.00  0.00     0.023 A 
ATOM     95  C   UNL A   1      45.239  26.693  35.098  1.00  0.00     0.031 A 
ATOM     96  C   UNL A   1      46.481  28.410  33.950  1.00  0.00     0.131 A 
ATOM     97  C   UNL A   1      46.450  26.039  35.374  1.00  0.00     0.055 A 
ATOM     98  C   UNL A   1      47.677  27.725  34.175  1.00  0.00     0.041 A 
ATOM     99  F   UNL A   1      46.547  29.570  33.277  1.00  0.00    -0.206 F 
ATOM    100  C   UNL A   1      47.667  26.538  34.900  1.00  0.00     0.022 A 
BRANCH  97 101
ATOM    101  S   UNL A   1      46.422  24.565  36.431  1.00  0.00     0.124 S 
ATOM    102  O   UNL A   1      46.869  25.105  37.711  1.00  0.00    -0.237 OA
ATOM    103  O   UNL A   1      45.023  24.158  36.365  1.00  0.00    -0.237 OA
ATOM    104  O   UNL A   1      47.364  23.657  35.778  1.00  0.00    -0.744 OA
ENDBRANCH  97 101
ENDBRANCH  71  94
ENDBRANCH  45  46
ENDBRANCH  37  40
ENDBRANCH  35  36
ENDBRANCH  34  35
ENDBRANCH  33  34
ENDBRANCH   1  33
TORSDOF 19
ENDMDL
MODEL 3
REMARK VINA RESULT:     -11.9      1.744      2.638
REMARK SMILES Cc1nc(-c2ccc3c(c2)CCN3S(=O)(=O)c2ccc(F)c(C(=O)NCCCCCCNC(=O)c3ccc(-c4c5nc(c(-c6cc(S(=O)(=O)[O-])ccc6F)c6ccc([nH]6)c(-c6cc(S(=O)(=O)[O-])ccc6F)c6nc(c(-c7cc(S(=O)(=O)[O-])ccc7F)c7ccc4[nH]7)C=C6)C=C5)cc3)c2)cs1
REMARK SMILES IDX 28 1 27 2 26 3 25 4 23 5 24 6 22 8 17 9 18 10 98 11 19 12
REMARK SMILES IDX 20 13 21 14 14 15 15 16 16 17 13 18 5 19 6 20 10 21 7 22
REMARK SMILES IDX 9 23 8 24 11 25 12 26 4 27 1 28 2 29 3 30 100 31 99 32 29 33
REMARK SMILES IDX 30 34 31 35 32 36 33 37 34 39 35 40 36 41 97 42 37 43 96 44
REMARK SMILES IDX 38 45 39 46 40 47 90 48 41 49 95 50 89 51 91 52 42 53 94 54
REMARK SMILES IDX 88 55 87 56 43 58 75 59 55 60 74 61 56 62 59 63 73 64 92 65
REMARK SMILES IDX 57 66 58 67 72 69 93 70 60 71 44 72 45 73 53 74 46 75 52 76
REMARK SMILES IDX 54 77 51 78 47 79 48 80 49 81 50 82 76 83 77 84 85 85 78 86
REMARK SMILES IDX 84 87 86 88 83 89 79 90 80 91 81 92 82 93 61 94 62 95 70 96
REMARK SMILES IDX 63 97 69 98 71 99 68 100 64 101 65 102 66 103 67 104
REMARK H PARENT 25 7 32 38 91 57 59 68
REMARK Flexibility Score: inf
ROOT
ATOM      1  C   UNL A   1      33.106  29.650  25.744  1.00  0.00     0.002 C 
ENDROOT
BRANCH   1   2
ATOM      2  C   UNL A   1      32.950  28.248  25.162  1.00  0.00     0.021 C 
BRANCH   2   3
ATOM      3  C   UNL A   1      31.862  28.053  24.117  1.00  0.00     0.116 C 
BRANCH   3   4
ATOM      4  N   UNL A   1      32.245  27.239  22.978  1.00  0.00    -0.352 N 
ATOM      5  C   UNL A   1      32.314  25.873  22.824  1.00  0.00     0.254 C 
ATOM      6  O   UNL A   1      32.630  25.438  21.714  1.00  0.00    -0.269 OA
ATOM      7  H   UNL A   1      32.499  27.753  22.178  1.00  0.00     0.163 HD
BRANCH   5   8
ATOM      8  C   UNL A   1      32.105  24.896  23.931  1.00  0.00     0.076 A 
ATOM      9  C   UNL A   1      33.035  23.149  25.338  1.00  0.00     0.089 A 
ATOM     10  C   UNL A   1      31.878  23.141  26.127  1.00  0.00     0.025 A 
ATOM     11  C   UNL A   1      33.195  24.082  24.304  1.00  0.00     0.039 A 
ATOM     12  C   UNL A   1      30.783  23.883  25.713  1.00  0.00     0.041 A 
ATOM     13  C   UNL A   1      30.880  24.674  24.569  1.00  0.00     0.136 A 
ATOM     14  F   UNL A   1      29.726  25.109  24.049  1.00  0.00    -0.206 F 
BRANCH   9  15
ATOM     15  S   UNL A   1      34.221  21.862  25.620  1.00  0.00     0.264 S 
ATOM     16  O   UNL A   1      33.940  20.827  24.646  1.00  0.00    -0.201 OA
ATOM     17  O   UNL A   1      34.203  21.538  27.034  1.00  0.00    -0.201 OA
BRANCH  15  18
ATOM     18  N   UNL A   1      35.773  22.518  25.276  1.00  0.00    -0.266 N 
ATOM     19  C   UNL A   1      39.655  20.922  25.805  1.00  0.00     0.001 A 
ATOM     20  C   UNL A   1      38.683  20.103  25.214  1.00  0.00     0.012 A 
ATOM     21  C   UNL A   1      39.310  22.227  26.179  1.00  0.00     0.016 A 
ATOM     22  C   UNL A   1      37.377  20.564  25.015  1.00  0.00     0.028 A 
ATOM     23  C   UNL A   1      37.993  22.653  25.993  1.00  0.00    -0.021 A 
ATOM     24  C   UNL A   1      37.006  21.808  25.485  1.00  0.00     0.055 A 
ATOM     25  C   UNL A   1      37.483  24.055  26.096  1.00  0.00     0.060 C 
ATOM     26  C   UNL A   1      35.968  23.867  25.931  1.00  0.00     0.140 C 
BRANCH  19  27
ATOM     27  C   UNL A   1      41.016  20.418  25.894  1.00  0.00     0.081 A 
ATOM     28  C   UNL A   1      44.569  21.199  25.587  1.00  0.00     0.079 C 
ATOM     29  C   UNL A   1      43.221  20.595  25.767  1.00  0.00     0.090 A 
ATOM     30  N   UNL A   1      42.092  21.262  25.669  1.00  0.00    -0.242 NA
ATOM     31  S   UNL A   1      43.057  18.922  26.128  1.00  0.00    -0.127 S 
ATOM     32  C   UNL A   1      41.349  19.104  26.152  1.00  0.00     0.095 A 
ENDBRANCH  19  27
ENDBRANCH  15  18
ENDBRANCH   9  15
ENDBRANCH   5   8
ENDBRANCH   3   4
ENDBRANCH   2   3
ENDBRANCH   1   2
BRANCH   1  33
ATOM     33  C   UNL A   1      32.047  30.092  26.757  1.00  0.00     0.002 C 
BRANCH  33  34
ATOM     34  C   UNL A   1      31.777  31.597  26.850  1.00  0.00     0.021 C 
BRANCH  34  35
ATOM     35  C   UNL A   1      32.971  32.459  27.243  1.00  0.00     0.116 C 
BRANCH  35  36
ATOM     36  N   UNL A   1      32.589  33.820  27.584  1.00  0.00    -0.352 N 
ATOM     37  C   UNL A   1      33.075  34.632  28.581  1.00  0.00     0.251 C 
ATOM     38  H   UNL A   1      31.883  34.214  27.023  1.00  0.00     0.163 HD
ATOM     39  O   UNL A   1      32.513  35.691  28.837  1.00  0.00    -0.269 OA
BRANCH  37  40
ATOM     40  C   UNL A   1      34.264  34.209  29.354  1.00  0.00     0.039 A 
ATOM     41  C   UNL A   1      34.084  33.502  30.546  1.00  0.00     0.014 A 
ATOM     42  C   UNL A   1      35.551  34.500  28.896  1.00  0.00     0.014 A 
ATOM     43  C   UNL A   1      35.198  33.028  31.244  1.00  0.00     0.010 A 
ATOM     44  C   UNL A   1      36.656  33.966  29.552  1.00  0.00     0.010 A 
ATOM     45  C   UNL A   1      36.491  33.224  30.733  1.00  0.00    -0.014 A 
BRANCH  45  46
ATOM     46  C   UNL A   1      37.692  32.666  31.406  1.00  0.00     0.031 A 
ATOM     47  C   UNL A   1      38.437  31.520  30.781  1.00  0.00     0.074 A 
ATOM     48  C   UNL A   1      38.058  33.131  32.617  1.00  0.00     0.049 A 
ATOM     49  N   UNL A   1      39.408  30.797  31.274  1.00  0.00    -0.248 NA
ATOM     50  C   UNL A   1      38.007  31.114  29.434  1.00  0.00     0.031 C 
ATOM     51  C   UNL A   1      37.403  34.225  33.336  1.00  0.00     0.029 A 
ATOM     52  N   UNL A   1      39.062  32.731  33.463  1.00  0.00    -0.354 N 
ATOM     53  C   UNL A   1      39.691  29.835  30.311  1.00  0.00     0.074 A 
ATOM     54  C   UNL A   1      38.754  30.041  29.225  1.00  0.00     0.031 C 
ATOM     55  C   UNL A   1      38.034  34.423  34.504  1.00  0.00     0.029 A 
ATOM     56  C   UNL A   1      39.099  33.435  34.643  1.00  0.00     0.049 A 
ATOM     57  H   UNL A   1      39.694  32.009  33.245  1.00  0.00     0.167 HD
ATOM     58  C   UNL A   1      40.652  28.879  30.324  1.00  0.00     0.034 A 
ATOM     59  C   UNL A   1      39.883  33.289  35.729  1.00  0.00     0.034 A 
ATOM     60  C   UNL A   1      41.588  28.701  31.408  1.00  0.00     0.049 A 
ATOM     61  C   UNL A   1      40.924  32.204  35.739  1.00  0.00     0.074 A 
ATOM     62  C   UNL A   1      42.640  27.805  31.494  1.00  0.00     0.029 A 
ATOM     63  N   UNL A   1      41.584  29.422  32.595  1.00  0.00    -0.354 N 
ATOM     64  N   UNL A   1      41.191  31.310  34.817  1.00  0.00    -0.248 NA
ATOM     65  C   UNL A   1      41.767  32.108  36.938  1.00  0.00     0.031 C 
ATOM     66  C   UNL A   1      43.221  27.932  32.761  1.00  0.00     0.029 A 
ATOM     67  C   UNL A   1      42.586  28.964  33.437  1.00  0.00     0.049 A 
ATOM     68  H   UNL A   1      40.960  30.153  32.809  1.00  0.00     0.167 HD
ATOM     69  C   UNL A   1      42.242  30.549  35.318  1.00  0.00     0.074 A 
ATOM     70  C   UNL A   1      42.568  31.101  36.619  1.00  0.00     0.031 C 
ATOM     71  C   UNL A   1      42.881  29.494  34.749  1.00  0.00     0.034 A 
BRANCH  58  72
ATOM     72  C   UNL A   1      40.711  27.932  29.151  1.00  0.00     0.023 A 
ATOM     73  C   UNL A   1      41.612  28.120  28.088  1.00  0.00     0.031 A 
ATOM     74  C   UNL A   1      39.841  26.829  29.089  1.00  0.00     0.131 A 
ATOM     75  C   UNL A   1      41.581  27.257  26.982  1.00  0.00     0.055 A 
ATOM     76  C   UNL A   1      39.867  25.930  28.022  1.00  0.00     0.041 A 
ATOM     77  F   UNL A   1      38.945  26.610  30.064  1.00  0.00    -0.206 F 
ATOM     78  C   UNL A   1      40.732  26.148  26.954  1.00  0.00     0.022 A 
BRANCH  75  79
ATOM     79  S   UNL A   1      42.585  27.669  25.529  1.00  0.00     0.124 S 
ATOM     80  O   UNL A   1      42.305  26.537  24.649  1.00  0.00    -0.237 OA
ATOM     81  O   UNL A   1      42.031  28.953  25.116  1.00  0.00    -0.237 OA
ATOM     82  O   UNL A   1      43.947  27.718  26.057  1.00  0.00    -0.744 OA
ENDBRANCH  75  79
ENDBRANCH  58  72
BRANCH  59  83
ATOM     83  C   UNL A   1      39.690  34.192  36.895  1.00  0.00     0.023 A 
ATOM     84  C   UNL A   1      39.051  33.741  38.060  1.00  0.00     0.031 A 
ATOM     85  C   UNL A   1      40.199  35.504  36.880  1.00  0.00     0.131 A 
ATOM     86  C   UNL A   1      38.939  34.596  39.167  1.00  0.00     0.055 A 
ATOM     87  C   UNL A   1      40.113  36.338  37.995  1.00  0.00     0.041 A 
ATOM     88  F   UNL A   1      40.831  35.973  35.793  1.00  0.00    -0.206 F 
ATOM     89  C   UNL A   1      39.478  35.885  39.147  1.00  0.00     0.022 A 
BRANCH  86  90
ATOM     90  S   UNL A   1      38.088  33.995  40.652  1.00  0.00     0.124 S 
ATOM     91  O   UNL A   1      37.050  33.146  40.077  1.00  0.00    -0.237 OA
ATOM     92  O   UNL A   1      39.160  33.306  41.364  1.00  0.00    -0.237 OA
ATOM     93  O   UNL A   1      37.611  35.221  41.289  1.00  0.00    -0.744 OA
ENDBRANCH  86  90
ENDBRANCH  59  83
BRANCH  71  94
ATOM     94  C   UNL A   1      44.009  28.868  35.531  1.00  0.00     0.023 A 
ATOM     95  C   UNL A   1      43.788  27.790  36.405  1.00  0.00     0.031 A 
ATOM     96  C   UNL A   1      45.323  29.348  35.392  1.00  0.00     0.131 A 
ATOM     97  C   UNL A   1      44.857  27.257  37.142  1.00  0.00     0.055 A 
ATOM     98  C   UNL A   1      46.393  28.774  36.082  1.00  0.00     0.041 A 
ATOM     99  F   UNL A   1      45.593  30.377  34.573  1.00  0.00    -0.206 F 
ATOM    100  C   UNL A   1      46.161  27.730  36.972  1.00  0.00     0.022 A 
BRANCH  97 101
ATOM    101  S   UNL A   1      44.506  25.987  38.388  1.00  0.00     0.124 S 
ATOM    102  O   UNL A   1      43.402  25.259  37.773  1.00  0.00    -0.237 OA
ATOM    103  O   UNL A   1      45.774  25.270  38.472  1.00  0.00    -0.237 OA
ATOM    104  O   UNL A   1      44.153  26.762  39.577  1.00  0.00    -0.744 OA
ENDBRANCH  97 101
ENDBRANCH  71  94
ENDBRANCH  45  46
ENDBRANCH  37  40
ENDBRANCH  35  36
ENDBRANCH  34  35
ENDBRANCH  33  34
ENDBRANCH   1  33
TORSDOF 19
ENDMDL
