MODEL 1
REMARK VINA RESULT:     -10.6      0.000      0.000
REMARK SMILES C[NH2+][C@]1(C(=O)NCCCCCCNC(=O)c2ccc(-c3c4nc(c(-c5cc(S(=O)(=O)[O-])ccc5F)c5ccc([nH]5)c(-c5cc(S(=O)(=O)[O-])ccc5F)c5nc(c(-c6cc(S(=O)(=O)[O-])ccc6F)c6ccc3[nH]6)C=C5)C=C4)cc2)CCC[C@@H](Sc2nccn2C)C1
REMARK SMILES IDX 10 1 9 2 8 3 7 4 6 5 4 6 5 7 3 9 79 10 90 11 80 12 82 13
REMARK SMILES IDX 81 14 2 15 1 16 83 19 84 20 85 21 88 22 86 23 87 24 89 25
REMARK SMILES IDX 11 26 12 27 13 28 14 29 15 31 16 32 17 33 78 34 18 35 77 36
REMARK SMILES IDX 19 37 20 38 21 39 71 40 22 41 76 42 70 43 72 44 23 45 75 46
REMARK SMILES IDX 69 47 68 48 24 50 56 51 36 52 55 53 37 54 40 55 54 56 73 57
REMARK SMILES IDX 38 58 39 59 53 61 74 62 41 63 25 64 26 65 34 66 27 67 33 68
REMARK SMILES IDX 35 69 32 70 28 71 29 72 30 73 31 74 57 75 58 76 66 77 59 78
REMARK SMILES IDX 65 79 67 80 64 81 60 82 61 83 62 84 63 85 42 86 43 87 51 88
REMARK SMILES IDX 44 89 50 90 52 91 49 92 45 93 46 94 47 95 48 96
REMARK H PARENT 6 8 2 17 2 18 13 30 72 49 40 60
REMARK Flexibility Score: inf
ROOT
ATOM      1  C   UNL A   1      36.439  20.397  25.007  1.00  0.00     0.002 C 
ENDROOT
BRANCH   1   2
ATOM      2  C   UNL A   1      36.514  21.823  25.564  1.00  0.00     0.002 C 
BRANCH   2   3
ATOM      3  C   UNL A   1      35.429  22.160  26.593  1.00  0.00     0.021 C 
BRANCH   3   4
ATOM      4  C   UNL A   1      34.162  21.323  26.421  1.00  0.00     0.116 C 
BRANCH   4   5
ATOM      5  N   UNL A   1      33.067  21.931  27.158  1.00  0.00    -0.351 N 
ATOM      6  C   UNL A   1      32.219  22.948  26.847  1.00  0.00     0.281 C 
ATOM      7  O   UNL A   1      31.447  23.307  27.748  1.00  0.00    -0.268 OA
ATOM      8  H   UNL A   1      32.912  21.534  28.046  1.00  0.00     0.163 HD
BRANCH   6   9
ATOM      9  C   UNL A   1      32.125  23.574  25.408  1.00  0.00     0.176 C 
ATOM     10  C   UNL A   1      31.931  22.528  24.282  1.00  0.00     0.079 C 
ATOM     11  C   UNL A   1      30.960  24.601  25.446  1.00  0.00     0.094 C 
ATOM     12  C   UNL A   1      31.579  23.145  22.929  1.00  0.00     0.008 C 
ATOM     13  C   UNL A   1      30.611  25.168  24.068  1.00  0.00     0.061 C 
ATOM     14  C   UNL A   1      30.362  24.061  23.040  1.00  0.00     0.015 C 
BRANCH   9  15
ATOM     15  N   UNL A   1      33.360  24.406  25.183  1.00  0.00    -0.336 N 
ATOM     16  C   UNL A   1      33.519  25.536  26.092  1.00  0.00     0.331 C 
ATOM     17  H   UNL A   1      34.174  23.799  25.288  1.00  0.00     0.346 HD
ATOM     18  H   UNL A   1      33.268  24.804  24.249  1.00  0.00     0.346 HD
ENDBRANCH   9  15
BRANCH  13  19
ATOM     19  S   UNL A   1      29.225  26.366  24.133  1.00  0.00    -0.084 SA
BRANCH  19  20
ATOM     20  C   UNL A   1      29.860  27.746  23.303  1.00  0.00     0.167 A 
ATOM     21  N   UNL A   1      31.132  27.946  23.040  1.00  0.00    -0.231 NA
ATOM     22  N   UNL A   1      29.078  28.748  22.795  1.00  0.00    -0.329 N 
ATOM     23  C   UNL A   1      31.177  29.112  22.322  1.00  0.00     0.132 A 
ATOM     24  C   UNL A   1      29.915  29.633  22.161  1.00  0.00     0.108 A 
ATOM     25  C   UNL A   1      27.649  28.921  22.879  1.00  0.00     0.152 C 
ENDBRANCH  19  20
ENDBRANCH  13  19
ENDBRANCH   6   9
ENDBRANCH   4   5
ENDBRANCH   3   4
ENDBRANCH   2   3
ENDBRANCH   1   2
BRANCH   1  26
ATOM     26  C   UNL A   1      37.795  19.718  24.796  1.00  0.00     0.021 C 
BRANCH  26  27
ATOM     27  C   UNL A   1      38.898  20.227  25.721  1.00  0.00     0.116 C 
BRANCH  27  28
ATOM     28  N   UNL A   1      39.914  19.211  25.944  1.00  0.00    -0.352 N 
ATOM     29  C   UNL A   1      41.265  19.364  26.134  1.00  0.00     0.251 C 
ATOM     30  H   UNL A   1      39.588  18.282  25.963  1.00  0.00     0.163 HD
ATOM     31  O   UNL A   1      42.008  18.392  26.049  1.00  0.00    -0.269 OA
BRANCH  29  32
ATOM     32  C   UNL A   1      41.814  20.707  26.424  1.00  0.00     0.039 A 
ATOM     33  C   UNL A   1      41.990  21.610  25.374  1.00  0.00     0.014 A 
ATOM     34  C   UNL A   1      42.163  21.067  27.729  1.00  0.00     0.014 A 
ATOM     35  C   UNL A   1      42.466  22.895  25.641  1.00  0.00     0.010 A 
ATOM     36  C   UNL A   1      42.566  22.370  28.004  1.00  0.00     0.010 A 
ATOM     37  C   UNL A   1      42.728  23.296  26.962  1.00  0.00    -0.014 A 
BRANCH  37  38
ATOM     38  C   UNL A   1      43.178  24.679  27.271  1.00  0.00     0.031 A 
ATOM     39  C   UNL A   1      42.235  25.649  27.931  1.00  0.00     0.074 A 
ATOM     40  C   UNL A   1      44.413  25.074  26.905  1.00  0.00     0.049 A 
ATOM     41  N   UNL A   1      42.414  26.913  28.215  1.00  0.00    -0.248 NA
ATOM     42  C   UNL A   1      40.904  25.135  28.289  1.00  0.00     0.031 C 
ATOM     43  C   UNL A   1      45.401  24.233  26.225  1.00  0.00     0.029 A 
ATOM     44  N   UNL A   1      45.047  26.283  27.042  1.00  0.00    -0.354 N 
ATOM     45  C   UNL A   1      41.217  27.350  28.773  1.00  0.00     0.074 A 
ATOM     46  C   UNL A   1      40.302  26.230  28.728  1.00  0.00     0.031 C 
ATOM     47  C   UNL A   1      46.523  24.944  26.028  1.00  0.00     0.029 A 
ATOM     48  C   UNL A   1      46.320  26.303  26.520  1.00  0.00     0.049 A 
ATOM     49  H   UNL A   1      44.631  27.064  27.475  1.00  0.00     0.167 HD
ATOM     50  C   UNL A   1      40.918  28.566  29.292  1.00  0.00     0.034 A 
ATOM     51  C   UNL A   1      47.218  27.306  26.433  1.00  0.00     0.034 A 
ATOM     52  C   UNL A   1      41.849  29.668  29.338  1.00  0.00     0.049 A 
ATOM     53  C   UNL A   1      46.854  28.656  26.998  1.00  0.00     0.074 A 
ATOM     54  C   UNL A   1      41.672  30.923  29.895  1.00  0.00     0.029 A 
ATOM     55  N   UNL A   1      43.130  29.652  28.799  1.00  0.00    -0.354 N 
ATOM     56  N   UNL A   1      45.735  29.038  27.569  1.00  0.00    -0.248 NA
ATOM     57  C   UNL A   1      47.878  29.705  26.915  1.00  0.00     0.031 C 
ATOM     58  C   UNL A   1      42.812  31.688  29.625  1.00  0.00     0.029 A 
ATOM     59  C   UNL A   1      43.738  30.886  28.977  1.00  0.00     0.049 A 
ATOM     60  H   UNL A   1      43.545  28.878  28.355  1.00  0.00     0.167 HD
ATOM     61  C   UNL A   1      45.934  30.366  27.943  1.00  0.00     0.074 A 
ATOM     62  C   UNL A   1      47.285  30.709  27.545  1.00  0.00     0.031 C 
ATOM     63  C   UNL A   1      45.081  31.220  28.562  1.00  0.00     0.034 A 
BRANCH  50  64
ATOM     64  C   UNL A   1      39.518  28.774  29.823  1.00  0.00     0.023 A 
ATOM     65  C   UNL A   1      38.472  29.229  29.001  1.00  0.00     0.031 A 
ATOM     66  C   UNL A   1      39.228  28.534  31.178  1.00  0.00     0.131 A 
ATOM     67  C   UNL A   1      37.212  29.501  29.554  1.00  0.00     0.055 A 
ATOM     68  C   UNL A   1      37.949  28.724  31.704  1.00  0.00     0.041 A 
ATOM     69  F   UNL A   1      40.189  28.120  32.020  1.00  0.00    -0.206 F 
ATOM     70  C   UNL A   1      36.935  29.225  30.894  1.00  0.00     0.022 A 
BRANCH  67  71
ATOM     71  S   UNL A   1      35.983  30.358  28.530  1.00  0.00     0.124 S 
ATOM     72  O   UNL A   1      35.560  31.437  29.420  1.00  0.00    -0.237 OA
ATOM     73  O   UNL A   1      36.765  30.758  27.367  1.00  0.00    -0.237 OA
ATOM     74  O   UNL A   1      34.971  29.333  28.281  1.00  0.00    -0.744 OA
ENDBRANCH  67  71
ENDBRANCH  50  64
BRANCH  51  75
ATOM     75  C   UNL A   1      48.538  27.081  25.778  1.00  0.00     0.023 A 
ATOM     76  C   UNL A   1      49.635  26.589  26.504  1.00  0.00     0.031 A 
ATOM     77  C   UNL A   1      48.734  27.391  24.419  1.00  0.00     0.131 A 
ATOM     78  C   UNL A   1      50.886  26.465  25.882  1.00  0.00     0.055 A 
ATOM     79  C   UNL A   1      49.967  27.213  23.792  1.00  0.00     0.041 A 
ATOM     80  F   UNL A   1      47.718  27.861  23.677  1.00  0.00    -0.206 F 
ATOM     81  C   UNL A   1      51.057  26.760  24.527  1.00  0.00     0.022 A 
BRANCH  78  82
ATOM     82  S   UNL A   1      52.317  25.995  26.894  1.00  0.00     0.124 S 
ATOM     83  O   UNL A   1      53.198  27.141  26.711  1.00  0.00    -0.237 OA
ATOM     84  O   UNL A   1      51.716  25.850  28.216  1.00  0.00    -0.237 OA
ATOM     85  O   UNL A   1      52.773  24.751  26.279  1.00  0.00    -0.744 OA
ENDBRANCH  78  82
ENDBRANCH  51  75
BRANCH  63  86
ATOM     86  C   UNL A   1      45.605  32.599  28.887  1.00  0.00     0.023 A 
ATOM     87  C   UNL A   1      45.358  33.702  28.051  1.00  0.00     0.031 A 
ATOM     88  C   UNL A   1      46.370  32.808  30.049  1.00  0.00     0.131 A 
ATOM     89  C   UNL A   1      45.920  34.951  28.358  1.00  0.00     0.055 A 
ATOM     90  C   UNL A   1      46.872  34.067  30.382  1.00  0.00     0.041 A 
ATOM     91  F   UNL A   1      46.640  31.790  30.881  1.00  0.00    -0.206 F 
ATOM     92  C   UNL A   1      46.659  35.144  29.529  1.00  0.00     0.022 A 
BRANCH  89  93
ATOM     93  S   UNL A   1      45.756  36.298  27.155  1.00  0.00     0.124 S 
ATOM     94  O   UNL A   1      45.957  37.477  27.992  1.00  0.00    -0.237 OA
ATOM     95  O   UNL A   1      46.822  36.002  26.206  1.00  0.00    -0.237 OA
ATOM     96  O   UNL A   1      44.400  36.132  26.636  1.00  0.00    -0.744 OA
ENDBRANCH  89  93
ENDBRANCH  63  86
ENDBRANCH  37  38
ENDBRANCH  29  32
ENDBRANCH  27  28
ENDBRANCH  26  27
ENDBRANCH   1  26
TORSDOF 19
ENDMDL
MODEL 2
REMARK VINA RESULT:     -10.6      2.305      7.992
REMARK SMILES C[NH2+][C@]1(C(=O)NCCCCCCNC(=O)c2ccc(-c3c4nc(c(-c5cc(S(=O)(=O)[O-])ccc5F)c5ccc([nH]5)c(-c5cc(S(=O)(=O)[O-])ccc5F)c5nc(c(-c6cc(S(=O)(=O)[O-])ccc6F)c6ccc3[nH]6)C=C5)C=C4)cc2)CCC[C@@H](Sc2nccn2C)C1
REMARK SMILES IDX 10 1 9 2 8 3 7 4 6 5 4 6 5 7 3 9 79 10 90 11 80 12 82 13
REMARK SMILES IDX 81 14 2 15 1 16 83 19 84 20 85 21 88 22 86 23 87 24 89 25
REMARK SMILES IDX 11 26 12 27 13 28 14 29 15 31 16 32 17 33 78 34 18 35 77 36
REMARK SMILES IDX 19 37 20 38 21 39 71 40 22 41 76 42 70 43 72 44 23 45 75 46
REMARK SMILES IDX 69 47 68 48 24 50 56 51 36 52 55 53 37 54 40 55 54 56 73 57
REMARK SMILES IDX 38 58 39 59 53 61 74 62 41 63 25 64 26 65 34 66 27 67 33 68
REMARK SMILES IDX 35 69 32 70 28 71 29 72 30 73 31 74 57 75 58 76 66 77 59 78
REMARK SMILES IDX 65 79 67 80 64 81 60 82 61 83 62 84 63 85 42 86 43 87 51 88
REMARK SMILES IDX 44 89 50 90 52 91 49 92 45 93 46 94 47 95 48 96
REMARK H PARENT 6 8 2 17 2 18 13 30 72 49 40 60
REMARK Flexibility Score: inf
ROOT
ATOM      1  C   UNL A   1      35.705  20.514  24.991  1.00  0.00     0.002 C 
ENDROOT
BRANCH   1   2
ATOM      2  C   UNL A   1      34.255  20.122  24.687  1.00  0.00     0.002 C 
BRANCH   2   3
ATOM      3  C   UNL A   1      33.229  20.649  25.698  1.00  0.00     0.021 C 
BRANCH   3   4
ATOM      4  C   UNL A   1      32.056  21.372  25.036  1.00  0.00     0.116 C 
BRANCH   4   5
ATOM      5  N   UNL A   1      31.149  21.872  26.055  1.00  0.00    -0.351 N 
ATOM      6  C   UNL A   1      31.033  23.093  26.645  1.00  0.00     0.281 C 
ATOM      7  O   UNL A   1      30.213  23.173  27.571  1.00  0.00    -0.268 OA
ATOM      8  H   UNL A   1      30.500  21.206  26.377  1.00  0.00     0.163 HD
BRANCH   6   9
ATOM      9  C   UNL A   1      31.799  24.367  26.133  1.00  0.00     0.176 C 
ATOM     10  C   UNL A   1      33.340  24.213  26.132  1.00  0.00     0.079 C 
ATOM     11  C   UNL A   1      31.250  24.671  24.711  1.00  0.00     0.094 C 
ATOM     12  C   UNL A   1      34.066  25.337  25.394  1.00  0.00     0.008 C 
ATOM     13  C   UNL A   1      32.026  25.776  23.990  1.00  0.00     0.061 C 
ATOM     14  C   UNL A   1      33.532  25.500  23.973  1.00  0.00     0.015 C 
BRANCH   9  15
ATOM     15  N   UNL A   1      31.360  25.539  26.970  1.00  0.00    -0.336 N 
ATOM     16  C   UNL A   1      31.303  26.816  26.266  1.00  0.00     0.331 C 
ATOM     17  H   UNL A   1      30.428  25.337  27.333  1.00  0.00     0.346 HD
ATOM     18  H   UNL A   1      32.065  25.648  27.698  1.00  0.00     0.346 HD
ENDBRANCH   9  15
BRANCH  13  19
ATOM     19  S   UNL A   1      31.372  26.109  22.310  1.00  0.00    -0.084 SA
BRANCH  19  20
ATOM     20  C   UNL A   1      30.466  27.569  22.524  1.00  0.00     0.167 A 
ATOM     21  N   UNL A   1      30.830  28.752  22.082  1.00  0.00    -0.231 NA
ATOM     22  N   UNL A   1      29.246  27.617  23.143  1.00  0.00    -0.329 N 
ATOM     23  C   UNL A   1      29.802  29.597  22.411  1.00  0.00     0.132 A 
ATOM     24  C   UNL A   1      28.809  28.917  23.076  1.00  0.00     0.108 A 
ATOM     25  C   UNL A   1      28.505  26.557  23.779  1.00  0.00     0.152 C 
ENDBRANCH  19  20
ENDBRANCH  13  19
ENDBRANCH   6   9
ENDBRANCH   4   5
ENDBRANCH   3   4
ENDBRANCH   2   3
ENDBRANCH   1   2
BRANCH   1  26
ATOM     26  C   UNL A   1      36.107  21.910  24.507  1.00  0.00     0.021 C 
BRANCH  26  27
ATOM     27  C   UNL A   1      37.267  22.529  25.282  1.00  0.00     0.116 C 
BRANCH  27  28
ATOM     28  N   UNL A   1      38.153  21.509  25.817  1.00  0.00    -0.352 N 
ATOM     29  C   UNL A   1      39.382  21.654  26.412  1.00  0.00     0.251 C 
ATOM     30  H   UNL A   1      37.827  20.583  25.743  1.00  0.00     0.163 HD
ATOM     31  O   UNL A   1      40.104  20.675  26.569  1.00  0.00    -0.269 OA
BRANCH  29  32
ATOM     32  C   UNL A   1      39.829  22.996  26.846  1.00  0.00     0.039 A 
ATOM     33  C   UNL A   1      40.719  23.101  27.916  1.00  0.00     0.014 A 
ATOM     34  C   UNL A   1      39.362  24.146  26.202  1.00  0.00     0.014 A 
ATOM     35  C   UNL A   1      41.183  24.359  28.307  1.00  0.00     0.010 A 
ATOM     36  C   UNL A   1      39.881  25.391  26.543  1.00  0.00     0.010 A 
ATOM     37  C   UNL A   1      40.793  25.511  27.603  1.00  0.00    -0.014 A 
BRANCH  37  38
ATOM     38  C   UNL A   1      41.324  26.851  27.967  1.00  0.00     0.031 A 
ATOM     39  C   UNL A   1      42.752  27.207  27.654  1.00  0.00     0.074 A 
ATOM     40  C   UNL A   1      40.536  27.721  28.630  1.00  0.00     0.049 A 
ATOM     41  N   UNL A   1      43.419  28.291  27.955  1.00  0.00    -0.248 NA
ATOM     42  C   UNL A   1      43.542  26.194  26.937  1.00  0.00     0.031 C 
ATOM     43  C   UNL A   1      39.147  27.473  29.021  1.00  0.00     0.029 A 
ATOM     44  N   UNL A   1      40.790  28.985  29.100  1.00  0.00    -0.354 N 
ATOM     45  C   UNL A   1      44.709  28.088  27.474  1.00  0.00     0.074 A 
ATOM     46  C   UNL A   1      44.743  26.751  26.920  1.00  0.00     0.031 C 
ATOM     47  C   UNL A   1      38.665  28.558  29.649  1.00  0.00     0.029 A 
ATOM     48  C   UNL A   1      39.722  29.559  29.750  1.00  0.00     0.049 A 
ATOM     49  H   UNL A   1      41.656  29.439  28.983  1.00  0.00     0.167 HD
ATOM     50  C   UNL A   1      45.760  28.945  27.478  1.00  0.00     0.034 A 
ATOM     51  C   UNL A   1      39.610  30.751  30.370  1.00  0.00     0.034 A 
ATOM     52  C   UNL A   1      45.703  30.279  28.026  1.00  0.00     0.049 A 
ATOM     53  C   UNL A   1      40.799  31.679  30.381  1.00  0.00     0.074 A 
ATOM     54  C   UNL A   1      46.687  31.252  28.028  1.00  0.00     0.029 A 
ATOM     55  N   UNL A   1      44.604  30.827  28.677  1.00  0.00    -0.354 N 
ATOM     56  N   UNL A   1      41.997  31.492  29.877  1.00  0.00    -0.248 NA
ATOM     57  C   UNL A   1      40.617  32.981  31.034  1.00  0.00     0.031 C 
ATOM     58  C   UNL A   1      46.213  32.355  28.746  1.00  0.00     0.029 A 
ATOM     59  C   UNL A   1      44.900  32.108  29.117  1.00  0.00     0.049 A 
ATOM     60  H   UNL A   1      43.741  30.371  28.807  1.00  0.00     0.167 HD
ATOM     61  C   UNL A   1      42.701  32.667  30.125  1.00  0.00     0.074 A 
ATOM     62  C   UNL A   1      41.787  33.560  30.810  1.00  0.00     0.031 C 
ATOM     63  C   UNL A   1      43.983  32.982  29.812  1.00  0.00     0.034 A 
BRANCH  50  64
ATOM     64  C   UNL A   1      47.066  28.452  26.898  1.00  0.00     0.023 A 
ATOM     65  C   UNL A   1      47.272  28.355  25.511  1.00  0.00     0.031 A 
ATOM     66  C   UNL A   1      48.115  28.052  27.745  1.00  0.00     0.131 A 
ATOM     67  C   UNL A   1      48.462  27.803  25.014  1.00  0.00     0.055 A 
ATOM     68  C   UNL A   1      49.331  27.584  27.244  1.00  0.00     0.041 A 
ATOM     69  F   UNL A   1      47.972  28.100  29.080  1.00  0.00    -0.206 F 
ATOM     70  C   UNL A   1      49.505  27.442  25.870  1.00  0.00     0.022 A 
BRANCH  67  71
ATOM     71  S   UNL A   1      48.571  27.426  23.243  1.00  0.00     0.124 S 
ATOM     72  O   UNL A   1      47.381  28.098  22.726  1.00  0.00    -0.237 OA
ATOM     73  O   UNL A   1      49.851  28.018  22.872  1.00  0.00    -0.237 OA
ATOM     74  O   UNL A   1      48.521  25.966  23.200  1.00  0.00    -0.744 OA
ENDBRANCH  67  71
ENDBRANCH  50  64
BRANCH  51  75
ATOM     75  C   UNL A   1      38.336  31.133  31.044  1.00  0.00     0.023 A 
ATOM     76  C   UNL A   1      37.308  31.780  30.339  1.00  0.00     0.031 A 
ATOM     77  C   UNL A   1      38.141  30.891  32.416  1.00  0.00     0.131 A 
ATOM     78  C   UNL A   1      36.153  32.202  31.016  1.00  0.00     0.055 A 
ATOM     79  C   UNL A   1      36.967  31.263  33.072  1.00  0.00     0.041 A 
ATOM     80  F   UNL A   1      39.090  30.272  33.138  1.00  0.00    -0.206 F 
ATOM     81  C   UNL A   1      35.969  31.935  32.374  1.00  0.00     0.022 A 
BRANCH  78  82
ATOM     82  S   UNL A   1      34.927  33.187  30.112  1.00  0.00     0.124 S 
ATOM     83  O   UNL A   1      34.337  32.188  29.230  1.00  0.00    -0.237 OA
ATOM     84  O   UNL A   1      34.076  33.675  31.193  1.00  0.00    -0.237 OA
ATOM     85  O   UNL A   1      35.735  34.208  29.448  1.00  0.00    -0.744 OA
ENDBRANCH  78  82
ENDBRANCH  51  75
BRANCH  63  86
ATOM     86  C   UNL A   1      44.457  34.371  30.170  1.00  0.00     0.023 A 
ATOM     87  C   UNL A   1      44.154  35.487  29.371  1.00  0.00     0.031 A 
ATOM     88  C   UNL A   1      45.232  34.577  31.327  1.00  0.00     0.131 A 
ATOM     89  C   UNL A   1      44.672  36.748  29.706  1.00  0.00     0.055 A 
ATOM     90  C   UNL A   1      45.688  35.844  31.691  1.00  0.00     0.041 A 
ATOM     91  F   UNL A   1      45.555  33.547  32.125  1.00  0.00    -0.206 F 
ATOM     92  C   UNL A   1      45.420  36.937  30.872  1.00  0.00     0.022 A 
BRANCH  89  93
ATOM     93  S   UNL A   1      44.436  38.123  28.547  1.00  0.00     0.124 S 
ATOM     94  O   UNL A   1      45.035  39.238  29.274  1.00  0.00    -0.237 OA
ATOM     95  O   UNL A   1      45.164  37.666  27.369  1.00  0.00    -0.237 OA
ATOM     96  O   UNL A   1      42.985  38.195  28.390  1.00  0.00    -0.744 OA
ENDBRANCH  89  93
ENDBRANCH  63  86
ENDBRANCH  37  38
ENDBRANCH  29  32
ENDBRANCH  27  28
ENDBRANCH  26  27
ENDBRANCH   1  26
TORSDOF 19
ENDMDL
MODEL 3
REMARK VINA RESULT:     -10.5      2.761      8.492
REMARK SMILES C[NH2+][C@]1(C(=O)NCCCCCCNC(=O)c2ccc(-c3c4nc(c(-c5cc(S(=O)(=O)[O-])ccc5F)c5ccc([nH]5)c(-c5cc(S(=O)(=O)[O-])ccc5F)c5nc(c(-c6cc(S(=O)(=O)[O-])ccc6F)c6ccc3[nH]6)C=C5)C=C4)cc2)CCC[C@@H](Sc2nccn2C)C1
REMARK SMILES IDX 10 1 9 2 8 3 7 4 6 5 4 6 5 7 3 9 79 10 90 11 80 12 82 13
REMARK SMILES IDX 81 14 2 15 1 16 83 19 84 20 85 21 88 22 86 23 87 24 89 25
REMARK SMILES IDX 11 26 12 27 13 28 14 29 15 31 16 32 17 33 78 34 18 35 77 36
REMARK SMILES IDX 19 37 20 38 21 39 71 40 22 41 76 42 70 43 72 44 23 45 75 46
REMARK SMILES IDX 69 47 68 48 24 50 56 51 36 52 55 53 37 54 40 55 54 56 73 57
REMARK SMILES IDX 38 58 39 59 53 61 74 62 41 63 25 64 26 65 34 66 27 67 33 68
REMARK SMILES IDX 35 69 32 70 28 71 29 72 30 73 31 74 57 75 58 76 66 77 59 78
REMARK SMILES IDX 65 79 67 80 64 81 60 82 61 83 62 84 63 85 42 86 43 87 51 88
REMARK SMILES IDX 44 89 50 90 52 91 49 92 45 93 46 94 47 95 48 96
REMARK H PARENT 6 8 2 17 2 18 13 30 72 49 40 60
REMARK Flexibility Score: inf
ROOT
ATOM      1  C   UNL A   1      35.830  20.609  25.074  1.00  0.00     0.002 C 
ENDROOT
BRANCH   1   2
ATOM      2  C   UNL A   1      34.431  20.084  24.734  1.00  0.00     0.002 C 
BRANCH   2   3
ATOM      3  C   UNL A   1      33.322  20.575  25.673  1.00  0.00     0.021 C 
BRANCH   3   4
ATOM      4  C   UNL A   1      32.175  21.262  24.934  1.00  0.00     0.116 C 
BRANCH   4   5
ATOM      5  N   UNL A   1      31.227  21.804  25.893  1.00  0.00    -0.351 N 
ATOM      6  C   UNL A   1      31.144  23.020  26.499  1.00  0.00     0.281 C 
ATOM      7  O   UNL A   1      30.264  23.138  27.363  1.00  0.00    -0.268 OA
ATOM      8  H   UNL A   1      30.515  21.175  26.152  1.00  0.00     0.163 HD
BRANCH   6   9
ATOM      9  C   UNL A   1      32.025  24.250  26.071  1.00  0.00     0.176 C 
ATOM     10  C   UNL A   1      33.549  24.005  26.205  1.00  0.00     0.079 C 
ATOM     11  C   UNL A   1      31.625  24.595  24.610  1.00  0.00     0.094 C 
ATOM     12  C   UNL A   1      34.402  25.089  25.548  1.00  0.00     0.008 C 
ATOM     13  C   UNL A   1      32.525  25.657  23.973  1.00  0.00     0.061 C 
ATOM     14  C   UNL A   1      34.007  25.293  24.087  1.00  0.00     0.015 C 
BRANCH   9  15
ATOM     15  N   UNL A   1      31.583  25.441  26.880  1.00  0.00    -0.336 N 
ATOM     16  C   UNL A   1      30.683  26.358  26.189  1.00  0.00     0.331 C 
ATOM     17  H   UNL A   1      31.104  25.096  27.713  1.00  0.00     0.346 HD
ATOM     18  H   UNL A   1      32.427  25.973  27.087  1.00  0.00     0.346 HD
ENDBRANCH   9  15
BRANCH  13  19
ATOM     19  S   UNL A   1      32.044  26.039  22.246  1.00  0.00    -0.084 SA
BRANCH  19  20
ATOM     20  C   UNL A   1      31.208  27.547  22.396  1.00  0.00     0.167 A 
ATOM     21  N   UNL A   1      29.903  27.693  22.341  1.00  0.00    -0.231 NA
ATOM     22  N   UNL A   1      31.837  28.739  22.637  1.00  0.00    -0.329 N 
ATOM     23  C   UNL A   1      29.674  29.025  22.570  1.00  0.00     0.132 A 
ATOM     24  C   UNL A   1      30.860  29.697  22.751  1.00  0.00     0.108 A 
ATOM     25  C   UNL A   1      33.247  29.019  22.748  1.00  0.00     0.152 C 
ENDBRANCH  19  20
ENDBRANCH  13  19
ENDBRANCH   6   9
ENDBRANCH   4   5
ENDBRANCH   3   4
ENDBRANCH   2   3
ENDBRANCH   1   2
BRANCH   1  26
ATOM     26  C   UNL A   1      36.140  22.007  24.532  1.00  0.00     0.021 C 
BRANCH  26  27
ATOM     27  C   UNL A   1      37.297  22.707  25.239  1.00  0.00     0.116 C 
BRANCH  27  28
ATOM     28  N   UNL A   1      38.246  21.749  25.783  1.00  0.00    -0.352 N 
ATOM     29  C   UNL A   1      39.448  21.978  26.405  1.00  0.00     0.251 C 
ATOM     30  H   UNL A   1      37.991  20.803  25.692  1.00  0.00     0.163 HD
ATOM     31  O   UNL A   1      40.238  21.054  26.568  1.00  0.00    -0.269 OA
BRANCH  29  32
ATOM     32  C   UNL A   1      39.786  23.344  26.861  1.00  0.00     0.039 A 
ATOM     33  C   UNL A   1      40.517  23.505  28.039  1.00  0.00     0.014 A 
ATOM     34  C   UNL A   1      39.372  24.462  26.130  1.00  0.00     0.014 A 
ATOM     35  C   UNL A   1      40.880  24.787  28.456  1.00  0.00     0.010 A 
ATOM     36  C   UNL A   1      39.797  25.733  26.507  1.00  0.00     0.010 A 
ATOM     37  C   UNL A   1      40.550  25.909  27.677  1.00  0.00    -0.014 A 
BRANCH  37  38
ATOM     38  C   UNL A   1      40.980  27.275  28.076  1.00  0.00     0.031 A 
ATOM     39  C   UNL A   1      42.432  27.662  27.998  1.00  0.00     0.074 A 
ATOM     40  C   UNL A   1      40.071  28.144  28.560  1.00  0.00     0.049 A 
ATOM     41  N   UNL A   1      43.013  28.774  28.366  1.00  0.00    -0.248 NA
ATOM     42  C   UNL A   1      43.357  26.649  27.465  1.00  0.00     0.031 C 
ATOM     43  C   UNL A   1      38.641  27.869  28.718  1.00  0.00     0.029 A 
ATOM     44  N   UNL A   1      40.212  29.430  29.018  1.00  0.00    -0.354 N 
ATOM     45  C   UNL A   1      44.371  28.592  28.122  1.00  0.00     0.074 A 
ATOM     46  C   UNL A   1      44.530  27.239  27.632  1.00  0.00     0.031 C 
ATOM     47  C   UNL A   1      38.034  28.960  29.212  1.00  0.00     0.029 A 
ATOM     48  C   UNL A   1      39.035  29.994  29.454  1.00  0.00     0.049 A 
ATOM     49  H   UNL A   1      41.075  29.905  29.034  1.00  0.00     0.167 HD
ATOM     50  C   UNL A   1      45.386  29.479  28.272  1.00  0.00     0.034 A 
ATOM     51  C   UNL A   1      38.791  31.203  30.001  1.00  0.00     0.034 A 
ATOM     52  C   UNL A   1      45.205  30.828  28.751  1.00  0.00     0.049 A 
ATOM     53  C   UNL A   1      39.939  32.164  30.179  1.00  0.00     0.074 A 
ATOM     54  C   UNL A   1      46.152  31.829  28.885  1.00  0.00     0.029 A 
ATOM     55  N   UNL A   1      43.999  31.366  29.184  1.00  0.00    -0.354 N 
ATOM     56  N   UNL A   1      41.210  31.995  29.894  1.00  0.00    -0.248 NA
ATOM     57  C   UNL A   1      39.618  33.482  30.741  1.00  0.00     0.031 C 
ATOM     58  C   UNL A   1      45.536  32.941  29.469  1.00  0.00     0.029 A 
ATOM     59  C   UNL A   1      44.185  32.669  29.619  1.00  0.00     0.049 A 
ATOM     60  H   UNL A   1      43.137  30.890  29.182  1.00  0.00     0.167 HD
ATOM     61  C   UNL A   1      41.834  33.198  30.215  1.00  0.00     0.074 A 
ATOM     62  C   UNL A   1      40.796  34.086  30.699  1.00  0.00     0.031 C 
ATOM     63  C   UNL A   1      43.144  33.540  30.113  1.00  0.00     0.034 A 
BRANCH  50  64
ATOM     64  C   UNL A   1      46.783  29.005  27.943  1.00  0.00     0.023 A 
ATOM     65  C   UNL A   1      47.661  28.539  28.937  1.00  0.00     0.031 A 
ATOM     66  C   UNL A   1      47.252  29.039  26.619  1.00  0.00     0.131 A 
ATOM     67  C   UNL A   1      48.981  28.198  28.605  1.00  0.00     0.055 A 
ATOM     68  C   UNL A   1      48.540  28.617  26.281  1.00  0.00     0.041 A 
ATOM     69  F   UNL A   1      46.469  29.494  25.627  1.00  0.00    -0.206 F 
ATOM     70  C   UNL A   1      49.418  28.207  27.279  1.00  0.00     0.022 A 
BRANCH  67  71
ATOM     71  S   UNL A   1      50.160  27.885  29.948  1.00  0.00     0.124 S 
ATOM     72  O   UNL A   1      49.409  28.347  31.112  1.00  0.00    -0.237 OA
ATOM     73  O   UNL A   1      50.371  26.445  29.853  1.00  0.00    -0.237 OA
ATOM     74  O   UNL A   1      51.312  28.710  29.591  1.00  0.00    -0.744 OA
ENDBRANCH  67  71
ENDBRANCH  50  64
BRANCH  51  75
ATOM     75  C   UNL A   1      37.412  31.570  30.431  1.00  0.00     0.023 A 
ATOM     76  C   UNL A   1      36.533  32.236  29.562  1.00  0.00     0.031 A 
ATOM     77  C   UNL A   1      36.962  31.294  31.736  1.00  0.00     0.131 A 
ATOM     78  C   UNL A   1      35.270  32.643  30.020  1.00  0.00     0.055 A 
ATOM     79  C   UNL A   1      35.685  31.652  32.168  1.00  0.00     0.041 A 
ATOM     80  F   UNL A   1      37.760  30.656  32.608  1.00  0.00    -0.206 F 
ATOM     81  C   UNL A   1      34.834  32.343  31.312  1.00  0.00     0.022 A 
BRANCH  78  82
ATOM     82  S   UNL A   1      34.234  33.653  28.926  1.00  0.00     0.124 S 
ATOM     83  O   UNL A   1      35.215  34.561  28.344  1.00  0.00    -0.237 OA
ATOM     84  O   UNL A   1      33.674  32.649  28.027  1.00  0.00    -0.237 OA
ATOM     85  O   UNL A   1      33.276  34.271  29.841  1.00  0.00    -0.744 OA
ENDBRANCH  78  82
ENDBRANCH  51  75
BRANCH  63  86
ATOM     86  C   UNL A   1      43.517  34.953  30.494  1.00  0.00     0.023 A 
ATOM     87  C   UNL A   1      43.782  35.316  31.826  1.00  0.00     0.031 A 
ATOM     88  C   UNL A   1      43.600  35.952  29.507  1.00  0.00     0.131 A 
ATOM     89  C   UNL A   1      44.060  36.655  32.143  1.00  0.00     0.055 A 
ATOM     90  C   UNL A   1      43.941  37.268  29.820  1.00  0.00     0.041 A 
ATOM     91  F   UNL A   1      43.353  35.662  28.220  1.00  0.00    -0.206 F 
ATOM     92  C   UNL A   1      44.160  37.629  31.145  1.00  0.00     0.022 A 
BRANCH  89  93
ATOM     93  S   UNL A   1      44.192  37.128  33.889  1.00  0.00     0.124 S 
ATOM     94  O   UNL A   1      45.596  36.846  34.173  1.00  0.00    -0.237 OA
ATOM     95  O   UNL A   1      43.818  38.537  33.861  1.00  0.00    -0.237 OA
ATOM     96  O   UNL A   1      43.237  36.245  34.557  1.00  0.00    -0.744 OA
ENDBRANCH  89  93
ENDBRANCH  63  86
ENDBRANCH  37  38
ENDBRANCH  29  32
ENDBRANCH  27  28
ENDBRANCH  26  27
ENDBRANCH   1  26
TORSDOF 19
ENDMDL
