MODEL 1
REMARK VINA RESULT:     -11.1      0.000      0.000
REMARK SMILES O=C(CCNC(=O)[C@H]1CCCN(S(=O)(=O)c2ccc(Cl)cc2)C1)NCCCCCCNC(=O)c1ccc(-c2c3nc(c(-c4cc(S(=O)(=O)[O-])ccc4F)c4ccc([nH]4)c(-c4cc(S(=O)(=O)[O-])ccc4F)c4nc(c(-c5cc(S(=O)(=O)[O-])ccc5F)c5ccc2[nH]5)C=C4)C=C3)cc1
REMARK SMILES IDX 26 1 25 2 24 3 1 4 2 5 3 7 4 8 5 9 6 10 7 12 8 13 9 14 23 15
REMARK SMILES IDX 10 16 12 17 11 18 13 19 14 20 15 21 16 22 17 23 22 24 18 25
REMARK SMILES IDX 21 26 19 27 20 28 27 29 28 30 29 31 30 32 31 33 32 34 33 36
REMARK SMILES IDX 34 37 35 38 96 39 36 40 95 41 37 42 38 43 39 44 89 45 40 46
REMARK SMILES IDX 94 47 88 48 90 49 41 50 93 51 87 52 86 53 42 55 74 56 54 57
REMARK SMILES IDX 73 58 55 59 58 60 72 61 91 62 56 63 57 64 71 66 92 67 59 68
REMARK SMILES IDX 43 69 44 70 52 71 45 72 51 73 53 74 50 75 46 76 47 77 48 78
REMARK SMILES IDX 49 79 75 80 76 81 84 82 77 83 83 84 85 85 82 86 78 87 79 88
REMARK SMILES IDX 80 89 81 90 60 91 61 92 69 93 62 94 68 95 70 96 67 97 63 98
REMARK SMILES IDX 64 99 65 100 66 101
REMARK H PARENT 24 6 5 11 31 35 90 54 58 65
REMARK Flexibility Score: inf
ROOT
ATOM      1  C   UNL A   1      39.724  22.950  26.532  1.00  0.00     0.021 C 
ENDROOT
BRANCH   1   2
ATOM      2  C   UNL A   1      38.565  22.180  25.900  1.00  0.00     0.116 C 
BRANCH   2   3
ATOM      3  N   UNL A   1      37.275  22.705  26.303  1.00  0.00    -0.356 N 
ATOM      4  O   UNL A   1      36.015  20.948  25.512  1.00  0.00    -0.275 OA
ATOM      5  C   UNL A   1      36.097  22.027  26.087  1.00  0.00     0.221 C 
ATOM      6  H   UNL A   1      37.240  23.582  26.749  1.00  0.00     0.163 HD
BRANCH   5   7
ATOM      7  C   UNL A   1      34.882  22.716  26.671  1.00  0.00     0.121 C 
BRANCH   7   8
ATOM      8  C   UNL A   1      34.046  21.729  27.480  1.00  0.00     0.125 C 
BRANCH   8   9
ATOM      9  N   UNL A   1      33.268  20.858  26.612  1.00  0.00    -0.355 N 
ATOM     10  C   UNL A   1      32.515  21.134  25.513  1.00  0.00     0.224 C 
ATOM     11  H   UNL A   1      33.289  19.906  26.862  1.00  0.00     0.163 HD
ATOM     12  O   UNL A   1      31.812  20.224  25.071  1.00  0.00    -0.275 OA
BRANCH  10  13
ATOM     13  C   UNL A   1      32.573  22.511  24.859  1.00  0.00     0.093 C 
ATOM     14  C   UNL A   1      32.547  22.354  23.332  1.00  0.00     0.016 C 
ATOM     15  C   UNL A   1      31.403  23.388  25.300  1.00  0.00     0.116 C 
ATOM     16  C   UNL A   1      32.551  23.713  22.651  1.00  0.00     0.018 C 
ATOM     17  N   UNL A   1      31.448  24.736  24.618  1.00  0.00    -0.197 NA
ATOM     18  C   UNL A   1      31.392  24.576  23.135  1.00  0.00     0.102 C 
BRANCH  17  19
ATOM     19  S   UNL A   1      30.240  25.782  25.277  1.00  0.00     0.243 S 
ATOM     20  O   UNL A   1      29.359  26.163  24.195  1.00  0.00    -0.207 OA
ATOM     21  O   UNL A   1      29.718  25.135  26.464  1.00  0.00    -0.207 OA
BRANCH  19  22
ATOM     22  C   UNL A   1      31.108  27.247  25.801  1.00  0.00     0.082 A 
ATOM     23  C   UNL A   1      31.643  27.303  27.095  1.00  0.00     0.023 A 
ATOM     24  C   UNL A   1      31.381  28.267  24.883  1.00  0.00     0.023 A 
ATOM     25  C   UNL A   1      32.400  28.408  27.490  1.00  0.00     0.022 A 
ATOM     26  C   UNL A   1      32.161  29.360  25.274  1.00  0.00     0.022 A 
ATOM     27  C   UNL A   1      32.658  29.430  26.577  1.00  0.00     0.041 A 
ATOM     28  Cl  UNL A   1      33.619  30.775  27.055  1.00  0.00    -0.084 Cl
ENDBRANCH  19  22
ENDBRANCH  17  19
ENDBRANCH  10  13
ENDBRANCH   8   9
ENDBRANCH   7   8
ENDBRANCH   5   7
ENDBRANCH   2   3
ENDBRANCH   1   2
BRANCH   1  29
ATOM     29  C   UNL A   1      41.016  22.146  26.730  1.00  0.00     0.002 C 
BRANCH  29  30
ATOM     30  C   UNL A   1      40.834  20.690  27.168  1.00  0.00     0.002 C 
BRANCH  30  31
ATOM     31  C   UNL A   1      41.333  19.634  26.177  1.00  0.00     0.021 C 
BRANCH  31  32
ATOM     32  C   UNL A   1      42.722  19.066  26.466  1.00  0.00     0.116 C 
BRANCH  32  33
ATOM     33  N   UNL A   1      43.504  18.848  25.260  1.00  0.00    -0.352 N 
ATOM     34  C   UNL A   1      44.170  19.767  24.482  1.00  0.00     0.251 C 
ATOM     35  H   UNL A   1      43.567  17.913  24.959  1.00  0.00     0.163 HD
ATOM     36  O   UNL A   1      44.671  19.417  23.416  1.00  0.00    -0.269 OA
BRANCH  34  37
ATOM     37  C   UNL A   1      44.250  21.181  24.914  1.00  0.00     0.039 A 
ATOM     38  C   UNL A   1      44.820  21.479  26.155  1.00  0.00     0.014 A 
ATOM     39  C   UNL A   1      43.768  22.211  24.101  1.00  0.00     0.014 A 
ATOM     40  C   UNL A   1      44.976  22.813  26.549  1.00  0.00     0.010 A 
ATOM     41  C   UNL A   1      43.973  23.539  24.470  1.00  0.00     0.010 A 
ATOM     42  C   UNL A   1      44.586  23.855  25.693  1.00  0.00    -0.014 A 
BRANCH  42  43
ATOM     43  C   UNL A   1      44.809  25.283  26.048  1.00  0.00     0.031 A 
ATOM     44  C   UNL A   1      46.200  25.857  26.001  1.00  0.00     0.074 A 
ATOM     45  C   UNL A   1      43.782  26.030  26.499  1.00  0.00     0.049 A 
ATOM     46  N   UNL A   1      46.628  27.024  26.411  1.00  0.00    -0.248 NA
ATOM     47  C   UNL A   1      47.251  24.993  25.446  1.00  0.00     0.031 C 
ATOM     48  C   UNL A   1      42.394  25.580  26.616  1.00  0.00     0.029 A 
ATOM     49  N   UNL A   1      43.749  27.322  26.967  1.00  0.00    -0.354 N 
ATOM     50  C   UNL A   1      48.002  27.022  26.196  1.00  0.00     0.074 A 
ATOM     51  C   UNL A   1      48.337  25.725  25.645  1.00  0.00     0.031 C 
ATOM     52  C   UNL A   1      41.647  26.577  27.117  1.00  0.00     0.029 A 
ATOM     53  C   UNL A   1      42.506  27.722  27.404  1.00  0.00     0.049 A 
ATOM     54  H   UNL A   1      44.541  27.906  26.988  1.00  0.00     0.167 HD
ATOM     55  C   UNL A   1      48.897  28.013  26.427  1.00  0.00     0.034 A 
ATOM     56  C   UNL A   1      42.109  28.870  27.991  1.00  0.00     0.034 A 
ATOM     57  C   UNL A   1      48.543  29.314  26.938  1.00  0.00     0.049 A 
ATOM     58  C   UNL A   1      43.129  29.955  28.238  1.00  0.00     0.074 A 
ATOM     59  C   UNL A   1      49.362  30.415  27.131  1.00  0.00     0.029 A 
ATOM     60  N   UNL A   1      47.270  29.691  27.342  1.00  0.00    -0.354 N 
ATOM     61  N   UNL A   1      44.416  29.954  27.979  1.00  0.00    -0.248 NA
ATOM     62  C   UNL A   1      42.641  31.199  28.851  1.00  0.00     0.031 C 
ATOM     63  C   UNL A   1      48.596  31.437  27.701  1.00  0.00     0.029 A 
ATOM     64  C   UNL A   1      47.287  30.997  27.807  1.00  0.00     0.049 A 
ATOM     65  H   UNL A   1      46.472  29.115  27.303  1.00  0.00     0.167 HD
ATOM     66  C   UNL A   1      44.879  31.211  28.358  1.00  0.00     0.074 A 
ATOM     67  C   UNL A   1      43.736  31.943  28.860  1.00  0.00     0.031 C 
ATOM     68  C   UNL A   1      46.136  31.717  28.292  1.00  0.00     0.034 A 
BRANCH  55  69
ATOM     69  C   UNL A   1      50.351  27.721  26.160  1.00  0.00     0.023 A 
ATOM     70  C   UNL A   1      50.902  27.812  24.870  1.00  0.00     0.031 A 
ATOM     71  C   UNL A   1      51.202  27.351  27.217  1.00  0.00     0.131 A 
ATOM     72  C   UNL A   1      52.250  27.483  24.662  1.00  0.00     0.055 A 
ATOM     73  C   UNL A   1      52.559  27.092  27.015  1.00  0.00     0.041 A 
ATOM     74  F   UNL A   1      50.725  27.231  28.467  1.00  0.00    -0.206 F 
ATOM     75  C   UNL A   1      53.087  27.148  25.729  1.00  0.00     0.022 A 
BRANCH  72  76
ATOM     76  S   UNL A   1      52.871  27.401  22.961  1.00  0.00     0.124 S 
ATOM     77  O   UNL A   1      53.475  28.723  22.804  1.00  0.00    -0.237 OA
ATOM     78  O   UNL A   1      53.799  26.278  23.015  1.00  0.00    -0.237 OA
ATOM     79  O   UNL A   1      51.665  27.177  22.166  1.00  0.00    -0.744 OA
ENDBRANCH  72  76
ENDBRANCH  55  69
BRANCH  56  80
ATOM     80  C   UNL A   1      40.692  29.061  28.415  1.00  0.00     0.023 A 
ATOM     81  C   UNL A   1      40.321  28.945  29.764  1.00  0.00     0.031 A 
ATOM     82  C   UNL A   1      39.675  29.285  27.469  1.00  0.00     0.131 A 
ATOM     83  C   UNL A   1      38.966  28.992  30.125  1.00  0.00     0.055 A 
ATOM     84  C   UNL A   1      38.333  29.387  27.841  1.00  0.00     0.041 A 
ATOM     85  F   UNL A   1      39.973  29.407  26.167  1.00  0.00    -0.206 F 
ATOM     86  C   UNL A   1      37.971  29.223  29.174  1.00  0.00     0.022 A 
BRANCH  83  87
ATOM     87  S   UNL A   1      38.515  28.631  31.844  1.00  0.00     0.124 S 
ATOM     88  O   UNL A   1      39.511  29.400  32.581  1.00  0.00    -0.237 OA
ATOM     89  O   UNL A   1      37.145  29.127  31.907  1.00  0.00    -0.237 OA
ATOM     90  O   UNL A   1      38.656  27.179  31.936  1.00  0.00    -0.744 OA
ENDBRANCH  83  87
ENDBRANCH  56  80
BRANCH  68  91
ATOM     91  C   UNL A   1      46.320  33.155  28.707  1.00  0.00     0.023 A 
ATOM     92  C   UNL A   1      46.233  34.211  27.785  1.00  0.00     0.031 A 
ATOM     93  C   UNL A   1      46.586  33.465  30.053  1.00  0.00     0.131 A 
ATOM     94  C   UNL A   1      46.458  35.528  28.212  1.00  0.00     0.055 A 
ATOM     95  C   UNL A   1      46.758  34.782  30.481  1.00  0.00     0.041 A 
ATOM     96  F   UNL A   1      46.678  32.492  30.973  1.00  0.00    -0.206 F 
ATOM     97  C   UNL A   1      46.704  35.821  29.557  1.00  0.00     0.022 A 
BRANCH  94  98
ATOM     98  S   UNL A   1      46.486  36.854  26.975  1.00  0.00     0.124 S 
ATOM     99  O   UNL A   1      47.705  37.573  27.329  1.00  0.00    -0.237 OA
ATOM    100  O   UNL A   1      46.527  36.110  25.720  1.00  0.00    -0.237 OA
ATOM    101  O   UNL A   1      45.242  37.581  27.221  1.00  0.00    -0.744 OA
ENDBRANCH  94  98
ENDBRANCH  68  91
ENDBRANCH  42  43
ENDBRANCH  34  37
ENDBRANCH  32  33
ENDBRANCH  31  32
ENDBRANCH  30  31
ENDBRANCH  29  30
ENDBRANCH   1  29
TORSDOF 21
ENDMDL
MODEL 2
REMARK VINA RESULT:     -11.1      6.993     12.827
REMARK SMILES O=C(CCNC(=O)[C@H]1CCCN(S(=O)(=O)c2ccc(Cl)cc2)C1)NCCCCCCNC(=O)c1ccc(-c2c3nc(c(-c4cc(S(=O)(=O)[O-])ccc4F)c4ccc([nH]4)c(-c4cc(S(=O)(=O)[O-])ccc4F)c4nc(c(-c5cc(S(=O)(=O)[O-])ccc5F)c5ccc2[nH]5)C=C4)C=C3)cc1
REMARK SMILES IDX 26 1 25 2 24 3 1 4 2 5 3 7 4 8 5 9 6 10 7 12 8 13 9 14 23 15
REMARK SMILES IDX 10 16 12 17 11 18 13 19 14 20 15 21 16 22 17 23 22 24 18 25
REMARK SMILES IDX 21 26 19 27 20 28 27 29 28 30 29 31 30 32 31 33 32 34 33 36
REMARK SMILES IDX 34 37 35 38 96 39 36 40 95 41 37 42 38 43 39 44 89 45 40 46
REMARK SMILES IDX 94 47 88 48 90 49 41 50 93 51 87 52 86 53 42 55 74 56 54 57
REMARK SMILES IDX 73 58 55 59 58 60 72 61 91 62 56 63 57 64 71 66 92 67 59 68
REMARK SMILES IDX 43 69 44 70 52 71 45 72 51 73 53 74 50 75 46 76 47 77 48 78
REMARK SMILES IDX 49 79 75 80 76 81 84 82 77 83 83 84 85 85 82 86 78 87 79 88
REMARK SMILES IDX 80 89 81 90 60 91 61 92 69 93 62 94 68 95 70 96 67 97 63 98
REMARK SMILES IDX 64 99 65 100 66 101
REMARK H PARENT 24 6 5 11 31 35 90 54 58 65
REMARK Flexibility Score: inf
ROOT
ATOM      1  C   UNL A   1      35.938  32.550  28.679  1.00  0.00     0.021 C 
ENDROOT
BRANCH   1   2
ATOM      2  C   UNL A   1      34.884  31.546  29.144  1.00  0.00     0.116 C 
BRANCH   2   3
ATOM      3  N   UNL A   1      34.392  30.724  28.055  1.00  0.00    -0.356 N 
ATOM      4  O   UNL A   1      36.189  29.287  27.976  1.00  0.00    -0.275 OA
ATOM      5  C   UNL A   1      35.088  29.641  27.569  1.00  0.00     0.221 C 
ATOM      6  H   UNL A   1      33.526  30.951  27.646  1.00  0.00     0.163 HD
BRANCH   5   7
ATOM      7  C   UNL A   1      34.347  28.873  26.496  1.00  0.00     0.121 C 
BRANCH   7   8
ATOM      8  C   UNL A   1      33.152  29.677  25.993  1.00  0.00     0.125 C 
BRANCH   8   9
ATOM      9  N   UNL A   1      33.068  29.648  24.539  1.00  0.00    -0.355 N 
ATOM     10  C   UNL A   1      32.330  28.869  23.704  1.00  0.00     0.224 C 
ATOM     11  H   UNL A   1      33.644  30.304  24.083  1.00  0.00     0.163 HD
ATOM     12  O   UNL A   1      32.588  28.934  22.501  1.00  0.00    -0.275 OA
BRANCH  10  13
ATOM     13  C   UNL A   1      31.219  27.979  24.252  1.00  0.00     0.093 C 
ATOM     14  C   UNL A   1      30.142  27.781  23.175  1.00  0.00     0.016 C 
ATOM     15  C   UNL A   1      31.758  26.617  24.688  1.00  0.00     0.116 C 
ATOM     16  C   UNL A   1      29.046  26.854  23.674  1.00  0.00     0.018 C 
ATOM     17  N   UNL A   1      30.645  25.729  25.193  1.00  0.00    -0.197 NA
ATOM     18  C   UNL A   1      29.619  25.518  24.131  1.00  0.00     0.102 C 
BRANCH  17  19
ATOM     19  S   UNL A   1      31.296  24.277  25.867  1.00  0.00     0.243 S 
ATOM     20  O   UNL A   1      31.591  24.539  27.260  1.00  0.00    -0.207 OA
ATOM     21  O   UNL A   1      30.409  23.196  25.489  1.00  0.00    -0.207 OA
BRANCH  19  22
ATOM     22  C   UNL A   1      32.848  24.015  25.033  1.00  0.00     0.082 A 
ATOM     23  C   UNL A   1      34.047  24.211  25.732  1.00  0.00     0.023 A 
ATOM     24  C   UNL A   1      32.868  23.475  23.741  1.00  0.00     0.023 A 
ATOM     25  C   UNL A   1      35.268  23.926  25.117  1.00  0.00     0.022 A 
ATOM     26  C   UNL A   1      34.092  23.167  23.139  1.00  0.00     0.022 A 
ATOM     27  C   UNL A   1      35.285  23.402  23.825  1.00  0.00     0.041 A 
ATOM     28  Cl  UNL A   1      36.789  23.020  23.083  1.00  0.00    -0.084 Cl
ENDBRANCH  19  22
ENDBRANCH  17  19
ENDBRANCH  10  13
ENDBRANCH   8   9
ENDBRANCH   7   8
ENDBRANCH   5   7
ENDBRANCH   2   3
ENDBRANCH   1   2
BRANCH   1  29
ATOM     29  C   UNL A   1      35.742  33.987  29.180  1.00  0.00     0.002 C 
BRANCH  29  30
ATOM     30  C   UNL A   1      35.089  34.955  28.190  1.00  0.00     0.002 C 
BRANCH  30  31
ATOM     31  C   UNL A   1      33.760  35.568  28.642  1.00  0.00     0.021 C 
BRANCH  31  32
ATOM     32  C   UNL A   1      33.056  34.840  29.786  1.00  0.00     0.116 C 
BRANCH  32  33
ATOM     33  N   UNL A   1      32.467  35.748  30.756  1.00  0.00    -0.352 N 
ATOM     34  C   UNL A   1      32.774  35.911  32.088  1.00  0.00     0.251 C 
ATOM     35  H   UNL A   1      31.749  36.329  30.413  1.00  0.00     0.163 HD
ATOM     36  O   UNL A   1      32.077  36.635  32.792  1.00  0.00    -0.269 OA
BRANCH  34  37
ATOM     37  C   UNL A   1      33.923  35.183  32.675  1.00  0.00     0.039 A 
ATOM     38  C   UNL A   1      33.697  33.954  33.302  1.00  0.00     0.014 A 
ATOM     39  C   UNL A   1      35.218  35.705  32.605  1.00  0.00     0.014 A 
ATOM     40  C   UNL A   1      34.778  33.213  33.794  1.00  0.00     0.010 A 
ATOM     41  C   UNL A   1      36.297  34.942  33.046  1.00  0.00     0.010 A 
ATOM     42  C   UNL A   1      36.090  33.684  33.638  1.00  0.00    -0.014 A 
BRANCH  42  43
ATOM     43  C   UNL A   1      37.266  32.886  34.079  1.00  0.00     0.031 A 
ATOM     44  C   UNL A   1      37.985  33.253  35.350  1.00  0.00     0.074 A 
ATOM     45  C   UNL A   1      37.739  31.897  33.294  1.00  0.00     0.049 A 
ATOM     46  N   UNL A   1      39.109  32.785  35.829  1.00  0.00    -0.248 NA
ATOM     47  C   UNL A   1      37.372  34.306  36.173  1.00  0.00     0.031 C 
ATOM     48  C   UNL A   1      37.146  31.464  32.027  1.00  0.00     0.029 A 
ATOM     49  N   UNL A   1      38.842  31.090  33.433  1.00  0.00    -0.354 N 
ATOM     50  C   UNL A   1      39.357  33.509  36.991  1.00  0.00     0.074 A 
ATOM     51  C   UNL A   1      38.279  34.466  37.126  1.00  0.00     0.031 C 
ATOM     52  C   UNL A   1      37.887  30.472  31.509  1.00  0.00     0.029 A 
ATOM     53  C   UNL A   1      39.035  30.227  32.378  1.00  0.00     0.049 A 
ATOM     54  H   UNL A   1      39.440  31.126  34.215  1.00  0.00     0.167 HD
ATOM     55  C   UNL A   1      40.383  33.379  37.867  1.00  0.00     0.034 A 
ATOM     56  C   UNL A   1      40.034  29.357  32.126  1.00  0.00     0.034 A 
ATOM     57  C   UNL A   1      41.429  32.393  37.742  1.00  0.00     0.049 A 
ATOM     58  C   UNL A   1      41.164  29.235  33.119  1.00  0.00     0.074 A 
ATOM     59  C   UNL A   1      42.467  32.125  38.618  1.00  0.00     0.029 A 
ATOM     60  N   UNL A   1      41.574  31.518  36.675  1.00  0.00    -0.354 N 
ATOM     61  N   UNL A   1      41.354  29.892  34.240  1.00  0.00    -0.248 NA
ATOM     62  C   UNL A   1      42.213  28.250  32.816  1.00  0.00     0.031 C 
ATOM     63  C   UNL A   1      43.270  31.127  38.055  1.00  0.00     0.029 A 
ATOM     64  C   UNL A   1      42.699  30.729  36.858  1.00  0.00     0.049 A 
ATOM     65  H   UNL A   1      40.967  31.466  35.901  1.00  0.00     0.167 HD
ATOM     66  C   UNL A   1      42.519  29.368  34.794  1.00  0.00     0.074 A 
ATOM     67  C   UNL A   1      42.986  28.340  33.888  1.00  0.00     0.031 C 
ATOM     68  C   UNL A   1      43.143  29.700  35.951  1.00  0.00     0.034 A 
BRANCH  55  69
ATOM     69  C   UNL A   1      40.444  34.343  39.023  1.00  0.00     0.023 A 
ATOM     70  C   UNL A   1      39.686  34.153  40.191  1.00  0.00     0.031 A 
ATOM     71  C   UNL A   1      41.283  35.472  38.956  1.00  0.00     0.131 A 
ATOM     72  C   UNL A   1      39.740  35.104  41.221  1.00  0.00     0.055 A 
ATOM     73  C   UNL A   1      41.383  36.378  40.013  1.00  0.00     0.041 A 
ATOM     74  F   UNL A   1      42.015  35.713  37.857  1.00  0.00    -0.206 F 
ATOM     75  C   UNL A   1      40.601  36.202  41.150  1.00  0.00     0.022 A 
BRANCH  72  76
ATOM     76  S   UNL A   1      38.591  34.941  42.614  1.00  0.00     0.124 S 
ATOM     77  O   UNL A   1      37.297  34.990  41.935  1.00  0.00    -0.237 OA
ATOM     78  O   UNL A   1      38.964  33.651  43.183  1.00  0.00    -0.237 OA
ATOM     79  O   UNL A   1      38.894  36.102  43.447  1.00  0.00    -0.744 OA
ENDBRANCH  72  76
ENDBRANCH  55  69
BRANCH  56  80
ATOM     80  C   UNL A   1      40.041  28.542  30.877  1.00  0.00     0.023 A 
ATOM     81  C   UNL A   1      40.924  28.840  29.827  1.00  0.00     0.031 A 
ATOM     82  C   UNL A   1      39.114  27.503  30.683  1.00  0.00     0.131 A 
ATOM     83  C   UNL A   1      40.823  28.152  28.609  1.00  0.00     0.055 A 
ATOM     84  C   UNL A   1      39.055  26.781  29.488  1.00  0.00     0.041 A 
ATOM     85  F   UNL A   1      38.249  27.173  31.654  1.00  0.00    -0.206 F 
ATOM     86  C   UNL A   1      39.902  27.117  28.436  1.00  0.00     0.022 A 
BRANCH  83  87
ATOM     87  S   UNL A   1      41.839  28.707  27.212  1.00  0.00     0.124 S 
ATOM     88  O   UNL A   1      42.774  27.597  27.066  1.00  0.00    -0.237 OA
ATOM     89  O   UNL A   1      40.844  28.853  26.156  1.00  0.00    -0.237 OA
ATOM     90  O   UNL A   1      42.425  29.956  27.694  1.00  0.00    -0.744 OA
ENDBRANCH  83  87
ENDBRANCH  56  80
BRANCH  68  91
ATOM     91  C   UNL A   1      44.358  28.893  36.332  1.00  0.00     0.023 A 
ATOM     92  C   UNL A   1      44.260  27.719  37.096  1.00  0.00     0.031 A 
ATOM     93  C   UNL A   1      45.635  29.314  35.919  1.00  0.00     0.131 A 
ATOM     94  C   UNL A   1      45.424  27.028  37.464  1.00  0.00     0.055 A 
ATOM     95  C   UNL A   1      46.785  28.595  36.245  1.00  0.00     0.041 A 
ATOM     96  F   UNL A   1      45.783  30.430  35.187  1.00  0.00    -0.206 F 
ATOM     97  C   UNL A   1      46.684  27.450  37.031  1.00  0.00     0.022 A 
BRANCH  94  98
ATOM     98  S   UNL A   1      45.278  25.600  38.574  1.00  0.00     0.124 S 
ATOM     99  O   UNL A   1      44.342  26.092  39.579  1.00  0.00    -0.237 OA
ATOM    100  O   UNL A   1      44.769  24.563  37.683  1.00  0.00    -0.237 OA
ATOM    101  O   UNL A   1      46.645  25.392  39.047  1.00  0.00    -0.744 OA
ENDBRANCH  94  98
ENDBRANCH  68  91
ENDBRANCH  42  43
ENDBRANCH  34  37
ENDBRANCH  32  33
ENDBRANCH  31  32
ENDBRANCH  30  31
ENDBRANCH  29  30
ENDBRANCH   1  29
TORSDOF 21
ENDMDL
MODEL 3
REMARK VINA RESULT:     -10.9      6.075     10.292
REMARK SMILES O=C(CCNC(=O)[C@H]1CCCN(S(=O)(=O)c2ccc(Cl)cc2)C1)NCCCCCCNC(=O)c1ccc(-c2c3nc(c(-c4cc(S(=O)(=O)[O-])ccc4F)c4ccc([nH]4)c(-c4cc(S(=O)(=O)[O-])ccc4F)c4nc(c(-c5cc(S(=O)(=O)[O-])ccc5F)c5ccc2[nH]5)C=C4)C=C3)cc1
REMARK SMILES IDX 26 1 25 2 24 3 1 4 2 5 3 7 4 8 5 9 6 10 7 12 8 13 9 14 23 15
REMARK SMILES IDX 10 16 12 17 11 18 13 19 14 20 15 21 16 22 17 23 22 24 18 25
REMARK SMILES IDX 21 26 19 27 20 28 27 29 28 30 29 31 30 32 31 33 32 34 33 36
REMARK SMILES IDX 34 37 35 38 96 39 36 40 95 41 37 42 38 43 39 44 89 45 40 46
REMARK SMILES IDX 94 47 88 48 90 49 41 50 93 51 87 52 86 53 42 55 74 56 54 57
REMARK SMILES IDX 73 58 55 59 58 60 72 61 91 62 56 63 57 64 71 66 92 67 59 68
REMARK SMILES IDX 43 69 44 70 52 71 45 72 51 73 53 74 50 75 46 76 47 77 48 78
REMARK SMILES IDX 49 79 75 80 76 81 84 82 77 83 83 84 85 85 82 86 78 87 79 88
REMARK SMILES IDX 80 89 81 90 60 91 61 92 69 93 62 94 68 95 70 96 67 97 63 98
REMARK SMILES IDX 64 99 65 100 66 101
REMARK H PARENT 24 6 5 11 31 35 90 54 58 65
REMARK Flexibility Score: inf
ROOT
ATOM      1  C   UNL A   1      31.454  27.884  27.276  1.00  0.00     0.021 C 
ENDROOT
BRANCH   1   2
ATOM      2  C   UNL A   1      31.887  26.776  26.317  1.00  0.00     0.116 C 
BRANCH   2   3
ATOM      3  N   UNL A   1      31.483  25.463  26.780  1.00  0.00    -0.356 N 
ATOM      4  O   UNL A   1      29.332  25.544  25.965  1.00  0.00    -0.275 OA
ATOM      5  C   UNL A   1      30.229  24.945  26.546  1.00  0.00     0.221 C 
ATOM      6  H   UNL A   1      32.132  24.919  27.282  1.00  0.00     0.163 HD
BRANCH   5   7
ATOM      7  C   UNL A   1      30.056  23.524  27.037  1.00  0.00     0.121 C 
BRANCH   7   8
ATOM      8  C   UNL A   1      30.992  22.582  26.286  1.00  0.00     0.125 C 
BRANCH   8   9
ATOM      9  N   UNL A   1      32.053  22.088  27.152  1.00  0.00    -0.355 N 
ATOM     10  C   UNL A   1      33.402  22.251  27.094  1.00  0.00     0.224 C 
ATOM     11  H   UNL A   1      31.740  21.542  27.910  1.00  0.00     0.163 HD
ATOM     12  O   UNL A   1      34.083  21.568  27.860  1.00  0.00    -0.275 OA
BRANCH  10  13
ATOM     13  C   UNL A   1      34.021  23.257  26.130  1.00  0.00     0.093 C 
ATOM     14  C   UNL A   1      35.458  22.832  25.798  1.00  0.00     0.016 C 
ATOM     15  C   UNL A   1      33.212  23.366  24.839  1.00  0.00     0.116 C 
ATOM     16  C   UNL A   1      36.086  23.789  24.797  1.00  0.00     0.018 C 
ATOM     17  N   UNL A   1      33.854  24.337  23.876  1.00  0.00    -0.197 NA
ATOM     18  C   UNL A   1      35.239  23.900  23.535  1.00  0.00     0.102 C 
BRANCH  17  19
ATOM     19  S   UNL A   1      32.823  24.599  22.513  1.00  0.00     0.243 S 
ATOM     20  O   UNL A   1      33.673  24.807  21.360  1.00  0.00    -0.207 OA
ATOM     21  O   UNL A   1      31.831  23.544  22.520  1.00  0.00    -0.207 OA
BRANCH  19  22
ATOM     22  C   UNL A   1      31.979  26.134  22.838  1.00  0.00     0.082 A 
ATOM     23  C   UNL A   1      32.696  27.337  22.788  1.00  0.00     0.023 A 
ATOM     24  C   UNL A   1      30.588  26.151  22.992  1.00  0.00     0.023 A 
ATOM     25  C   UNL A   1      32.030  28.553  22.955  1.00  0.00     0.022 A 
ATOM     26  C   UNL A   1      29.922  27.372  23.133  1.00  0.00     0.022 A 
ATOM     27  C   UNL A   1      30.646  28.566  23.123  1.00  0.00     0.041 A 
ATOM     28  Cl  UNL A   1      29.824  30.068  23.295  1.00  0.00    -0.084 Cl
ENDBRANCH  19  22
ENDBRANCH  17  19
ENDBRANCH  10  13
ENDBRANCH   8   9
ENDBRANCH   7   8
ENDBRANCH   5   7
ENDBRANCH   2   3
ENDBRANCH   1   2
BRANCH   1  29
ATOM     29  C   UNL A   1      32.347  29.132  27.284  1.00  0.00     0.002 C 
BRANCH  29  30
ATOM     30  C   UNL A   1      32.028  30.187  26.221  1.00  0.00     0.002 C 
BRANCH  30  31
ATOM     31  C   UNL A   1      31.721  31.591  26.752  1.00  0.00     0.021 C 
BRANCH  31  32
ATOM     32  C   UNL A   1      32.889  32.308  27.426  1.00  0.00     0.116 C 
BRANCH  32  33
ATOM     33  N   UNL A   1      32.604  33.704  27.714  1.00  0.00    -0.352 N 
ATOM     34  C   UNL A   1      33.211  34.543  28.620  1.00  0.00     0.251 C 
ATOM     35  H   UNL A   1      31.876  34.106  27.187  1.00  0.00     0.163 HD
ATOM     36  O   UNL A   1      32.747  35.661  28.825  1.00  0.00    -0.269 OA
BRANCH  34  37
ATOM     37  C   UNL A   1      34.401  34.081  29.372  1.00  0.00     0.039 A 
ATOM     38  C   UNL A   1      34.221  33.247  30.479  1.00  0.00     0.014 A 
ATOM     39  C   UNL A   1      35.689  34.464  28.987  1.00  0.00     0.014 A 
ATOM     40  C   UNL A   1      35.333  32.736  31.156  1.00  0.00     0.010 A 
ATOM     41  C   UNL A   1      36.796  33.912  29.628  1.00  0.00     0.010 A 
ATOM     42  C   UNL A   1      36.631  33.036  30.714  1.00  0.00    -0.014 A 
BRANCH  42  43
ATOM     43  C   UNL A   1      37.834  32.447  31.363  1.00  0.00     0.031 A 
ATOM     44  C   UNL A   1      38.572  31.321  30.690  1.00  0.00     0.074 A 
ATOM     45  C   UNL A   1      38.203  32.859  32.592  1.00  0.00     0.049 A 
ATOM     46  N   UNL A   1      39.543  30.575  31.151  1.00  0.00    -0.248 NA
ATOM     47  C   UNL A   1      38.139  30.970  29.329  1.00  0.00     0.031 C 
ATOM     48  C   UNL A   1      37.552  33.924  33.360  1.00  0.00     0.029 A 
ATOM     49  N   UNL A   1      39.202  32.418  33.426  1.00  0.00    -0.354 N 
ATOM     50  C   UNL A   1      39.816  29.646  30.154  1.00  0.00     0.074 A 
ATOM     51  C   UNL A   1      38.886  29.905  29.074  1.00  0.00     0.031 C 
ATOM     52  C   UNL A   1      38.169  34.054  34.545  1.00  0.00     0.029 A 
ATOM     53  C   UNL A   1      39.228  33.054  34.647  1.00  0.00     0.049 A 
ATOM     54  H   UNL A   1      39.840  31.712  33.173  1.00  0.00     0.167 HD
ATOM     55  C   UNL A   1      40.760  28.674  30.136  1.00  0.00     0.034 A 
ATOM     56  C   UNL A   1      39.999  32.840  35.732  1.00  0.00     0.034 A 
ATOM     57  C   UNL A   1      41.707  28.452  31.201  1.00  0.00     0.049 A 
ATOM     58  C   UNL A   1      41.042  31.749  35.685  1.00  0.00     0.074 A 
ATOM     59  C   UNL A   1      42.755  27.548  31.246  1.00  0.00     0.029 A 
ATOM     60  N   UNL A   1      41.720  29.135  32.409  1.00  0.00    -0.354 N 
ATOM     61  N   UNL A   1      41.319  30.913  34.711  1.00  0.00    -0.248 NA
ATOM     62  C   UNL A   1      41.878  31.576  36.881  1.00  0.00     0.031 C 
ATOM     63  C   UNL A   1      43.367  27.646  32.501  1.00  0.00     0.029 A 
ATOM     64  C   UNL A   1      42.741  28.655  33.215  1.00  0.00     0.049 A 
ATOM     65  H   UNL A   1      41.097  29.856  32.656  1.00  0.00     0.167 HD
ATOM     66  C   UNL A   1      42.390  30.147  35.163  1.00  0.00     0.074 A 
ATOM     67  C   UNL A   1      42.709  30.620  36.493  1.00  0.00     0.031 C 
ATOM     68  C   UNL A   1      43.054  29.146  34.533  1.00  0.00     0.034 A 
BRANCH  55  69
ATOM     69  C   UNL A   1      40.798  27.754  28.943  1.00  0.00     0.023 A 
ATOM     70  C   UNL A   1      41.762  27.892  27.929  1.00  0.00     0.031 A 
ATOM     71  C   UNL A   1      39.856  26.716  28.822  1.00  0.00     0.131 A 
ATOM     72  C   UNL A   1      41.727  27.043  26.813  1.00  0.00     0.055 A 
ATOM     73  C   UNL A   1      39.870  25.831  27.742  1.00  0.00     0.041 A 
ATOM     74  F   UNL A   1      38.901  26.549  29.751  1.00  0.00    -0.206 F 
ATOM     75  C   UNL A   1      40.804  25.999  26.725  1.00  0.00     0.022 A 
BRANCH  72  76
ATOM     76  S   UNL A   1      42.845  27.385  25.427  1.00  0.00     0.124 S 
ATOM     77  O   UNL A   1      42.120  28.438  24.718  1.00  0.00    -0.237 OA
ATOM     78  O   UNL A   1      44.070  27.798  26.102  1.00  0.00    -0.237 OA
ATOM     79  O   UNL A   1      42.920  26.107  24.723  1.00  0.00    -0.744 OA
ENDBRANCH  72  76
ENDBRANCH  55  69
BRANCH  56  80
ATOM     80  C   UNL A   1      39.815  33.649  36.972  1.00  0.00     0.023 A 
ATOM     81  C   UNL A   1      39.124  33.125  38.077  1.00  0.00     0.031 A 
ATOM     82  C   UNL A   1      40.258  34.981  37.043  1.00  0.00     0.131 A 
ATOM     83  C   UNL A   1      38.842  33.946  39.179  1.00  0.00     0.055 A 
ATOM     84  C   UNL A   1      40.024  35.777  38.166  1.00  0.00     0.041 A 
ATOM     85  F   UNL A   1      40.926  35.530  36.017  1.00  0.00    -0.206 F 
ATOM     86  C   UNL A   1      39.297  35.265  39.236  1.00  0.00     0.022 A 
BRANCH  83  87
ATOM     87  S   UNL A   1      37.771  33.297  40.491  1.00  0.00     0.124 S 
ATOM     88  O   UNL A   1      37.269  34.524  41.099  1.00  0.00    -0.237 OA
ATOM     89  O   UNL A   1      36.803  32.515  39.730  1.00  0.00    -0.237 OA
ATOM     90  O   UNL A   1      38.686  32.518  41.323  1.00  0.00    -0.744 OA
ENDBRANCH  83  87
ENDBRANCH  56  80
BRANCH  68  91
ATOM     91  C   UNL A   1      44.237  28.549  35.252  1.00  0.00     0.023 A 
ATOM     92  C   UNL A   1      44.163  27.304  35.898  1.00  0.00     0.031 A 
ATOM     93  C   UNL A   1      45.459  29.245  35.285  1.00  0.00     0.131 A 
ATOM     94  C   UNL A   1      45.278  26.812  36.592  1.00  0.00     0.055 A 
ATOM     95  C   UNL A   1      46.580  28.727  35.934  1.00  0.00     0.041 A 
ATOM     96  F   UNL A   1      45.582  30.438  34.682  1.00  0.00    -0.206 F 
ATOM     97  C   UNL A   1      46.490  27.508  36.601  1.00  0.00     0.022 A 
BRANCH  94  98
ATOM     98  S   UNL A   1      45.108  25.275  37.541  1.00  0.00     0.124 S 
ATOM     99  O   UNL A   1      43.982  24.630  36.873  1.00  0.00    -0.237 OA
ATOM    100  O   UNL A   1      46.410  24.644  37.349  1.00  0.00    -0.237 OA
ATOM    101  O   UNL A   1      44.841  25.738  38.901  1.00  0.00    -0.744 OA
ENDBRANCH  94  98
ENDBRANCH  68  91
ENDBRANCH  42  43
ENDBRANCH  34  37
ENDBRANCH  32  33
ENDBRANCH  31  32
ENDBRANCH  30  31
ENDBRANCH  29  30
ENDBRANCH   1  29
TORSDOF 21
ENDMDL
