MODEL 1
REMARK VINA RESULT:     -10.8      0.000      0.000
REMARK SMILES CC1(C)C(CNC(=O)[C@H]2C[C@H]2C(=O)NCCCCCCNC(=O)c2ccc(-c3c4nc(c(-c5cc(S(=O)(=O)[O-])ccc5F)c5ccc([nH]5)c(-c5cc(S(=O)(=O)[O-])ccc5F)c5nc(c(-c6cc(S(=O)(=O)[O-])ccc6F)c6ccc3[nH]6)C=C5)C=C4)cc2)C1(C)C
REMARK SMILES IDX 17 1 16 2 15 3 14 4 12 5 13 6 11 8 9 9 10 10 7 11 6 12 8 14
REMARK SMILES IDX 5 15 4 16 1 17 2 18 3 19 87 20 88 21 89 22 18 23 19 24 20 25
REMARK SMILES IDX 21 26 22 27 23 29 24 30 25 31 86 32 26 33 85 34 27 35 28 36
REMARK SMILES IDX 29 37 79 38 30 39 84 40 78 41 80 42 31 43 83 44 77 45 76 46
REMARK SMILES IDX 32 48 64 49 44 50 63 51 45 52 48 53 62 54 81 55 46 56 47 57
REMARK SMILES IDX 61 59 82 60 49 61 33 62 34 63 42 64 35 65 41 66 43 67 40 68
REMARK SMILES IDX 36 69 37 70 38 71 39 72 65 73 66 74 74 75 67 76 73 77 75 78
REMARK SMILES IDX 72 79 68 80 69 81 70 82 71 83 50 84 51 85 59 86 52 87 58 88
REMARK SMILES IDX 60 89 57 90 53 91 54 92 55 93 56 94
REMARK H PARENT 14 7 6 13 21 28 80 47 48 58
REMARK Flexibility Score: inf
ROOT
ATOM      1  C   UNL A   1      35.185  29.590  27.274  1.00  0.00     0.002 C 
ENDROOT
BRANCH   1   2
ATOM      2  C   UNL A   1      34.085  28.603  26.856  1.00  0.00     0.021 C 
BRANCH   2   3
ATOM      3  C   UNL A   1      33.611  28.775  25.416  1.00  0.00     0.116 C 
BRANCH   3   4
ATOM      4  N   UNL A   1      32.242  29.252  25.399  1.00  0.00    -0.356 N 
ATOM      5  C   UNL A   1      31.230  28.988  24.519  1.00  0.00     0.223 C 
ATOM      6  O   UNL A   1      30.431  29.889  24.285  1.00  0.00    -0.275 OA
ATOM      7  H   UNL A   1      32.004  29.858  26.136  1.00  0.00     0.163 HD
BRANCH   5   8
ATOM      8  C   UNL A   1      30.913  27.649  23.990  1.00  0.00     0.091 C 
ATOM      9  C   UNL A   1      31.114  26.345  24.720  1.00  0.00     0.091 C 
ATOM     10  C   UNL A   1      29.744  26.758  24.157  1.00  0.00     0.028 C 
BRANCH   9  11
ATOM     11  C   UNL A   1      31.040  25.947  26.146  1.00  0.00     0.223 C 
ATOM     12  N   UNL A   1      31.038  24.646  26.537  1.00  0.00    -0.356 N 
ATOM     13  H   UNL A   1      30.678  24.497  27.441  1.00  0.00     0.163 HD
ATOM     14  O   UNL A   1      30.845  26.813  26.996  1.00  0.00    -0.275 OA
BRANCH  12  15
ATOM     15  C   UNL A   1      31.468  23.440  25.864  1.00  0.00     0.120 C 
BRANCH  15  16
ATOM     16  C   UNL A   1      32.961  23.374  26.043  1.00  0.00     0.021 C 
ATOM     17  C   UNL A   1      34.757  21.657  26.650  1.00  0.00     0.012 C 
ATOM     18  C   UNL A   1      33.800  22.186  25.593  1.00  0.00    -0.025 C 
ATOM     19  C   UNL A   1      33.257  21.069  24.735  1.00  0.00     0.012 C 
ATOM     20  C   UNL A   1      33.997  23.581  24.950  1.00  0.00    -0.025 C 
ATOM     21  C   UNL A   1      35.266  24.342  25.277  1.00  0.00     0.012 C 
ATOM     22  C   UNL A   1      33.489  23.921  23.568  1.00  0.00     0.012 C 
ENDBRANCH  15  16
ENDBRANCH  12  15
ENDBRANCH   9  11
ENDBRANCH   5   8
ENDBRANCH   3   4
ENDBRANCH   2   3
ENDBRANCH   1   2
BRANCH   1  23
ATOM     23  C   UNL A   1      34.705  30.774  28.111  1.00  0.00     0.002 C 
BRANCH  23  24
ATOM     24  C   UNL A   1      34.183  31.967  27.303  1.00  0.00     0.021 C 
BRANCH  24  25
ATOM     25  C   UNL A   1      32.827  32.523  27.737  1.00  0.00     0.116 C 
BRANCH  25  26
ATOM     26  N   UNL A   1      32.824  33.972  27.841  1.00  0.00    -0.352 N 
ATOM     27  C   UNL A   1      33.590  34.789  28.639  1.00  0.00     0.251 C 
ATOM     28  H   UNL A   1      32.180  34.436  27.257  1.00  0.00     0.163 HD
ATOM     29  O   UNL A   1      33.326  35.986  28.713  1.00  0.00    -0.269 OA
BRANCH  27  30
ATOM     30  C   UNL A   1      34.709  34.223  29.427  1.00  0.00     0.039 A 
ATOM     31  C   UNL A   1      34.416  33.482  30.575  1.00  0.00     0.014 A 
ATOM     32  C   UNL A   1      36.039  34.425  29.046  1.00  0.00     0.014 A 
ATOM     33  C   UNL A   1      35.452  32.890  31.303  1.00  0.00     0.010 A 
ATOM     34  C   UNL A   1      37.068  33.789  29.743  1.00  0.00     0.010 A 
ATOM     35  C   UNL A   1      36.785  33.010  30.877  1.00  0.00    -0.014 A 
BRANCH  35  36
ATOM     36  C   UNL A   1      37.879  32.313  31.605  1.00  0.00     0.031 A 
ATOM     37  C   UNL A   1      38.623  31.173  30.964  1.00  0.00     0.074 A 
ATOM     38  C   UNL A   1      38.181  32.689  32.864  1.00  0.00     0.049 A 
ATOM     39  N   UNL A   1      39.597  30.444  31.446  1.00  0.00    -0.248 NA
ATOM     40  C   UNL A   1      38.198  30.789  29.610  1.00  0.00     0.031 C 
ATOM     41  C   UNL A   1      37.496  33.742  33.617  1.00  0.00     0.029 A 
ATOM     42  N   UNL A   1      39.137  32.229  33.735  1.00  0.00    -0.354 N 
ATOM     43  C   UNL A   1      39.908  29.519  30.456  1.00  0.00     0.074 A 
ATOM     44  C   UNL A   1      38.969  29.738  29.374  1.00  0.00     0.031 C 
ATOM     45  C   UNL A   1      38.066  33.859  34.828  1.00  0.00     0.029 A 
ATOM     46  C   UNL A   1      39.138  32.876  34.950  1.00  0.00     0.049 A 
ATOM     47  H   UNL A   1      39.765  31.504  33.511  1.00  0.00     0.167 HD
ATOM     48  C   UNL A   1      40.900  28.592  30.435  1.00  0.00     0.034 A 
ATOM     49  C   UNL A   1      39.912  32.697  36.039  1.00  0.00     0.034 A 
ATOM     50  C   UNL A   1      41.826  28.376  31.522  1.00  0.00     0.049 A 
ATOM     51  C   UNL A   1      41.009  31.664  35.992  1.00  0.00     0.074 A 
ATOM     52  C   UNL A   1      42.874  27.475  31.600  1.00  0.00     0.029 A 
ATOM     53  N   UNL A   1      41.815  29.072  32.725  1.00  0.00    -0.354 N 
ATOM     54  N   UNL A   1      41.319  30.830  35.026  1.00  0.00    -0.248 NA
ATOM     55  C   UNL A   1      41.877  31.569  37.172  1.00  0.00     0.031 C 
ATOM     56  C   UNL A   1      43.463  27.590  32.866  1.00  0.00     0.029 A 
ATOM     57  C   UNL A   1      42.827  28.610  33.554  1.00  0.00     0.049 A 
ATOM     58  H   UNL A   1      41.180  29.789  32.956  1.00  0.00     0.167 HD
ATOM     59  C   UNL A   1      42.436  30.130  35.475  1.00  0.00     0.074 A 
ATOM     60  C   UNL A   1      42.758  30.659  36.784  1.00  0.00     0.031 C 
ATOM     61  C   UNL A   1      43.131  29.137  34.864  1.00  0.00     0.034 A 
BRANCH  48  62
ATOM     62  C   UNL A   1      41.016  27.735  29.196  1.00  0.00     0.023 A 
ATOM     63  C   UNL A   1      42.012  27.976  28.232  1.00  0.00     0.031 A 
ATOM     64  C   UNL A   1      40.110  26.686  28.958  1.00  0.00     0.131 A 
ATOM     65  C   UNL A   1      42.033  27.231  27.044  1.00  0.00     0.055 A 
ATOM     66  C   UNL A   1      40.187  25.896  27.809  1.00  0.00     0.041 A 
ATOM     67  F   UNL A   1      39.128  26.420  29.833  1.00  0.00    -0.206 F 
ATOM     68  C   UNL A   1      41.142  26.175  26.836  1.00  0.00     0.022 A 
BRANCH  65  69
ATOM     69  S   UNL A   1      43.152  27.751  25.715  1.00  0.00     0.124 S 
ATOM     70  O   UNL A   1      43.880  28.843  26.355  1.00  0.00    -0.237 OA
ATOM     71  O   UNL A   1      43.919  26.538  25.454  1.00  0.00    -0.237 OA
ATOM     72  O   UNL A   1      42.245  28.158  24.643  1.00  0.00    -0.744 OA
ENDBRANCH  65  69
ENDBRANCH  48  62
BRANCH  49  73
ATOM     73  C   UNL A   1      39.685  33.507  37.270  1.00  0.00     0.023 A 
ATOM     74  C   UNL A   1      38.919  33.010  38.336  1.00  0.00     0.031 A 
ATOM     75  C   UNL A   1      40.184  34.818  37.371  1.00  0.00     0.131 A 
ATOM     76  C   UNL A   1      38.628  33.835  39.433  1.00  0.00     0.055 A 
ATOM     77  C   UNL A   1      39.936  35.616  38.488  1.00  0.00     0.041 A 
ATOM     78  F   UNL A   1      40.930  35.338  36.383  1.00  0.00    -0.206 F 
ATOM     79  C   UNL A   1      39.139  35.131  39.521  1.00  0.00     0.022 A 
BRANCH  76  80
ATOM     80  S   UNL A   1      37.485  33.221  40.702  1.00  0.00     0.124 S 
ATOM     81  O   UNL A   1      37.216  34.431  41.471  1.00  0.00    -0.237 OA
ATOM     82  O   UNL A   1      36.382  32.716  39.893  1.00  0.00    -0.237 OA
ATOM     83  O   UNL A   1      38.266  32.200  41.397  1.00  0.00    -0.744 OA
ENDBRANCH  76  80
ENDBRANCH  49  73
BRANCH  61  84
ATOM     84  C   UNL A   1      44.334  28.598  35.599  1.00  0.00     0.023 A 
ATOM     85  C   UNL A   1      44.219  27.560  36.541  1.00  0.00     0.031 A 
ATOM     86  C   UNL A   1      45.605  29.162  35.389  1.00  0.00     0.131 A 
ATOM     87  C   UNL A   1      45.339  27.167  37.289  1.00  0.00     0.055 A 
ATOM     88  C   UNL A   1      46.729  28.724  36.091  1.00  0.00     0.041 A 
ATOM     89  F   UNL A   1      45.773  30.156  34.502  1.00  0.00    -0.206 F 
ATOM     90  C   UNL A   1      46.596  27.733  37.061  1.00  0.00     0.022 A 
BRANCH  87  91
ATOM     91  S   UNL A   1      45.109  25.985  38.646  1.00  0.00     0.124 S 
ATOM     92  O   UNL A   1      46.461  25.866  39.180  1.00  0.00    -0.237 OA
ATOM     93  O   UNL A   1      44.146  26.674  39.498  1.00  0.00    -0.237 OA
ATOM     94  O   UNL A   1      44.599  24.789  37.978  1.00  0.00    -0.744 OA
ENDBRANCH  87  91
ENDBRANCH  61  84
ENDBRANCH  35  36
ENDBRANCH  27  30
ENDBRANCH  25  26
ENDBRANCH  24  25
ENDBRANCH  23  24
ENDBRANCH   1  23
TORSDOF 19
ENDMDL
MODEL 2
REMARK VINA RESULT:     -10.4      1.442      7.838
REMARK SMILES CC1(C)C(CNC(=O)[C@H]2C[C@H]2C(=O)NCCCCCCNC(=O)c2ccc(-c3c4nc(c(-c5cc(S(=O)(=O)[O-])ccc5F)c5ccc([nH]5)c(-c5cc(S(=O)(=O)[O-])ccc5F)c5nc(c(-c6cc(S(=O)(=O)[O-])ccc6F)c6ccc3[nH]6)C=C5)C=C4)cc2)C1(C)C
REMARK SMILES IDX 17 1 16 2 15 3 14 4 12 5 13 6 11 8 9 9 10 10 7 11 6 12 8 14
REMARK SMILES IDX 5 15 4 16 1 17 2 18 3 19 87 20 88 21 89 22 18 23 19 24 20 25
REMARK SMILES IDX 21 26 22 27 23 29 24 30 25 31 86 32 26 33 85 34 27 35 28 36
REMARK SMILES IDX 29 37 79 38 30 39 84 40 78 41 80 42 31 43 83 44 77 45 76 46
REMARK SMILES IDX 32 48 64 49 44 50 63 51 45 52 48 53 62 54 81 55 46 56 47 57
REMARK SMILES IDX 61 59 82 60 49 61 33 62 34 63 42 64 35 65 41 66 43 67 40 68
REMARK SMILES IDX 36 69 37 70 38 71 39 72 65 73 66 74 74 75 67 76 73 77 75 78
REMARK SMILES IDX 72 79 68 80 69 81 70 82 71 83 50 84 51 85 59 86 52 87 58 88
REMARK SMILES IDX 60 89 57 90 53 91 54 92 55 93 56 94
REMARK H PARENT 14 7 6 13 21 28 80 47 48 58
REMARK Flexibility Score: inf
ROOT
ATOM      1  C   UNL A   1      32.156  29.702  25.499  1.00  0.00     0.002 C 
ENDROOT
BRANCH   1   2
ATOM      2  C   UNL A   1      33.453  28.879  25.452  1.00  0.00     0.021 C 
BRANCH   2   3
ATOM      3  C   UNL A   1      33.246  27.416  25.070  1.00  0.00     0.116 C 
BRANCH   3   4
ATOM      4  N   UNL A   1      33.706  27.190  23.713  1.00  0.00    -0.356 N 
ATOM      5  C   UNL A   1      33.110  26.515  22.684  1.00  0.00     0.223 C 
ATOM      6  O   UNL A   1      33.839  25.908  21.907  1.00  0.00    -0.275 OA
ATOM      7  H   UNL A   1      34.582  27.584  23.500  1.00  0.00     0.163 HD
BRANCH   5   8
ATOM      8  C   UNL A   1      31.685  26.630  22.326  1.00  0.00     0.091 C 
ATOM      9  C   UNL A   1      30.547  25.914  23.009  1.00  0.00     0.091 C 
ATOM     10  C   UNL A   1      30.578  27.445  22.873  1.00  0.00     0.028 C 
BRANCH   9  11
ATOM     11  C   UNL A   1      30.301  25.477  24.404  1.00  0.00     0.223 C 
ATOM     12  N   UNL A   1      30.708  24.267  24.868  1.00  0.00    -0.356 N 
ATOM     13  H   UNL A   1      30.233  23.963  25.675  1.00  0.00     0.163 HD
ATOM     14  O   UNL A   1      29.594  26.173  25.130  1.00  0.00    -0.275 OA
BRANCH  12  15
ATOM     15  C   UNL A   1      31.714  23.343  24.390  1.00  0.00     0.120 C 
BRANCH  15  16
ATOM     16  C   UNL A   1      32.938  23.590  25.230  1.00  0.00     0.021 C 
ATOM     17  C   UNL A   1      34.046  22.666  27.341  1.00  0.00     0.012 C 
ATOM     18  C   UNL A   1      33.752  22.470  25.862  1.00  0.00    -0.025 C 
ATOM     19  C   UNL A   1      33.545  21.011  25.532  1.00  0.00     0.012 C 
ATOM     20  C   UNL A   1      34.377  23.389  24.785  1.00  0.00    -0.025 C 
ATOM     21  C   UNL A   1      35.428  24.389  25.225  1.00  0.00     0.012 C 
ATOM     22  C   UNL A   1      34.606  22.937  23.361  1.00  0.00     0.012 C 
ENDBRANCH  15  16
ENDBRANCH  12  15
ENDBRANCH   9  11
ENDBRANCH   5   8
ENDBRANCH   3   4
ENDBRANCH   2   3
ENDBRANCH   1   2
BRANCH   1  23
ATOM     23  C   UNL A   1      31.834  30.321  26.857  1.00  0.00     0.002 C 
BRANCH  23  24
ATOM     24  C   UNL A   1      31.698  31.848  26.854  1.00  0.00     0.021 C 
BRANCH  24  25
ATOM     25  C   UNL A   1      32.940  32.627  27.283  1.00  0.00     0.116 C 
BRANCH  25  26
ATOM     26  N   UNL A   1      32.620  33.940  27.819  1.00  0.00    -0.352 N 
ATOM     27  C   UNL A   1      33.217  34.629  28.848  1.00  0.00     0.251 C 
ATOM     28  H   UNL A   1      31.866  34.401  27.384  1.00  0.00     0.163 HD
ATOM     29  O   UNL A   1      32.698  35.658  29.271  1.00  0.00    -0.269 OA
BRANCH  27  30
ATOM     30  C   UNL A   1      34.465  34.118  29.461  1.00  0.00     0.039 A 
ATOM     31  C   UNL A   1      34.387  33.446  30.683  1.00  0.00     0.014 A 
ATOM     32  C   UNL A   1      35.706  34.306  28.844  1.00  0.00     0.014 A 
ATOM     33  C   UNL A   1      35.544  32.905  31.253  1.00  0.00     0.010 A 
ATOM     34  C   UNL A   1      36.850  33.718  29.386  1.00  0.00     0.010 A 
ATOM     35  C   UNL A   1      36.780  33.007  30.595  1.00  0.00    -0.014 A 
BRANCH  35  36
ATOM     36  C   UNL A   1      37.995  32.362  31.161  1.00  0.00     0.031 A 
ATOM     37  C   UNL A   1      38.663  32.926  32.386  1.00  0.00     0.074 A 
ATOM     38  C   UNL A   1      38.518  31.280  30.549  1.00  0.00     0.049 A 
ATOM     39  N   UNL A   1      39.730  32.504  33.016  1.00  0.00    -0.248 NA
ATOM     40  C   UNL A   1      38.064  34.138  32.963  1.00  0.00     0.031 C 
ATOM     41  C   UNL A   1      37.996  30.671  29.323  1.00  0.00     0.029 A 
ATOM     42  N   UNL A   1      39.603  30.502  30.868  1.00  0.00    -0.354 N 
ATOM     43  C   UNL A   1      39.929  33.392  34.067  1.00  0.00     0.074 A 
ATOM     44  C   UNL A   1      38.910  34.414  33.945  1.00  0.00     0.031 C 
ATOM     45  C   UNL A   1      38.749  29.605  29.006  1.00  0.00     0.029 A 
ATOM     46  C   UNL A   1      39.822  29.468  29.986  1.00  0.00     0.049 A 
ATOM     47  H   UNL A   1      40.171  30.669  31.655  1.00  0.00     0.167 HD
ATOM     48  C   UNL A   1      40.855  33.347  35.059  1.00  0.00     0.034 A 
ATOM     49  C   UNL A   1      40.778  28.518  29.969  1.00  0.00     0.034 A 
ATOM     50  C   UNL A   1      41.873  32.327  35.167  1.00  0.00     0.049 A 
ATOM     51  C   UNL A   1      41.794  28.485  31.082  1.00  0.00     0.074 A 
ATOM     52  C   UNL A   1      42.850  32.180  36.136  1.00  0.00     0.029 A 
ATOM     53  N   UNL A   1      42.044  31.278  34.273  1.00  0.00    -0.354 N 
ATOM     54  N   UNL A   1      41.936  29.307  32.096  1.00  0.00    -0.248 NA
ATOM     55  C   UNL A   1      42.760  27.380  31.061  1.00  0.00     0.031 C 
ATOM     56  C   UNL A   1      43.642  31.074  35.801  1.00  0.00     0.029 A 
ATOM     57  C   UNL A   1      43.119  30.490  34.660  1.00  0.00     0.049 A 
ATOM     58  H   UNL A   1      41.485  31.117  33.478  1.00  0.00     0.167 HD
ATOM     59  C   UNL A   1      42.993  28.800  32.848  1.00  0.00     0.074 A 
ATOM     60  C   UNL A   1      43.430  27.590  32.184  1.00  0.00     0.031 C 
ATOM     61  C   UNL A   1      43.554  29.291  33.983  1.00  0.00     0.034 A 
BRANCH  48  62
ATOM     62  C   UNL A   1      40.810  34.446  36.094  1.00  0.00     0.023 A 
ATOM     63  C   UNL A   1      40.268  34.224  37.372  1.00  0.00     0.031 A 
ATOM     64  C   UNL A   1      41.288  35.735  35.796  1.00  0.00     0.131 A 
ATOM     65  C   UNL A   1      40.145  35.289  38.277  1.00  0.00     0.055 A 
ATOM     66  C   UNL A   1      41.236  36.772  36.731  1.00  0.00     0.041 A 
ATOM     67  F   UNL A   1      41.800  36.012  34.588  1.00  0.00    -0.206 F 
ATOM     68  C   UNL A   1      40.649  36.557  37.975  1.00  0.00     0.022 A 
BRANCH  65  69
ATOM     69  S   UNL A   1      39.196  35.027  39.800  1.00  0.00     0.124 S 
ATOM     70  O   UNL A   1      40.248  34.649  40.741  1.00  0.00    -0.237 OA
ATOM     71  O   UNL A   1      38.581  36.332  40.018  1.00  0.00    -0.237 OA
ATOM     72  O   UNL A   1      38.270  33.953  39.445  1.00  0.00    -0.744 OA
ENDBRANCH  65  69
ENDBRANCH  48  62
BRANCH  49  73
ATOM     73  C   UNL A   1      40.829  27.517  28.865  1.00  0.00     0.023 A 
ATOM     74  C   UNL A   1      41.783  27.614  27.840  1.00  0.00     0.031 A 
ATOM     75  C   UNL A   1      39.883  26.479  28.790  1.00  0.00     0.131 A 
ATOM     76  C   UNL A   1      41.737  26.726  26.755  1.00  0.00     0.055 A 
ATOM     77  C   UNL A   1      39.876  25.564  27.736  1.00  0.00     0.041 A 
ATOM     78  F   UNL A   1      38.955  26.336  29.750  1.00  0.00    -0.206 F 
ATOM     79  C   UNL A   1      40.797  25.695  26.701  1.00  0.00     0.022 A 
BRANCH  76  80
ATOM     80  S   UNL A   1      42.868  26.997  25.362  1.00  0.00     0.124 S 
ATOM     81  O   UNL A   1      42.237  28.121  24.680  1.00  0.00    -0.237 OA
ATOM     82  O   UNL A   1      44.123  27.285  26.046  1.00  0.00    -0.237 OA
ATOM     83  O   UNL A   1      42.829  25.727  24.640  1.00  0.00    -0.744 OA
ENDBRANCH  76  80
ENDBRANCH  49  73
BRANCH  61  84
ATOM     84  C   UNL A   1      44.675  28.483  34.590  1.00  0.00     0.023 A 
ATOM     85  C   UNL A   1      44.426  27.444  35.504  1.00  0.00     0.031 A 
ATOM     86  C   UNL A   1      46.014  28.788  34.284  1.00  0.00     0.131 A 
ATOM     87  C   UNL A   1      45.499  26.795  36.135  1.00  0.00     0.055 A 
ATOM     88  C   UNL A   1      47.077  28.097  34.868  1.00  0.00     0.041 A 
ATOM     89  F   UNL A   1      46.311  29.770  33.418  1.00  0.00    -0.206 F 
ATOM     90  C   UNL A   1      46.822  27.106  35.813  1.00  0.00     0.022 A 
BRANCH  87  91
ATOM     91  S   UNL A   1      45.141  25.619  37.469  1.00  0.00     0.124 S 
ATOM     92  O   UNL A   1      43.741  25.908  37.763  1.00  0.00    -0.237 OA
ATOM     93  O   UNL A   1      45.405  24.334  36.830  1.00  0.00    -0.237 OA
ATOM     94  O   UNL A   1      46.085  25.994  38.520  1.00  0.00    -0.744 OA
ENDBRANCH  87  91
ENDBRANCH  61  84
ENDBRANCH  35  36
ENDBRANCH  27  30
ENDBRANCH  25  26
ENDBRANCH  24  25
ENDBRANCH  23  24
ENDBRANCH   1  23
TORSDOF 19
ENDMDL
MODEL 3
REMARK VINA RESULT:     -10.4      1.982      7.831
REMARK SMILES CC1(C)C(CNC(=O)[C@H]2C[C@H]2C(=O)NCCCCCCNC(=O)c2ccc(-c3c4nc(c(-c5cc(S(=O)(=O)[O-])ccc5F)c5ccc([nH]5)c(-c5cc(S(=O)(=O)[O-])ccc5F)c5nc(c(-c6cc(S(=O)(=O)[O-])ccc6F)c6ccc3[nH]6)C=C5)C=C4)cc2)C1(C)C
REMARK SMILES IDX 17 1 16 2 15 3 14 4 12 5 13 6 11 8 9 9 10 10 7 11 6 12 8 14
REMARK SMILES IDX 5 15 4 16 1 17 2 18 3 19 87 20 88 21 89 22 18 23 19 24 20 25
REMARK SMILES IDX 21 26 22 27 23 29 24 30 25 31 86 32 26 33 85 34 27 35 28 36
REMARK SMILES IDX 29 37 79 38 30 39 84 40 78 41 80 42 31 43 83 44 77 45 76 46
REMARK SMILES IDX 32 48 64 49 44 50 63 51 45 52 48 53 62 54 81 55 46 56 47 57
REMARK SMILES IDX 61 59 82 60 49 61 33 62 34 63 42 64 35 65 41 66 43 67 40 68
REMARK SMILES IDX 36 69 37 70 38 71 39 72 65 73 66 74 74 75 67 76 73 77 75 78
REMARK SMILES IDX 72 79 68 80 69 81 70 82 71 83 50 84 51 85 59 86 52 87 58 88
REMARK SMILES IDX 60 89 57 90 53 91 54 92 55 93 56 94
REMARK H PARENT 14 7 6 13 21 28 80 47 48 58
REMARK Flexibility Score: inf
ROOT
ATOM      1  C   UNL A   1      31.853  29.383  25.152  1.00  0.00     0.002 C 
ENDROOT
BRANCH   1   2
ATOM      2  C   UNL A   1      33.146  28.828  24.536  1.00  0.00     0.021 C 
BRANCH   2   3
ATOM      3  C   UNL A   1      33.350  29.210  23.072  1.00  0.00     0.116 C 
BRANCH   3   4
ATOM      4  N   UNL A   1      33.802  28.057  22.319  1.00  0.00    -0.356 N 
ATOM      5  C   UNL A   1      33.247  26.814  22.196  1.00  0.00     0.223 C 
ATOM      6  O   UNL A   1      34.010  25.859  22.089  1.00  0.00    -0.275 OA
ATOM      7  H   UNL A   1      34.639  28.189  21.818  1.00  0.00     0.163 HD
BRANCH   5   8
ATOM      8  C   UNL A   1      31.811  26.560  21.980  1.00  0.00     0.091 C 
ATOM      9  C   UNL A   1      30.987  25.515  22.688  1.00  0.00     0.091 C 
ATOM     10  C   UNL A   1      30.597  27.002  22.700  1.00  0.00     0.028 C 
BRANCH   9  11
ATOM     11  C   UNL A   1      31.024  24.931  24.051  1.00  0.00     0.223 C 
ATOM     12  N   UNL A   1      31.676  23.771  24.326  1.00  0.00    -0.356 N 
ATOM     13  H   UNL A   1      31.380  23.328  25.154  1.00  0.00     0.163 HD
ATOM     14  O   UNL A   1      30.337  25.440  24.935  1.00  0.00    -0.275 OA
BRANCH  12  15
ATOM     15  C   UNL A   1      32.726  23.069  23.621  1.00  0.00     0.120 C 
BRANCH  15  16
ATOM     16  C   UNL A   1      33.635  22.509  24.681  1.00  0.00     0.021 C 
ATOM     17  C   UNL A   1      35.669  20.969  24.861  1.00  0.00     0.012 C 
ATOM     18  C   UNL A   1      35.136  22.343  24.486  1.00  0.00    -0.025 C 
ATOM     19  C   UNL A   1      35.885  22.921  23.310  1.00  0.00     0.012 C 
ATOM     20  C   UNL A   1      34.581  23.314  25.557  1.00  0.00    -0.025 C 
ATOM     21  C   UNL A   1      34.737  22.930  27.015  1.00  0.00     0.012 C 
ATOM     22  C   UNL A   1      34.585  24.814  25.377  1.00  0.00     0.012 C 
ENDBRANCH  15  16
ENDBRANCH  12  15
ENDBRANCH   9  11
ENDBRANCH   5   8
ENDBRANCH   3   4
ENDBRANCH   2   3
ENDBRANCH   1   2
BRANCH   1  23
ATOM     23  C   UNL A   1      31.981  29.861  26.597  1.00  0.00     0.002 C 
BRANCH  23  24
ATOM     24  C   UNL A   1      31.754  31.363  26.802  1.00  0.00     0.021 C 
BRANCH  24  25
ATOM     25  C   UNL A   1      33.016  32.210  26.964  1.00  0.00     0.116 C 
BRANCH  25  26
ATOM     26  N   UNL A   1      32.738  33.529  27.509  1.00  0.00    -0.352 N 
ATOM     27  C   UNL A   1      33.344  34.183  28.556  1.00  0.00     0.251 C 
ATOM     28  H   UNL A   1      32.011  34.024  27.067  1.00  0.00     0.163 HD
ATOM     29  O   UNL A   1      32.859  35.226  28.983  1.00  0.00    -0.269 OA
BRANCH  27  30
ATOM     30  C   UNL A   1      34.560  33.616  29.185  1.00  0.00     0.039 A 
ATOM     31  C   UNL A   1      34.413  32.635  30.168  1.00  0.00     0.014 A 
ATOM     32  C   UNL A   1      35.837  34.052  28.816  1.00  0.00     0.014 A 
ATOM     33  C   UNL A   1      35.547  32.044  30.735  1.00  0.00     0.010 A 
ATOM     34  C   UNL A   1      36.967  33.424  29.343  1.00  0.00     0.010 A 
ATOM     35  C   UNL A   1      36.834  32.409  30.305  1.00  0.00    -0.014 A 
BRANCH  35  36
ATOM     36  C   UNL A   1      38.037  31.724  30.850  1.00  0.00     0.031 A 
ATOM     37  C   UNL A   1      38.588  32.098  32.198  1.00  0.00     0.074 A 
ATOM     38  C   UNL A   1      38.654  30.781  30.109  1.00  0.00     0.049 A 
ATOM     39  N   UNL A   1      39.628  31.617  32.831  1.00  0.00    -0.248 NA
ATOM     40  C   UNL A   1      37.891  33.173  32.919  1.00  0.00     0.031 C 
ATOM     41  C   UNL A   1      38.250  30.368  28.763  1.00  0.00     0.029 A 
ATOM     42  N   UNL A   1      39.752  30.002  30.379  1.00  0.00    -0.354 N 
ATOM     43  C   UNL A   1      39.709  32.322  34.026  1.00  0.00     0.074 A 
ATOM     44  C   UNL A   1      38.651  33.312  33.995  1.00  0.00     0.031 C 
ATOM     45  C   UNL A   1      39.076  29.399  28.334  1.00  0.00     0.029 A 
ATOM     46  C   UNL A   1      40.083  29.139  29.358  1.00  0.00     0.049 A 
ATOM     47  H   UNL A   1      40.254  30.055  31.223  1.00  0.00     0.167 HD
ATOM     48  C   UNL A   1      40.564  32.146  35.065  1.00  0.00     0.034 A 
ATOM     49  C   UNL A   1      41.084  28.243  29.258  1.00  0.00     0.034 A 
ATOM     50  C   UNL A   1      41.621  31.162  35.082  1.00  0.00     0.049 A 
ATOM     51  C   UNL A   1      42.020  28.061  30.426  1.00  0.00     0.074 A 
ATOM     52  C   UNL A   1      42.534  30.890  36.086  1.00  0.00     0.029 A 
ATOM     53  N   UNL A   1      41.907  30.285  34.043  1.00  0.00    -0.354 N 
ATOM     54  N   UNL A   1      42.050  28.705  31.570  1.00  0.00    -0.248 NA
ATOM     55  C   UNL A   1      43.040  27.013  30.298  1.00  0.00     0.031 C 
ATOM     56  C   UNL A   1      43.403  29.887  35.636  1.00  0.00     0.029 A 
ATOM     57  C   UNL A   1      42.990  29.484  34.377  1.00  0.00     0.049 A 
ATOM     58  H   UNL A   1      41.414  30.239  33.192  1.00  0.00     0.167 HD
ATOM     59  C   UNL A   1      43.076  28.119  32.307  1.00  0.00     0.074 A 
ATOM     60  C   UNL A   1      43.618  27.055  31.488  1.00  0.00     0.031 C 
ATOM     61  C   UNL A   1      43.531  28.433  33.547  1.00  0.00     0.034 A 
BRANCH  48  62
ATOM     62  C   UNL A   1      40.392  33.054  36.261  1.00  0.00     0.023 A 
ATOM     63  C   UNL A   1      39.624  32.661  37.372  1.00  0.00     0.031 A 
ATOM     64  C   UNL A   1      40.976  34.333  36.284  1.00  0.00     0.131 A 
ATOM     65  C   UNL A   1      39.397  33.563  38.422  1.00  0.00     0.055 A 
ATOM     66  C   UNL A   1      40.812  35.196  37.370  1.00  0.00     0.041 A 
ATOM     67  F   UNL A   1      41.705  34.770  35.246  1.00  0.00    -0.206 F 
ATOM     68  C   UNL A   1      40.007  34.819  38.441  1.00  0.00     0.022 A 
BRANCH  65  69
ATOM     69  S   UNL A   1      38.184  33.121  39.695  1.00  0.00     0.124 S 
ATOM     70  O   UNL A   1      36.982  32.904  38.894  1.00  0.00    -0.237 OA
ATOM     71  O   UNL A   1      38.775  31.931  40.297  1.00  0.00    -0.237 OA
ATOM     72  O   UNL A   1      38.146  34.301  40.557  1.00  0.00    -0.744 OA
ENDBRANCH  65  69
ENDBRANCH  48  62
BRANCH  49  73
ATOM     73  C   UNL A   1      41.262  27.444  28.012  1.00  0.00     0.023 A 
ATOM     74  C   UNL A   1      40.945  26.076  27.974  1.00  0.00     0.031 A 
ATOM     75  C   UNL A   1      41.809  28.027  26.855  1.00  0.00     0.131 A 
ATOM     76  C   UNL A   1      41.228  25.324  26.824  1.00  0.00     0.055 A 
ATOM     77  C   UNL A   1      42.038  27.285  25.695  1.00  0.00     0.041 A 
ATOM     78  F   UNL A   1      42.121  29.332  26.835  1.00  0.00    -0.206 F 
ATOM     79  C   UNL A   1      41.764  25.921  25.681  1.00  0.00     0.022 A 
BRANCH  76  80
ATOM     80  S   UNL A   1      40.977  23.528  26.878  1.00  0.00     0.124 S 
ATOM     81  O   UNL A   1      41.423  23.205  28.228  1.00  0.00    -0.237 OA
ATOM     82  O   UNL A   1      39.544  23.418  26.632  1.00  0.00    -0.237 OA
ATOM     83  O   UNL A   1      41.833  23.033  25.802  1.00  0.00    -0.744 OA
ENDBRANCH  76  80
ENDBRANCH  49  73
BRANCH  61  84
ATOM     84  C   UNL A   1      44.646  27.578  34.098  1.00  0.00     0.023 A 
ATOM     85  C   UNL A   1      44.396  26.316  34.667  1.00  0.00     0.031 A 
ATOM     86  C   UNL A   1      45.970  28.051  34.094  1.00  0.00     0.131 A 
ATOM     87  C   UNL A   1      45.442  25.603  35.273  1.00  0.00     0.055 A 
ATOM     88  C   UNL A   1      47.017  27.309  34.642  1.00  0.00     0.041 A 
ATOM     89  F   UNL A   1      46.266  29.249  33.563  1.00  0.00    -0.206 F 
ATOM     90  C   UNL A   1      46.753  26.086  35.253  1.00  0.00     0.022 A 
BRANCH  87  91
ATOM     91  S   UNL A   1      45.046  24.090  36.191  1.00  0.00     0.124 S 
ATOM     92  O   UNL A   1      46.329  23.396  36.202  1.00  0.00    -0.237 OA
ATOM     93  O   UNL A   1      44.594  24.614  37.475  1.00  0.00    -0.237 OA
ATOM     94  O   UNL A   1      44.007  23.458  35.380  1.00  0.00    -0.744 OA
ENDBRANCH  87  91
ENDBRANCH  61  84
ENDBRANCH  35  36
ENDBRANCH  27  30
ENDBRANCH  25  26
ENDBRANCH  24  25
ENDBRANCH  23  24
ENDBRANCH   1  23
TORSDOF 19
ENDMDL
