MODEL 1
REMARK VINA RESULT:     -11.9      0.000      0.000
REMARK SMILES Cc1cccc([C@@H](CCC[C@@H]2CCCO2)C(=O)NCCCCCCNC(=O)c2ccc(-c3c4nc(c(-c5cc(S(=O)(=O)[O-])ccc5F)c5ccc([nH]5)c(-c5cc(S(=O)(=O)[O-])ccc5F)c5nc(c(-c6cc(S(=O)(=O)[O-])ccc6F)c6ccc3[nH]6)C=C5)C=C4)cc2)c1
REMARK SMILES IDX 21 1 20 2 19 3 18 4 16 5 17 6 7 8 6 9 1 10 2 11 3 12 91 13
REMARK SMILES IDX 4 14 5 15 8 16 9 17 10 18 11 19 12 20 15 21 13 22 14 23
REMARK SMILES IDX 22 24 23 25 24 26 25 27 26 28 27 30 28 31 29 32 90 33 30 34
REMARK SMILES IDX 89 35 31 36 32 37 33 38 83 39 34 40 88 41 82 42 84 43 35 44
REMARK SMILES IDX 87 45 81 46 80 47 36 49 68 50 48 51 67 52 49 53 52 54 66 55
REMARK SMILES IDX 85 56 50 57 51 58 65 60 86 61 53 62 37 63 38 64 46 65 39 66
REMARK SMILES IDX 45 67 47 68 44 69 40 70 41 71 42 72 43 73 69 74 70 75 78 76
REMARK SMILES IDX 71 77 77 78 79 79 76 80 72 81 73 82 74 83 75 84 54 85 55 86
REMARK SMILES IDX 63 87 56 88 62 89 64 90 61 91 57 92 58 93 59 94 60 95
REMARK H PARENT 18 7 25 29 84 48 52 59
REMARK Flexibility Score: inf
ROOT
ATOM      1  C   UNL A   1      33.505  28.830  25.685  1.00  0.00     0.002 C 
ENDROOT
BRANCH   1   2
ATOM      2  C   UNL A   1      34.056  27.403  25.863  1.00  0.00     0.021 C 
BRANCH   2   3
ATOM      3  C   UNL A   1      33.340  26.358  25.021  1.00  0.00     0.116 C 
BRANCH   3   4
ATOM      4  N   UNL A   1      32.688  25.286  25.733  1.00  0.00    -0.356 N 
ATOM      5  C   UNL A   1      33.052  23.972  25.816  1.00  0.00     0.227 C 
ATOM      6  O   UNL A   1      32.642  23.338  26.798  1.00  0.00    -0.274 OA
ATOM      7  H   UNL A   1      31.873  25.534  26.225  1.00  0.00     0.163 HD
BRANCH   5   8
ATOM      8  C   UNL A   1      33.865  23.239  24.723  1.00  0.00     0.108 C 
BRANCH   8   9
ATOM      9  C   UNL A   1      35.307  22.943  25.145  1.00  0.00    -0.035 A 
ATOM     10  C   UNL A   1      37.690  19.954  24.829  1.00  0.00     0.044 C 
ATOM     11  C   UNL A   1      37.164  21.325  25.130  1.00  0.00    -0.051 A 
ATOM     12  C   UNL A   1      38.016  22.308  25.632  1.00  0.00     0.003 A 
ATOM     13  C   UNL A   1      35.827  21.659  24.869  1.00  0.00     0.008 A 
ATOM     14  C   UNL A   1      37.521  23.577  25.927  1.00  0.00     0.001 A 
ATOM     15  C   UNL A   1      36.172  23.881  25.715  1.00  0.00     0.004 A 
ENDBRANCH   8   9
BRANCH   8  16
ATOM     16  C   UNL A   1      33.137  22.305  23.718  1.00  0.00     0.018 C 
BRANCH  16  17
ATOM     17  C   UNL A   1      32.196  21.179  24.155  1.00  0.00     0.004 C 
BRANCH  17  18
ATOM     18  C   UNL A   1      32.585  20.416  25.421  1.00  0.00     0.032 C 
BRANCH  18  19
ATOM     19  C   UNL A   1      33.194  19.027  25.329  1.00  0.00     0.118 C 
ATOM     20  C   UNL A   1      33.778  18.595  24.003  1.00  0.00     0.034 C 
ATOM     21  O   UNL A   1      32.240  18.015  25.674  1.00  0.00    -0.378 OA
ATOM     22  C   UNL A   1      33.897  17.106  24.238  1.00  0.00     0.031 C 
ATOM     23  C   UNL A   1      32.641  16.798  25.035  1.00  0.00     0.160 C 
ENDBRANCH  18  19
ENDBRANCH  17  18
ENDBRANCH  16  17
ENDBRANCH   8  16
ENDBRANCH   5   8
ENDBRANCH   3   4
ENDBRANCH   2   3
ENDBRANCH   1   2
BRANCH   1  24
ATOM     24  C   UNL A   1      32.687  29.445  26.843  1.00  0.00     0.002 C 
BRANCH  24  25
ATOM     25  C   UNL A   1      33.239  30.719  27.481  1.00  0.00     0.021 C 
BRANCH  25  26
ATOM     26  C   UNL A   1      34.754  30.836  27.408  1.00  0.00     0.116 C 
BRANCH  26  27
ATOM     27  N   UNL A   1      35.361  31.584  28.505  1.00  0.00    -0.352 N 
ATOM     28  C   UNL A   1      36.370  31.167  29.363  1.00  0.00     0.251 C 
ATOM     29  H   UNL A   1      35.013  32.493  28.653  1.00  0.00     0.163 HD
ATOM     30  O   UNL A   1      36.760  31.842  30.296  1.00  0.00    -0.269 OA
BRANCH  28  31
ATOM     31  C   UNL A   1      37.063  29.903  29.023  1.00  0.00     0.039 A 
ATOM     32  C   UNL A   1      37.311  29.021  30.081  1.00  0.00     0.014 A 
ATOM     33  C   UNL A   1      37.729  29.773  27.807  1.00  0.00     0.014 A 
ATOM     34  C   UNL A   1      38.407  28.170  30.005  1.00  0.00     0.010 A 
ATOM     35  C   UNL A   1      38.871  28.996  27.768  1.00  0.00     0.010 A 
ATOM     36  C   UNL A   1      39.250  28.257  28.896  1.00  0.00    -0.014 A 
BRANCH  36  37
ATOM     37  C   UNL A   1      40.615  27.742  28.916  1.00  0.00     0.031 A 
ATOM     38  C   UNL A   1      40.905  26.357  28.501  1.00  0.00     0.074 A 
ATOM     39  C   UNL A   1      41.627  28.543  29.313  1.00  0.00     0.049 A 
ATOM     40  N   UNL A   1      41.915  25.669  28.911  1.00  0.00    -0.248 NA
ATOM     41  C   UNL A   1      40.024  25.616  27.610  1.00  0.00     0.031 C 
ATOM     42  C   UNL A   1      43.061  28.287  29.205  1.00  0.00     0.029 A 
ATOM     43  N   UNL A   1      41.534  29.658  30.144  1.00  0.00    -0.354 N 
ATOM     44  C   UNL A   1      41.982  24.528  28.147  1.00  0.00     0.074 A 
ATOM     45  C   UNL A   1      40.745  24.512  27.398  1.00  0.00     0.031 C 
ATOM     46  C   UNL A   1      43.701  29.029  30.124  1.00  0.00     0.029 A 
ATOM     47  C   UNL A   1      42.690  29.677  30.940  1.00  0.00     0.049 A 
ATOM     48  H   UNL A   1      40.794  30.309  30.169  1.00  0.00     0.167 HD
ATOM     49  C   UNL A   1      43.135  23.797  28.127  1.00  0.00     0.034 A 
ATOM     50  C   UNL A   1      42.606  29.588  32.297  1.00  0.00     0.034 A 
ATOM     51  C   UNL A   1      44.126  24.320  29.069  1.00  0.00     0.049 A 
ATOM     52  C   UNL A   1      43.309  28.380  32.877  1.00  0.00     0.074 A 
ATOM     53  C   UNL A   1      45.266  25.093  28.917  1.00  0.00     0.029 A 
ATOM     54  N   UNL A   1      43.855  24.296  30.435  1.00  0.00    -0.354 N 
ATOM     55  N   UNL A   1      43.707  27.343  32.192  1.00  0.00    -0.248 NA
ATOM     56  C   UNL A   1      43.592  28.248  34.301  1.00  0.00     0.031 C 
ATOM     57  C   UNL A   1      45.651  25.572  30.199  1.00  0.00     0.029 A 
ATOM     58  C   UNL A   1      44.763  25.068  31.135  1.00  0.00     0.049 A 
ATOM     59  H   UNL A   1      43.113  23.797  30.847  1.00  0.00     0.167 HD
ATOM     60  C   UNL A   1      44.248  26.405  33.041  1.00  0.00     0.074 A 
ATOM     61  C   UNL A   1      44.184  27.044  34.345  1.00  0.00     0.031 C 
ATOM     62  C   UNL A   1      44.681  25.184  32.590  1.00  0.00     0.034 A 
BRANCH  49  63
ATOM     63  C   UNL A   1      43.462  22.813  27.021  1.00  0.00     0.023 A 
ATOM     64  C   UNL A   1      42.883  21.526  27.037  1.00  0.00     0.031 A 
ATOM     65  C   UNL A   1      44.371  23.046  25.972  1.00  0.00     0.131 A 
ATOM     66  C   UNL A   1      43.300  20.519  26.144  1.00  0.00     0.055 A 
ATOM     67  C   UNL A   1      44.842  22.029  25.129  1.00  0.00     0.041 A 
ATOM     68  F   UNL A   1      44.803  24.280  25.680  1.00  0.00    -0.206 F 
ATOM     69  C   UNL A   1      44.318  20.750  25.225  1.00  0.00     0.022 A 
BRANCH  66  70
ATOM     70  S   UNL A   1      42.485  18.899  26.189  1.00  0.00     0.124 S 
ATOM     71  O   UNL A   1      42.634  18.514  27.589  1.00  0.00    -0.237 OA
ATOM     72  O   UNL A   1      41.133  19.223  25.747  1.00  0.00    -0.237 OA
ATOM     73  O   UNL A   1      43.266  18.100  25.245  1.00  0.00    -0.744 OA
ENDBRANCH  66  70
ENDBRANCH  49  63
BRANCH  50  74
ATOM     74  C   UNL A   1      41.383  30.224  32.866  1.00  0.00     0.023 A 
ATOM     75  C   UNL A   1      41.330  31.635  32.910  1.00  0.00     0.031 A 
ATOM     76  C   UNL A   1      40.182  29.518  33.017  1.00  0.00     0.131 A 
ATOM     77  C   UNL A   1      40.095  32.295  32.968  1.00  0.00     0.055 A 
ATOM     78  C   UNL A   1      38.954  30.183  33.114  1.00  0.00     0.041 A 
ATOM     79  F   UNL A   1      40.164  28.179  32.951  1.00  0.00    -0.206 F 
ATOM     80  C   UNL A   1      38.902  31.575  33.049  1.00  0.00     0.022 A 
BRANCH  77  81
ATOM     81  S   UNL A   1      40.013  34.091  32.713  1.00  0.00     0.124 S 
ATOM     82  O   UNL A   1      40.449  34.606  34.007  1.00  0.00    -0.237 OA
ATOM     83  O   UNL A   1      40.935  34.317  31.603  1.00  0.00    -0.237 OA
ATOM     84  O   UNL A   1      38.605  34.308  32.389  1.00  0.00    -0.744 OA
ENDBRANCH  77  81
ENDBRANCH  50  74
BRANCH  62  85
ATOM     85  C   UNL A   1      45.137  24.002  33.443  1.00  0.00     0.023 A 
ATOM     86  C   UNL A   1      46.431  23.854  33.962  1.00  0.00     0.031 A 
ATOM     87  C   UNL A   1      44.232  22.970  33.807  1.00  0.00     0.131 A 
ATOM     88  C   UNL A   1      46.805  22.726  34.721  1.00  0.00     0.055 A 
ATOM     89  C   UNL A   1      44.585  21.882  34.616  1.00  0.00     0.041 A 
ATOM     90  F   UNL A   1      42.952  22.971  33.406  1.00  0.00    -0.206 F 
ATOM     91  C   UNL A   1      45.884  21.745  35.068  1.00  0.00     0.022 A 
BRANCH  88  92
ATOM     92  S   UNL A   1      48.544  22.555  35.203  1.00  0.00     0.124 S 
ATOM     93  O   UNL A   1      49.170  23.651  34.468  1.00  0.00    -0.237 OA
ATOM     94  O   UNL A   1      48.485  22.719  36.652  1.00  0.00    -0.237 OA
ATOM     95  O   UNL A   1      48.901  21.215  34.744  1.00  0.00    -0.744 OA
ENDBRANCH  88  92
ENDBRANCH  62  85
ENDBRANCH  36  37
ENDBRANCH  28  31
ENDBRANCH  26  27
ENDBRANCH  25  26
ENDBRANCH  24  25
ENDBRANCH   1  24
TORSDOF 21
ENDMDL
MODEL 2
REMARK VINA RESULT:     -11.3      1.716      3.204
REMARK SMILES Cc1cccc([C@@H](CCC[C@@H]2CCCO2)C(=O)NCCCCCCNC(=O)c2ccc(-c3c4nc(c(-c5cc(S(=O)(=O)[O-])ccc5F)c5ccc([nH]5)c(-c5cc(S(=O)(=O)[O-])ccc5F)c5nc(c(-c6cc(S(=O)(=O)[O-])ccc6F)c6ccc3[nH]6)C=C5)C=C4)cc2)c1
REMARK SMILES IDX 21 1 20 2 19 3 18 4 16 5 17 6 7 8 6 9 1 10 2 11 3 12 91 13
REMARK SMILES IDX 4 14 5 15 8 16 9 17 10 18 11 19 12 20 15 21 13 22 14 23
REMARK SMILES IDX 22 24 23 25 24 26 25 27 26 28 27 30 28 31 29 32 90 33 30 34
REMARK SMILES IDX 89 35 31 36 32 37 33 38 83 39 34 40 88 41 82 42 84 43 35 44
REMARK SMILES IDX 87 45 81 46 80 47 36 49 68 50 48 51 67 52 49 53 52 54 66 55
REMARK SMILES IDX 85 56 50 57 51 58 65 60 86 61 53 62 37 63 38 64 46 65 39 66
REMARK SMILES IDX 45 67 47 68 44 69 40 70 41 71 42 72 43 73 69 74 70 75 78 76
REMARK SMILES IDX 71 77 77 78 79 79 76 80 72 81 73 82 74 83 75 84 54 85 55 86
REMARK SMILES IDX 63 87 56 88 62 89 64 90 61 91 57 92 58 93 59 94 60 95
REMARK H PARENT 18 7 25 29 84 48 52 59
REMARK Flexibility Score: inf
ROOT
ATOM      1  C   UNL A   1      33.181  29.330  26.155  1.00  0.00     0.002 C 
ENDROOT
BRANCH   1   2
ATOM      2  C   UNL A   1      32.981  27.981  26.871  1.00  0.00     0.021 C 
BRANCH   2   3
ATOM      3  C   UNL A   1      32.408  26.890  25.980  1.00  0.00     0.116 C 
BRANCH   3   4
ATOM      4  N   UNL A   1      31.283  26.152  26.498  1.00  0.00    -0.356 N 
ATOM      5  C   UNL A   1      30.458  25.283  25.842  1.00  0.00     0.227 C 
ATOM      6  O   UNL A   1      29.865  24.443  26.533  1.00  0.00    -0.274 OA
ATOM      7  H   UNL A   1      31.083  26.291  27.451  1.00  0.00     0.163 HD
BRANCH   5   8
ATOM      8  C   UNL A   1      30.176  25.353  24.323  1.00  0.00     0.108 C 
BRANCH   8   9
ATOM      9  C   UNL A   1      29.342  26.573  23.923  1.00  0.00    -0.035 A 
ATOM     10  C   UNL A   1      30.021  29.858  22.063  1.00  0.00     0.044 C 
ATOM     11  C   UNL A   1      29.301  28.747  22.766  1.00  0.00    -0.051 A 
ATOM     12  C   UNL A   1      27.913  28.784  22.899  1.00  0.00     0.003 A 
ATOM     13  C   UNL A   1      29.997  27.633  23.255  1.00  0.00     0.008 A 
ATOM     14  C   UNL A   1      27.249  27.759  23.568  1.00  0.00     0.001 A 
ATOM     15  C   UNL A   1      27.960  26.679  24.102  1.00  0.00     0.004 A 
ENDBRANCH   8   9
BRANCH   8  16
ATOM     16  C   UNL A   1      31.192  24.737  23.321  1.00  0.00     0.018 C 
BRANCH  16  17
ATOM     17  C   UNL A   1      32.441  23.972  23.764  1.00  0.00     0.004 C 
BRANCH  17  18
ATOM     18  C   UNL A   1      32.686  22.619  23.096  1.00  0.00     0.032 C 
BRANCH  18  19
ATOM     19  C   UNL A   1      33.236  21.450  23.897  1.00  0.00     0.118 C 
ATOM     20  C   UNL A   1      32.346  20.244  24.094  1.00  0.00     0.034 C 
ATOM     21  O   UNL A   1      33.624  21.858  25.214  1.00  0.00    -0.378 OA
ATOM     22  C   UNL A   1      33.089  19.545  25.210  1.00  0.00     0.031 C 
ATOM     23  C   UNL A   1      33.566  20.707  26.064  1.00  0.00     0.160 C 
ENDBRANCH  18  19
ENDBRANCH  17  18
ENDBRANCH  16  17
ENDBRANCH   8  16
ENDBRANCH   5   8
ENDBRANCH   3   4
ENDBRANCH   2   3
ENDBRANCH   1   2
BRANCH   1  24
ATOM     24  C   UNL A   1      32.415  30.560  26.692  1.00  0.00     0.002 C 
BRANCH  24  25
ATOM     25  C   UNL A   1      33.205  31.546  27.553  1.00  0.00     0.021 C 
BRANCH  25  26
ATOM     26  C   UNL A   1      34.639  31.115  27.821  1.00  0.00     0.116 C 
BRANCH  26  27
ATOM     27  N   UNL A   1      35.271  31.776  28.957  1.00  0.00    -0.352 N 
ATOM     28  C   UNL A   1      36.313  31.303  29.745  1.00  0.00     0.251 C 
ATOM     29  H   UNL A   1      34.918  32.664  29.194  1.00  0.00     0.163 HD
ATOM     30  O   UNL A   1      36.725  31.902  30.719  1.00  0.00    -0.269 OA
BRANCH  28  31
ATOM     31  C   UNL A   1      37.010  30.082  29.277  1.00  0.00     0.039 A 
ATOM     32  C   UNL A   1      37.235  29.085  30.233  1.00  0.00     0.014 A 
ATOM     33  C   UNL A   1      37.699  30.088  28.067  1.00  0.00     0.014 A 
ATOM     34  C   UNL A   1      38.330  28.243  30.081  1.00  0.00     0.010 A 
ATOM     35  C   UNL A   1      38.840  29.316  27.962  1.00  0.00     0.010 A 
ATOM     36  C   UNL A   1      39.194  28.451  29.005  1.00  0.00    -0.014 A 
BRANCH  36  37
ATOM     37  C   UNL A   1      40.558  27.931  28.993  1.00  0.00     0.031 A 
ATOM     38  C   UNL A   1      40.834  26.552  28.552  1.00  0.00     0.074 A 
ATOM     39  C   UNL A   1      41.580  28.723  29.383  1.00  0.00     0.049 A 
ATOM     40  N   UNL A   1      41.849  25.854  28.934  1.00  0.00    -0.248 NA
ATOM     41  C   UNL A   1      39.934  25.826  27.667  1.00  0.00     0.031 C 
ATOM     42  C   UNL A   1      43.011  28.463  29.245  1.00  0.00     0.029 A 
ATOM     43  N   UNL A   1      41.506  29.826  30.232  1.00  0.00    -0.354 N 
ATOM     44  C   UNL A   1      41.898  24.723  28.152  1.00  0.00     0.074 A 
ATOM     45  C   UNL A   1      40.647  24.723  27.427  1.00  0.00     0.031 C 
ATOM     46  C   UNL A   1      43.671  29.189  30.162  1.00  0.00     0.029 A 
ATOM     47  C   UNL A   1      42.677  29.829  31.006  1.00  0.00     0.049 A 
ATOM     48  H   UNL A   1      40.770  30.479  30.279  1.00  0.00     0.167 HD
ATOM     49  C   UNL A   1      43.047  23.989  28.100  1.00  0.00     0.034 A 
ATOM     50  C   UNL A   1      42.618  29.721  32.363  1.00  0.00     0.034 A 
ATOM     51  C   UNL A   1      44.057  24.495  29.032  1.00  0.00     0.049 A 
ATOM     52  C   UNL A   1      43.326  28.502  32.913  1.00  0.00     0.074 A 
ATOM     53  C   UNL A   1      45.197  25.266  28.870  1.00  0.00     0.029 A 
ATOM     54  N   UNL A   1      43.811  24.452  30.402  1.00  0.00    -0.354 N 
ATOM     55  N   UNL A   1      43.707  27.473  32.205  1.00  0.00    -0.248 NA
ATOM     56  C   UNL A   1      43.635  28.348  34.329  1.00  0.00     0.031 C 
ATOM     57  C   UNL A   1      45.608  25.724  30.151  1.00  0.00     0.029 A 
ATOM     58  C   UNL A   1      44.735  25.210  31.096  1.00  0.00     0.049 A 
ATOM     59  H   UNL A   1      43.075  23.949  30.820  1.00  0.00     0.167 HD
ATOM     60  C   UNL A   1      44.261  26.521  33.030  1.00  0.00     0.074 A 
ATOM     61  C   UNL A   1      44.223  27.141  34.345  1.00  0.00     0.031 C 
ATOM     62  C   UNL A   1      44.680  25.305  32.554  1.00  0.00     0.034 A 
BRANCH  49  63
ATOM     63  C   UNL A   1      43.349  23.020  26.975  1.00  0.00     0.023 A 
ATOM     64  C   UNL A   1      42.850  21.701  27.035  1.00  0.00     0.031 A 
ATOM     65  C   UNL A   1      44.164  23.301  25.861  1.00  0.00     0.131 A 
ATOM     66  C   UNL A   1      43.260  20.716  26.114  1.00  0.00     0.055 A 
ATOM     67  C   UNL A   1      44.631  22.308  24.987  1.00  0.00     0.041 A 
ATOM     68  F   UNL A   1      44.499  24.557  25.537  1.00  0.00    -0.206 F 
ATOM     69  C   UNL A   1      44.193  21.001  25.123  1.00  0.00     0.022 A 
BRANCH  66  70
ATOM     70  S   UNL A   1      42.548  19.051  26.221  1.00  0.00     0.124 S 
ATOM     71  O   UNL A   1      42.322  18.900  27.655  1.00  0.00    -0.237 OA
ATOM     72  O   UNL A   1      41.358  19.172  25.387  1.00  0.00    -0.237 OA
ATOM     73  O   UNL A   1      43.600  18.196  25.671  1.00  0.00    -0.744 OA
ENDBRANCH  66  70
ENDBRANCH  49  63
BRANCH  50  74
ATOM     74  C   UNL A   1      41.407  30.353  32.963  1.00  0.00     0.023 A 
ATOM     75  C   UNL A   1      41.382  31.761  33.074  1.00  0.00     0.031 A 
ATOM     76  C   UNL A   1      40.194  29.664  33.084  1.00  0.00     0.131 A 
ATOM     77  C   UNL A   1      40.160  32.441  33.164  1.00  0.00     0.055 A 
ATOM     78  C   UNL A   1      38.978  30.346  33.215  1.00  0.00     0.041 A 
ATOM     79  F   UNL A   1      40.150  28.330  32.955  1.00  0.00    -0.206 F 
ATOM     80  C   UNL A   1      38.954  31.741  33.215  1.00  0.00     0.022 A 
BRANCH  77  81
ATOM     81  S   UNL A   1      40.113  34.248  32.994  1.00  0.00     0.124 S 
ATOM     82  O   UNL A   1      40.194  34.424  31.548  1.00  0.00    -0.237 OA
ATOM     83  O   UNL A   1      38.835  34.611  33.601  1.00  0.00    -0.237 OA
ATOM     84  O   UNL A   1      41.288  34.675  33.750  1.00  0.00    -0.744 OA
ENDBRANCH  77  81
ENDBRANCH  50  74
BRANCH  62  85
ATOM     85  C   UNL A   1      45.147  24.110  33.381  1.00  0.00     0.023 A 
ATOM     86  C   UNL A   1      46.410  24.007  33.981  1.00  0.00     0.031 A 
ATOM     87  C   UNL A   1      44.282  23.012  33.635  1.00  0.00     0.131 A 
ATOM     88  C   UNL A   1      46.798  22.865  34.712  1.00  0.00     0.055 A 
ATOM     89  C   UNL A   1      44.643  21.906  34.415  1.00  0.00     0.041 A 
ATOM     90  F   UNL A   1      43.034  22.963  33.147  1.00  0.00    -0.206 F 
ATOM     91  C   UNL A   1      45.916  21.819  34.949  1.00  0.00     0.022 A 
BRANCH  88  92
ATOM     92  S   UNL A   1      48.509  22.767  35.304  1.00  0.00     0.124 S 
ATOM     93  O   UNL A   1      48.539  23.817  36.318  1.00  0.00    -0.237 OA
ATOM     94  O   UNL A   1      48.588  21.400  35.807  1.00  0.00    -0.237 OA
ATOM     95  O   UNL A   1      49.305  23.036  34.108  1.00  0.00    -0.744 OA
ENDBRANCH  88  92
ENDBRANCH  62  85
ENDBRANCH  36  37
ENDBRANCH  28  31
ENDBRANCH  26  27
ENDBRANCH  25  26
ENDBRANCH  24  25
ENDBRANCH   1  24
TORSDOF 21
ENDMDL
MODEL 3
REMARK VINA RESULT:     -10.9      1.738      3.261
REMARK SMILES Cc1cccc([C@@H](CCC[C@@H]2CCCO2)C(=O)NCCCCCCNC(=O)c2ccc(-c3c4nc(c(-c5cc(S(=O)(=O)[O-])ccc5F)c5ccc([nH]5)c(-c5cc(S(=O)(=O)[O-])ccc5F)c5nc(c(-c6cc(S(=O)(=O)[O-])ccc6F)c6ccc3[nH]6)C=C5)C=C4)cc2)c1
REMARK SMILES IDX 21 1 20 2 19 3 18 4 16 5 17 6 7 8 6 9 1 10 2 11 3 12 91 13
REMARK SMILES IDX 4 14 5 15 8 16 9 17 10 18 11 19 12 20 15 21 13 22 14 23
REMARK SMILES IDX 22 24 23 25 24 26 25 27 26 28 27 30 28 31 29 32 90 33 30 34
REMARK SMILES IDX 89 35 31 36 32 37 33 38 83 39 34 40 88 41 82 42 84 43 35 44
REMARK SMILES IDX 87 45 81 46 80 47 36 49 68 50 48 51 67 52 49 53 52 54 66 55
REMARK SMILES IDX 85 56 50 57 51 58 65 60 86 61 53 62 37 63 38 64 46 65 39 66
REMARK SMILES IDX 45 67 47 68 44 69 40 70 41 71 42 72 43 73 69 74 70 75 78 76
REMARK SMILES IDX 71 77 77 78 79 79 76 80 72 81 73 82 74 83 75 84 54 85 55 86
REMARK SMILES IDX 63 87 56 88 62 89 64 90 61 91 57 92 58 93 59 94 60 95
REMARK H PARENT 18 7 25 29 84 48 52 59
REMARK Flexibility Score: inf
ROOT
ATOM      1  C   UNL A   1      33.728  29.599  26.178  1.00  0.00     0.002 C 
ENDROOT
BRANCH   1   2
ATOM      2  C   UNL A   1      33.938  28.182  26.745  1.00  0.00     0.021 C 
BRANCH   2   3
ATOM      3  C   UNL A   1      33.267  27.087  25.930  1.00  0.00     0.116 C 
BRANCH   3   4
ATOM      4  N   UNL A   1      33.626  27.004  24.535  1.00  0.00    -0.356 N 
ATOM      5  C   UNL A   1      33.139  26.158  23.579  1.00  0.00     0.227 C 
ATOM      6  O   UNL A   1      33.235  26.531  22.401  1.00  0.00    -0.274 OA
ATOM      7  H   UNL A   1      34.313  27.640  24.232  1.00  0.00     0.163 HD
BRANCH   5   8
ATOM      8  C   UNL A   1      32.560  24.758  23.888  1.00  0.00     0.108 C 
BRANCH   8   9
ATOM      9  C   UNL A   1      33.617  23.768  24.385  1.00  0.00    -0.035 A 
ATOM     10  C   UNL A   1      34.048  21.555  27.488  1.00  0.00     0.044 C 
ATOM     11  C   UNL A   1      34.281  22.177  26.144  1.00  0.00    -0.051 A 
ATOM     12  C   UNL A   1      35.337  21.743  25.344  1.00  0.00     0.003 A 
ATOM     13  C   UNL A   1      33.419  23.165  25.647  1.00  0.00     0.008 A 
ATOM     14  C   UNL A   1      35.562  22.335  24.103  1.00  0.00     0.001 A 
ATOM     15  C   UNL A   1      34.728  23.360  23.642  1.00  0.00     0.004 A 
ENDBRANCH   8   9
BRANCH   8  16
ATOM     16  C   UNL A   1      31.082  24.619  24.346  1.00  0.00     0.018 C 
BRANCH  16  17
ATOM     17  C   UNL A   1      30.242  25.805  24.827  1.00  0.00     0.004 C 
BRANCH  17  18
ATOM     18  C   UNL A   1      29.238  26.381  23.828  1.00  0.00     0.032 C 
BRANCH  18  19
ATOM     19  C   UNL A   1      29.190  27.876  23.557  1.00  0.00     0.118 C 
ATOM     20  C   UNL A   1      27.979  28.427  22.840  1.00  0.00     0.034 C 
ATOM     21  O   UNL A   1      30.318  28.302  22.785  1.00  0.00    -0.378 OA
ATOM     22  C   UNL A   1      28.501  29.791  22.449  1.00  0.00     0.031 C 
ATOM     23  C   UNL A   1      29.948  29.499  22.091  1.00  0.00     0.160 C 
ENDBRANCH  18  19
ENDBRANCH  17  18
ENDBRANCH  16  17
ENDBRANCH   8  16
ENDBRANCH   5   8
ENDBRANCH   3   4
ENDBRANCH   2   3
ENDBRANCH   1   2
BRANCH   1  24
ATOM     24  C   UNL A   1      32.781  30.555  26.938  1.00  0.00     0.002 C 
BRANCH  24  25
ATOM     25  C   UNL A   1      33.427  31.542  27.909  1.00  0.00     0.021 C 
BRANCH  25  26
ATOM     26  C   UNL A   1      34.948  31.499  27.907  1.00  0.00     0.116 C 
BRANCH  26  27
ATOM     27  N   UNL A   1      35.576  32.093  29.083  1.00  0.00    -0.352 N 
ATOM     28  C   UNL A   1      36.559  31.539  29.893  1.00  0.00     0.251 C 
ATOM     29  H   UNL A   1      35.265  32.993  29.332  1.00  0.00     0.163 HD
ATOM     30  O   UNL A   1      36.969  32.088  30.897  1.00  0.00    -0.269 OA
BRANCH  28  31
ATOM     31  C   UNL A   1      37.202  30.293  29.415  1.00  0.00     0.039 A 
ATOM     32  C   UNL A   1      37.385  29.280  30.363  1.00  0.00     0.014 A 
ATOM     33  C   UNL A   1      37.890  30.278  28.204  1.00  0.00     0.014 A 
ATOM     34  C   UNL A   1      38.442  28.393  30.204  1.00  0.00     0.010 A 
ATOM     35  C   UNL A   1      38.996  29.458  28.092  1.00  0.00     0.010 A 
ATOM     36  C   UNL A   1      39.314  28.571  29.128  1.00  0.00    -0.014 A 
BRANCH  36  37
ATOM     37  C   UNL A   1      40.654  27.993  29.111  1.00  0.00     0.031 A 
ATOM     38  C   UNL A   1      40.869  26.604  28.667  1.00  0.00     0.074 A 
ATOM     39  C   UNL A   1      41.711  28.739  29.499  1.00  0.00     0.049 A 
ATOM     40  N   UNL A   1      41.854  25.862  29.044  1.00  0.00    -0.248 NA
ATOM     41  C   UNL A   1      39.935  25.919  27.784  1.00  0.00     0.031 C 
ATOM     42  C   UNL A   1      43.129  28.418  29.356  1.00  0.00     0.029 A 
ATOM     43  N   UNL A   1      41.687  29.842  30.350  1.00  0.00    -0.354 N 
ATOM     44  C   UNL A   1      41.851  24.732  28.260  1.00  0.00     0.074 A 
ATOM     45  C   UNL A   1      40.599  24.787  27.539  1.00  0.00     0.031 C 
ATOM     46  C   UNL A   1      43.822  29.113  30.272  1.00  0.00     0.029 A 
ATOM     47  C   UNL A   1      42.860  29.794  31.121  1.00  0.00     0.049 A 
ATOM     48  H   UNL A   1      40.980  30.527  30.401  1.00  0.00     0.167 HD
ATOM     49  C   UNL A   1      42.967  23.949  28.203  1.00  0.00     0.034 A 
ATOM     50  C   UNL A   1      42.799  29.685  32.478  1.00  0.00     0.034 A 
ATOM     51  C   UNL A   1      44.001  24.408  29.132  1.00  0.00     0.049 A 
ATOM     52  C   UNL A   1      43.457  28.436  33.023  1.00  0.00     0.074 A 
ATOM     53  C   UNL A   1      45.173  25.130  28.968  1.00  0.00     0.029 A 
ATOM     54  N   UNL A   1      43.758  24.373  30.503  1.00  0.00    -0.354 N 
ATOM     55  N   UNL A   1      43.790  27.393  32.312  1.00  0.00    -0.248 NA
ATOM     56  C   UNL A   1      43.762  28.266  34.438  1.00  0.00     0.031 C 
ATOM     57  C   UNL A   1      45.607  25.568  30.249  1.00  0.00     0.029 A 
ATOM     58  C   UNL A   1      44.716  25.090  31.196  1.00  0.00     0.049 A 
ATOM     59  H   UNL A   1      43.002  23.902  30.923  1.00  0.00     0.167 HD
ATOM     60  C   UNL A   1      44.305  26.416  33.134  1.00  0.00     0.074 A 
ATOM     61  C   UNL A   1      44.298  27.035  34.450  1.00  0.00     0.031 C 
ATOM     62  C   UNL A   1      44.670  25.184  32.654  1.00  0.00     0.034 A 
BRANCH  49  63
ATOM     63  C   UNL A   1      43.224  22.969  27.075  1.00  0.00     0.023 A 
ATOM     64  C   UNL A   1      42.722  21.653  27.164  1.00  0.00     0.031 A 
ATOM     65  C   UNL A   1      43.999  23.238  25.930  1.00  0.00     0.131 A 
ATOM     66  C   UNL A   1      43.094  20.659  26.237  1.00  0.00     0.055 A 
ATOM     67  C   UNL A   1      44.429  22.237  25.047  1.00  0.00     0.041 A 
ATOM     68  F   UNL A   1      44.327  24.490  25.584  1.00  0.00    -0.206 F 
ATOM     69  C   UNL A   1      43.990  20.933  25.209  1.00  0.00     0.022 A 
BRANCH  66  70
ATOM     70  S   UNL A   1      42.379  18.998  26.383  1.00  0.00     0.124 S 
ATOM     71  O   UNL A   1      42.316  18.812  27.829  1.00  0.00    -0.237 OA
ATOM     72  O   UNL A   1      41.102  19.151  25.693  1.00  0.00    -0.237 OA
ATOM     73  O   UNL A   1      43.351  18.149  25.695  1.00  0.00    -0.744 OA
ENDBRANCH  66  70
ENDBRANCH  49  63
BRANCH  50  74
ATOM     74  C   UNL A   1      41.620  30.368  33.083  1.00  0.00     0.023 A 
ATOM     75  C   UNL A   1      41.653  31.776  33.190  1.00  0.00     0.031 A 
ATOM     76  C   UNL A   1      40.379  29.730  33.212  1.00  0.00     0.131 A 
ATOM     77  C   UNL A   1      40.460  32.506  33.286  1.00  0.00     0.055 A 
ATOM     78  C   UNL A   1      39.194  30.462  33.348  1.00  0.00     0.041 A 
ATOM     79  F   UNL A   1      40.280  28.398  33.086  1.00  0.00    -0.206 F 
ATOM     80  C   UNL A   1      39.226  31.856  33.344  1.00  0.00     0.022 A 
BRANCH  77  81
ATOM     81  S   UNL A   1      40.486  34.313  33.112  1.00  0.00     0.124 S 
ATOM     82  O   UNL A   1      39.065  34.639  33.061  1.00  0.00    -0.237 OA
ATOM     83  O   UNL A   1      41.191  34.758  34.311  1.00  0.00    -0.237 OA
ATOM     84  O   UNL A   1      41.225  34.507  31.865  1.00  0.00    -0.744 OA
ENDBRANCH  77  81
ENDBRANCH  50  74
BRANCH  62  85
ATOM     85  C   UNL A   1      45.087  23.968  33.477  1.00  0.00     0.023 A 
ATOM     86  C   UNL A   1      46.387  23.742  33.951  1.00  0.00     0.031 A 
ATOM     87  C   UNL A   1      44.138  22.983  33.860  1.00  0.00     0.131 A 
ATOM     88  C   UNL A   1      46.722  22.584  34.685  1.00  0.00     0.055 A 
ATOM     89  C   UNL A   1      44.457  21.866  34.644  1.00  0.00     0.041 A 
ATOM     90  F   UNL A   1      42.849  23.060  33.503  1.00  0.00    -0.206 F 
ATOM     91  C   UNL A   1      45.761  21.652  35.051  1.00  0.00     0.022 A 
BRANCH  88  92
ATOM     92  S   UNL A   1      48.465  22.312  35.106  1.00  0.00     0.124 S 
ATOM     93  O   UNL A   1      48.541  22.872  36.453  1.00  0.00    -0.237 OA
ATOM     94  O   UNL A   1      48.584  20.860  35.018  1.00  0.00    -0.237 OA
ATOM     95  O   UNL A   1      49.190  23.058  34.080  1.00  0.00    -0.744 OA
ENDBRANCH  88  92
ENDBRANCH  62  85
ENDBRANCH  36  37
ENDBRANCH  28  31
ENDBRANCH  26  27
ENDBRANCH  25  26
ENDBRANCH  24  25
ENDBRANCH   1  24
TORSDOF 21
ENDMDL
