MODEL 1
REMARK VINA RESULT:     -12.4      0.000      0.000
REMARK SMILES C[C@@H](C(=O)NCCCCCCNC(=O)c1ccc(-c2c3nc(c(-c4cc(S(=O)(=O)[O-])ccc4F)c4ccc([nH]4)c(-c4cc(S(=O)(=O)[O-])ccc4F)c4nc(c(-c5cc(S(=O)(=O)[O-])ccc5F)c5ccc2[nH]5)C=C4)C=C3)cc1)N1C(=O)/C(=C/c2ccc(F)cc2)SC1=S
REMARK SMILES IDX 9 1 8 2 7 3 6 4 5 5 3 6 4 7 2 9 1 10 78 11 79 12 91 13 80 14
REMARK SMILES IDX 81 15 90 16 92 17 82 18 83 19 84 20 89 21 85 22 88 23 86 24
REMARK SMILES IDX 87 25 10 26 11 27 12 28 13 29 14 31 15 32 16 33 77 34 17 35
REMARK SMILES IDX 76 36 18 37 19 38 20 39 70 40 21 41 75 42 69 43 71 44 22 45
REMARK SMILES IDX 74 46 68 47 67 48 23 50 55 51 35 52 54 53 36 54 39 55 53 56
REMARK SMILES IDX 72 57 37 58 38 59 52 61 73 62 40 63 24 64 25 65 33 66 26 67
REMARK SMILES IDX 32 68 34 69 31 70 27 71 28 72 29 73 30 74 56 75 57 76 65 77
REMARK SMILES IDX 58 78 64 79 66 80 63 81 59 82 60 83 61 84 62 85 41 86 42 87
REMARK SMILES IDX 50 88 43 89 49 90 51 91 48 92 44 93 45 94 46 95 47 96
REMARK H PARENT 5 8 12 30 71 49 39 60
REMARK Flexibility Score: inf
ROOT
ATOM      1  C   UNL A   1      36.243  23.167  23.891  1.00  0.00     0.002 C 
ENDROOT
BRANCH   1   2
ATOM      2  C   UNL A   1      35.176  23.474  24.948  1.00  0.00     0.002 C 
BRANCH   2   3
ATOM      3  C   UNL A   1      35.273  24.862  25.599  1.00  0.00     0.021 C 
BRANCH   3   4
ATOM      4  C   UNL A   1      34.237  25.865  25.093  1.00  0.00     0.116 C 
BRANCH   4   5
ATOM      5  N   UNL A   1      33.154  26.027  26.042  1.00  0.00    -0.354 N 
ATOM      6  C   UNL A   1      31.805  25.947  25.872  1.00  0.00     0.242 C 
ATOM      7  O   UNL A   1      31.117  26.002  26.896  1.00  0.00    -0.273 OA
ATOM      8  H   UNL A   1      33.441  26.230  26.962  1.00  0.00     0.163 HD
BRANCH   6   9
ATOM      9  C   UNL A   1      31.182  25.704  24.478  1.00  0.00     0.178 C 
ATOM     10  C   UNL A   1      29.671  25.868  24.329  1.00  0.00     0.042 C 
BRANCH   9  11
ATOM     11  N   UNL A   1      31.635  24.388  23.968  1.00  0.00    -0.281 N 
ATOM     12  C   UNL A   1      31.394  23.270  24.752  1.00  0.00     0.266 C 
ATOM     13  C   UNL A   1      32.280  24.162  22.763  1.00  0.00     0.149 C 
ATOM     14  O   UNL A   1      30.823  23.249  25.833  1.00  0.00    -0.268 OA
ATOM     15  C   UNL A   1      31.990  22.061  24.128  1.00  0.00     0.081 C 
ATOM     16  S   UNL A   1      32.606  22.443  22.575  1.00  0.00    -0.054 SA
ATOM     17  S   UNL A   1      32.772  25.241  21.586  1.00  0.00    -0.052 S 
ATOM     18  C   UNL A   1      32.048  20.883  24.767  1.00  0.00     0.029 C 
BRANCH  18  19
ATOM     19  C   UNL A   1      32.692  19.670  24.250  1.00  0.00    -0.024 A 
ATOM     20  C   UNL A   1      33.938  19.280  24.753  1.00  0.00     0.011 A 
ATOM     21  C   UNL A   1      32.080  18.900  23.248  1.00  0.00     0.011 A 
ATOM     22  C   UNL A   1      34.548  18.113  24.285  1.00  0.00     0.040 A 
ATOM     23  C   UNL A   1      32.688  17.731  22.787  1.00  0.00     0.040 A 
ATOM     24  C   UNL A   1      33.914  17.347  23.314  1.00  0.00     0.123 A 
ATOM     25  F   UNL A   1      34.494  16.221  22.878  1.00  0.00    -0.207 F 
ENDBRANCH  18  19
ENDBRANCH   9  11
ENDBRANCH   6   9
ENDBRANCH   4   5
ENDBRANCH   3   4
ENDBRANCH   2   3
ENDBRANCH   1   2
BRANCH   1  26
ATOM     26  C   UNL A   1      37.012  21.859  24.100  1.00  0.00     0.021 C 
BRANCH  26  27
ATOM     27  C   UNL A   1      37.180  21.441  25.558  1.00  0.00     0.116 C 
BRANCH  27  28
ATOM     28  N   UNL A   1      38.236  20.455  25.727  1.00  0.00    -0.352 N 
ATOM     29  C   UNL A   1      39.533  20.629  26.151  1.00  0.00     0.251 C 
ATOM     30  H   UNL A   1      37.987  19.529  25.506  1.00  0.00     0.163 HD
ATOM     31  O   UNL A   1      40.340  19.710  26.041  1.00  0.00    -0.269 OA
BRANCH  29  32
ATOM     32  C   UNL A   1      39.958  21.931  26.710  1.00  0.00     0.039 A 
ATOM     33  C   UNL A   1      40.900  21.950  27.741  1.00  0.00     0.014 A 
ATOM     34  C   UNL A   1      39.443  23.130  26.206  1.00  0.00     0.014 A 
ATOM     35  C   UNL A   1      41.395  23.172  28.205  1.00  0.00     0.010 A 
ATOM     36  C   UNL A   1      39.982  24.345  26.627  1.00  0.00     0.010 A 
ATOM     37  C   UNL A   1      40.978  24.377  27.616  1.00  0.00    -0.014 A 
BRANCH  37  38
ATOM     38  C   UNL A   1      41.620  25.673  27.969  1.00  0.00     0.031 A 
ATOM     39  C   UNL A   1      40.833  26.749  28.667  1.00  0.00     0.074 A 
ATOM     40  C   UNL A   1      42.889  25.905  27.576  1.00  0.00     0.049 A 
ATOM     41  N   UNL A   1      41.192  27.972  28.959  1.00  0.00    -0.248 NA
ATOM     42  C   UNL A   1      39.458  26.414  29.068  1.00  0.00     0.031 C 
ATOM     43  C   UNL A   1      43.739  24.949  26.859  1.00  0.00     0.029 A 
ATOM     44  N   UNL A   1      43.685  27.019  27.701  1.00  0.00    -0.354 N 
ATOM     45  C   UNL A   1      40.085  28.561  29.560  1.00  0.00     0.074 A 
ATOM     46  C   UNL A   1      39.031  27.569  29.561  1.00  0.00     0.031 C 
ATOM     47  C   UNL A   1      44.931  25.516  26.614  1.00  0.00     0.029 A 
ATOM     48  C   UNL A   1      44.919  26.890  27.102  1.00  0.00     0.049 A 
ATOM     49  H   UNL A   1      43.399  27.834  28.173  1.00  0.00     0.167 HD
ATOM     50  C   UNL A   1      39.967  29.811  30.070  1.00  0.00     0.034 A 
ATOM     51  C   UNL A   1      45.914  27.784  26.934  1.00  0.00     0.034 A 
ATOM     52  C   UNL A   1      41.036  30.779  30.083  1.00  0.00     0.049 A 
ATOM     53  C   UNL A   1      45.737  29.180  27.482  1.00  0.00     0.074 A 
ATOM     54  C   UNL A   1      41.052  32.033  30.671  1.00  0.00     0.029 A 
ATOM     55  N   UNL A   1      42.267  30.617  29.462  1.00  0.00    -0.354 N 
ATOM     56  N   UNL A   1      44.714  29.686  28.133  1.00  0.00    -0.248 NA
ATOM     57  C   UNL A   1      46.844  30.123  27.276  1.00  0.00     0.031 C 
ATOM     58  C   UNL A   1      42.255  32.659  30.336  1.00  0.00     0.029 A 
ATOM     59  C   UNL A   1      43.025  31.769  29.605  1.00  0.00     0.049 A 
ATOM     60  H   UNL A   1      42.559  29.804  28.990  1.00  0.00     0.167 HD
ATOM     61  C   UNL A   1      45.068  30.999  28.430  1.00  0.00     0.074 A 
ATOM     62  C   UNL A   1      46.405  31.198  27.914  1.00  0.00     0.031 C 
ATOM     63  C   UNL A   1      44.352  31.957  29.069  1.00  0.00     0.034 A 
BRANCH  50  64
ATOM     64  C   UNL A   1      38.631  30.229  30.632  1.00  0.00     0.023 A 
ATOM     65  C   UNL A   1      37.671  30.897  29.854  1.00  0.00     0.031 A 
ATOM     66  C   UNL A   1      38.298  29.909  31.961  1.00  0.00     0.131 A 
ATOM     67  C   UNL A   1      36.439  31.256  30.422  1.00  0.00     0.055 A 
ATOM     68  C   UNL A   1      37.047  30.211  32.501  1.00  0.00     0.041 A 
ATOM     69  F   UNL A   1      39.184  29.287  32.756  1.00  0.00    -0.206 F 
ATOM     70  C   UNL A   1      36.111  30.894  31.731  1.00  0.00     0.022 A 
BRANCH  67  71
ATOM     71  S   UNL A   1      35.299  32.280  29.452  1.00  0.00     0.124 S 
ATOM     72  O   UNL A   1      34.350  32.715  30.475  1.00  0.00    -0.237 OA
ATOM     73  O   UNL A   1      36.179  33.313  28.918  1.00  0.00    -0.237 OA
ATOM     74  O   UNL A   1      34.757  31.349  28.464  1.00  0.00    -0.744 OA
ENDBRANCH  67  71
ENDBRANCH  50  64
BRANCH  51  75
ATOM     75  C   UNL A   1      47.146  27.424  26.171  1.00  0.00     0.023 A 
ATOM     76  C   UNL A   1      47.310  27.815  24.833  1.00  0.00     0.031 A 
ATOM     77  C   UNL A   1      48.141  26.609  26.743  1.00  0.00     0.131 A 
ATOM     78  C   UNL A   1      48.403  27.337  24.093  1.00  0.00     0.055 A 
ATOM     79  C   UNL A   1      49.261  26.193  26.022  1.00  0.00     0.041 A 
ATOM     80  F   UNL A   1      48.036  26.202  28.018  1.00  0.00    -0.206 F 
ATOM     81  C   UNL A   1      49.387  26.540  24.681  1.00  0.00     0.022 A 
BRANCH  78  82
ATOM     82  S   UNL A   1      48.447  27.661  22.307  1.00  0.00     0.124 S 
ATOM     83  O   UNL A   1      48.589  26.314  21.765  1.00  0.00    -0.237 OA
ATOM     84  O   UNL A   1      47.160  28.310  22.087  1.00  0.00    -0.237 OA
ATOM     85  O   UNL A   1      49.615  28.524  22.148  1.00  0.00    -0.744 OA
ENDBRANCH  78  82
ENDBRANCH  51  75
BRANCH  63  86
ATOM     86  C   UNL A   1      45.015  33.299  29.260  1.00  0.00     0.023 A 
ATOM     87  C   UNL A   1      44.764  34.371  28.387  1.00  0.00     0.031 A 
ATOM     88  C   UNL A   1      45.908  33.506  30.325  1.00  0.00     0.131 A 
ATOM     89  C   UNL A   1      45.435  35.590  28.567  1.00  0.00     0.055 A 
ATOM     90  C   UNL A   1      46.526  34.740  30.535  1.00  0.00     0.041 A 
ATOM     91  F   UNL A   1      46.187  32.514  31.187  1.00  0.00    -0.206 F 
ATOM     92  C   UNL A   1      46.299  35.787  29.647  1.00  0.00     0.022 A 
BRANCH  89  93
ATOM     93  S   UNL A   1      45.217  36.895  27.327  1.00  0.00     0.124 S 
ATOM     94  O   UNL A   1      43.925  36.547  26.745  1.00  0.00    -0.237 OA
ATOM     95  O   UNL A   1      45.243  38.108  28.139  1.00  0.00    -0.237 OA
ATOM     96  O   UNL A   1      46.366  36.720  26.440  1.00  0.00    -0.744 OA
ENDBRANCH  89  93
ENDBRANCH  63  86
ENDBRANCH  37  38
ENDBRANCH  29  32
ENDBRANCH  27  28
ENDBRANCH  26  27
ENDBRANCH   1  26
TORSDOF 18
ENDMDL
MODEL 2
REMARK VINA RESULT:     -12.3      5.414     10.403
REMARK SMILES C[C@@H](C(=O)NCCCCCCNC(=O)c1ccc(-c2c3nc(c(-c4cc(S(=O)(=O)[O-])ccc4F)c4ccc([nH]4)c(-c4cc(S(=O)(=O)[O-])ccc4F)c4nc(c(-c5cc(S(=O)(=O)[O-])ccc5F)c5ccc2[nH]5)C=C4)C=C3)cc1)N1C(=O)/C(=C/c2ccc(F)cc2)SC1=S
REMARK SMILES IDX 9 1 8 2 7 3 6 4 5 5 3 6 4 7 2 9 1 10 78 11 79 12 91 13 80 14
REMARK SMILES IDX 81 15 90 16 92 17 82 18 83 19 84 20 89 21 85 22 88 23 86 24
REMARK SMILES IDX 87 25 10 26 11 27 12 28 13 29 14 31 15 32 16 33 77 34 17 35
REMARK SMILES IDX 76 36 18 37 19 38 20 39 70 40 21 41 75 42 69 43 71 44 22 45
REMARK SMILES IDX 74 46 68 47 67 48 23 50 55 51 35 52 54 53 36 54 39 55 53 56
REMARK SMILES IDX 72 57 37 58 38 59 52 61 73 62 40 63 24 64 25 65 33 66 26 67
REMARK SMILES IDX 32 68 34 69 31 70 27 71 28 72 29 73 30 74 56 75 57 76 65 77
REMARK SMILES IDX 58 78 64 79 66 80 63 81 59 82 60 83 61 84 62 85 41 86 42 87
REMARK SMILES IDX 50 88 43 89 49 90 51 91 48 92 44 93 45 94 46 95 47 96
REMARK H PARENT 5 8 12 30 71 49 39 60
REMARK Flexibility Score: inf
ROOT
ATOM      1  C   UNL A   1      32.335  28.134  27.107  1.00  0.00     0.002 C 
ENDROOT
BRANCH   1   2
ATOM      2  C   UNL A   1      32.817  27.539  25.780  1.00  0.00     0.002 C 
BRANCH   2   3
ATOM      3  C   UNL A   1      34.146  26.771  25.847  1.00  0.00     0.021 C 
BRANCH   3   4
ATOM      4  C   UNL A   1      33.996  25.251  25.783  1.00  0.00     0.116 C 
BRANCH   4   5
ATOM      5  N   UNL A   1      34.547  24.718  24.554  1.00  0.00    -0.354 N 
ATOM      6  C   UNL A   1      34.008  23.874  23.632  1.00  0.00     0.242 C 
ATOM      7  O   UNL A   1      34.666  23.688  22.603  1.00  0.00    -0.273 OA
ATOM      8  H   UNL A   1      35.464  25.014  24.352  1.00  0.00     0.163 HD
BRANCH   6   9
ATOM      9  C   UNL A   1      32.602  23.259  23.827  1.00  0.00     0.178 C 
ATOM     10  C   UNL A   1      32.130  22.213  22.819  1.00  0.00     0.042 C 
BRANCH   9  11
ATOM     11  N   UNL A   1      31.612  24.351  23.975  1.00  0.00    -0.281 N 
ATOM     12  C   UNL A   1      31.513  25.282  22.952  1.00  0.00     0.266 C 
ATOM     13  C   UNL A   1      30.757  24.532  25.050  1.00  0.00     0.149 C 
ATOM     14  O   UNL A   1      32.158  25.290  21.913  1.00  0.00    -0.268 OA
ATOM     15  C   UNL A   1      30.540  26.345  23.310  1.00  0.00     0.081 C 
ATOM     16  S   UNL A   1      29.749  25.949  24.778  1.00  0.00    -0.054 SA
ATOM     17  S   UNL A   1      30.608  23.659  26.466  1.00  0.00    -0.052 S 
ATOM     18  C   UNL A   1      30.389  27.453  22.570  1.00  0.00     0.029 C 
BRANCH  18  19
ATOM     19  C   UNL A   1      29.509  28.580  22.901  1.00  0.00    -0.024 A 
ATOM     20  C   UNL A   1      30.061  29.763  23.404  1.00  0.00     0.011 A 
ATOM     21  C   UNL A   1      28.119  28.483  22.732  1.00  0.00     0.011 A 
ATOM     22  C   UNL A   1      29.235  30.851  23.699  1.00  0.00     0.040 A 
ATOM     23  C   UNL A   1      27.297  29.573  23.021  1.00  0.00     0.040 A 
ATOM     24  C   UNL A   1      27.863  30.748  23.497  1.00  0.00     0.123 A 
ATOM     25  F   UNL A   1      27.076  31.798  23.767  1.00  0.00    -0.207 F 
ENDBRANCH  18  19
ENDBRANCH   9  11
ENDBRANCH   6   9
ENDBRANCH   4   5
ENDBRANCH   3   4
ENDBRANCH   2   3
ENDBRANCH   1   2
BRANCH   1  26
ATOM     26  C   UNL A   1      31.703  29.526  27.008  1.00  0.00     0.021 C 
BRANCH  26  27
ATOM     27  C   UNL A   1      32.467  30.514  26.130  1.00  0.00     0.116 C 
BRANCH  27  28
ATOM     28  N   UNL A   1      32.278  31.890  26.563  1.00  0.00    -0.352 N 
ATOM     29  C   UNL A   1      33.033  32.644  27.430  1.00  0.00     0.251 C 
ATOM     30  H   UNL A   1      31.496  32.349  26.179  1.00  0.00     0.163 HD
ATOM     31  O   UNL A   1      32.608  33.724  27.830  1.00  0.00    -0.269 OA
BRANCH  29  32
ATOM     32  C   UNL A   1      34.340  32.137  27.903  1.00  0.00     0.039 A 
ATOM     33  C   UNL A   1      35.434  33.006  27.929  1.00  0.00     0.014 A 
ATOM     34  C   UNL A   1      34.483  30.815  28.334  1.00  0.00     0.014 A 
ATOM     35  C   UNL A   1      36.647  32.576  28.474  1.00  0.00     0.010 A 
ATOM     36  C   UNL A   1      35.675  30.407  28.933  1.00  0.00     0.010 A 
ATOM     37  C   UNL A   1      36.762  31.290  29.028  1.00  0.00    -0.014 A 
BRANCH  37  38
ATOM     38  C   UNL A   1      37.983  30.875  29.770  1.00  0.00     0.031 A 
ATOM     39  C   UNL A   1      38.932  29.869  29.176  1.00  0.00     0.074 A 
ATOM     40  C   UNL A   1      38.181  31.341  31.020  1.00  0.00     0.049 A 
ATOM     41  N   UNL A   1      39.985  29.313  29.716  1.00  0.00    -0.248 NA
ATOM     42  C   UNL A   1      38.648  29.414  27.806  1.00  0.00     0.031 C 
ATOM     43  C   UNL A   1      37.307  32.291  31.716  1.00  0.00     0.029 A 
ATOM     44  N   UNL A   1      39.164  31.069  31.941  1.00  0.00    -0.354 N 
ATOM     45  C   UNL A   1      40.479  28.429  28.764  1.00  0.00     0.074 A 
ATOM     46  C   UNL A   1      39.592  28.500  27.623  1.00  0.00     0.031 C 
ATOM     47  C   UNL A   1      37.795  32.523  32.944  1.00  0.00     0.029 A 
ATOM     48  C   UNL A   1      38.982  31.701  33.151  1.00  0.00     0.049 A 
ATOM     49  H   UNL A   1      39.928  30.476  31.753  1.00  0.00     0.167 HD
ATOM     50  C   UNL A   1      41.578  27.639  28.836  1.00  0.00     0.034 A 
ATOM     51  C   UNL A   1      39.670  31.606  34.307  1.00  0.00     0.034 A 
ATOM     52  C   UNL A   1      42.467  27.599  29.972  1.00  0.00     0.049 A 
ATOM     53  C   UNL A   1      40.868  30.690  34.366  1.00  0.00     0.074 A 
ATOM     54  C   UNL A   1      43.665  26.915  30.101  1.00  0.00     0.029 A 
ATOM     55  N   UNL A   1      42.248  28.245  31.180  1.00  0.00    -0.354 N 
ATOM     56  N   UNL A   1      41.374  29.933  33.418  1.00  0.00    -0.248 NA
ATOM     57  C   UNL A   1      41.589  30.614  35.644  1.00  0.00     0.031 C 
ATOM     58  C   UNL A   1      44.124  27.079  31.410  1.00  0.00     0.029 A 
ATOM     59  C   UNL A   1      43.257  27.929  32.077  1.00  0.00     0.049 A 
ATOM     60  H   UNL A   1      41.488  28.841  31.373  1.00  0.00     0.167 HD
ATOM     61  C   UNL A   1      42.484  29.311  33.985  1.00  0.00     0.074 A 
ATOM     62  C   UNL A   1      42.589  29.800  35.343  1.00  0.00     0.031 C 
ATOM     63  C   UNL A   1      43.338  28.413  33.434  1.00  0.00     0.034 A 
BRANCH  50  64
ATOM     64  C   UNL A   1      41.878  26.726  27.674  1.00  0.00     0.023 A 
ATOM     65  C   UNL A   1      41.505  25.371  27.676  1.00  0.00     0.031 A 
ATOM     66  C   UNL A   1      42.509  27.236  26.524  1.00  0.00     0.131 A 
ATOM     67  C   UNL A   1      41.798  24.565  26.564  1.00  0.00     0.055 A 
ATOM     68  C   UNL A   1      42.740  26.446  25.398  1.00  0.00     0.041 A 
ATOM     69  F   UNL A   1      42.904  28.518  26.476  1.00  0.00    -0.206 F 
ATOM     70  C   UNL A   1      42.390  25.099  25.416  1.00  0.00     0.022 A 
BRANCH  67  71
ATOM     71  S   UNL A   1      41.474  22.784  26.671  1.00  0.00     0.124 S 
ATOM     72  O   UNL A   1      42.086  22.298  25.437  1.00  0.00    -0.237 OA
ATOM     73  O   UNL A   1      42.152  22.414  27.908  1.00  0.00    -0.237 OA
ATOM     74  O   UNL A   1      40.016  22.702  26.711  1.00  0.00    -0.744 OA
ENDBRANCH  67  71
ENDBRANCH  50  64
BRANCH  51  75
ATOM     75  C   UNL A   1      39.226  32.346  35.526  1.00  0.00     0.023 A 
ATOM     76  C   UNL A   1      39.683  33.646  35.791  1.00  0.00     0.031 A 
ATOM     77  C   UNL A   1      38.405  31.730  36.489  1.00  0.00     0.131 A 
ATOM     78  C   UNL A   1      39.375  34.261  37.014  1.00  0.00     0.055 A 
ATOM     79  C   UNL A   1      38.045  32.373  37.675  1.00  0.00     0.041 A 
ATOM     80  F   UNL A   1      37.940  30.486  36.292  1.00  0.00    -0.206 F 
ATOM     81  C   UNL A   1      38.547  33.641  37.952  1.00  0.00     0.022 A 
BRANCH  78  82
ATOM     82  S   UNL A   1      40.185  35.834  37.421  1.00  0.00     0.124 S 
ATOM     83  O   UNL A   1      41.595  35.472  37.332  1.00  0.00    -0.237 OA
ATOM     84  O   UNL A   1      39.680  36.713  36.373  1.00  0.00    -0.237 OA
ATOM     85  O   UNL A   1      39.699  36.127  38.768  1.00  0.00    -0.744 OA
ENDBRANCH  78  82
ENDBRANCH  51  75
BRANCH  63  86
ATOM     86  C   UNL A   1      44.471  27.921  34.301  1.00  0.00     0.023 A 
ATOM     87  C   UNL A   1      44.346  26.756  35.078  1.00  0.00     0.031 A 
ATOM     88  C   UNL A   1      45.686  28.624  34.350  1.00  0.00     0.131 A 
ATOM     89  C   UNL A   1      45.403  26.355  35.908  1.00  0.00     0.055 A 
ATOM     90  C   UNL A   1      46.757  28.186  35.132  1.00  0.00     0.041 A 
ATOM     91  F   UNL A   1      45.858  29.745  33.630  1.00  0.00    -0.206 F 
ATOM     92  C   UNL A   1      46.615  27.052  35.925  1.00  0.00     0.022 A 
BRANCH  89  93
ATOM     93  S   UNL A   1      45.148  24.948  37.023  1.00  0.00     0.124 S 
ATOM     94  O   UNL A   1      43.912  25.320  37.703  1.00  0.00    -0.237 OA
ATOM     95  O   UNL A   1      45.052  23.824  36.096  1.00  0.00    -0.237 OA
ATOM     96  O   UNL A   1      46.345  24.955  37.864  1.00  0.00    -0.744 OA
ENDBRANCH  89  93
ENDBRANCH  63  86
ENDBRANCH  37  38
ENDBRANCH  29  32
ENDBRANCH  27  28
ENDBRANCH  26  27
ENDBRANCH   1  26
TORSDOF 18
ENDMDL
MODEL 3
REMARK VINA RESULT:     -12.3      5.063      9.736
REMARK SMILES C[C@@H](C(=O)NCCCCCCNC(=O)c1ccc(-c2c3nc(c(-c4cc(S(=O)(=O)[O-])ccc4F)c4ccc([nH]4)c(-c4cc(S(=O)(=O)[O-])ccc4F)c4nc(c(-c5cc(S(=O)(=O)[O-])ccc5F)c5ccc2[nH]5)C=C4)C=C3)cc1)N1C(=O)/C(=C/c2ccc(F)cc2)SC1=S
REMARK SMILES IDX 9 1 8 2 7 3 6 4 5 5 3 6 4 7 2 9 1 10 78 11 79 12 91 13 80 14
REMARK SMILES IDX 81 15 90 16 92 17 82 18 83 19 84 20 89 21 85 22 88 23 86 24
REMARK SMILES IDX 87 25 10 26 11 27 12 28 13 29 14 31 15 32 16 33 77 34 17 35
REMARK SMILES IDX 76 36 18 37 19 38 20 39 70 40 21 41 75 42 69 43 71 44 22 45
REMARK SMILES IDX 74 46 68 47 67 48 23 50 55 51 35 52 54 53 36 54 39 55 53 56
REMARK SMILES IDX 72 57 37 58 38 59 52 61 73 62 40 63 24 64 25 65 33 66 26 67
REMARK SMILES IDX 32 68 34 69 31 70 27 71 28 72 29 73 30 74 56 75 57 76 65 77
REMARK SMILES IDX 58 78 64 79 66 80 63 81 59 82 60 83 61 84 62 85 41 86 42 87
REMARK SMILES IDX 50 88 43 89 49 90 51 91 48 92 44 93 45 94 46 95 47 96
REMARK H PARENT 5 8 12 30 71 49 39 60
REMARK Flexibility Score: inf
ROOT
ATOM      1  C   UNL A   1      32.971  29.118  24.672  1.00  0.00     0.002 C 
ENDROOT
BRANCH   1   2
ATOM      2  C   UNL A   1      32.758  28.682  23.218  1.00  0.00     0.002 C 
BRANCH   2   3
ATOM      3  C   UNL A   1      31.351  28.164  22.885  1.00  0.00     0.021 C 
BRANCH   3   4
ATOM      4  C   UNL A   1      31.336  26.830  22.137  1.00  0.00     0.116 C 
BRANCH   4   5
ATOM      5  N   UNL A   1      32.669  26.275  22.024  1.00  0.00    -0.354 N 
ATOM      6  C   UNL A   1      33.312  25.346  22.785  1.00  0.00     0.242 C 
ATOM      7  O   UNL A   1      34.412  24.962  22.374  1.00  0.00    -0.273 OA
ATOM      8  H   UNL A   1      33.199  26.628  21.273  1.00  0.00     0.163 HD
BRANCH   6   9
ATOM      9  C   UNL A   1      32.650  24.739  24.044  1.00  0.00     0.178 C 
ATOM     10  C   UNL A   1      32.733  25.528  25.349  1.00  0.00     0.042 C 
BRANCH   9  11
ATOM     11  N   UNL A   1      33.133  23.349  24.222  1.00  0.00    -0.281 N 
ATOM     12  C   UNL A   1      32.369  22.323  23.688  1.00  0.00     0.266 C 
ATOM     13  C   UNL A   1      34.294  22.971  24.876  1.00  0.00     0.149 C 
ATOM     14  O   UNL A   1      31.327  22.444  23.059  1.00  0.00    -0.268 OA
ATOM     15  C   UNL A   1      32.956  21.004  24.038  1.00  0.00     0.081 C 
ATOM     16  S   UNL A   1      34.464  21.220  24.821  1.00  0.00    -0.054 SA
ATOM     17  S   UNL A   1      35.434  23.898  25.670  1.00  0.00    -0.052 S 
ATOM     18  C   UNL A   1      32.316  19.851  23.790  1.00  0.00     0.029 C 
BRANCH  18  19
ATOM     19  C   UNL A   1      32.793  18.519  24.178  1.00  0.00    -0.024 A 
ATOM     20  C   UNL A   1      32.552  18.047  25.473  1.00  0.00     0.011 A 
ATOM     21  C   UNL A   1      33.500  17.713  23.271  1.00  0.00     0.011 A 
ATOM     22  C   UNL A   1      32.980  16.770  25.845  1.00  0.00     0.040 A 
ATOM     23  C   UNL A   1      33.920  16.435  23.642  1.00  0.00     0.040 A 
ATOM     24  C   UNL A   1      33.652  15.975  24.924  1.00  0.00     0.123 A 
ATOM     25  F   UNL A   1      34.048  14.745  25.278  1.00  0.00    -0.207 F 
ENDBRANCH  18  19
ENDBRANCH   9  11
ENDBRANCH   6   9
ENDBRANCH   4   5
ENDBRANCH   3   4
ENDBRANCH   2   3
ENDBRANCH   1   2
BRANCH   1  26
ATOM     26  C   UNL A   1      31.803  29.881  25.303  1.00  0.00     0.021 C 
BRANCH  26  27
ATOM     27  C   UNL A   1      32.050  30.366  26.729  1.00  0.00     0.116 C 
BRANCH  27  28
ATOM     28  N   UNL A   1      31.981  31.815  26.835  1.00  0.00    -0.352 N 
ATOM     29  C   UNL A   1      32.858  32.691  27.431  1.00  0.00     0.251 C 
ATOM     30  H   UNL A   1      31.189  32.230  26.421  1.00  0.00     0.163 HD
ATOM     31  O   UNL A   1      32.534  33.863  27.596  1.00  0.00    -0.269 OA
BRANCH  29  32
ATOM     32  C   UNL A   1      34.177  32.209  27.897  1.00  0.00     0.039 A 
ATOM     33  C   UNL A   1      35.236  33.117  27.984  1.00  0.00     0.014 A 
ATOM     34  C   UNL A   1      34.364  30.873  28.263  1.00  0.00     0.014 A 
ATOM     35  C   UNL A   1      36.457  32.705  28.526  1.00  0.00     0.010 A 
ATOM     36  C   UNL A   1      35.563  30.480  28.859  1.00  0.00     0.010 A 
ATOM     37  C   UNL A   1      36.614  31.398  29.016  1.00  0.00    -0.014 A 
BRANCH  37  38
ATOM     38  C   UNL A   1      37.839  30.991  29.755  1.00  0.00     0.031 A 
ATOM     39  C   UNL A   1      38.776  29.966  29.174  1.00  0.00     0.074 A 
ATOM     40  C   UNL A   1      38.053  31.484  30.992  1.00  0.00     0.049 A 
ATOM     41  N   UNL A   1      39.831  29.415  29.716  1.00  0.00    -0.248 NA
ATOM     42  C   UNL A   1      38.476  29.483  27.817  1.00  0.00     0.031 C 
ATOM     43  C   UNL A   1      37.192  32.454  31.675  1.00  0.00     0.029 A 
ATOM     44  N   UNL A   1      39.044  31.226  31.909  1.00  0.00    -0.354 N 
ATOM     45  C   UNL A   1      40.311  28.507  28.779  1.00  0.00     0.074 A 
ATOM     46  C   UNL A   1      39.412  28.559  27.646  1.00  0.00     0.031 C 
ATOM     47  C   UNL A   1      37.694  32.710  32.893  1.00  0.00     0.029 A 
ATOM     48  C   UNL A   1      38.878  31.885  33.107  1.00  0.00     0.049 A 
ATOM     49  H   UNL A   1      39.802  30.624  31.727  1.00  0.00     0.167 HD
ATOM     50  C   UNL A   1      41.406  27.712  28.858  1.00  0.00     0.034 A 
ATOM     51  C   UNL A   1      39.576  31.811  34.258  1.00  0.00     0.034 A 
ATOM     52  C   UNL A   1      42.305  27.691  29.986  1.00  0.00     0.049 A 
ATOM     53  C   UNL A   1      40.770  30.889  34.325  1.00  0.00     0.074 A 
ATOM     54  C   UNL A   1      43.500  27.004  30.118  1.00  0.00     0.029 A 
ATOM     55  N   UNL A   1      42.102  28.366  31.181  1.00  0.00    -0.354 N 
ATOM     56  N   UNL A   1      41.261  30.109  33.390  1.00  0.00    -0.248 NA
ATOM     57  C   UNL A   1      41.502  30.837  35.598  1.00  0.00     0.031 C 
ATOM     58  C   UNL A   1      43.973  27.193  31.419  1.00  0.00     0.029 A 
ATOM     59  C   UNL A   1      43.118  28.064  32.075  1.00  0.00     0.049 A 
ATOM     60  H   UNL A   1      41.348  28.970  31.368  1.00  0.00     0.167 HD
ATOM     61  C   UNL A   1      42.373  29.492  33.959  1.00  0.00     0.074 A 
ATOM     62  C   UNL A   1      42.495  30.010  35.304  1.00  0.00     0.031 C 
ATOM     63  C   UNL A   1      43.216  28.576  33.420  1.00  0.00     0.034 A 
BRANCH  50  64
ATOM     64  C   UNL A   1      41.688  26.772  27.714  1.00  0.00     0.023 A 
ATOM     65  C   UNL A   1      41.242  25.440  27.717  1.00  0.00     0.031 A 
ATOM     66  C   UNL A   1      42.378  27.235  26.578  1.00  0.00     0.131 A 
ATOM     67  C   UNL A   1      41.523  24.606  26.622  1.00  0.00     0.055 A 
ATOM     68  C   UNL A   1      42.598  26.421  25.466  1.00  0.00     0.041 A 
ATOM     69  F   UNL A   1      42.843  28.493  26.529  1.00  0.00    -0.206 F 
ATOM     70  C   UNL A   1      42.175  25.096  25.487  1.00  0.00     0.022 A 
BRANCH  67  71
ATOM     71  S   UNL A   1      41.100  22.847  26.736  1.00  0.00     0.124 S 
ATOM     72  O   UNL A   1      41.477  22.541  28.115  1.00  0.00    -0.237 OA
ATOM     73  O   UNL A   1      39.669  22.847  26.451  1.00  0.00    -0.237 OA
ATOM     74  O   UNL A   1      41.940  22.225  25.715  1.00  0.00    -0.744 OA
ENDBRANCH  67  71
ENDBRANCH  50  64
BRANCH  51  75
ATOM     75  C   UNL A   1      39.149  32.581  35.465  1.00  0.00     0.023 A 
ATOM     76  C   UNL A   1      39.573  33.903  35.668  1.00  0.00     0.031 A 
ATOM     77  C   UNL A   1      38.381  31.976  36.476  1.00  0.00     0.131 A 
ATOM     78  C   UNL A   1      39.285  34.553  36.879  1.00  0.00     0.055 A 
ATOM     79  C   UNL A   1      38.039  32.650  37.650  1.00  0.00     0.041 A 
ATOM     80  F   UNL A   1      37.949  30.712  36.339  1.00  0.00    -0.206 F 
ATOM     81  C   UNL A   1      38.509  33.941  37.865  1.00  0.00     0.022 A 
BRANCH  78  82
ATOM     82  S   UNL A   1      40.057  36.164  37.202  1.00  0.00     0.124 S 
ATOM     83  O   UNL A   1      39.242  36.667  38.301  1.00  0.00    -0.237 OA
ATOM     84  O   UNL A   1      41.423  35.780  37.539  1.00  0.00    -0.237 OA
ATOM     85  O   UNL A   1      39.904  36.873  35.934  1.00  0.00    -0.744 OA
ENDBRANCH  78  82
ENDBRANCH  51  75
BRANCH  63  86
ATOM     86  C   UNL A   1      44.354  28.096  34.286  1.00  0.00     0.023 A 
ATOM     87  C   UNL A   1      44.245  26.927  35.058  1.00  0.00     0.031 A 
ATOM     88  C   UNL A   1      45.560  28.816  34.340  1.00  0.00     0.131 A 
ATOM     89  C   UNL A   1      45.306  26.537  35.889  1.00  0.00     0.055 A 
ATOM     90  C   UNL A   1      46.635  28.389  35.121  1.00  0.00     0.041 A 
ATOM     91  F   UNL A   1      45.717  29.942  33.625  1.00  0.00    -0.206 F 
ATOM     92  C   UNL A   1      46.507  27.250  35.910  1.00  0.00     0.022 A 
BRANCH  89  93
ATOM     93  S   UNL A   1      45.069  25.122  36.998  1.00  0.00     0.124 S 
ATOM     94  O   UNL A   1      46.053  24.172  36.491  1.00  0.00    -0.237 OA
ATOM     95  O   UNL A   1      45.355  25.698  38.308  1.00  0.00    -0.237 OA
ATOM     96  O   UNL A   1      43.673  24.745  36.779  1.00  0.00    -0.744 OA
ENDBRANCH  89  93
ENDBRANCH  63  86
ENDBRANCH  37  38
ENDBRANCH  29  32
ENDBRANCH  27  28
ENDBRANCH  26  27
ENDBRANCH   1  26
TORSDOF 18
ENDMDL
