MODEL 1
REMARK VINA RESULT:     -12.6      0.000      0.000
REMARK SMILES O=C(NCCCCCCNC(=O)c1ccc(Cn2ccc3ccc(Br)cc32)nc1)c1ccc(-c2c3nc(c(-c4cc(S(=O)(=O)[O-])ccc4F)c4ccc([nH]4)c(-c4cc(S(=O)(=O)[O-])ccc4F)c4nc(c(-c5cc(S(=O)(=O)[O-])ccc5F)c5ccc2[nH]5)C=C4)C=C3)cc1
REMARK SMILES IDX 6 1 5 2 4 3 3 4 1 5 2 6 30 8 31 9 92 10 32 11 91 12 33 13
REMARK SMILES IDX 34 14 35 15 85 16 36 17 90 18 84 19 86 20 37 21 89 22 83 23
REMARK SMILES IDX 82 24 38 26 70 27 50 28 69 29 51 30 54 31 68 32 87 33 52 34
REMARK SMILES IDX 53 35 67 37 88 38 55 39 39 40 40 41 48 42 41 43 47 44 49 45
REMARK SMILES IDX 46 46 42 47 43 48 44 49 45 50 71 51 72 52 80 53 73 54 79 55
REMARK SMILES IDX 81 56 78 57 74 58 75 59 76 60 77 61 56 62 57 63 65 64 58 65
REMARK SMILES IDX 64 66 66 67 63 68 59 69 60 70 61 71 62 72 7 73 8 74 9 75
REMARK SMILES IDX 10 76 11 77 12 79 13 80 14 81 29 82 15 83 28 84 16 85 17 86
REMARK SMILES IDX 18 87 19 88 27 89 20 90 21 91 26 92 22 93 24 94 23 95 25 96
REMARK H PARENT 3 7 86 25 54 36 10 78
REMARK Flexibility Score: inf
ROOT
ATOM      1  C   UNL A   1      33.084  27.816  26.542  1.00  0.00     0.002 C 
ENDROOT
BRANCH   1   2
ATOM      2  C   UNL A   1      34.379  28.639  26.540  1.00  0.00     0.021 C 
BRANCH   2   3
ATOM      3  C   UNL A   1      34.470  29.582  27.719  1.00  0.00     0.116 C 
BRANCH   3   4
ATOM      4  N   UNL A   1      34.681  30.983  27.333  1.00  0.00    -0.352 N 
ATOM      5  O   UNL A   1      35.600  33.047  27.698  1.00  0.00    -0.269 OA
ATOM      6  C   UNL A   1      35.688  31.816  27.786  1.00  0.00     0.251 C 
ATOM      7  H   UNL A   1      34.042  31.368  26.691  1.00  0.00     0.163 HD
BRANCH   6   8
ATOM      8  C   UNL A   1      36.916  31.177  28.278  1.00  0.00     0.039 A 
ATOM      9  C   UNL A   1      37.690  31.554  29.369  1.00  0.00     0.014 A 
ATOM     10  C   UNL A   1      37.402  30.167  27.468  1.00  0.00     0.014 A 
ATOM     11  C   UNL A   1      38.915  30.886  29.538  1.00  0.00     0.010 A 
ATOM     12  C   UNL A   1      38.163  29.208  28.035  1.00  0.00     0.010 A 
ATOM     13  C   UNL A   1      39.196  29.749  28.741  1.00  0.00    -0.014 A 
BRANCH  13  14
ATOM     14  C   UNL A   1      40.296  28.809  28.920  1.00  0.00     0.031 A 
ATOM     15  C   UNL A   1      40.481  28.586  30.379  1.00  0.00     0.074 A 
ATOM     16  C   UNL A   1      40.907  28.142  27.896  1.00  0.00     0.049 A 
ATOM     17  N   UNL A   1      41.255  29.304  31.122  1.00  0.00    -0.248 NA
ATOM     18  C   UNL A   1      39.477  27.839  31.176  1.00  0.00     0.031 C 
ATOM     19  C   UNL A   1      40.593  28.130  26.453  1.00  0.00     0.029 A 
ATOM     20  N   UNL A   1      41.998  27.302  27.932  1.00  0.00    -0.354 N 
ATOM     21  C   UNL A   1      41.134  28.774  32.395  1.00  0.00     0.074 A 
ATOM     22  C   UNL A   1      39.851  28.137  32.427  1.00  0.00     0.031 C 
ATOM     23  C   UNL A   1      41.298  27.155  25.815  1.00  0.00     0.029 A 
ATOM     24  C   UNL A   1      42.243  26.566  26.746  1.00  0.00     0.049 A 
ATOM     25  H   UNL A   1      42.569  27.218  28.730  1.00  0.00     0.167 HD
ATOM     26  C   UNL A   1      42.261  28.577  33.132  1.00  0.00     0.034 A 
ATOM     27  C   UNL A   1      43.234  25.636  26.530  1.00  0.00     0.034 A 
ATOM     28  C   UNL A   1      43.366  29.265  32.498  1.00  0.00     0.049 A 
ATOM     29  C   UNL A   1      44.250  25.839  27.595  1.00  0.00     0.074 A 
ATOM     30  C   UNL A   1      43.656  30.583  32.214  1.00  0.00     0.029 A 
ATOM     31  N   UNL A   1      44.074  28.500  31.603  1.00  0.00    -0.354 N 
ATOM     32  N   UNL A   1      44.993  26.908  27.649  1.00  0.00    -0.248 NA
ATOM     33  C   UNL A   1      43.980  25.166  28.856  1.00  0.00     0.031 C 
ATOM     34  C   UNL A   1      44.239  30.569  30.913  1.00  0.00     0.029 A 
ATOM     35  C   UNL A   1      44.443  29.246  30.517  1.00  0.00     0.049 A 
ATOM     36  H   UNL A   1      44.287  27.547  31.727  1.00  0.00     0.167 HD
ATOM     37  C   UNL A   1      44.842  27.337  28.957  1.00  0.00     0.074 A 
ATOM     38  C   UNL A   1      44.217  26.207  29.660  1.00  0.00     0.031 C 
ATOM     39  C   UNL A   1      44.893  28.666  29.266  1.00  0.00     0.034 A 
BRANCH  26  40
ATOM     40  C   UNL A   1      42.468  27.417  34.079  1.00  0.00     0.023 A 
ATOM     41  C   UNL A   1      43.276  26.293  33.806  1.00  0.00     0.031 A 
ATOM     42  C   UNL A   1      41.992  27.524  35.402  1.00  0.00     0.131 A 
ATOM     43  C   UNL A   1      43.550  25.332  34.793  1.00  0.00     0.055 A 
ATOM     44  C   UNL A   1      42.323  26.604  36.402  1.00  0.00     0.041 A 
ATOM     45  F   UNL A   1      41.222  28.558  35.776  1.00  0.00    -0.206 F 
ATOM     46  C   UNL A   1      43.102  25.497  36.099  1.00  0.00     0.022 A 
BRANCH  43  47
ATOM     47  S   UNL A   1      44.479  23.823  34.396  1.00  0.00     0.124 S 
ATOM     48  O   UNL A   1      45.827  24.163  34.839  1.00  0.00    -0.237 OA
ATOM     49  O   UNL A   1      43.780  22.830  35.209  1.00  0.00    -0.237 OA
ATOM     50  O   UNL A   1      44.301  23.678  32.954  1.00  0.00    -0.744 OA
ENDBRANCH  43  47
ENDBRANCH  26  40
BRANCH  27  51
ATOM     51  C   UNL A   1      43.119  24.268  25.919  1.00  0.00     0.023 A 
ATOM     52  C   UNL A   1      42.138  23.409  26.426  1.00  0.00     0.031 A 
ATOM     53  C   UNL A   1      44.161  23.663  25.171  1.00  0.00     0.131 A 
ATOM     54  C   UNL A   1      42.251  22.017  26.279  1.00  0.00     0.055 A 
ATOM     55  C   UNL A   1      44.242  22.269  24.975  1.00  0.00     0.041 A 
ATOM     56  F   UNL A   1      45.174  24.400  24.688  1.00  0.00    -0.206 F 
ATOM     57  C   UNL A   1      43.294  21.435  25.555  1.00  0.00     0.022 A 
BRANCH  54  58
ATOM     58  S   UNL A   1      41.112  20.938  27.188  1.00  0.00     0.124 S 
ATOM     59  O   UNL A   1      40.098  20.639  26.180  1.00  0.00    -0.237 OA
ATOM     60  O   UNL A   1      41.986  19.829  27.555  1.00  0.00    -0.237 OA
ATOM     61  O   UNL A   1      40.659  21.778  28.293  1.00  0.00    -0.744 OA
ENDBRANCH  54  58
ENDBRANCH  27  51
BRANCH  39  62
ATOM     62  C   UNL A   1      45.362  29.651  28.214  1.00  0.00     0.023 A 
ATOM     63  C   UNL A   1      46.745  29.872  28.186  1.00  0.00     0.031 A 
ATOM     64  C   UNL A   1      44.552  30.523  27.458  1.00  0.00     0.131 A 
ATOM     65  C   UNL A   1      47.281  30.967  27.507  1.00  0.00     0.055 A 
ATOM     66  C   UNL A   1      45.101  31.576  26.708  1.00  0.00     0.041 A 
ATOM     67  F   UNL A   1      43.215  30.440  27.490  1.00  0.00    -0.206 F 
ATOM     68  C   UNL A   1      46.472  31.816  26.750  1.00  0.00     0.022 A 
BRANCH  65  69
ATOM     69  S   UNL A   1      49.018  31.401  27.763  1.00  0.00     0.124 S 
ATOM     70  O   UNL A   1      48.943  32.289  28.920  1.00  0.00    -0.237 OA
ATOM     71  O   UNL A   1      49.629  30.097  28.009  1.00  0.00    -0.237 OA
ATOM     72  O   UNL A   1      49.412  32.041  26.510  1.00  0.00    -0.744 OA
ENDBRANCH  65  69
ENDBRANCH  39  62
ENDBRANCH  13  14
ENDBRANCH   6   8
ENDBRANCH   3   4
ENDBRANCH   2   3
ENDBRANCH   1   2
BRANCH   1  73
ATOM     73  C   UNL A   1      31.784  28.604  26.776  1.00  0.00     0.002 C 
BRANCH  73  74
ATOM     74  C   UNL A   1      31.502  29.712  25.760  1.00  0.00     0.021 C 
BRANCH  74  75
ATOM     75  C   UNL A   1      32.085  29.443  24.380  1.00  0.00     0.116 C 
BRANCH  75  76
ATOM     76  N   UNL A   1      31.140  29.769  23.325  1.00  0.00    -0.352 N 
ATOM     77  C   UNL A   1      30.447  28.908  22.519  1.00  0.00     0.252 C 
ATOM     78  H   UNL A   1      30.977  30.728  23.171  1.00  0.00     0.163 HD
ATOM     79  O   UNL A   1      29.831  29.314  21.541  1.00  0.00    -0.269 OA
BRANCH  77  80
ATOM     80  C   UNL A   1      30.466  27.480  22.846  1.00  0.00     0.058 A 
ATOM     81  C   UNL A   1      29.619  26.920  23.804  1.00  0.00     0.017 A 
ATOM     82  C   UNL A   1      31.387  26.676  22.216  1.00  0.00     0.125 A 
ATOM     83  C   UNL A   1      29.748  25.571  24.122  1.00  0.00     0.026 A 
ATOM     84  N   UNL A   1      31.527  25.371  22.515  1.00  0.00    -0.259 NA
ATOM     85  C   UNL A   1      30.708  24.820  23.449  1.00  0.00     0.060 A 
BRANCH  85  86
ATOM     86  C   UNL A   1      30.863  23.339  23.698  1.00  0.00     0.178 C 
BRANCH  86  87
ATOM     87  N   UNL A   1      31.562  23.095  24.959  1.00  0.00    -0.341 N 
ATOM     88  C   UNL A   1      30.940  22.922  26.173  1.00  0.00     0.087 A 
ATOM     89  C   UNL A   1      32.933  22.974  25.115  1.00  0.00     0.049 A 
ATOM     90  C   UNL A   1      31.907  22.636  27.110  1.00  0.00     0.028 A 
ATOM     91  C   UNL A   1      33.166  22.637  26.451  1.00  0.00    -0.000 A 
ATOM     92  C   UNL A   1      33.987  23.089  24.189  1.00  0.00     0.042 A 
ATOM     93  C   UNL A   1      34.488  22.379  26.869  1.00  0.00     0.011 A 
ATOM     94  C   UNL A   1      35.277  22.786  24.618  1.00  0.00     0.020 A 
ATOM     95  C   UNL A   1      35.535  22.439  25.939  1.00  0.00     0.016 A 
ATOM     96  Br  UNL A   1      36.700  22.817  23.369  1.00  0.00    -0.051 Br
ENDBRANCH  86  87
ENDBRANCH  85  86
ENDBRANCH  77  80
ENDBRANCH  75  76
ENDBRANCH  74  75
ENDBRANCH  73  74
ENDBRANCH   1  73
TORSDOF 18
ENDMDL
MODEL 2
REMARK VINA RESULT:     -12.3      3.627      7.319
REMARK SMILES O=C(NCCCCCCNC(=O)c1ccc(Cn2ccc3ccc(Br)cc32)nc1)c1ccc(-c2c3nc(c(-c4cc(S(=O)(=O)[O-])ccc4F)c4ccc([nH]4)c(-c4cc(S(=O)(=O)[O-])ccc4F)c4nc(c(-c5cc(S(=O)(=O)[O-])ccc5F)c5ccc2[nH]5)C=C4)C=C3)cc1
REMARK SMILES IDX 6 1 5 2 4 3 3 4 1 5 2 6 30 8 31 9 92 10 32 11 91 12 33 13
REMARK SMILES IDX 34 14 35 15 85 16 36 17 90 18 84 19 86 20 37 21 89 22 83 23
REMARK SMILES IDX 82 24 38 26 70 27 50 28 69 29 51 30 54 31 68 32 87 33 52 34
REMARK SMILES IDX 53 35 67 37 88 38 55 39 39 40 40 41 48 42 41 43 47 44 49 45
REMARK SMILES IDX 46 46 42 47 43 48 44 49 45 50 71 51 72 52 80 53 73 54 79 55
REMARK SMILES IDX 81 56 78 57 74 58 75 59 76 60 77 61 56 62 57 63 65 64 58 65
REMARK SMILES IDX 64 66 66 67 63 68 59 69 60 70 61 71 62 72 7 73 8 74 9 75
REMARK SMILES IDX 10 76 11 77 12 79 13 80 14 81 29 82 15 83 28 84 16 85 17 86
REMARK SMILES IDX 18 87 19 88 27 89 20 90 21 91 26 92 22 93 24 94 23 95 25 96
REMARK H PARENT 3 7 86 25 54 36 10 78
REMARK Flexibility Score: inf
ROOT
ATOM      1  C   UNL A   1      33.847  31.342  27.360  1.00  0.00     0.002 C 
ENDROOT
BRANCH   1   2
ATOM      2  C   UNL A   1      32.776  32.413  27.603  1.00  0.00     0.021 C 
BRANCH   2   3
ATOM      3  C   UNL A   1      33.303  33.817  27.405  1.00  0.00     0.116 C 
BRANCH   3   4
ATOM      4  N   UNL A   1      33.049  34.704  28.547  1.00  0.00    -0.352 N 
ATOM      5  O   UNL A   1      32.976  35.104  30.799  1.00  0.00    -0.269 OA
ATOM      6  C   UNL A   1      33.506  34.528  29.841  1.00  0.00     0.251 C 
ATOM      7  H   UNL A   1      32.499  35.503  28.375  1.00  0.00     0.163 HD
BRANCH   6   8
ATOM      8  C   UNL A   1      34.714  33.712  30.020  1.00  0.00     0.039 A 
ATOM      9  C   UNL A   1      34.847  32.543  30.760  1.00  0.00     0.014 A 
ATOM     10  C   UNL A   1      35.863  34.264  29.485  1.00  0.00     0.014 A 
ATOM     11  C   UNL A   1      36.149  32.038  30.917  1.00  0.00     0.010 A 
ATOM     12  C   UNL A   1      36.864  33.430  29.132  1.00  0.00     0.010 A 
ATOM     13  C   UNL A   1      37.204  32.603  30.161  1.00  0.00    -0.014 A 
BRANCH  13  14
ATOM     14  C   UNL A   1      38.557  32.077  30.024  1.00  0.00     0.031 A 
ATOM     15  C   UNL A   1      38.470  30.737  29.386  1.00  0.00     0.074 A 
ATOM     16  C   UNL A   1      39.688  32.797  30.290  1.00  0.00     0.049 A 
ATOM     17  N   UNL A   1      38.339  29.635  30.047  1.00  0.00    -0.248 NA
ATOM     18  C   UNL A   1      38.077  30.585  27.964  1.00  0.00     0.031 C 
ATOM     19  C   UNL A   1      39.840  34.213  30.678  1.00  0.00     0.029 A 
ATOM     20  N   UNL A   1      41.004  32.389  30.277  1.00  0.00    -0.354 N 
ATOM     21  C   UNL A   1      38.293  28.638  29.087  1.00  0.00     0.074 A 
ATOM     22  C   UNL A   1      37.822  29.273  27.893  1.00  0.00     0.031 C 
ATOM     23  C   UNL A   1      41.146  34.592  30.619  1.00  0.00     0.029 A 
ATOM     24  C   UNL A   1      41.967  33.425  30.352  1.00  0.00     0.049 A 
ATOM     25  H   UNL A   1      41.257  31.439  30.219  1.00  0.00     0.167 HD
ATOM     26  C   UNL A   1      39.024  27.506  29.284  1.00  0.00     0.034 A 
ATOM     27  C   UNL A   1      43.337  33.296  30.319  1.00  0.00     0.034 A 
ATOM     28  C   UNL A   1      39.486  27.476  30.655  1.00  0.00     0.049 A 
ATOM     29  C   UNL A   1      43.639  31.872  30.612  1.00  0.00     0.074 A 
ATOM     30  C   UNL A   1      38.872  27.418  31.888  1.00  0.00     0.029 A 
ATOM     31  N   UNL A   1      40.719  28.051  30.853  1.00  0.00    -0.354 N 
ATOM     32  N   UNL A   1      43.421  31.344  31.784  1.00  0.00    -0.248 NA
ATOM     33  C   UNL A   1      43.589  30.971  29.471  1.00  0.00     0.031 C 
ATOM     34  C   UNL A   1      39.612  28.306  32.722  1.00  0.00     0.029 A 
ATOM     35  C   UNL A   1      40.744  28.743  32.033  1.00  0.00     0.049 A 
ATOM     36  H   UNL A   1      41.478  27.976  30.231  1.00  0.00     0.167 HD
ATOM     37  C   UNL A   1      42.699  30.199  31.491  1.00  0.00     0.074 A 
ATOM     38  C   UNL A   1      42.851  30.013  30.041  1.00  0.00     0.031 C 
ATOM     39  C   UNL A   1      41.762  29.724  32.362  1.00  0.00     0.034 A 
BRANCH  26  40
ATOM     40  C   UNL A   1      39.712  26.735  28.181  1.00  0.00     0.023 A 
ATOM     41  C   UNL A   1      40.844  27.189  27.471  1.00  0.00     0.031 A 
ATOM     42  C   UNL A   1      39.343  25.393  27.955  1.00  0.00     0.131 A 
ATOM     43  C   UNL A   1      41.526  26.353  26.572  1.00  0.00     0.055 A 
ATOM     44  C   UNL A   1      40.065  24.541  27.114  1.00  0.00     0.041 A 
ATOM     45  F   UNL A   1      38.287  24.854  28.585  1.00  0.00    -0.206 F 
ATOM     46  C   UNL A   1      41.161  25.021  26.412  1.00  0.00     0.022 A 
BRANCH  43  47
ATOM     47  S   UNL A   1      42.898  26.986  25.565  1.00  0.00     0.124 S 
ATOM     48  O   UNL A   1      43.772  27.583  26.569  1.00  0.00    -0.237 OA
ATOM     49  O   UNL A   1      43.395  25.758  24.947  1.00  0.00    -0.237 OA
ATOM     50  O   UNL A   1      42.251  27.921  24.649  1.00  0.00    -0.744 OA
ENDBRANCH  43  47
ENDBRANCH  26  40
BRANCH  27  51
ATOM     51  C   UNL A   1      44.332  34.073  29.503  1.00  0.00     0.023 A 
ATOM     52  C   UNL A   1      44.200  34.041  28.111  1.00  0.00     0.031 A 
ATOM     53  C   UNL A   1      45.590  34.489  30.007  1.00  0.00     0.131 A 
ATOM     54  C   UNL A   1      45.295  34.310  27.275  1.00  0.00     0.055 A 
ATOM     55  C   UNL A   1      46.673  34.815  29.166  1.00  0.00     0.041 A 
ATOM     56  F   UNL A   1      45.828  34.503  31.329  1.00  0.00    -0.206 F 
ATOM     57  C   UNL A   1      46.534  34.700  27.787  1.00  0.00     0.022 A 
BRANCH  54  58
ATOM     58  S   UNL A   1      45.150  33.983  25.497  1.00  0.00     0.124 S 
ATOM     59  O   UNL A   1      43.892  34.645  25.163  1.00  0.00    -0.237 OA
ATOM     60  O   UNL A   1      46.357  34.621  24.981  1.00  0.00    -0.237 OA
ATOM     61  O   UNL A   1      45.124  32.526  25.422  1.00  0.00    -0.744 OA
ENDBRANCH  54  58
ENDBRANCH  27  51
BRANCH  39  62
ATOM     62  C   UNL A   1      41.687  30.308  33.759  1.00  0.00     0.023 A 
ATOM     63  C   UNL A   1      40.763  31.348  33.916  1.00  0.00     0.031 A 
ATOM     64  C   UNL A   1      42.600  30.088  34.811  1.00  0.00     0.131 A 
ATOM     65  C   UNL A   1      40.809  32.183  35.033  1.00  0.00     0.055 A 
ATOM     66  C   UNL A   1      42.591  30.878  35.972  1.00  0.00     0.041 A 
ATOM     67  F   UNL A   1      43.572  29.170  34.715  1.00  0.00    -0.206 F 
ATOM     68  C   UNL A   1      41.706  31.948  36.076  1.00  0.00     0.022 A 
BRANCH  65  69
ATOM     69  S   UNL A   1      39.822  33.699  35.043  1.00  0.00     0.124 S 
ATOM     70  O   UNL A   1      40.514  34.521  34.054  1.00  0.00    -0.237 OA
ATOM     71  O   UNL A   1      38.504  33.212  34.645  1.00  0.00    -0.237 OA
ATOM     72  O   UNL A   1      39.915  34.172  36.422  1.00  0.00    -0.744 OA
ENDBRANCH  65  69
ENDBRANCH  39  62
ENDBRANCH  13  14
ENDBRANCH   6   8
ENDBRANCH   3   4
ENDBRANCH   2   3
ENDBRANCH   1   2
BRANCH   1  73
ATOM     73  C   UNL A   1      33.330  29.957  26.932  1.00  0.00     0.002 C 
BRANCH  73  74
ATOM     74  C   UNL A   1      32.281  29.969  25.819  1.00  0.00     0.021 C 
BRANCH  74  75
ATOM     75  C   UNL A   1      32.708  29.220  24.565  1.00  0.00     0.116 C 
BRANCH  75  76
ATOM     76  N   UNL A   1      31.706  29.315  23.515  1.00  0.00    -0.352 N 
ATOM     77  C   UNL A   1      30.887  28.328  23.041  1.00  0.00     0.252 C 
ATOM     78  H   UNL A   1      31.605  30.199  23.094  1.00  0.00     0.163 HD
ATOM     79  O   UNL A   1      30.225  28.491  22.023  1.00  0.00    -0.269 OA
BRANCH  77  80
ATOM     80  C   UNL A   1      30.824  27.062  23.775  1.00  0.00     0.058 A 
ATOM     81  C   UNL A   1      30.340  26.977  25.082  1.00  0.00     0.017 A 
ATOM     82  C   UNL A   1      31.305  25.927  23.165  1.00  0.00     0.125 A 
ATOM     83  C   UNL A   1      30.386  25.754  25.747  1.00  0.00     0.026 A 
ATOM     84  N   UNL A   1      31.360  24.739  23.796  1.00  0.00    -0.259 NA
ATOM     85  C   UNL A   1      30.894  24.649  25.069  1.00  0.00     0.060 A 
BRANCH  85  86
ATOM     86  C   UNL A   1      30.917  23.280  25.705  1.00  0.00     0.178 C 
BRANCH  86  87
ATOM     87  N   UNL A   1      32.293  22.822  25.898  1.00  0.00    -0.341 N 
ATOM     88  C   UNL A   1      33.210  23.436  26.718  1.00  0.00     0.087 A 
ATOM     89  C   UNL A   1      32.862  21.701  25.316  1.00  0.00     0.049 A 
ATOM     90  C   UNL A   1      34.361  22.681  26.709  1.00  0.00     0.028 A 
ATOM     91  C   UNL A   1      34.146  21.568  25.851  1.00  0.00    -0.000 A 
ATOM     92  C   UNL A   1      32.345  20.768  24.398  1.00  0.00     0.042 A 
ATOM     93  C   UNL A   1      34.927  20.454  25.480  1.00  0.00     0.011 A 
ATOM     94  C   UNL A   1      33.121  19.654  24.083  1.00  0.00     0.020 A 
ATOM     95  C   UNL A   1      34.398  19.493  24.610  1.00  0.00     0.016 A 
ATOM     96  Br  UNL A   1      32.409  18.320  22.944  1.00  0.00    -0.051 Br
ENDBRANCH  86  87
ENDBRANCH  85  86
ENDBRANCH  77  80
ENDBRANCH  75  76
ENDBRANCH  74  75
ENDBRANCH  73  74
ENDBRANCH   1  73
TORSDOF 18
ENDMDL
MODEL 3
REMARK VINA RESULT:     -12.1      2.357      2.791
REMARK SMILES O=C(NCCCCCCNC(=O)c1ccc(Cn2ccc3ccc(Br)cc32)nc1)c1ccc(-c2c3nc(c(-c4cc(S(=O)(=O)[O-])ccc4F)c4ccc([nH]4)c(-c4cc(S(=O)(=O)[O-])ccc4F)c4nc(c(-c5cc(S(=O)(=O)[O-])ccc5F)c5ccc2[nH]5)C=C4)C=C3)cc1
REMARK SMILES IDX 6 1 5 2 4 3 3 4 1 5 2 6 30 8 31 9 92 10 32 11 91 12 33 13
REMARK SMILES IDX 34 14 35 15 85 16 36 17 90 18 84 19 86 20 37 21 89 22 83 23
REMARK SMILES IDX 82 24 38 26 70 27 50 28 69 29 51 30 54 31 68 32 87 33 52 34
REMARK SMILES IDX 53 35 67 37 88 38 55 39 39 40 40 41 48 42 41 43 47 44 49 45
REMARK SMILES IDX 46 46 42 47 43 48 44 49 45 50 71 51 72 52 80 53 73 54 79 55
REMARK SMILES IDX 81 56 78 57 74 58 75 59 76 60 77 61 56 62 57 63 65 64 58 65
REMARK SMILES IDX 64 66 66 67 63 68 59 69 60 70 61 71 62 72 7 73 8 74 9 75
REMARK SMILES IDX 10 76 11 77 12 79 13 80 14 81 29 82 15 83 28 84 16 85 17 86
REMARK SMILES IDX 18 87 19 88 27 89 20 90 21 91 26 92 22 93 24 94 23 95 25 96
REMARK H PARENT 3 7 86 25 54 36 10 78
REMARK Flexibility Score: inf
ROOT
ATOM      1  C   UNL A   1      34.574  29.940  27.117  1.00  0.00     0.002 C 
ENDROOT
BRANCH   1   2
ATOM      2  C   UNL A   1      34.397  31.376  27.627  1.00  0.00     0.021 C 
BRANCH   2   3
ATOM      3  C   UNL A   1      35.710  32.024  28.007  1.00  0.00     0.116 C 
BRANCH   3   4
ATOM      4  N   UNL A   1      35.670  32.711  29.304  1.00  0.00    -0.352 N 
ATOM      5  O   UNL A   1      35.651  32.676  31.592  1.00  0.00    -0.269 OA
ATOM      6  C   UNL A   1      36.034  32.177  30.527  1.00  0.00     0.251 C 
ATOM      7  H   UNL A   1      35.352  33.643  29.304  1.00  0.00     0.163 HD
BRANCH   6   8
ATOM      8  C   UNL A   1      36.983  31.055  30.513  1.00  0.00     0.039 A 
ATOM      9  C   UNL A   1      36.691  29.698  30.448  1.00  0.00     0.014 A 
ATOM     10  C   UNL A   1      38.302  31.416  30.717  1.00  0.00     0.014 A 
ATOM     11  C   UNL A   1      37.767  28.810  30.621  1.00  0.00     0.010 A 
ATOM     12  C   UNL A   1      39.265  30.609  30.227  1.00  0.00     0.010 A 
ATOM     13  C   UNL A   1      39.087  29.322  30.636  1.00  0.00    -0.014 A 
BRANCH  13  14
ATOM     14  C   UNL A   1      40.323  28.548  30.583  1.00  0.00     0.031 A 
ATOM     15  C   UNL A   1      40.927  28.549  31.942  1.00  0.00     0.074 A 
ATOM     16  C   UNL A   1      40.725  27.824  29.497  1.00  0.00     0.049 A 
ATOM     17  N   UNL A   1      41.758  29.445  32.357  1.00  0.00    -0.248 NA
ATOM     18  C   UNL A   1      40.301  27.806  33.063  1.00  0.00     0.031 C 
ATOM     19  C   UNL A   1      40.038  27.579  28.213  1.00  0.00     0.029 A 
ATOM     20  N   UNL A   1      41.898  27.128  29.300  1.00  0.00    -0.354 N 
ATOM     21  C   UNL A   1      42.067  29.082  33.657  1.00  0.00     0.074 A 
ATOM     22  C   UNL A   1      40.950  28.312  34.118  1.00  0.00     0.031 C 
ATOM     23  C   UNL A   1      40.681  26.615  27.498  1.00  0.00     0.029 A 
ATOM     24  C   UNL A   1      41.920  26.271  28.172  1.00  0.00     0.049 A 
ATOM     25  H   UNL A   1      42.670  27.220  29.905  1.00  0.00     0.167 HD
ATOM     26  C   UNL A   1      43.368  29.119  34.055  1.00  0.00     0.034 A 
ATOM     27  C   UNL A   1      42.943  25.441  27.772  1.00  0.00     0.034 A 
ATOM     28  C   UNL A   1      44.144  29.839  33.067  1.00  0.00     0.049 A 
ATOM     29  C   UNL A   1      44.167  25.903  28.475  1.00  0.00     0.074 A 
ATOM     30  C   UNL A   1      44.146  31.130  32.583  1.00  0.00     0.029 A 
ATOM     31  N   UNL A   1      44.689  29.046  32.085  1.00  0.00    -0.354 N 
ATOM     32  N   UNL A   1      44.728  27.049  28.210  1.00  0.00    -0.248 NA
ATOM     33  C   UNL A   1      44.353  25.381  29.821  1.00  0.00     0.031 C 
ATOM     34  C   UNL A   1      44.349  31.007  31.178  1.00  0.00     0.029 A 
ATOM     35  C   UNL A   1      44.634  29.675  30.872  1.00  0.00     0.049 A 
ATOM     36  H   UNL A   1      45.067  28.150  32.235  1.00  0.00     0.167 HD
ATOM     37  C   UNL A   1      44.876  27.631  29.457  1.00  0.00     0.074 A 
ATOM     38  C   UNL A   1      44.640  26.543  30.417  1.00  0.00     0.031 C 
ATOM     39  C   UNL A   1      44.809  28.986  29.607  1.00  0.00     0.034 A 
BRANCH  26  40
ATOM     40  C   UNL A   1      43.995  28.131  35.012  1.00  0.00     0.023 A 
ATOM     41  C   UNL A   1      44.407  28.438  36.326  1.00  0.00     0.031 A 
ATOM     42  C   UNL A   1      44.005  26.763  34.668  1.00  0.00     0.131 A 
ATOM     43  C   UNL A   1      44.833  27.435  37.211  1.00  0.00     0.055 A 
ATOM     44  C   UNL A   1      44.361  25.759  35.574  1.00  0.00     0.041 A 
ATOM     45  F   UNL A   1      43.623  26.356  33.448  1.00  0.00    -0.206 F 
ATOM     46  C   UNL A   1      44.783  26.092  36.853  1.00  0.00     0.022 A 
BRANCH  43  47
ATOM     47  S   UNL A   1      45.487  27.853  38.853  1.00  0.00     0.124 S 
ATOM     48  O   UNL A   1      44.528  27.210  39.744  1.00  0.00    -0.237 OA
ATOM     49  O   UNL A   1      46.812  27.237  38.802  1.00  0.00    -0.237 OA
ATOM     50  O   UNL A   1      45.484  29.313  38.863  1.00  0.00    -0.744 OA
ENDBRANCH  43  47
ENDBRANCH  26  40
BRANCH  27  51
ATOM     51  C   UNL A   1      42.872  23.999  27.357  1.00  0.00     0.023 A 
ATOM     52  C   UNL A   1      43.920  23.491  26.584  1.00  0.00     0.031 A 
ATOM     53  C   UNL A   1      41.665  23.253  27.351  1.00  0.00     0.131 A 
ATOM     54  C   UNL A   1      43.737  22.360  25.772  1.00  0.00     0.055 A 
ATOM     55  C   UNL A   1      41.501  22.085  26.580  1.00  0.00     0.041 A 
ATOM     56  F   UNL A   1      40.587  23.688  28.023  1.00  0.00    -0.206 F 
ATOM     57  C   UNL A   1      42.537  21.647  25.761  1.00  0.00     0.022 A 
BRANCH  54  58
ATOM     58  S   UNL A   1      45.029  21.910  24.581  1.00  0.00     0.124 S 
ATOM     59  O   UNL A   1      44.515  20.661  24.026  1.00  0.00    -0.237 OA
ATOM     60  O   UNL A   1      45.013  23.057  23.680  1.00  0.00    -0.237 OA
ATOM     61  O   UNL A   1      46.222  21.775  25.411  1.00  0.00    -0.744 OA
ENDBRANCH  54  58
ENDBRANCH  27  51
BRANCH  39  62
ATOM     62  C   UNL A   1      44.823  29.867  28.373  1.00  0.00     0.023 A 
ATOM     63  C   UNL A   1      46.074  30.403  28.043  1.00  0.00     0.031 A 
ATOM     64  C   UNL A   1      43.699  30.385  27.698  1.00  0.00     0.131 A 
ATOM     65  C   UNL A   1      46.184  31.465  27.146  1.00  0.00     0.055 A 
ATOM     66  C   UNL A   1      43.820  31.400  26.734  1.00  0.00     0.041 A 
ATOM     67  F   UNL A   1      42.455  29.994  28.006  1.00  0.00    -0.206 F 
ATOM     68  C   UNL A   1      45.067  31.961  26.472  1.00  0.00     0.022 A 
BRANCH  65  69
ATOM     69  S   UNL A   1      47.763  32.335  26.996  1.00  0.00     0.124 S 
ATOM     70  O   UNL A   1      47.440  33.392  26.041  1.00  0.00    -0.237 OA
ATOM     71  O   UNL A   1      48.002  32.778  28.367  1.00  0.00    -0.237 OA
ATOM     72  O   UNL A   1      48.685  31.313  26.508  1.00  0.00    -0.744 OA
ENDBRANCH  65  69
ENDBRANCH  39  62
ENDBRANCH  13  14
ENDBRANCH   6   8
ENDBRANCH   3   4
ENDBRANCH   2   3
ENDBRANCH   1   2
BRANCH   1  73
ATOM     73  C   UNL A   1      33.279  29.138  26.899  1.00  0.00     0.002 C 
BRANCH  73  74
ATOM     74  C   UNL A   1      32.378  29.649  25.772  1.00  0.00     0.021 C 
BRANCH  74  75
ATOM     75  C   UNL A   1      32.805  29.185  24.387  1.00  0.00     0.116 C 
BRANCH  75  76
ATOM     76  N   UNL A   1      31.732  29.335  23.417  1.00  0.00    -0.352 N 
ATOM     77  C   UNL A   1      30.862  28.380  22.969  1.00  0.00     0.252 C 
ATOM     78  H   UNL A   1      31.618  30.236  23.035  1.00  0.00     0.163 HD
ATOM     79  O   UNL A   1      30.132  28.591  22.008  1.00  0.00    -0.269 OA
BRANCH  77  80
ATOM     80  C   UNL A   1      30.827  27.089  23.660  1.00  0.00     0.058 A 
ATOM     81  C   UNL A   1      30.091  26.885  24.829  1.00  0.00     0.017 A 
ATOM     82  C   UNL A   1      31.588  26.058  23.161  1.00  0.00     0.125 A 
ATOM     83  C   UNL A   1      30.169  25.655  25.477  1.00  0.00     0.026 A 
ATOM     84  N   UNL A   1      31.678  24.866  23.779  1.00  0.00    -0.259 NA
ATOM     85  C   UNL A   1      30.967  24.660  24.918  1.00  0.00     0.060 A 
BRANCH  85  86
ATOM     86  C   UNL A   1      31.052  23.284  25.532  1.00  0.00     0.178 C 
BRANCH  86  87
ATOM     87  N   UNL A   1      32.446  22.874  25.695  1.00  0.00    -0.341 N 
ATOM     88  C   UNL A   1      33.388  23.583  26.402  1.00  0.00     0.087 A 
ATOM     89  C   UNL A   1      33.013  21.712  25.196  1.00  0.00     0.049 A 
ATOM     90  C   UNL A   1      34.556  22.854  26.405  1.00  0.00     0.028 A 
ATOM     91  C   UNL A   1      34.325  21.659  25.672  1.00  0.00    -0.000 A 
ATOM     92  C   UNL A   1      32.473  20.684  24.401  1.00  0.00     0.042 A 
ATOM     93  C   UNL A   1      35.114  20.529  25.370  1.00  0.00     0.011 A 
ATOM     94  C   UNL A   1      33.259  19.560  24.155  1.00  0.00     0.020 A 
ATOM     95  C   UNL A   1      34.565  19.477  24.626  1.00  0.00     0.016 A 
ATOM     96  Br  UNL A   1      32.523  18.107  23.191  1.00  0.00    -0.051 Br
ENDBRANCH  86  87
ENDBRANCH  85  86
ENDBRANCH  77  80
ENDBRANCH  75  76
ENDBRANCH  74  75
ENDBRANCH  73  74
ENDBRANCH   1  73
TORSDOF 18
ENDMDL
