MODEL 1
REMARK VINA RESULT:     -10.8      0.000      0.000
REMARK SMILES CC(C)CSc1cc2c(cc1Cl)C=C(C(=O)NCCCCCCNC(=O)c1ccc(-c3c4nc(c(-c5cc(S(=O)(=O)[O-])ccc5F)c5ccc([nH]5)c(-c5cc(S(=O)(=O)[O-])ccc5F)c5nc(c(-c6cc(S(=O)(=O)[O-])ccc6F)c6ccc3[nH]6)C=C5)C=C4)cc1)[C@@H](C(F)(F)F)O2
REMARK SMILES IDX 20 1 19 2 18 3 17 4 15 5 16 6 14 8 6 9 7 10 11 11 8 12 10 13
REMARK SMILES IDX 12 14 9 15 95 16 13 17 90 18 5 19 4 20 2 21 1 22 3 23 91 24
REMARK SMILES IDX 92 25 93 26 94 27 21 28 22 29 23 30 24 31 25 32 26 34 27 35
REMARK SMILES IDX 28 36 89 37 29 38 88 39 30 40 31 41 32 42 82 43 33 44 87 45
REMARK SMILES IDX 81 46 83 47 34 48 86 49 80 50 79 51 35 53 67 54 47 55 66 56
REMARK SMILES IDX 48 57 51 58 65 59 84 60 49 61 50 62 64 64 85 65 52 66 36 67
REMARK SMILES IDX 37 68 45 69 38 70 44 71 46 72 43 73 39 74 40 75 41 76 42 77
REMARK SMILES IDX 68 78 69 79 77 80 70 81 76 82 78 83 75 84 71 85 72 86 73 87
REMARK SMILES IDX 74 88 53 89 54 90 62 91 55 92 61 93 63 94 60 95 56 96 57 97
REMARK SMILES IDX 58 98 59 99
REMARK H PARENT 17 7 24 33 83 52 51 63
REMARK Flexibility Score: inf
ROOT
ATOM      1  C   UNL A   1      31.688  28.643  26.343  1.00  0.00     0.002 C 
ENDROOT
BRANCH   1   2
ATOM      2  C   UNL A   1      31.551  29.528  25.098  1.00  0.00     0.021 C 
BRANCH   2   3
ATOM      3  C   UNL A   1      31.287  28.754  23.811  1.00  0.00     0.116 C 
BRANCH   3   4
ATOM      4  N   UNL A   1      29.934  28.232  23.793  1.00  0.00    -0.352 N 
ATOM      5  C   UNL A   1      29.346  27.018  23.806  1.00  0.00     0.251 C 
ATOM      6  O   UNL A   1      28.112  27.034  23.727  1.00  0.00    -0.270 OA
ATOM      7  H   UNL A   1      29.268  28.956  23.762  1.00  0.00     0.163 HD
BRANCH   5   8
ATOM      8  C   UNL A   1      30.056  25.715  23.935  1.00  0.00     0.067 C 
ATOM      9  C   UNL A   1      32.589  21.772  25.737  1.00  0.00     0.030 A 
ATOM     10  C   UNL A   1      31.870  21.986  24.550  1.00  0.00     0.063 A 
ATOM     11  C   UNL A   1      32.635  22.802  26.694  1.00  0.00     0.055 A 
ATOM     12  C   UNL A   1      31.183  23.185  24.366  1.00  0.00     0.129 A 
ATOM     13  C   UNL A   1      31.826  23.932  26.561  1.00  0.00     0.033 A 
ATOM     14  Cl  UNL A   1      33.726  22.776  28.042  1.00  0.00    -0.083 Cl
ATOM     15  C   UNL A   1      31.089  24.119  25.398  1.00  0.00     0.019 A 
ATOM     16  O   UNL A   1      30.639  23.443  23.135  1.00  0.00    -0.475 OA
ATOM     17  C   UNL A   1      30.280  25.313  25.200  1.00  0.00     0.025 C 
ATOM     18  C   UNL A   1      30.594  24.875  22.807  1.00  0.00     0.314 C 
BRANCH   9  19
ATOM     19  S   UNL A   1      33.461  20.224  25.933  1.00  0.00    -0.124 SA
BRANCH  19  20
ATOM     20  C   UNL A   1      33.321  19.535  24.235  1.00  0.00     0.078 C 
BRANCH  20  21
ATOM     21  C   UNL A   1      32.803  18.082  24.185  1.00  0.00    -0.007 C 
ATOM     22  C   UNL A   1      33.735  17.151  23.405  1.00  0.00     0.008 C 
ATOM     23  C   UNL A   1      32.667  17.519  25.605  1.00  0.00     0.008 C 
ENDBRANCH  20  21
ENDBRANCH  19  20
ENDBRANCH   9  19
BRANCH  18  24
ATOM     24  C   UNL A   1      31.978  25.376  22.325  1.00  0.00     0.429 C 
ATOM     25  F   UNL A   1      32.670  25.934  23.344  1.00  0.00    -0.167 F 
ATOM     26  F   UNL A   1      32.743  24.367  21.841  1.00  0.00    -0.167 F 
ATOM     27  F   UNL A   1      31.890  26.296  21.338  1.00  0.00    -0.167 F 
ENDBRANCH  18  24
ENDBRANCH   5   8
ENDBRANCH   3   4
ENDBRANCH   2   3
ENDBRANCH   1   2
BRANCH   1  28
ATOM     28  C   UNL A   1      32.970  27.805  26.418  1.00  0.00     0.002 C 
BRANCH  28  29
ATOM     29  C   UNL A   1      34.092  28.395  27.273  1.00  0.00     0.021 C 
BRANCH  29  30
ATOM     30  C   UNL A   1      34.781  29.613  26.672  1.00  0.00     0.116 C 
BRANCH  30  31
ATOM     31  N   UNL A   1      34.305  30.860  27.244  1.00  0.00    -0.352 N 
ATOM     32  C   UNL A   1      34.800  31.557  28.325  1.00  0.00     0.251 C 
ATOM     33  H   UNL A   1      33.524  31.262  26.800  1.00  0.00     0.163 HD
ATOM     34  O   UNL A   1      34.187  32.511  28.778  1.00  0.00    -0.269 OA
BRANCH  32  35
ATOM     35  C   UNL A   1      36.063  31.100  28.947  1.00  0.00     0.039 A 
ATOM     36  C   UNL A   1      37.279  31.687  28.589  1.00  0.00     0.014 A 
ATOM     37  C   UNL A   1      36.029  30.036  29.850  1.00  0.00     0.014 A 
ATOM     38  C   UNL A   1      38.470  31.103  29.004  1.00  0.00     0.010 A 
ATOM     39  C   UNL A   1      37.228  29.503  30.330  1.00  0.00     0.010 A 
ATOM     40  C   UNL A   1      38.459  29.998  29.870  1.00  0.00    -0.014 A 
BRANCH  40  41
ATOM     41  C   UNL A   1      39.740  29.364  30.277  1.00  0.00     0.031 A 
ATOM     42  C   UNL A   1      40.467  29.834  31.509  1.00  0.00     0.074 A 
ATOM     43  C   UNL A   1      40.229  28.340  29.552  1.00  0.00     0.049 A 
ATOM     44  N   UNL A   1      41.604  29.417  32.002  1.00  0.00    -0.248 NA
ATOM     45  C   UNL A   1      39.839  30.914  32.289  1.00  0.00     0.031 C 
ATOM     46  C   UNL A   1      39.594  27.792  28.353  1.00  0.00     0.029 A 
ATOM     47  N   UNL A   1      41.353  27.571  29.715  1.00  0.00    -0.354 N 
ATOM     48  C   UNL A   1      41.839  30.192  33.132  1.00  0.00     0.074 A 
ATOM     49  C   UNL A   1      40.742  31.127  33.237  1.00  0.00     0.031 C 
ATOM     50  C   UNL A   1      40.313  26.750  27.914  1.00  0.00     0.029 A 
ATOM     51  C   UNL A   1      41.502  26.603  28.750  1.00  0.00     0.049 A 
ATOM     52  H   UNL A   1      41.993  27.701  30.452  1.00  0.00     0.167 HD
ATOM     53  C   UNL A   1      42.871  30.118  34.007  1.00  0.00     0.034 A 
ATOM     54  C   UNL A   1      42.492  25.710  28.542  1.00  0.00     0.034 A 
ATOM     55  C   UNL A   1      43.944  29.161  33.898  1.00  0.00     0.049 A 
ATOM     56  C   UNL A   1      43.649  25.675  29.505  1.00  0.00     0.074 A 
ATOM     57  C   UNL A   1      45.021  28.990  34.747  1.00  0.00     0.029 A 
ATOM     58  N   UNL A   1      44.074  28.216  32.890  1.00  0.00    -0.354 N 
ATOM     59  N   UNL A   1      43.841  26.394  30.586  1.00  0.00    -0.248 NA
ATOM     60  C   UNL A   1      44.726  24.714  29.229  1.00  0.00     0.031 C 
ATOM     61  C   UNL A   1      45.836  27.987  34.222  1.00  0.00     0.029 A 
ATOM     62  C   UNL A   1      45.229  27.476  33.085  1.00  0.00     0.049 A 
ATOM     63  H   UNL A   1      43.440  28.089  32.148  1.00  0.00     0.167 HD
ATOM     64  C   UNL A   1      45.044  25.958  31.131  1.00  0.00     0.074 A 
ATOM     65  C   UNL A   1      45.527  24.897  30.271  1.00  0.00     0.031 C 
ATOM     66  C   UNL A   1      45.690  26.401  32.239  1.00  0.00     0.034 A 
BRANCH  53  67
ATOM     67  C   UNL A   1      42.910  31.076  35.172  1.00  0.00     0.023 A 
ATOM     68  C   UNL A   1      43.553  32.321  35.037  1.00  0.00     0.031 A 
ATOM     69  C   UNL A   1      42.442  30.704  36.445  1.00  0.00     0.131 A 
ATOM     70  C   UNL A   1      43.744  33.133  36.162  1.00  0.00     0.055 A 
ATOM     71  C   UNL A   1      42.599  31.536  37.556  1.00  0.00     0.041 A 
ATOM     72  F   UNL A   1      41.822  29.527  36.627  1.00  0.00    -0.206 F 
ATOM     73  C   UNL A   1      43.265  32.750  37.419  1.00  0.00     0.022 A 
BRANCH  70  74
ATOM     74  S   UNL A   1      44.682  34.682  36.054  1.00  0.00     0.124 S 
ATOM     75  O   UNL A   1      43.637  35.680  36.275  1.00  0.00    -0.237 OA
ATOM     76  O   UNL A   1      45.643  34.534  37.142  1.00  0.00    -0.237 OA
ATOM     77  O   UNL A   1      45.243  34.659  34.707  1.00  0.00    -0.744 OA
ENDBRANCH  70  74
ENDBRANCH  53  67
BRANCH  54  78
ATOM     78  C   UNL A   1      42.386  24.766  27.390  1.00  0.00     0.023 A 
ATOM     79  C   UNL A   1      41.567  23.623  27.468  1.00  0.00     0.031 A 
ATOM     80  C   UNL A   1      43.192  24.924  26.251  1.00  0.00     0.131 A 
ATOM     81  C   UNL A   1      41.638  22.645  26.467  1.00  0.00     0.055 A 
ATOM     82  C   UNL A   1      43.200  23.984  25.219  1.00  0.00     0.041 A 
ATOM     83  F   UNL A   1      43.999  25.990  26.137  1.00  0.00    -0.206 F 
ATOM     84  C   UNL A   1      42.435  22.827  25.334  1.00  0.00     0.022 A 
BRANCH  81  85
ATOM     85  S   UNL A   1      40.817  21.040  26.679  1.00  0.00     0.124 S 
ATOM     86  O   UNL A   1      40.753  20.921  28.132  1.00  0.00    -0.237 OA
ATOM     87  O   UNL A   1      39.539  21.268  26.007  1.00  0.00    -0.237 OA
ATOM     88  O   UNL A   1      41.712  20.105  26.006  1.00  0.00    -0.744 OA
ENDBRANCH  81  85
ENDBRANCH  54  78
BRANCH  66  89
ATOM     89  C   UNL A   1      46.995  25.750  32.630  1.00  0.00     0.023 A 
ATOM     90  C   UNL A   1      47.006  24.755  33.627  1.00  0.00     0.031 A 
ATOM     91  C   UNL A   1      48.226  26.237  32.161  1.00  0.00     0.131 A 
ATOM     92  C   UNL A   1      48.224  24.320  34.163  1.00  0.00     0.055 A 
ATOM     93  C   UNL A   1      49.438  25.763  32.662  1.00  0.00     0.041 A 
ATOM     94  F   UNL A   1      48.265  27.193  31.219  1.00  0.00    -0.206 F 
ATOM     95  C   UNL A   1      49.441  24.814  33.682  1.00  0.00     0.022 A 
BRANCH  92  96
ATOM     96  S   UNL A   1      48.270  23.177  35.571  1.00  0.00     0.124 S 
ATOM     97  O   UNL A   1      49.617  23.396  36.093  1.00  0.00    -0.237 OA
ATOM     98  O   UNL A   1      47.187  23.681  36.411  1.00  0.00    -0.237 OA
ATOM     99  O   UNL A   1      48.041  21.867  34.971  1.00  0.00    -0.744 OA
ENDBRANCH  92  96
ENDBRANCH  66  89
ENDBRANCH  40  41
ENDBRANCH  32  35
ENDBRANCH  30  31
ENDBRANCH  29  30
ENDBRANCH  28  29
ENDBRANCH   1  28
TORSDOF 20
ENDMDL
MODEL 2
REMARK VINA RESULT:     -10.7      3.336      4.313
REMARK SMILES CC(C)CSc1cc2c(cc1Cl)C=C(C(=O)NCCCCCCNC(=O)c1ccc(-c3c4nc(c(-c5cc(S(=O)(=O)[O-])ccc5F)c5ccc([nH]5)c(-c5cc(S(=O)(=O)[O-])ccc5F)c5nc(c(-c6cc(S(=O)(=O)[O-])ccc6F)c6ccc3[nH]6)C=C5)C=C4)cc1)[C@@H](C(F)(F)F)O2
REMARK SMILES IDX 20 1 19 2 18 3 17 4 15 5 16 6 14 8 6 9 7 10 11 11 8 12 10 13
REMARK SMILES IDX 12 14 9 15 95 16 13 17 90 18 5 19 4 20 2 21 1 22 3 23 91 24
REMARK SMILES IDX 92 25 93 26 94 27 21 28 22 29 23 30 24 31 25 32 26 34 27 35
REMARK SMILES IDX 28 36 89 37 29 38 88 39 30 40 31 41 32 42 82 43 33 44 87 45
REMARK SMILES IDX 81 46 83 47 34 48 86 49 80 50 79 51 35 53 67 54 47 55 66 56
REMARK SMILES IDX 48 57 51 58 65 59 84 60 49 61 50 62 64 64 85 65 52 66 36 67
REMARK SMILES IDX 37 68 45 69 38 70 44 71 46 72 43 73 39 74 40 75 41 76 42 77
REMARK SMILES IDX 68 78 69 79 77 80 70 81 76 82 78 83 75 84 71 85 72 86 73 87
REMARK SMILES IDX 74 88 53 89 54 90 62 91 55 92 61 93 63 94 60 95 56 96 57 97
REMARK SMILES IDX 58 98 59 99
REMARK H PARENT 17 7 24 33 83 52 51 63
REMARK Flexibility Score: inf
ROOT
ATOM      1  C   UNL A   1      33.203  29.151  26.286  1.00  0.00     0.002 C 
ENDROOT
BRANCH   1   2
ATOM      2  C   UNL A   1      32.584  29.810  25.049  1.00  0.00     0.021 C 
BRANCH   2   3
ATOM      3  C   UNL A   1      31.060  29.837  25.054  1.00  0.00     0.116 C 
BRANCH   3   4
ATOM      4  N   UNL A   1      30.540  29.737  23.704  1.00  0.00    -0.352 N 
ATOM      5  C   UNL A   1      30.458  28.790  22.747  1.00  0.00     0.251 C 
ATOM      6  O   UNL A   1      29.957  29.166  21.681  1.00  0.00    -0.270 OA
ATOM      7  H   UNL A   1      30.141  30.586  23.406  1.00  0.00     0.163 HD
BRANCH   5   8
ATOM      8  C   UNL A   1      30.887  27.371  22.895  1.00  0.00     0.067 C 
ATOM      9  C   UNL A   1      31.657  22.737  24.667  1.00  0.00     0.030 A 
ATOM     10  C   UNL A   1      31.794  23.309  23.393  1.00  0.00     0.063 A 
ATOM     11  C   UNL A   1      31.178  23.538  25.720  1.00  0.00     0.055 A 
ATOM     12  C   UNL A   1      31.411  24.633  23.185  1.00  0.00     0.129 A 
ATOM     13  C   UNL A   1      30.663  24.811  25.466  1.00  0.00     0.033 A 
ATOM     14  Cl  UNL A   1      31.255  23.044  27.380  1.00  0.00    -0.083 Cl
ATOM     15  C   UNL A   1      30.770  25.356  24.191  1.00  0.00     0.019 A 
ATOM     16  O   UNL A   1      31.717  25.221  21.986  1.00  0.00    -0.475 OA
ATOM     17  C   UNL A   1      30.297  26.702  23.904  1.00  0.00     0.025 C 
ATOM     18  C   UNL A   1      31.947  26.669  22.089  1.00  0.00     0.314 C 
BRANCH   9  19
ATOM     19  S   UNL A   1      32.165  21.038  24.894  1.00  0.00    -0.124 SA
BRANCH  19  20
ATOM     20  C   UNL A   1      33.342  21.216  26.294  1.00  0.00     0.078 C 
BRANCH  20  21
ATOM     21  C   UNL A   1      34.737  21.734  25.885  1.00  0.00    -0.007 C 
ATOM     22  C   UNL A   1      34.993  21.611  24.381  1.00  0.00     0.008 C 
ATOM     23  C   UNL A   1      34.882  23.214  26.261  1.00  0.00     0.008 C 
ENDBRANCH  20  21
ENDBRANCH  19  20
ENDBRANCH   9  19
BRANCH  18  24
ATOM     24  C   UNL A   1      33.370  26.967  22.622  1.00  0.00     0.429 C 
ATOM     25  F   UNL A   1      34.253  26.042  22.181  1.00  0.00    -0.167 F 
ATOM     26  F   UNL A   1      33.827  28.173  22.201  1.00  0.00    -0.167 F 
ATOM     27  F   UNL A   1      33.433  26.984  23.972  1.00  0.00    -0.167 F 
ENDBRANCH  18  24
ENDBRANCH   5   8
ENDBRANCH   3   4
ENDBRANCH   2   3
ENDBRANCH   1   2
BRANCH   1  28
ATOM     28  C   UNL A   1      33.740  30.117  27.350  1.00  0.00     0.002 C 
BRANCH  28  29
ATOM     29  C   UNL A   1      32.934  31.404  27.535  1.00  0.00     0.021 C 
BRANCH  29  30
ATOM     30  C   UNL A   1      33.701  32.687  27.239  1.00  0.00     0.116 C 
BRANCH  30  31
ATOM     31  N   UNL A   1      33.079  33.856  27.835  1.00  0.00    -0.352 N 
ATOM     32  C   UNL A   1      33.354  34.457  29.044  1.00  0.00     0.251 C 
ATOM     33  H   UNL A   1      32.365  34.277  27.303  1.00  0.00     0.163 HD
ATOM     34  O   UNL A   1      32.631  35.343  29.472  1.00  0.00    -0.269 OA
BRANCH  32  35
ATOM     35  C   UNL A   1      34.515  33.979  29.827  1.00  0.00     0.039 A 
ATOM     36  C   UNL A   1      35.806  34.408  29.509  1.00  0.00     0.014 A 
ATOM     37  C   UNL A   1      34.309  33.049  30.847  1.00  0.00     0.014 A 
ATOM     38  C   UNL A   1      36.900  33.783  30.097  1.00  0.00     0.010 A 
ATOM     39  C   UNL A   1      35.410  32.482  31.494  1.00  0.00     0.010 A 
ATOM     40  C   UNL A   1      36.715  32.806  31.088  1.00  0.00    -0.014 A 
BRANCH  40  41
ATOM     41  C   UNL A   1      37.894  32.123  31.683  1.00  0.00     0.031 A 
ATOM     42  C   UNL A   1      38.390  32.509  33.051  1.00  0.00     0.074 A 
ATOM     43  C   UNL A   1      38.495  31.131  30.999  1.00  0.00     0.049 A 
ATOM     44  N   UNL A   1      39.414  32.041  33.716  1.00  0.00    -0.248 NA
ATOM     45  C   UNL A   1      37.643  33.557  33.766  1.00  0.00     0.031 C 
ATOM     46  C   UNL A   1      38.083  30.664  29.676  1.00  0.00     0.029 A 
ATOM     47  N   UNL A   1      39.563  30.330  31.318  1.00  0.00    -0.354 N 
ATOM     48  C   UNL A   1      39.448  32.747  34.914  1.00  0.00     0.074 A 
ATOM     49  C   UNL A   1      38.361  33.698  34.872  1.00  0.00     0.031 C 
ATOM     50  C   UNL A   1      38.858  29.632  29.314  1.00  0.00     0.029 A 
ATOM     51  C   UNL A   1      39.874  29.413  30.341  1.00  0.00     0.049 A 
ATOM     52  H   UNL A   1      40.059  30.405  32.165  1.00  0.00     0.167 HD
ATOM     53  C   UNL A   1      40.303  32.603  35.954  1.00  0.00     0.034 A 
ATOM     54  C   UNL A   1      40.876  28.513  30.264  1.00  0.00     0.034 A 
ATOM     55  C   UNL A   1      41.367  31.631  35.985  1.00  0.00     0.049 A 
ATOM     56  C   UNL A   1      41.838  28.400  31.417  1.00  0.00     0.074 A 
ATOM     57  C   UNL A   1      42.270  31.390  37.005  1.00  0.00     0.029 A 
ATOM     58  N   UNL A   1      41.668  30.740  34.965  1.00  0.00    -0.354 N 
ATOM     59  N   UNL A   1      41.837  29.054  32.555  1.00  0.00    -0.248 NA
ATOM     60  C   UNL A   1      42.936  27.433  31.284  1.00  0.00     0.031 C 
ATOM     61  C   UNL A   1      43.156  30.401  36.578  1.00  0.00     0.029 A 
ATOM     62  C   UNL A   1      42.760  29.966  35.322  1.00  0.00     0.049 A 
ATOM     63  H   UNL A   1      41.178  30.668  34.114  1.00  0.00     0.167 HD
ATOM     64  C   UNL A   1      42.917  28.562  33.282  1.00  0.00     0.074 A 
ATOM     65  C   UNL A   1      43.536  27.540  32.463  1.00  0.00     0.031 C 
ATOM     66  C   UNL A   1      43.356  28.930  34.512  1.00  0.00     0.034 A 
BRANCH  53  67
ATOM     67  C   UNL A   1      40.140  33.494  37.162  1.00  0.00     0.023 A 
ATOM     68  C   UNL A   1      39.580  32.977  38.345  1.00  0.00     0.031 A 
ATOM     69  C   UNL A   1      40.402  34.873  37.097  1.00  0.00     0.131 A 
ATOM     70  C   UNL A   1      39.266  33.840  39.403  1.00  0.00     0.055 A 
ATOM     71  C   UNL A   1      40.125  35.723  38.171  1.00  0.00     0.041 A 
ATOM     72  F   UNL A   1      40.936  35.415  35.991  1.00  0.00    -0.206 F 
ATOM     73  C   UNL A   1      39.541  35.209  39.324  1.00  0.00     0.022 A 
BRANCH  70  74
ATOM     74  S   UNL A   1      38.425  33.234  40.891  1.00  0.00     0.124 S 
ATOM     75  O   UNL A   1      38.662  31.795  40.804  1.00  0.00    -0.237 OA
ATOM     76  O   UNL A   1      39.151  33.922  41.955  1.00  0.00    -0.237 OA
ATOM     77  O   UNL A   1      37.038  33.647  40.704  1.00  0.00    -0.744 OA
ENDBRANCH  70  74
ENDBRANCH  53  67
BRANCH  54  78
ATOM     78  C   UNL A   1      40.970  27.636  29.059  1.00  0.00     0.023 A 
ATOM     79  C   UNL A   1      41.890  27.918  28.031  1.00  0.00     0.031 A 
ATOM     80  C   UNL A   1      40.063  26.582  28.862  1.00  0.00     0.131 A 
ATOM     81  C   UNL A   1      41.824  27.212  26.824  1.00  0.00     0.055 A 
ATOM     82  C   UNL A   1      40.053  25.830  27.686  1.00  0.00     0.041 A 
ATOM     83  F   UNL A   1      39.159  26.283  29.807  1.00  0.00    -0.206 F 
ATOM     84  C   UNL A   1      40.924  26.157  26.650  1.00  0.00     0.022 A 
BRANCH  81  85
ATOM     85  S   UNL A   1      42.798  27.740  25.386  1.00  0.00     0.124 S 
ATOM     86  O   UNL A   1      42.768  26.548  24.544  1.00  0.00    -0.237 OA
ATOM     87  O   UNL A   1      42.019  28.877  24.899  1.00  0.00    -0.237 OA
ATOM     88  O   UNL A   1      44.097  28.079  25.956  1.00  0.00    -0.744 OA
ENDBRANCH  81  85
ENDBRANCH  54  78
BRANCH  66  89
ATOM     89  C   UNL A   1      44.560  28.231  35.094  1.00  0.00     0.023 A 
ATOM     90  C   UNL A   1      44.379  27.170  36.003  1.00  0.00     0.031 A 
ATOM     91  C   UNL A   1      45.860  28.726  34.899  1.00  0.00     0.131 A 
ATOM     92  C   UNL A   1      45.472  26.678  36.726  1.00  0.00     0.055 A 
ATOM     93  C   UNL A   1      46.954  28.198  35.584  1.00  0.00     0.041 A 
ATOM     94  F   UNL A   1      46.080  29.743  34.050  1.00  0.00    -0.206 F 
ATOM     95  C   UNL A   1      46.760  27.181  36.517  1.00  0.00     0.022 A 
BRANCH  92  96
ATOM     96  S   UNL A   1      45.247  25.442  38.035  1.00  0.00     0.124 S 
ATOM     97  O   UNL A   1      45.556  26.214  39.236  1.00  0.00    -0.237 OA
ATOM     98  O   UNL A   1      43.843  25.076  37.873  1.00  0.00    -0.237 OA
ATOM     99  O   UNL A   1      46.210  24.397  37.703  1.00  0.00    -0.744 OA
ENDBRANCH  92  96
ENDBRANCH  66  89
ENDBRANCH  40  41
ENDBRANCH  32  35
ENDBRANCH  30  31
ENDBRANCH  29  30
ENDBRANCH  28  29
ENDBRANCH   1  28
TORSDOF 20
ENDMDL
MODEL 3
REMARK VINA RESULT:     -10.6      2.793      7.970
REMARK SMILES CC(C)CSc1cc2c(cc1Cl)C=C(C(=O)NCCCCCCNC(=O)c1ccc(-c3c4nc(c(-c5cc(S(=O)(=O)[O-])ccc5F)c5ccc([nH]5)c(-c5cc(S(=O)(=O)[O-])ccc5F)c5nc(c(-c6cc(S(=O)(=O)[O-])ccc6F)c6ccc3[nH]6)C=C5)C=C4)cc1)[C@@H](C(F)(F)F)O2
REMARK SMILES IDX 20 1 19 2 18 3 17 4 15 5 16 6 14 8 6 9 7 10 11 11 8 12 10 13
REMARK SMILES IDX 12 14 9 15 95 16 13 17 90 18 5 19 4 20 2 21 1 22 3 23 91 24
REMARK SMILES IDX 92 25 93 26 94 27 21 28 22 29 23 30 24 31 25 32 26 34 27 35
REMARK SMILES IDX 28 36 89 37 29 38 88 39 30 40 31 41 32 42 82 43 33 44 87 45
REMARK SMILES IDX 81 46 83 47 34 48 86 49 80 50 79 51 35 53 67 54 47 55 66 56
REMARK SMILES IDX 48 57 51 58 65 59 84 60 49 61 50 62 64 64 85 65 52 66 36 67
REMARK SMILES IDX 37 68 45 69 38 70 44 71 46 72 43 73 39 74 40 75 41 76 42 77
REMARK SMILES IDX 68 78 69 79 77 80 70 81 76 82 78 83 75 84 71 85 72 86 73 87
REMARK SMILES IDX 74 88 53 89 54 90 62 91 55 92 61 93 63 94 60 95 56 96 57 97
REMARK SMILES IDX 58 98 59 99
REMARK H PARENT 17 7 24 33 83 52 51 63
REMARK Flexibility Score: inf
ROOT
ATOM      1  C   UNL A   1      33.508  29.191  26.297  1.00  0.00     0.002 C 
ENDROOT
BRANCH   1   2
ATOM      2  C   UNL A   1      32.740  29.837  25.139  1.00  0.00     0.021 C 
BRANCH   2   3
ATOM      3  C   UNL A   1      31.228  29.661  25.220  1.00  0.00     0.116 C 
BRANCH   3   4
ATOM      4  N   UNL A   1      30.642  29.630  23.894  1.00  0.00    -0.352 N 
ATOM      5  C   UNL A   1      30.508  28.730  22.897  1.00  0.00     0.251 C 
ATOM      6  O   UNL A   1      29.959  29.160  21.876  1.00  0.00    -0.270 OA
ATOM      7  H   UNL A   1      30.235  30.494  23.657  1.00  0.00     0.163 HD
BRANCH   5   8
ATOM      8  C   UNL A   1      30.934  27.304  22.956  1.00  0.00     0.067 C 
ATOM      9  C   UNL A   1      31.757  22.586  24.461  1.00  0.00     0.030 A 
ATOM     10  C   UNL A   1      31.838  23.219  23.211  1.00  0.00     0.063 A 
ATOM     11  C   UNL A   1      31.334  23.336  25.573  1.00  0.00     0.055 A 
ATOM     12  C   UNL A   1      31.454  24.553  23.087  1.00  0.00     0.129 A 
ATOM     13  C   UNL A   1      30.815  24.622  25.406  1.00  0.00     0.033 A 
ATOM     14  Cl  UNL A   1      31.485  22.761  27.202  1.00  0.00    -0.083 Cl
ATOM     15  C   UNL A   1      30.866  25.228  24.156  1.00  0.00     0.019 A 
ATOM     16  O   UNL A   1      31.706  25.198  21.904  1.00  0.00    -0.475 OA
ATOM     17  C   UNL A   1      30.388  26.589  23.957  1.00  0.00     0.025 C 
ATOM     18  C   UNL A   1      31.950  26.638  22.066  1.00  0.00     0.314 C 
BRANCH   9  19
ATOM     19  S   UNL A   1      32.264  20.875  24.580  1.00  0.00    -0.124 SA
BRANCH  19  20
ATOM     20  C   UNL A   1      33.850  21.051  25.492  1.00  0.00     0.078 C 
BRANCH  20  21
ATOM     21  C   UNL A   1      35.043  21.472  24.609  1.00  0.00    -0.007 C 
ATOM     22  C   UNL A   1      35.305  22.980  24.653  1.00  0.00     0.008 C 
ATOM     23  C   UNL A   1      36.323  20.766  25.075  1.00  0.00     0.008 C 
ENDBRANCH  20  21
ENDBRANCH  19  20
ENDBRANCH   9  19
BRANCH  18  24
ATOM     24  C   UNL A   1      33.398  26.903  22.545  1.00  0.00     0.429 C 
ATOM     25  F   UNL A   1      33.879  28.051  22.013  1.00  0.00    -0.167 F 
ATOM     26  F   UNL A   1      33.470  27.040  23.892  1.00  0.00    -0.167 F 
ATOM     27  F   UNL A   1      34.253  25.910  22.215  1.00  0.00    -0.167 F 
ENDBRANCH  18  24
ENDBRANCH   5   8
ENDBRANCH   3   4
ENDBRANCH   2   3
ENDBRANCH   1   2
BRANCH   1  28
ATOM     28  C   UNL A   1      33.919  30.141  27.428  1.00  0.00     0.002 C 
BRANCH  28  29
ATOM     29  C   UNL A   1      33.020  31.364  27.618  1.00  0.00     0.021 C 
BRANCH  29  30
ATOM     30  C   UNL A   1      33.595  32.669  27.082  1.00  0.00     0.116 C 
BRANCH  30  31
ATOM     31  N   UNL A   1      33.032  33.836  27.740  1.00  0.00    -0.352 N 
ATOM     32  C   UNL A   1      33.384  34.398  28.947  1.00  0.00     0.251 C 
ATOM     33  H   UNL A   1      32.301  34.286  27.257  1.00  0.00     0.163 HD
ATOM     34  O   UNL A   1      32.705  35.288  29.435  1.00  0.00    -0.269 OA
BRANCH  32  35
ATOM     35  C   UNL A   1      34.573  33.875  29.656  1.00  0.00     0.039 A 
ATOM     36  C   UNL A   1      35.857  34.264  29.264  1.00  0.00     0.014 A 
ATOM     37  C   UNL A   1      34.397  32.942  30.679  1.00  0.00     0.014 A 
ATOM     38  C   UNL A   1      36.962  33.597  29.780  1.00  0.00     0.010 A 
ATOM     39  C   UNL A   1      35.516  32.332  31.254  1.00  0.00     0.010 A 
ATOM     40  C   UNL A   1      36.804  32.617  30.773  1.00  0.00    -0.014 A 
BRANCH  40  41
ATOM     41  C   UNL A   1      37.993  31.890  31.290  1.00  0.00     0.031 A 
ATOM     42  C   UNL A   1      38.662  30.830  30.456  1.00  0.00     0.074 A 
ATOM     43  C   UNL A   1      38.487  32.211  32.501  1.00  0.00     0.049 A 
ATOM     44  N   UNL A   1      39.690  30.079  30.752  1.00  0.00    -0.248 NA
ATOM     45  C   UNL A   1      38.106  30.579  29.116  1.00  0.00     0.031 C 
ATOM     46  C   UNL A   1      37.928  33.236  33.382  1.00  0.00     0.029 A 
ATOM     47  N   UNL A   1      39.568  31.728  33.194  1.00  0.00    -0.354 N 
ATOM     48  C   UNL A   1      39.892  29.254  29.651  1.00  0.00     0.074 A 
ATOM     49  C   UNL A   1      38.860  29.574  28.691  1.00  0.00     0.031 C 
ATOM     50  C   UNL A   1      38.693  33.336  34.478  1.00  0.00     0.029 A 
ATOM     51  C   UNL A   1      39.750  32.330  34.418  1.00  0.00     0.049 A 
ATOM     52  H   UNL A   1      40.156  31.018  32.850  1.00  0.00     0.167 HD
ATOM     53  C   UNL A   1      40.858  28.325  29.459  1.00  0.00     0.034 A 
ATOM     54  C   UNL A   1      40.649  32.088  35.394  1.00  0.00     0.034 A 
ATOM     55  C   UNL A   1      41.893  28.036  30.420  1.00  0.00     0.049 A 
ATOM     56  C   UNL A   1      41.689  31.021  35.172  1.00  0.00     0.074 A 
ATOM     57  C   UNL A   1      42.932  27.131  30.307  1.00  0.00     0.029 A 
ATOM     58  N   UNL A   1      42.027  28.647  31.659  1.00  0.00    -0.354 N 
ATOM     59  N   UNL A   1      41.884  30.271  34.113  1.00  0.00    -0.248 NA
ATOM     60  C   UNL A   1      42.630  30.760  36.270  1.00  0.00     0.031 C 
ATOM     61  C   UNL A   1      43.656  27.146  31.499  1.00  0.00     0.029 A 
ATOM     62  C   UNL A   1      43.117  28.117  32.330  1.00  0.00     0.049 A 
ATOM     63  H   UNL A   1      41.436  29.352  32.009  1.00  0.00     0.167 HD
ATOM     64  C   UNL A   1      42.983  29.469  34.406  1.00  0.00     0.074 A 
ATOM     65  C   UNL A   1      43.422  29.839  35.735  1.00  0.00     0.031 C 
ATOM     66  C   UNL A   1      43.567  28.510  33.644  1.00  0.00     0.034 A 
BRANCH  53  67
ATOM     67  C   UNL A   1      40.874  27.545  28.166  1.00  0.00     0.023 A 
ATOM     68  C   UNL A   1      40.502  26.187  28.161  1.00  0.00     0.031 A 
ATOM     69  C   UNL A   1      41.388  28.098  26.981  1.00  0.00     0.131 A 
ATOM     70  C   UNL A   1      40.684  25.418  27.004  1.00  0.00     0.055 A 
ATOM     71  C   UNL A   1      41.528  27.338  25.818  1.00  0.00     0.041 A 
ATOM     72  F   UNL A   1      41.757  29.388  26.933  1.00  0.00    -0.206 F 
ATOM     73  C   UNL A   1      41.189  25.988  25.831  1.00  0.00     0.022 A 
BRANCH  70  74
ATOM     74  S   UNL A   1      40.340  23.638  26.995  1.00  0.00     0.124 S 
ATOM     75  O   UNL A   1      41.248  23.164  25.952  1.00  0.00    -0.237 OA
ATOM     76  O   UNL A   1      40.698  23.250  28.356  1.00  0.00    -0.237 OA
ATOM     77  O   UNL A   1      38.920  23.556  26.667  1.00  0.00    -0.744 OA
ENDBRANCH  70  74
ENDBRANCH  53  67
BRANCH  54  78
ATOM     78  C   UNL A   1      40.606  32.911  36.639  1.00  0.00     0.023 A 
ATOM     79  C   UNL A   1      39.778  32.546  37.718  1.00  0.00     0.031 A 
ATOM     80  C   UNL A   1      41.293  34.134  36.719  1.00  0.00     0.131 A 
ATOM     81  C   UNL A   1      39.594  33.432  38.786  1.00  0.00     0.055 A 
ATOM     82  C   UNL A   1      41.166  34.978  37.823  1.00  0.00     0.041 A 
ATOM     83  F   UNL A   1      42.084  34.531  35.711  1.00  0.00    -0.206 F 
ATOM     84  C   UNL A   1      40.296  34.638  38.856  1.00  0.00     0.022 A 
BRANCH  81  85
ATOM     85  S   UNL A   1      38.322  33.118  40.043  1.00  0.00     0.124 S 
ATOM     86  O   UNL A   1      38.410  34.318  40.870  1.00  0.00    -0.237 OA
ATOM     87  O   UNL A   1      37.116  33.002  39.225  1.00  0.00    -0.237 OA
ATOM     88  O   UNL A   1      38.762  31.880  40.676  1.00  0.00    -0.744 OA
ENDBRANCH  81  85
ENDBRANCH  54  78
BRANCH  66  89
ATOM     89  C   UNL A   1      44.767  27.777  34.192  1.00  0.00     0.023 A 
ATOM     90  C   UNL A   1      44.591  26.543  34.848  1.00  0.00     0.031 A 
ATOM     91  C   UNL A   1      46.036  28.377  34.230  1.00  0.00     0.131 A 
ATOM     92  C   UNL A   1      45.653  25.977  35.563  1.00  0.00     0.055 A 
ATOM     93  C   UNL A   1      47.105  27.783  34.902  1.00  0.00     0.041 A 
ATOM     94  F   UNL A   1      46.250  29.558  33.628  1.00  0.00    -0.206 F 
ATOM     95  C   UNL A   1      46.911  26.587  35.588  1.00  0.00     0.022 A 
BRANCH  92  96
ATOM     96  S   UNL A   1      45.413  24.486  36.569  1.00  0.00     0.124 S 
ATOM     97  O   UNL A   1      44.328  23.814  35.858  1.00  0.00    -0.237 OA
ATOM     98  O   UNL A   1      46.718  23.838  36.473  1.00  0.00    -0.237 OA
ATOM     99  O   UNL A   1      45.064  25.003  37.889  1.00  0.00    -0.744 OA
ENDBRANCH  92  96
ENDBRANCH  66  89
ENDBRANCH  40  41
ENDBRANCH  32  35
ENDBRANCH  30  31
ENDBRANCH  29  30
ENDBRANCH  28  29
ENDBRANCH   1  28
TORSDOF 20
ENDMDL
