MODEL 1
REMARK VINA RESULT:     -10.8      0.000      0.000
REMARK SMILES O=C(NCCCCCCNC(=O)C1CCN(C(=O)COc2ccc(Cl)cc2Cl)CC1)c1ccc(-c2c3nc(c(-c4cc(S(=O)(=O)[O-])ccc4F)c4ccc([nH]4)c(-c4cc(S(=O)(=O)[O-])ccc4F)c4nc(c(-c5cc(S(=O)(=O)[O-])ccc5F)c5ccc2[nH]5)C=C4)C=C3)cc1
REMARK SMILES IDX 6 1 5 2 4 3 3 4 1 5 2 6 31 8 32 9 93 10 33 11 92 12 34 13
REMARK SMILES IDX 35 14 36 15 86 16 37 17 91 18 85 19 87 20 38 21 90 22 84 23
REMARK SMILES IDX 83 24 39 26 71 27 51 28 70 29 52 30 55 31 69 32 88 33 53 34
REMARK SMILES IDX 54 35 68 37 89 38 56 39 40 40 41 41 49 42 42 43 48 44 50 45
REMARK SMILES IDX 47 46 43 47 44 48 45 49 46 50 72 51 73 52 81 53 74 54 80 55
REMARK SMILES IDX 82 56 79 57 75 58 76 59 77 60 78 61 57 62 58 63 66 64 59 65
REMARK SMILES IDX 65 66 67 67 64 68 60 69 61 70 62 71 63 72 7 73 8 74 9 75
REMARK SMILES IDX 10 76 11 77 12 79 13 80 14 81 30 82 15 83 29 84 16 85 17 86
REMARK SMILES IDX 18 87 19 88 20 89 21 90 22 91 27 92 23 93 26 94 28 95 24 96
REMARK SMILES IDX 25 97
REMARK H PARENT 3 7 87 25 55 36 10 78
REMARK Flexibility Score: inf
ROOT
ATOM      1  C   UNL A   1      34.965  31.886  28.121  1.00  0.00     0.002 C 
ENDROOT
BRANCH   1   2
ATOM      2  C   UNL A   1      33.681  32.706  27.998  1.00  0.00     0.021 C 
BRANCH   2   3
ATOM      3  C   UNL A   1      33.876  34.217  28.001  1.00  0.00     0.116 C 
BRANCH   3   4
ATOM      4  N   UNL A   1      33.131  34.879  29.060  1.00  0.00    -0.352 N 
ATOM      5  O   UNL A   1      32.538  35.347  31.187  1.00  0.00    -0.269 OA
ATOM      6  C   UNL A   1      33.349  34.839  30.417  1.00  0.00     0.251 C 
ATOM      7  H   UNL A   1      32.369  35.430  28.766  1.00  0.00     0.163 HD
BRANCH   6   8
ATOM      8  C   UNL A   1      34.552  34.158  30.944  1.00  0.00     0.039 A 
ATOM      9  C   UNL A   1      35.826  34.668  30.687  1.00  0.00     0.014 A 
ATOM     10  C   UNL A   1      34.403  32.988  31.693  1.00  0.00     0.014 A 
ATOM     11  C   UNL A   1      36.950  33.938  31.057  1.00  0.00     0.010 A 
ATOM     12  C   UNL A   1      35.535  32.298  32.136  1.00  0.00     0.010 A 
ATOM     13  C   UNL A   1      36.820  32.750  31.794  1.00  0.00    -0.014 A 
BRANCH  13  14
ATOM     14  C   UNL A   1      38.044  32.030  32.233  1.00  0.00     0.031 A 
ATOM     15  C   UNL A   1      38.682  32.317  33.564  1.00  0.00     0.074 A 
ATOM     16  C   UNL A   1      38.556  31.078  31.427  1.00  0.00     0.049 A 
ATOM     17  N   UNL A   1      39.730  31.757  34.115  1.00  0.00    -0.248 NA
ATOM     18  C   UNL A   1      38.071  33.376  34.378  1.00  0.00     0.031 C 
ATOM     19  C   UNL A   1      38.023  30.719  30.109  1.00  0.00     0.029 A 
ATOM     20  N   UNL A   1      39.615  30.226  31.599  1.00  0.00    -0.354 N 
ATOM     21  C   UNL A   1      39.916  32.405  35.331  1.00  0.00     0.074 A 
ATOM     22  C   UNL A   1      38.891  33.425  35.419  1.00  0.00     0.031 C 
ATOM     23  C   UNL A   1      38.722  29.686  29.619  1.00  0.00     0.029 A 
ATOM     24  C   UNL A   1      39.793  29.352  30.551  1.00  0.00     0.049 A 
ATOM     25  H   UNL A   1      40.193  30.237  32.395  1.00  0.00     0.167 HD
ATOM     26  C   UNL A   1      40.850  32.164  36.287  1.00  0.00     0.034 A 
ATOM     27  C   UNL A   1      40.720  28.396  30.355  1.00  0.00     0.034 A 
ATOM     28  C   UNL A   1      41.865  31.140  36.182  1.00  0.00     0.049 A 
ATOM     29  C   UNL A   1      41.766  28.175  31.413  1.00  0.00     0.074 A 
ATOM     30  C   UNL A   1      42.837  30.789  37.103  1.00  0.00     0.029 A 
ATOM     31  N   UNL A   1      42.047  30.308  35.084  1.00  0.00    -0.354 N 
ATOM     32  N   UNL A   1      41.915  28.784  32.567  1.00  0.00    -0.248 NA
ATOM     33  C   UNL A   1      42.765  27.136  31.141  1.00  0.00     0.031 C 
ATOM     34  C   UNL A   1      43.644  29.794  36.537  1.00  0.00     0.029 A 
ATOM     35  C   UNL A   1      43.134  29.469  35.291  1.00  0.00     0.049 A 
ATOM     36  H   UNL A   1      41.486  30.314  34.274  1.00  0.00     0.167 HD
ATOM     37  C   UNL A   1      43.018  28.187  33.167  1.00  0.00     0.074 A 
ATOM     38  C   UNL A   1      43.478  27.157  32.258  1.00  0.00     0.031 C 
ATOM     39  C   UNL A   1      43.597  28.463  34.364  1.00  0.00     0.034 A 
BRANCH  26  40
ATOM     40  C   UNL A   1      40.842  33.058  37.507  1.00  0.00     0.023 A 
ATOM     41  C   UNL A   1      40.147  32.707  38.680  1.00  0.00     0.031 A 
ATOM     42  C   UNL A   1      41.513  34.293  37.487  1.00  0.00     0.131 A 
ATOM     43  C   UNL A   1      40.078  33.611  39.751  1.00  0.00     0.055 A 
ATOM     44  C   UNL A   1      41.506  35.154  38.586  1.00  0.00     0.041 A 
ATOM     45  F   UNL A   1      42.177  34.692  36.391  1.00  0.00    -0.206 F 
ATOM     46  C   UNL A   1      40.772  34.823  39.721  1.00  0.00     0.022 A 
BRANCH  43  47
ATOM     47  S   UNL A   1      38.946  33.247  41.122  1.00  0.00     0.124 S 
ATOM     48  O   UNL A   1      37.890  34.234  40.906  1.00  0.00    -0.237 OA
ATOM     49  O   UNL A   1      38.581  31.858  40.868  1.00  0.00    -0.237 OA
ATOM     50  O   UNL A   1      39.764  33.471  42.311  1.00  0.00    -0.744 OA
ENDBRANCH  43  47
ENDBRANCH  26  40
BRANCH  27  51
ATOM     51  C   UNL A   1      40.715  27.595  29.100  1.00  0.00     0.023 A 
ATOM     52  C   UNL A   1      41.622  27.866  28.065  1.00  0.00     0.031 A 
ATOM     53  C   UNL A   1      39.788  26.554  28.912  1.00  0.00     0.131 A 
ATOM     54  C   UNL A   1      41.561  27.128  26.872  1.00  0.00     0.055 A 
ATOM     55  C   UNL A   1      39.764  25.790  27.746  1.00  0.00     0.041 A 
ATOM     56  F   UNL A   1      38.903  26.250  29.876  1.00  0.00    -0.206 F 
ATOM     57  C   UNL A   1      40.647  26.083  26.712  1.00  0.00     0.022 A 
BRANCH  54  58
ATOM     58  S   UNL A   1      42.652  27.599  25.504  1.00  0.00     0.124 S 
ATOM     59  O   UNL A   1      41.984  28.787  24.985  1.00  0.00    -0.237 OA
ATOM     60  O   UNL A   1      43.919  27.825  26.192  1.00  0.00    -0.237 OA
ATOM     61  O   UNL A   1      42.621  26.431  24.627  1.00  0.00    -0.744 OA
ENDBRANCH  54  58
ENDBRANCH  27  51
BRANCH  39  62
ATOM     62  C   UNL A   1      44.773  27.605  34.757  1.00  0.00     0.023 A 
ATOM     63  C   UNL A   1      44.600  26.337  35.338  1.00  0.00     0.031 A 
ATOM     64  C   UNL A   1      46.085  28.081  34.586  1.00  0.00     0.131 A 
ATOM     65  C   UNL A   1      45.716  25.616  35.788  1.00  0.00     0.055 A 
ATOM     66  C   UNL A   1      47.195  27.334  34.981  1.00  0.00     0.041 A 
ATOM     67  F   UNL A   1      46.308  29.288  34.039  1.00  0.00    -0.206 F 
ATOM     68  C   UNL A   1      47.013  26.100  35.600  1.00  0.00     0.022 A 
BRANCH  65  69
ATOM     69  S   UNL A   1      45.445  24.082  36.717  1.00  0.00     0.124 S 
ATOM     70  O   UNL A   1      44.391  23.438  35.940  1.00  0.00    -0.237 OA
ATOM     71  O   UNL A   1      46.757  23.448  36.663  1.00  0.00    -0.237 OA
ATOM     72  O   UNL A   1      45.039  24.551  38.042  1.00  0.00    -0.744 OA
ENDBRANCH  65  69
ENDBRANCH  39  62
ENDBRANCH  13  14
ENDBRANCH   6   8
ENDBRANCH   3   4
ENDBRANCH   2   3
ENDBRANCH   1   2
BRANCH   1  73
ATOM     73  C   UNL A   1      34.845  30.407  27.743  1.00  0.00     0.002 C 
BRANCH  73  74
ATOM     74  C   UNL A   1      33.764  30.065  26.709  1.00  0.00     0.021 C 
BRANCH  74  75
ATOM     75  C   UNL A   1      32.574  29.276  27.250  1.00  0.00     0.116 C 
BRANCH  75  76
ATOM     76  N   UNL A   1      31.673  28.877  26.185  1.00  0.00    -0.356 N 
ATOM     77  C   UNL A   1      31.607  27.744  25.444  1.00  0.00     0.223 C 
ATOM     78  H   UNL A   1      30.989  29.549  25.962  1.00  0.00     0.163 HD
ATOM     79  O   UNL A   1      30.731  27.682  24.579  1.00  0.00    -0.275 OA
BRANCH  77  80
ATOM     80  C   UNL A   1      32.602  26.613  25.665  1.00  0.00     0.082 C 
ATOM     81  C   UNL A   1      33.449  26.397  24.401  1.00  0.00     0.035 C 
ATOM     82  C   UNL A   1      31.866  25.336  26.107  1.00  0.00     0.035 C 
ATOM     83  C   UNL A   1      32.699  25.632  23.306  1.00  0.00     0.120 C 
ATOM     84  C   UNL A   1      31.188  24.610  24.950  1.00  0.00     0.120 C 
ATOM     85  N   UNL A   1      32.136  24.405  23.859  1.00  0.00    -0.340 N 
ATOM     86  C   UNL A   1      32.556  23.175  23.380  1.00  0.00     0.260 C 
ATOM     87  O   UNL A   1      33.236  23.064  22.355  1.00  0.00    -0.271 OA
BRANCH  86  88
ATOM     88  C   UNL A   1      32.200  21.918  24.186  1.00  0.00     0.329 C 
BRANCH  88  89
ATOM     89  O   UNL A   1      32.834  21.742  25.447  1.00  0.00    -0.482 OA
BRANCH  89  90
ATOM     90  C   UNL A   1      34.184  21.965  25.498  1.00  0.00     0.138 A 
ATOM     91  C   UNL A   1      34.743  23.160  25.960  1.00  0.00     0.049 A 
ATOM     92  C   UNL A   1      35.035  20.894  25.183  1.00  0.00     0.084 A 
ATOM     93  C   UNL A   1      36.129  23.291  26.083  1.00  0.00     0.024 A 
ATOM     94  C   UNL A   1      36.421  21.025  25.300  1.00  0.00     0.045 A 
ATOM     95  Cl  UNL A   1      34.405  19.383  24.626  1.00  0.00    -0.080 Cl
ATOM     96  C   UNL A   1      36.960  22.226  25.751  1.00  0.00     0.042 A 
ATOM     97  Cl  UNL A   1      38.664  22.395  25.910  1.00  0.00    -0.084 Cl
ENDBRANCH  89  90
ENDBRANCH  88  89
ENDBRANCH  86  88
ENDBRANCH  77  80
ENDBRANCH  75  76
ENDBRANCH  74  75
ENDBRANCH  73  74
ENDBRANCH   1  73
TORSDOF 19
ENDMDL
MODEL 2
REMARK VINA RESULT:     -10.7      2.536      3.447
REMARK SMILES O=C(NCCCCCCNC(=O)C1CCN(C(=O)COc2ccc(Cl)cc2Cl)CC1)c1ccc(-c2c3nc(c(-c4cc(S(=O)(=O)[O-])ccc4F)c4ccc([nH]4)c(-c4cc(S(=O)(=O)[O-])ccc4F)c4nc(c(-c5cc(S(=O)(=O)[O-])ccc5F)c5ccc2[nH]5)C=C4)C=C3)cc1
REMARK SMILES IDX 6 1 5 2 4 3 3 4 1 5 2 6 31 8 32 9 93 10 33 11 92 12 34 13
REMARK SMILES IDX 35 14 36 15 86 16 37 17 91 18 85 19 87 20 38 21 90 22 84 23
REMARK SMILES IDX 83 24 39 26 71 27 51 28 70 29 52 30 55 31 69 32 88 33 53 34
REMARK SMILES IDX 54 35 68 37 89 38 56 39 40 40 41 41 49 42 42 43 48 44 50 45
REMARK SMILES IDX 47 46 43 47 44 48 45 49 46 50 72 51 73 52 81 53 74 54 80 55
REMARK SMILES IDX 82 56 79 57 75 58 76 59 77 60 78 61 57 62 58 63 66 64 59 65
REMARK SMILES IDX 65 66 67 67 64 68 60 69 61 70 62 71 63 72 7 73 8 74 9 75
REMARK SMILES IDX 10 76 11 77 12 79 13 80 14 81 30 82 15 83 29 84 16 85 17 86
REMARK SMILES IDX 18 87 19 88 20 89 21 90 22 91 27 92 23 93 26 94 28 95 24 96
REMARK SMILES IDX 25 97
REMARK H PARENT 3 7 87 25 55 36 10 78
REMARK Flexibility Score: inf
ROOT
ATOM      1  C   UNL A   1      31.430  29.557  25.338  1.00  0.00     0.002 C 
ENDROOT
BRANCH   1   2
ATOM      2  C   UNL A   1      32.865  29.073  25.128  1.00  0.00     0.021 C 
BRANCH   2   3
ATOM      3  C   UNL A   1      33.861  29.527  26.187  1.00  0.00     0.116 C 
BRANCH   3   4
ATOM      4  N   UNL A   1      33.553  30.844  26.724  1.00  0.00    -0.352 N 
ATOM      5  O   UNL A   1      33.757  32.604  28.122  1.00  0.00    -0.269 OA
ATOM      6  C   UNL A   1      34.231  31.560  27.682  1.00  0.00     0.251 C 
ATOM      7  H   UNL A   1      32.753  31.280  26.351  1.00  0.00     0.163 HD
BRANCH   6   8
ATOM      8  C   UNL A   1      35.523  31.053  28.195  1.00  0.00     0.039 A 
ATOM      9  C   UNL A   1      35.590  29.831  28.868  1.00  0.00     0.014 A 
ATOM     10  C   UNL A   1      36.679  31.817  28.012  1.00  0.00     0.014 A 
ATOM     11  C   UNL A   1      36.777  29.441  29.477  1.00  0.00     0.010 A 
ATOM     12  C   UNL A   1      37.892  31.382  28.555  1.00  0.00     0.010 A 
ATOM     13  C   UNL A   1      37.946  30.205  29.320  1.00  0.00    -0.014 A 
BRANCH  13  14
ATOM     14  C   UNL A   1      39.214  29.725  29.926  1.00  0.00     0.031 A 
ATOM     15  C   UNL A   1      39.651  30.189  31.288  1.00  0.00     0.074 A 
ATOM     16  C   UNL A   1      39.955  28.828  29.246  1.00  0.00     0.049 A 
ATOM     17  N   UNL A   1      40.710  29.843  31.978  1.00  0.00    -0.248 NA
ATOM     18  C   UNL A   1      38.795  31.175  31.960  1.00  0.00     0.031 C 
ATOM     19  C   UNL A   1      39.632  28.311  27.912  1.00  0.00     0.029 A 
ATOM     20  N   UNL A   1      41.112  28.175  29.582  1.00  0.00    -0.354 N 
ATOM     21  C   UNL A   1      40.658  30.580  33.156  1.00  0.00     0.074 A 
ATOM     22  C   UNL A   1      39.480  31.418  33.069  1.00  0.00     0.031 C 
ATOM     23  C   UNL A   1      40.535  27.383  27.569  1.00  0.00     0.029 A 
ATOM     24  C   UNL A   1      41.539  27.285  28.622  1.00  0.00     0.049 A 
ATOM     25  H   UNL A   1      41.592  28.327  30.427  1.00  0.00     0.167 HD
ATOM     26  C   UNL A   1      41.510  30.552  34.213  1.00  0.00     0.034 A 
ATOM     27  C   UNL A   1      42.623  26.488  28.587  1.00  0.00     0.034 A 
ATOM     28  C   UNL A   1      42.681  29.707  34.282  1.00  0.00     0.049 A 
ATOM     29  C   UNL A   1      43.570  26.503  29.755  1.00  0.00     0.074 A 
ATOM     30  C   UNL A   1      43.592  29.575  35.316  1.00  0.00     0.029 A 
ATOM     31  N   UNL A   1      43.111  28.856  33.270  1.00  0.00    -0.354 N 
ATOM     32  N   UNL A   1      43.495  27.192  30.870  1.00  0.00    -0.248 NA
ATOM     33  C   UNL A   1      44.746  25.632  29.658  1.00  0.00     0.031 C 
ATOM     34  C   UNL A   1      44.603  28.698  34.905  1.00  0.00     0.029 A 
ATOM     35  C   UNL A   1      44.289  28.223  33.642  1.00  0.00     0.049 A 
ATOM     36  H   UNL A   1      42.646  28.723  32.412  1.00  0.00     0.167 HD
ATOM     37  C   UNL A   1      44.608  26.822  31.617  1.00  0.00     0.074 A 
ATOM     38  C   UNL A   1      45.322  25.833  30.834  1.00  0.00     0.031 C 
ATOM     39  C   UNL A   1      45.003  27.257  32.840  1.00  0.00     0.034 A 
BRANCH  26  40
ATOM     40  C   UNL A   1      41.228  31.499  35.358  1.00  0.00     0.023 A 
ATOM     41  C   UNL A   1      40.071  31.383  36.149  1.00  0.00     0.031 A 
ATOM     42  C   UNL A   1      42.115  32.553  35.643  1.00  0.00     0.131 A 
ATOM     43  C   UNL A   1      39.795  32.345  37.134  1.00  0.00     0.055 A 
ATOM     44  C   UNL A   1      41.874  33.461  36.675  1.00  0.00     0.041 A 
ATOM     45  F   UNL A   1      43.226  32.727  34.910  1.00  0.00    -0.206 F 
ATOM     46  C   UNL A   1      40.700  33.370  37.418  1.00  0.00     0.022 A 
BRANCH  43  47
ATOM     47  S   UNL A   1      38.167  32.324  37.935  1.00  0.00     0.124 S 
ATOM     48  O   UNL A   1      37.593  33.587  37.475  1.00  0.00    -0.237 OA
ATOM     49  O   UNL A   1      37.563  31.114  37.389  1.00  0.00    -0.237 OA
ATOM     50  O   UNL A   1      38.485  32.275  39.359  1.00  0.00    -0.744 OA
ENDBRANCH  43  47
ENDBRANCH  26  40
BRANCH  27  51
ATOM     51  C   UNL A   1      42.881  25.627  27.400  1.00  0.00     0.023 A 
ATOM     52  C   UNL A   1      42.557  24.262  27.412  1.00  0.00     0.031 A 
ATOM     53  C   UNL A   1      43.472  26.157  26.238  1.00  0.00     0.131 A 
ATOM     54  C   UNL A   1      42.859  23.464  26.298  1.00  0.00     0.055 A 
ATOM     55  C   UNL A   1      43.722  25.370  25.115  1.00  0.00     0.041 A 
ATOM     56  F   UNL A   1      43.794  27.459  26.174  1.00  0.00    -0.206 F 
ATOM     57  C   UNL A   1      43.426  24.012  25.144  1.00  0.00     0.022 A 
BRANCH  54  58
ATOM     58  S   UNL A   1      42.557  21.680  26.402  1.00  0.00     0.124 S 
ATOM     59  O   UNL A   1      41.308  21.544  25.663  1.00  0.00    -0.237 OA
ATOM     60  O   UNL A   1      43.747  21.133  25.758  1.00  0.00    -0.237 OA
ATOM     61  O   UNL A   1      42.463  21.434  27.840  1.00  0.00    -0.744 OA
ENDBRANCH  54  58
ENDBRANCH  27  51
BRANCH  39  62
ATOM     62  C   UNL A   1      46.253  26.631  33.407  1.00  0.00     0.023 A 
ATOM     63  C   UNL A   1      46.211  25.425  34.129  1.00  0.00     0.031 A 
ATOM     64  C   UNL A   1      47.496  27.272  33.260  1.00  0.00     0.131 A 
ATOM     65  C   UNL A   1      47.378  24.930  34.731  1.00  0.00     0.055 A 
ATOM     66  C   UNL A   1      48.663  26.744  33.811  1.00  0.00     0.041 A 
ATOM     67  F   UNL A   1      47.592  28.428  32.584  1.00  0.00    -0.206 F 
ATOM     68  C   UNL A   1      48.606  25.575  34.565  1.00  0.00     0.022 A 
BRANCH  65  69
ATOM     69  S   UNL A   1      47.249  23.488  35.823  1.00  0.00     0.124 S 
ATOM     70  O   UNL A   1      45.976  22.906  35.410  1.00  0.00    -0.237 OA
ATOM     71  O   UNL A   1      48.442  22.725  35.476  1.00  0.00    -0.237 OA
ATOM     72  O   UNL A   1      47.256  24.071  37.164  1.00  0.00    -0.744 OA
ENDBRANCH  65  69
ENDBRANCH  39  62
ENDBRANCH  13  14
ENDBRANCH   6   8
ENDBRANCH   3   4
ENDBRANCH   2   3
ENDBRANCH   1   2
BRANCH   1  73
ATOM     73  C   UNL A   1      30.581  29.679  24.070  1.00  0.00     0.002 C 
BRANCH  73  74
ATOM     74  C   UNL A   1      30.951  28.731  22.921  1.00  0.00     0.021 C 
BRANCH  74  75
ATOM     75  C   UNL A   1      30.129  27.446  22.849  1.00  0.00     0.116 C 
BRANCH  75  76
ATOM     76  N   UNL A   1      29.851  26.918  24.172  1.00  0.00    -0.356 N 
ATOM     77  C   UNL A   1      30.551  26.069  24.964  1.00  0.00     0.223 C 
ATOM     78  H   UNL A   1      29.005  27.234  24.563  1.00  0.00     0.163 HD
ATOM     79  O   UNL A   1      30.059  25.774  26.054  1.00  0.00    -0.275 OA
BRANCH  77  80
ATOM     80  C   UNL A   1      31.878  25.488  24.495  1.00  0.00     0.082 C 
ATOM     81  C   UNL A   1      31.681  24.694  23.194  1.00  0.00     0.035 C 
ATOM     82  C   UNL A   1      32.512  24.641  25.612  1.00  0.00     0.035 C 
ATOM     83  C   UNL A   1      31.066  23.311  23.429  1.00  0.00     0.120 C 
ATOM     84  C   UNL A   1      31.874  23.262  25.748  1.00  0.00     0.120 C 
ATOM     85  N   UNL A   1      31.828  22.599  24.448  1.00  0.00    -0.340 N 
ATOM     86  C   UNL A   1      32.482  21.421  24.124  1.00  0.00     0.260 C 
ATOM     87  O   UNL A   1      32.281  20.827  23.061  1.00  0.00    -0.271 OA
BRANCH  86  88
ATOM     88  C   UNL A   1      33.528  20.873  25.106  1.00  0.00     0.329 C 
BRANCH  88  89
ATOM     89  O   UNL A   1      34.842  20.649  24.613  1.00  0.00    -0.482 OA
BRANCH  89  90
ATOM     90  C   UNL A   1      35.799  21.564  24.965  1.00  0.00     0.138 A 
ATOM     91  C   UNL A   1      35.517  22.914  25.192  1.00  0.00     0.049 A 
ATOM     92  C   UNL A   1      37.094  21.088  25.223  1.00  0.00     0.084 A 
ATOM     93  C   UNL A   1      36.516  23.778  25.646  1.00  0.00     0.024 A 
ATOM     94  C   UNL A   1      38.095  21.952  25.673  1.00  0.00     0.045 A 
ATOM     95  Cl  UNL A   1      37.502  19.425  24.982  1.00  0.00    -0.080 Cl
ATOM     96  C   UNL A   1      37.799  23.295  25.882  1.00  0.00     0.042 A 
ATOM     97  Cl  UNL A   1      39.021  24.365  26.446  1.00  0.00    -0.084 Cl
ENDBRANCH  89  90
ENDBRANCH  88  89
ENDBRANCH  86  88
ENDBRANCH  77  80
ENDBRANCH  75  76
ENDBRANCH  74  75
ENDBRANCH  73  74
ENDBRANCH   1  73
TORSDOF 19
ENDMDL
MODEL 3
REMARK VINA RESULT:     -10.6      6.004     11.452
REMARK SMILES O=C(NCCCCCCNC(=O)C1CCN(C(=O)COc2ccc(Cl)cc2Cl)CC1)c1ccc(-c2c3nc(c(-c4cc(S(=O)(=O)[O-])ccc4F)c4ccc([nH]4)c(-c4cc(S(=O)(=O)[O-])ccc4F)c4nc(c(-c5cc(S(=O)(=O)[O-])ccc5F)c5ccc2[nH]5)C=C4)C=C3)cc1
REMARK SMILES IDX 6 1 5 2 4 3 3 4 1 5 2 6 31 8 32 9 93 10 33 11 92 12 34 13
REMARK SMILES IDX 35 14 36 15 86 16 37 17 91 18 85 19 87 20 38 21 90 22 84 23
REMARK SMILES IDX 83 24 39 26 71 27 51 28 70 29 52 30 55 31 69 32 88 33 53 34
REMARK SMILES IDX 54 35 68 37 89 38 56 39 40 40 41 41 49 42 42 43 48 44 50 45
REMARK SMILES IDX 47 46 43 47 44 48 45 49 46 50 72 51 73 52 81 53 74 54 80 55
REMARK SMILES IDX 82 56 79 57 75 58 76 59 77 60 78 61 57 62 58 63 66 64 59 65
REMARK SMILES IDX 65 66 67 67 64 68 60 69 61 70 62 71 63 72 7 73 8 74 9 75
REMARK SMILES IDX 10 76 11 77 12 79 13 80 14 81 30 82 15 83 29 84 16 85 17 86
REMARK SMILES IDX 18 87 19 88 20 89 21 90 22 91 27 92 23 93 26 94 28 95 24 96
REMARK SMILES IDX 25 97
REMARK H PARENT 3 7 87 25 55 36 10 78
REMARK Flexibility Score: inf
ROOT
ATOM      1  C   UNL A   1      41.021  21.979  27.969  1.00  0.00     0.002 C 
ENDROOT
BRANCH   1   2
ATOM      2  C   UNL A   1      41.359  20.566  27.494  1.00  0.00     0.021 C 
BRANCH   2   3
ATOM      3  C   UNL A   1      41.309  20.362  25.985  1.00  0.00     0.116 C 
BRANCH   3   4
ATOM      4  N   UNL A   1      42.501  19.712  25.464  1.00  0.00    -0.352 N 
ATOM      5  O   UNL A   1      44.604  19.597  24.652  1.00  0.00    -0.269 OA
ATOM      6  C   UNL A   1      43.741  20.256  25.226  1.00  0.00     0.251 C 
ATOM      7  H   UNL A   1      42.408  18.754  25.255  1.00  0.00     0.163 HD
BRANCH   6   8
ATOM      8  C   UNL A   1      44.021  21.648  25.644  1.00  0.00     0.039 A 
ATOM      9  C   UNL A   1      44.628  21.912  26.873  1.00  0.00     0.014 A 
ATOM     10  C   UNL A   1      43.659  22.701  24.799  1.00  0.00     0.014 A 
ATOM     11  C   UNL A   1      44.744  23.224  27.319  1.00  0.00     0.010 A 
ATOM     12  C   UNL A   1      43.853  24.022  25.214  1.00  0.00     0.010 A 
ATOM     13  C   UNL A   1      44.369  24.296  26.492  1.00  0.00    -0.014 A 
BRANCH  13  14
ATOM     14  C   UNL A   1      44.570  25.688  26.971  1.00  0.00     0.031 A 
ATOM     15  C   UNL A   1      45.910  26.362  26.864  1.00  0.00     0.074 A 
ATOM     16  C   UNL A   1      43.514  26.356  27.473  1.00  0.00     0.049 A 
ATOM     17  N   UNL A   1      46.251  27.581  27.201  1.00  0.00    -0.248 NA
ATOM     18  C   UNL A   1      47.014  25.561  26.317  1.00  0.00     0.031 C 
ATOM     19  C   UNL A   1      42.166  25.800  27.630  1.00  0.00     0.029 A 
ATOM     20  N   UNL A   1      43.393  27.647  27.919  1.00  0.00    -0.354 N 
ATOM     21  C   UNL A   1      47.609  27.691  26.924  1.00  0.00     0.074 A 
ATOM     22  C   UNL A   1      48.036  26.400  26.423  1.00  0.00     0.031 C 
ATOM     23  C   UNL A   1      41.346  26.758  28.084  1.00  0.00     0.029 A 
ATOM     24  C   UNL A   1      42.116  27.974  28.314  1.00  0.00     0.049 A 
ATOM     25  H   UNL A   1      44.146  28.278  27.953  1.00  0.00     0.167 HD
ATOM     26  C   UNL A   1      48.419  28.771  27.066  1.00  0.00     0.034 A 
ATOM     27  C   UNL A   1      41.621  29.120  28.817  1.00  0.00     0.034 A 
ATOM     28  C   UNL A   1      47.974  30.052  27.566  1.00  0.00     0.049 A 
ATOM     29  C   UNL A   1      42.549  30.290  28.999  1.00  0.00     0.074 A 
ATOM     30  C   UNL A   1      48.702  31.220  27.720  1.00  0.00     0.029 A 
ATOM     31  N   UNL A   1      46.686  30.333  28.006  1.00  0.00    -0.354 N 
ATOM     32  N   UNL A   1      43.827  30.382  28.713  1.00  0.00    -0.248 NA
ATOM     33  C   UNL A   1      41.965  31.509  29.570  1.00  0.00     0.031 C 
ATOM     34  C   UNL A   1      47.873  32.183  28.310  1.00  0.00     0.029 A 
ATOM     35  C   UNL A   1      46.607  31.642  28.459  1.00  0.00     0.049 A 
ATOM     36  H   UNL A   1      45.937  29.693  27.996  1.00  0.00     0.167 HD
ATOM     37  C   UNL A   1      44.196  31.679  29.055  1.00  0.00     0.074 A 
ATOM     38  C   UNL A   1      43.000  32.335  29.544  1.00  0.00     0.031 C 
ATOM     39  C   UNL A   1      45.412  32.275  28.968  1.00  0.00     0.034 A 
BRANCH  26  40
ATOM     40  C   UNL A   1      49.881  28.594  26.719  1.00  0.00     0.023 A 
ATOM     41  C   UNL A   1      50.384  28.905  25.443  1.00  0.00     0.031 A 
ATOM     42  C   UNL A   1      50.779  28.076  27.670  1.00  0.00     0.131 A 
ATOM     43  C   UNL A   1      51.724  28.627  25.129  1.00  0.00     0.055 A 
ATOM     44  C   UNL A   1      52.129  27.876  27.376  1.00  0.00     0.041 A 
ATOM     45  F   UNL A   1      50.355  27.742  28.899  1.00  0.00    -0.206 F 
ATOM     46  C   UNL A   1      52.606  28.136  26.095  1.00  0.00     0.022 A 
BRANCH  43  47
ATOM     47  S   UNL A   1      52.259  28.775  23.402  1.00  0.00     0.124 S 
ATOM     48  O   UNL A   1      51.002  28.580  22.683  1.00  0.00    -0.237 OA
ATOM     49  O   UNL A   1      52.815  30.122  23.359  1.00  0.00    -0.237 OA
ATOM     50  O   UNL A   1      53.229  27.693  23.249  1.00  0.00    -0.744 OA
ENDBRANCH  43  47
ENDBRANCH  26  40
BRANCH  27  51
ATOM     51  C   UNL A   1      40.186  29.210  29.203  1.00  0.00     0.023 A 
ATOM     52  C   UNL A   1      39.792  29.130  30.547  1.00  0.00     0.031 A 
ATOM     53  C   UNL A   1      39.184  29.362  28.227  1.00  0.00     0.131 A 
ATOM     54  C   UNL A   1      38.428  29.165  30.878  1.00  0.00     0.055 A 
ATOM     55  C   UNL A   1      37.834  29.449  28.565  1.00  0.00     0.041 A 
ATOM     56  F   UNL A   1      39.510  29.451  26.928  1.00  0.00    -0.206 F 
ATOM     57  C   UNL A   1      37.448  29.339  29.897  1.00  0.00     0.022 A 
BRANCH  54  58
ATOM     58  S   UNL A   1      37.949  28.916  32.607  1.00  0.00     0.124 S 
ATOM     59  O   UNL A   1      36.585  29.433  32.617  1.00  0.00    -0.237 OA
ATOM     60  O   UNL A   1      38.088  27.471  32.755  1.00  0.00    -0.237 OA
ATOM     61  O   UNL A   1      38.924  29.712  33.349  1.00  0.00    -0.744 OA
ENDBRANCH  54  58
ENDBRANCH  27  51
BRANCH  39  62
ATOM     62  C   UNL A   1      45.485  33.722  29.388  1.00  0.00     0.023 A 
ATOM     63  C   UNL A   1      45.127  34.763  28.513  1.00  0.00     0.031 A 
ATOM     64  C   UNL A   1      45.958  34.066  30.666  1.00  0.00     0.131 A 
ATOM     65  C   UNL A   1      45.310  36.098  28.903  1.00  0.00     0.055 A 
ATOM     66  C   UNL A   1      46.083  35.395  31.071  1.00  0.00     0.041 A 
ATOM     67  F   UNL A   1      46.318  33.111  31.541  1.00  0.00    -0.206 F 
ATOM     68  C   UNL A   1      45.772  36.420  30.182  1.00  0.00     0.022 A 
BRANCH  65  69
ATOM     69  S   UNL A   1      45.035  37.408  27.679  1.00  0.00     0.124 S 
ATOM     70  O   UNL A   1      46.310  37.432  26.968  1.00  0.00    -0.237 OA
ATOM     71  O   UNL A   1      43.895  36.898  26.927  1.00  0.00    -0.237 OA
ATOM     72  O   UNL A   1      44.759  38.588  28.496  1.00  0.00    -0.744 OA
ENDBRANCH  65  69
ENDBRANCH  39  62
ENDBRANCH  13  14
ENDBRANCH   6   8
ENDBRANCH   3   4
ENDBRANCH   2   3
ENDBRANCH   1   2
BRANCH   1  73
ATOM     73  C   UNL A   1      40.436  22.912  26.906  1.00  0.00     0.002 C 
BRANCH  73  74
ATOM     74  C   UNL A   1      39.220  23.742  27.340  1.00  0.00     0.021 C 
BRANCH  74  75
ATOM     75  C   UNL A   1      38.144  23.925  26.271  1.00  0.00     0.116 C 
BRANCH  75  76
ATOM     76  N   UNL A   1      37.482  22.671  25.964  1.00  0.00    -0.356 N 
ATOM     77  C   UNL A   1      36.174  22.318  25.993  1.00  0.00     0.223 C 
ATOM     78  H   UNL A   1      38.091  21.950  25.684  1.00  0.00     0.163 HD
ATOM     79  O   UNL A   1      35.892  21.157  25.692  1.00  0.00    -0.275 OA
BRANCH  77  80
ATOM     80  C   UNL A   1      35.108  23.321  26.412  1.00  0.00     0.082 C 
ATOM     81  C   UNL A   1      33.757  22.613  26.603  1.00  0.00     0.035 C 
ATOM     82  C   UNL A   1      35.031  24.472  25.394  1.00  0.00     0.035 C 
ATOM     83  C   UNL A   1      33.058  22.301  25.276  1.00  0.00     0.120 C 
ATOM     84  C   UNL A   1      34.277  24.093  24.123  1.00  0.00     0.120 C 
ATOM     85  N   UNL A   1      32.983  23.508  24.461  1.00  0.00    -0.340 N 
ATOM     86  C   UNL A   1      31.749  24.037  24.121  1.00  0.00     0.260 C 
ATOM     87  O   UNL A   1      30.696  23.418  24.297  1.00  0.00    -0.271 OA
BRANCH  86  88
ATOM     88  C   UNL A   1      31.698  25.462  23.552  1.00  0.00     0.329 C 
BRANCH  88  89
ATOM     89  O   UNL A   1      30.992  26.445  24.297  1.00  0.00    -0.482 OA
BRANCH  89  90
ATOM     90  C   UNL A   1      31.744  27.329  25.025  1.00  0.00     0.138 A 
ATOM     91  C   UNL A   1      32.288  27.018  26.275  1.00  0.00     0.049 A 
ATOM     92  C   UNL A   1      32.076  28.554  24.425  1.00  0.00     0.084 A 
ATOM     93  C   UNL A   1      33.131  27.925  26.924  1.00  0.00     0.024 A 
ATOM     94  C   UNL A   1      32.914  29.463  25.074  1.00  0.00     0.045 A 
ATOM     95  Cl  UNL A   1      31.452  28.988  22.872  1.00  0.00    -0.080 Cl
ATOM     96  C   UNL A   1      33.438  29.142  26.323  1.00  0.00     0.042 A 
ATOM     97  Cl  UNL A   1      34.479  30.249  27.127  1.00  0.00    -0.084 Cl
ENDBRANCH  89  90
ENDBRANCH  88  89
ENDBRANCH  86  88
ENDBRANCH  77  80
ENDBRANCH  75  76
ENDBRANCH  74  75
ENDBRANCH  73  74
ENDBRANCH   1  73
TORSDOF 19
ENDMDL
