MODEL 1
REMARK VINA RESULT:     -11.9      0.000      0.000
REMARK SMILES COc1ccc(-c2noc(C[N@H+]3CCCC[C@@H]3C(=O)NCCCCCCNC(=O)c3ccc(-c4c5nc(c(-c6cc(S(=O)(=O)[O-])ccc6F)c6ccc([nH]6)c(-c6cc(S(=O)(=O)[O-])ccc6F)c6nc(c(-c7cc(S(=O)(=O)[O-])ccc7F)c7ccc4[nH]7)C=C6)C=C5)cc3)n2)cc1OC
REMARK SMILES IDX 23 1 22 2 21 3 20 4 18 5 19 6 17 8 12 9 13 10 14 12 16 13
REMARK SMILES IDX 15 14 11 15 10 16 7 17 8 18 93 19 9 20 6 21 3 22 4 23 95 24
REMARK SMILES IDX 5 25 94 26 2 27 1 28 96 29 97 30 24 31 25 32 26 33 27 34
REMARK SMILES IDX 28 35 29 37 30 38 31 39 92 40 32 41 91 42 33 43 34 44 35 45
REMARK SMILES IDX 85 46 36 47 90 48 84 49 86 50 37 51 89 52 83 53 82 54 38 56
REMARK SMILES IDX 70 57 50 58 69 59 51 60 54 61 68 62 87 63 52 64 53 65 67 67
REMARK SMILES IDX 88 68 55 69 39 70 40 71 48 72 41 73 47 74 49 75 46 76 42 77
REMARK SMILES IDX 43 78 44 79 45 80 71 81 72 82 80 83 73 84 79 85 81 86 78 87
REMARK SMILES IDX 74 88 75 89 76 90 77 91 56 92 57 93 65 94 58 95 64 96 66 97
REMARK SMILES IDX 63 98 59 99 60 100 61 101 62 102
REMARK H PARENT 20 7 12 11 27 36 86 55 54 66
REMARK Flexibility Score: inf
ROOT
ATOM      1  C   UNL A   1      34.535  23.599  22.752  1.00  0.00     0.002 C 
ENDROOT
BRANCH   1   2
ATOM      2  C   UNL A   1      33.195  24.345  22.748  1.00  0.00     0.021 C 
BRANCH   2   3
ATOM      3  C   UNL A   1      33.349  25.864  22.706  1.00  0.00     0.116 C 
BRANCH   3   4
ATOM      4  N   UNL A   1      33.896  26.340  23.964  1.00  0.00    -0.351 N 
ATOM      5  C   UNL A   1      33.277  26.993  24.988  1.00  0.00     0.278 C 
ATOM      6  O   UNL A   1      33.975  27.379  25.930  1.00  0.00    -0.268 OA
ATOM      7  H   UNL A   1      34.856  26.164  24.097  1.00  0.00     0.163 HD
BRANCH   5   8
ATOM      8  C   UNL A   1      31.742  27.166  25.013  1.00  0.00     0.274 C 
ATOM      9  N   UNL A   1      31.094  25.839  25.198  1.00  0.00    -0.317 N 
ATOM     10  C   UNL A   1      29.632  25.891  25.091  1.00  0.00     0.263 C 
ATOM     11  H   UNL A   1      31.428  25.273  24.419  1.00  0.00     0.349 HD
ATOM     12  C   UNL A   1      29.182  26.556  23.792  1.00  0.00     0.062 C 
ATOM     13  C   UNL A   1      31.251  27.954  23.788  1.00  0.00     0.076 C 
ATOM     14  C   UNL A   1      29.732  27.972  23.699  1.00  0.00     0.012 C 
BRANCH   9  15
ATOM     15  C   UNL A   1      31.519  25.157  26.450  1.00  0.00     0.364 C 
BRANCH  15  16
ATOM     16  C   UNL A   1      32.032  23.761  26.303  1.00  0.00     0.282 A 
ATOM     17  C   UNL A   1      32.450  21.770  25.817  1.00  0.00     0.202 A 
ATOM     18  N   UNL A   1      33.105  21.943  26.972  1.00  0.00    -0.057 NA
ATOM     19  N   UNL A   1      31.769  22.876  25.369  1.00  0.00    -0.186 NA
ATOM     20  O   UNL A   1      32.861  23.283  27.277  1.00  0.00    -0.333 OA
BRANCH  17  21
ATOM     21  C   UNL A   1      32.527  20.564  25.023  1.00  0.00     0.027 A 
ATOM     22  C   UNL A   1      32.722  18.177  23.582  1.00  0.00     0.160 A 
ATOM     23  C   UNL A   1      32.466  19.388  22.918  1.00  0.00     0.051 A 
ATOM     24  C   UNL A   1      32.901  18.159  24.970  1.00  0.00     0.161 A 
ATOM     25  C   UNL A   1      32.351  20.580  23.638  1.00  0.00     0.016 A 
ATOM     26  C   UNL A   1      32.807  19.359  25.675  1.00  0.00     0.062 A 
BRANCH  22  27
ATOM     27  O   UNL A   1      32.911  17.054  22.824  1.00  0.00    -0.493 OA
ATOM     28  C   UNL A   1      34.283  16.659  22.788  1.00  0.00     0.278 C 
ENDBRANCH  22  27
BRANCH  24  29
ATOM     29  O   UNL A   1      33.205  17.100  25.781  1.00  0.00    -0.493 OA
ATOM     30  C   UNL A   1      32.328  15.988  25.778  1.00  0.00     0.278 C 
ENDBRANCH  24  29
ENDBRANCH  17  21
ENDBRANCH  15  16
ENDBRANCH   9  15
ENDBRANCH   5   8
ENDBRANCH   3   4
ENDBRANCH   2   3
ENDBRANCH   1   2
BRANCH   1  31
ATOM     31  C   UNL A   1      35.133  23.373  24.145  1.00  0.00     0.002 C 
BRANCH  31  32
ATOM     32  C   UNL A   1      35.931  22.076  24.292  1.00  0.00     0.021 C 
BRANCH  32  33
ATOM     33  C   UNL A   1      36.481  21.837  25.693  1.00  0.00     0.116 C 
BRANCH  33  34
ATOM     34  N   UNL A   1      37.469  20.768  25.709  1.00  0.00    -0.352 N 
ATOM     35  C   UNL A   1      38.825  20.851  25.898  1.00  0.00     0.251 C 
ATOM     36  H   UNL A   1      37.114  19.862  25.564  1.00  0.00     0.163 HD
ATOM     37  O   UNL A   1      39.539  19.883  25.647  1.00  0.00    -0.269 OA
BRANCH  35  38
ATOM     38  C   UNL A   1      39.414  22.116  26.381  1.00  0.00     0.039 A 
ATOM     39  C   UNL A   1      40.442  22.071  27.325  1.00  0.00     0.014 A 
ATOM     40  C   UNL A   1      38.961  23.343  25.889  1.00  0.00     0.014 A 
ATOM     41  C   UNL A   1      41.060  23.258  27.728  1.00  0.00     0.010 A 
ATOM     42  C   UNL A   1      39.628  24.514  26.233  1.00  0.00     0.010 A 
ATOM     43  C   UNL A   1      40.684  24.485  27.157  1.00  0.00    -0.014 A 
BRANCH  43  44
ATOM     44  C   UNL A   1      41.380  25.750  27.513  1.00  0.00     0.031 A 
ATOM     45  C   UNL A   1      40.663  26.803  28.311  1.00  0.00     0.074 A 
ATOM     46  C   UNL A   1      42.630  25.974  27.061  1.00  0.00     0.049 A 
ATOM     47  N   UNL A   1      41.060  28.004  28.642  1.00  0.00    -0.248 NA
ATOM     48  C   UNL A   1      39.308  26.470  28.775  1.00  0.00     0.031 C 
ATOM     49  C   UNL A   1      43.416  25.039  26.252  1.00  0.00     0.029 A 
ATOM     50  N   UNL A   1      43.458  27.060  27.206  1.00  0.00    -0.354 N 
ATOM     51  C   UNL A   1      40.002  28.575  29.340  1.00  0.00     0.074 A 
ATOM     52  C   UNL A   1      38.923  27.609  29.329  1.00  0.00     0.031 C 
ATOM     53  C   UNL A   1      44.617  25.581  25.995  1.00  0.00     0.029 A 
ATOM     54  C   UNL A   1      44.669  26.922  26.569  1.00  0.00     0.049 A 
ATOM     55  H   UNL A   1      43.207  27.861  27.720  1.00  0.00     0.167 HD
ATOM     56  C   UNL A   1      39.943  29.784  29.952  1.00  0.00     0.034 A 
ATOM     57  C   UNL A   1      45.697  27.786  26.440  1.00  0.00     0.034 A 
ATOM     58  C   UNL A   1      41.031  30.731  29.957  1.00  0.00     0.049 A 
ATOM     59  C   UNL A   1      45.591  29.144  27.089  1.00  0.00     0.074 A 
ATOM     60  C   UNL A   1      41.099  31.962  30.588  1.00  0.00     0.029 A 
ATOM     61  N   UNL A   1      42.239  30.563  29.290  1.00  0.00    -0.354 N 
ATOM     62  N   UNL A   1      44.599  29.652  27.786  1.00  0.00    -0.248 NA
ATOM     63  C   UNL A   1      46.742  30.043  26.940  1.00  0.00     0.031 C 
ATOM     64  C   UNL A   1      42.307  32.570  30.236  1.00  0.00     0.029 A 
ATOM     65  C   UNL A   1      43.039  31.683  29.462  1.00  0.00     0.049 A 
ATOM     66  H   UNL A   1      42.490  29.765  28.770  1.00  0.00     0.167 HD
ATOM     67  C   UNL A   1      45.026  30.914  28.187  1.00  0.00     0.074 A 
ATOM     68  C   UNL A   1      46.365  31.086  27.665  1.00  0.00     0.031 C 
ATOM     69  C   UNL A   1      44.371  31.845  28.928  1.00  0.00     0.034 A 
BRANCH  56  70
ATOM     70  C   UNL A   1      38.650  30.160  30.636  1.00  0.00     0.023 A 
ATOM     71  C   UNL A   1      37.645  30.887  29.972  1.00  0.00     0.031 A 
ATOM     72  C   UNL A   1      38.422  29.803  31.977  1.00  0.00     0.131 A 
ATOM     73  C   UNL A   1      36.499  31.298  30.669  1.00  0.00     0.055 A 
ATOM     74  C   UNL A   1      37.241  30.139  32.640  1.00  0.00     0.041 A 
ATOM     75  F   UNL A   1      39.353  29.130  32.672  1.00  0.00    -0.206 F 
ATOM     76  C   UNL A   1      36.277  30.906  31.991  1.00  0.00     0.022 A 
BRANCH  73  77
ATOM     77  S   UNL A   1      35.378  32.480  29.873  1.00  0.00     0.124 S 
ATOM     78  O   UNL A   1      34.921  31.719  28.713  1.00  0.00    -0.237 OA
ATOM     79  O   UNL A   1      34.384  32.719  30.912  1.00  0.00    -0.237 OA
ATOM     80  O   UNL A   1      36.243  33.617  29.562  1.00  0.00    -0.744 OA
ENDBRANCH  73  77
ENDBRANCH  56  70
BRANCH  57  81
ATOM     81  C   UNL A   1      46.907  27.410  25.653  1.00  0.00     0.023 A 
ATOM     82  C   UNL A   1      47.067  27.833  24.324  1.00  0.00     0.031 A 
ATOM     83  C   UNL A   1      47.902  26.581  26.202  1.00  0.00     0.131 A 
ATOM     84  C   UNL A   1      48.166  27.387  23.573  1.00  0.00     0.055 A 
ATOM     85  C   UNL A   1      49.025  26.189  25.472  1.00  0.00     0.041 A 
ATOM     86  F   UNL A   1      47.800  26.145  27.469  1.00  0.00    -0.206 F 
ATOM     87  C   UNL A   1      49.154  26.581  24.144  1.00  0.00     0.022 A 
BRANCH  84  88
ATOM     88  S   UNL A   1      48.235  27.794  21.808  1.00  0.00     0.124 S 
ATOM     89  O   UNL A   1      49.378  28.697  21.756  1.00  0.00    -0.237 OA
ATOM     90  O   UNL A   1      48.425  26.480  21.201  1.00  0.00    -0.237 OA
ATOM     91  O   UNL A   1      46.936  28.414  21.552  1.00  0.00    -0.744 OA
ENDBRANCH  84  88
ENDBRANCH  57  81
BRANCH  69  92
ATOM     92  C   UNL A   1      45.118  33.115  29.262  1.00  0.00     0.023 A 
ATOM     93  C   UNL A   1      45.043  34.259  28.450  1.00  0.00     0.031 A 
ATOM     94  C   UNL A   1      45.916  33.177  30.420  1.00  0.00     0.131 A 
ATOM     95  C   UNL A   1      45.791  35.401  28.780  1.00  0.00     0.055 A 
ATOM     96  C   UNL A   1      46.606  34.336  30.777  1.00  0.00     0.041 A 
ATOM     97  F   UNL A   1      46.031  32.112  31.229  1.00  0.00    -0.206 F 
ATOM     98  C   UNL A   1      46.554  35.454  29.949  1.00  0.00     0.022 A 
BRANCH  95  99
ATOM     99  S   UNL A   1      45.823  36.789  27.613  1.00  0.00     0.124 S 
ATOM    100  O   UNL A   1      44.439  37.248  27.650  1.00  0.00    -0.237 OA
ATOM    101  O   UNL A   1      46.808  37.682  28.216  1.00  0.00    -0.237 OA
ATOM    102  O   UNL A   1      46.237  36.170  26.356  1.00  0.00    -0.744 OA
ENDBRANCH  95  99
ENDBRANCH  69  92
ENDBRANCH  43  44
ENDBRANCH  35  38
ENDBRANCH  33  34
ENDBRANCH  32  33
ENDBRANCH  31  32
ENDBRANCH   1  31
TORSDOF 21
ENDMDL
MODEL 2
REMARK VINA RESULT:     -11.4      1.230      7.351
REMARK SMILES COc1ccc(-c2noc(C[N@H+]3CCCC[C@@H]3C(=O)NCCCCCCNC(=O)c3ccc(-c4c5nc(c(-c6cc(S(=O)(=O)[O-])ccc6F)c6ccc([nH]6)c(-c6cc(S(=O)(=O)[O-])ccc6F)c6nc(c(-c7cc(S(=O)(=O)[O-])ccc7F)c7ccc4[nH]7)C=C6)C=C5)cc3)n2)cc1OC
REMARK SMILES IDX 23 1 22 2 21 3 20 4 18 5 19 6 17 8 12 9 13 10 14 12 16 13
REMARK SMILES IDX 15 14 11 15 10 16 7 17 8 18 93 19 9 20 6 21 3 22 4 23 95 24
REMARK SMILES IDX 5 25 94 26 2 27 1 28 96 29 97 30 24 31 25 32 26 33 27 34
REMARK SMILES IDX 28 35 29 37 30 38 31 39 92 40 32 41 91 42 33 43 34 44 35 45
REMARK SMILES IDX 85 46 36 47 90 48 84 49 86 50 37 51 89 52 83 53 82 54 38 56
REMARK SMILES IDX 70 57 50 58 69 59 51 60 54 61 68 62 87 63 52 64 53 65 67 67
REMARK SMILES IDX 88 68 55 69 39 70 40 71 48 72 41 73 47 74 49 75 46 76 42 77
REMARK SMILES IDX 43 78 44 79 45 80 71 81 72 82 80 83 73 84 79 85 81 86 78 87
REMARK SMILES IDX 74 88 75 89 76 90 77 91 56 92 57 93 65 94 58 95 64 96 66 97
REMARK SMILES IDX 63 98 59 99 60 100 61 101 62 102
REMARK H PARENT 20 7 12 11 27 36 86 55 54 66
REMARK Flexibility Score: inf
ROOT
ATOM      1  C   UNL A   1      35.219  23.842  23.139  1.00  0.00     0.002 C 
ENDROOT
BRANCH   1   2
ATOM      2  C   UNL A   1      33.796  24.242  22.735  1.00  0.00     0.021 C 
BRANCH   2   3
ATOM      3  C   UNL A   1      33.546  25.748  22.809  1.00  0.00     0.116 C 
BRANCH   3   4
ATOM      4  N   UNL A   1      33.896  26.241  24.129  1.00  0.00    -0.351 N 
ATOM      5  C   UNL A   1      33.377  27.289  24.830  1.00  0.00     0.278 C 
ATOM      6  O   UNL A   1      33.901  27.575  25.910  1.00  0.00    -0.268 OA
ATOM      7  H   UNL A   1      34.615  25.746  24.584  1.00  0.00     0.163 HD
BRANCH   5   8
ATOM      8  C   UNL A   1      32.118  28.035  24.335  1.00  0.00     0.274 C 
ATOM      9  N   UNL A   1      30.942  27.125  24.396  1.00  0.00    -0.317 N 
ATOM     10  C   UNL A   1      29.730  27.707  23.810  1.00  0.00     0.263 C 
ATOM     11  H   UNL A   1      31.197  26.327  23.816  1.00  0.00     0.349 HD
ATOM     12  C   UNL A   1      29.973  28.209  22.389  1.00  0.00     0.062 C 
ATOM     13  C   UNL A   1      32.358  28.680  22.960  1.00  0.00     0.076 C 
ATOM     14  C   UNL A   1      31.078  29.257  22.374  1.00  0.00     0.012 C 
BRANCH   9  15
ATOM     15  C   UNL A   1      30.683  26.606  25.767  1.00  0.00     0.364 C 
BRANCH  15  16
ATOM     16  C   UNL A   1      30.859  25.135  25.964  1.00  0.00     0.282 A 
ATOM     17  C   UNL A   1      31.316  23.095  25.886  1.00  0.00     0.202 A 
ATOM     18  N   UNL A   1      30.332  23.151  26.792  1.00  0.00    -0.057 NA
ATOM     19  N   UNL A   1      31.671  24.308  25.346  1.00  0.00    -0.186 NA
ATOM     20  O   UNL A   1      30.054  24.516  26.876  1.00  0.00    -0.333 OA
BRANCH  17  21
ATOM     21  C   UNL A   1      32.044  21.890  25.563  1.00  0.00     0.027 A 
ATOM     22  C   UNL A   1      33.381  19.542  24.842  1.00  0.00     0.160 A 
ATOM     23  C   UNL A   1      33.571  20.106  26.115  1.00  0.00     0.051 A 
ATOM     24  C   UNL A   1      32.505  20.142  23.931  1.00  0.00     0.161 A 
ATOM     25  C   UNL A   1      32.917  21.288  26.472  1.00  0.00     0.016 A 
ATOM     26  C   UNL A   1      31.840  21.309  24.307  1.00  0.00     0.062 A 
BRANCH  22  27
ATOM     27  O   UNL A   1      33.977  18.340  24.575  1.00  0.00    -0.493 OA
ATOM     28  C   UNL A   1      33.276  17.252  25.180  1.00  0.00     0.278 C 
ENDBRANCH  22  27
BRANCH  24  29
ATOM     29  O   UNL A   1      32.153  19.722  22.678  1.00  0.00    -0.493 OA
ATOM     30  C   UNL A   1      31.777  20.703  21.729  1.00  0.00     0.278 C 
ENDBRANCH  24  29
ENDBRANCH  17  21
ENDBRANCH  15  16
ENDBRANCH   9  15
ENDBRANCH   5   8
ENDBRANCH   3   4
ENDBRANCH   2   3
ENDBRANCH   1   2
BRANCH   1  31
ATOM     31  C   UNL A   1      35.300  22.611  24.049  1.00  0.00     0.002 C 
BRANCH  31  32
ATOM     32  C   UNL A   1      36.721  22.104  24.307  1.00  0.00     0.021 C 
BRANCH  32  33
ATOM     33  C   UNL A   1      37.137  22.136  25.773  1.00  0.00     0.116 C 
BRANCH  33  34
ATOM     34  N   UNL A   1      38.199  21.181  26.052  1.00  0.00    -0.352 N 
ATOM     35  C   UNL A   1      39.496  21.420  26.429  1.00  0.00     0.251 C 
ATOM     36  H   UNL A   1      37.951  20.233  25.958  1.00  0.00     0.163 HD
ATOM     37  O   UNL A   1      40.322  20.510  26.394  1.00  0.00    -0.269 OA
BRANCH  35  38
ATOM     38  C   UNL A   1      39.890  22.779  26.851  1.00  0.00     0.039 A 
ATOM     39  C   UNL A   1      40.793  22.930  27.906  1.00  0.00     0.014 A 
ATOM     40  C   UNL A   1      39.379  23.902  26.194  1.00  0.00     0.014 A 
ATOM     41  C   UNL A   1      41.232  24.208  28.259  1.00  0.00     0.010 A 
ATOM     42  C   UNL A   1      39.877  25.165  26.496  1.00  0.00     0.010 A 
ATOM     43  C   UNL A   1      40.808  25.332  27.533  1.00  0.00    -0.014 A 
BRANCH  43  44
ATOM     44  C   UNL A   1      41.323  26.692  27.841  1.00  0.00     0.031 A 
ATOM     45  C   UNL A   1      42.736  27.061  27.483  1.00  0.00     0.074 A 
ATOM     46  C   UNL A   1      40.539  27.569  28.501  1.00  0.00     0.049 A 
ATOM     47  N   UNL A   1      43.399  28.156  27.750  1.00  0.00    -0.248 NA
ATOM     48  C   UNL A   1      43.516  26.050  26.753  1.00  0.00     0.031 C 
ATOM     49  C   UNL A   1      39.162  27.315  28.928  1.00  0.00     0.029 A 
ATOM     50  N   UNL A   1      40.790  28.846  28.939  1.00  0.00    -0.354 N 
ATOM     51  C   UNL A   1      44.675  27.963  27.232  1.00  0.00     0.074 A 
ATOM     52  C   UNL A   1      44.709  26.619  26.693  1.00  0.00     0.031 C 
ATOM     53  C   UNL A   1      38.682  28.408  29.542  1.00  0.00     0.029 A 
ATOM     54  C   UNL A   1      39.732  29.420  29.607  1.00  0.00     0.049 A 
ATOM     55  H   UNL A   1      41.646  29.307  28.789  1.00  0.00     0.167 HD
ATOM     56  C   UNL A   1      45.715  28.832  27.192  1.00  0.00     0.034 A 
ATOM     57  C   UNL A   1      39.626  30.615  30.221  1.00  0.00     0.034 A 
ATOM     58  C   UNL A   1      45.660  30.170  27.730  1.00  0.00     0.049 A 
ATOM     59  C   UNL A   1      40.812  31.549  30.206  1.00  0.00     0.074 A 
ATOM     60  C   UNL A   1      46.635  31.152  27.697  1.00  0.00     0.029 A 
ATOM     61  N   UNL A   1      44.576  30.712  28.410  1.00  0.00    -0.354 N 
ATOM     62  N   UNL A   1      41.998  31.368  29.670  1.00  0.00    -0.248 NA
ATOM     63  C   UNL A   1      40.643  32.847  30.869  1.00  0.00     0.031 C 
ATOM     64  C   UNL A   1      46.174  32.253  28.426  1.00  0.00     0.029 A 
ATOM     65  C   UNL A   1      44.875  31.998  28.835  1.00  0.00     0.049 A 
ATOM     66  H   UNL A   1      43.720  30.251  28.568  1.00  0.00     0.167 HD
ATOM     67  C   UNL A   1      42.702  32.546  29.903  1.00  0.00     0.074 A 
ATOM     68  C   UNL A   1      41.805  33.432  30.615  1.00  0.00     0.031 C 
ATOM     69  C   UNL A   1      43.973  32.870  29.553  1.00  0.00     0.034 A 
BRANCH  56  70
ATOM     70  C   UNL A   1      47.006  28.351  26.574  1.00  0.00     0.023 A 
ATOM     71  C   UNL A   1      47.190  28.309  25.180  1.00  0.00     0.031 A 
ATOM     72  C   UNL A   1      48.065  27.907  27.387  1.00  0.00     0.131 A 
ATOM     73  C   UNL A   1      48.367  27.768  24.643  1.00  0.00     0.055 A 
ATOM     74  C   UNL A   1      49.268  27.451  26.848  1.00  0.00     0.041 A 
ATOM     75  F   UNL A   1      47.941  27.899  28.723  1.00  0.00    -0.206 F 
ATOM     76  C   UNL A   1      49.419  27.363  25.467  1.00  0.00     0.022 A 
BRANCH  73  77
ATOM     77  S   UNL A   1      48.440  27.455  22.858  1.00  0.00     0.124 S 
ATOM     78  O   UNL A   1      47.282  28.206  22.379  1.00  0.00    -0.237 OA
ATOM     79  O   UNL A   1      49.746  27.996  22.497  1.00  0.00    -0.237 OA
ATOM     80  O   UNL A   1      48.316  26.002  22.758  1.00  0.00    -0.744 OA
ENDBRANCH  73  77
ENDBRANCH  56  70
BRANCH  57  81
ATOM     81  C   UNL A   1      38.364  30.997  30.921  1.00  0.00     0.023 A 
ATOM     82  C   UNL A   1      37.320  31.635  30.235  1.00  0.00     0.031 A 
ATOM     83  C   UNL A   1      38.203  30.771  32.300  1.00  0.00     0.131 A 
ATOM     84  C   UNL A   1      36.184  32.071  30.935  1.00  0.00     0.055 A 
ATOM     85  C   UNL A   1      37.045  31.151  32.981  1.00  0.00     0.041 A 
ATOM     86  F   UNL A   1      39.170  30.165  33.007  1.00  0.00    -0.206 F 
ATOM     87  C   UNL A   1      36.033  31.819  32.300  1.00  0.00     0.022 A 
BRANCH  84  88
ATOM     88  S   UNL A   1      34.949  33.064  30.054  1.00  0.00     0.124 S 
ATOM     89  O   UNL A   1      34.449  32.111  29.071  1.00  0.00    -0.237 OA
ATOM     90  O   UNL A   1      34.028  33.424  31.127  1.00  0.00    -0.237 OA
ATOM     91  O   UNL A   1      35.731  34.172  29.507  1.00  0.00    -0.744 OA
ENDBRANCH  84  88
ENDBRANCH  57  81
BRANCH  69  92
ATOM     92  C   UNL A   1      44.451  34.262  29.890  1.00  0.00     0.023 A 
ATOM     93  C   UNL A   1      44.252  35.349  29.023  1.00  0.00     0.031 A 
ATOM     94  C   UNL A   1      45.114  34.501  31.109  1.00  0.00     0.131 A 
ATOM     95  C   UNL A   1      44.754  36.615  29.364  1.00  0.00     0.055 A 
ATOM     96  C   UNL A   1      45.553  35.775  31.471  1.00  0.00     0.041 A 
ATOM     97  F   UNL A   1      45.337  33.498  31.974  1.00  0.00    -0.206 F 
ATOM     98  C   UNL A   1      45.384  36.840  30.590  1.00  0.00     0.022 A 
BRANCH  95  99
ATOM     99  S   UNL A   1      44.651  37.951  28.141  1.00  0.00     0.124 S 
ATOM    100  O   UNL A   1      43.461  37.577  27.383  1.00  0.00    -0.237 OA
ATOM    101  O   UNL A   1      44.526  39.137  28.982  1.00  0.00    -0.237 OA
ATOM    102  O   UNL A   1      45.912  37.843  27.408  1.00  0.00    -0.744 OA
ENDBRANCH  95  99
ENDBRANCH  69  92
ENDBRANCH  43  44
ENDBRANCH  35  38
ENDBRANCH  33  34
ENDBRANCH  32  33
ENDBRANCH  31  32
ENDBRANCH   1  31
TORSDOF 21
ENDMDL
MODEL 3
REMARK VINA RESULT:     -11.0      2.188      3.122
REMARK SMILES COc1ccc(-c2noc(C[N@H+]3CCCC[C@@H]3C(=O)NCCCCCCNC(=O)c3ccc(-c4c5nc(c(-c6cc(S(=O)(=O)[O-])ccc6F)c6ccc([nH]6)c(-c6cc(S(=O)(=O)[O-])ccc6F)c6nc(c(-c7cc(S(=O)(=O)[O-])ccc7F)c7ccc4[nH]7)C=C6)C=C5)cc3)n2)cc1OC
REMARK SMILES IDX 23 1 22 2 21 3 20 4 18 5 19 6 17 8 12 9 13 10 14 12 16 13
REMARK SMILES IDX 15 14 11 15 10 16 7 17 8 18 93 19 9 20 6 21 3 22 4 23 95 24
REMARK SMILES IDX 5 25 94 26 2 27 1 28 96 29 97 30 24 31 25 32 26 33 27 34
REMARK SMILES IDX 28 35 29 37 30 38 31 39 92 40 32 41 91 42 33 43 34 44 35 45
REMARK SMILES IDX 85 46 36 47 90 48 84 49 86 50 37 51 89 52 83 53 82 54 38 56
REMARK SMILES IDX 70 57 50 58 69 59 51 60 54 61 68 62 87 63 52 64 53 65 67 67
REMARK SMILES IDX 88 68 55 69 39 70 40 71 48 72 41 73 47 74 49 75 46 76 42 77
REMARK SMILES IDX 43 78 44 79 45 80 71 81 72 82 80 83 73 84 79 85 81 86 78 87
REMARK SMILES IDX 74 88 75 89 76 90 77 91 56 92 57 93 65 94 58 95 64 96 66 97
REMARK SMILES IDX 63 98 59 99 60 100 61 101 62 102
REMARK H PARENT 20 7 12 11 27 36 86 55 54 66
REMARK Flexibility Score: inf
ROOT
ATOM      1  C   UNL A   1      38.411  23.757  25.933  1.00  0.00     0.002 C 
ENDROOT
BRANCH   1   2
ATOM      2  C   UNL A   1      36.972  23.233  25.857  1.00  0.00     0.021 C 
BRANCH   2   3
ATOM      3  C   UNL A   1      35.954  24.312  25.492  1.00  0.00     0.116 C 
BRANCH   3   4
ATOM      4  N   UNL A   1      35.397  24.041  24.179  1.00  0.00    -0.351 N 
ATOM      5  C   UNL A   1      34.353  24.641  23.538  1.00  0.00     0.278 C 
ATOM      6  O   UNL A   1      34.003  24.177  22.449  1.00  0.00    -0.268 OA
ATOM      7  H   UNL A   1      35.839  23.319  23.677  1.00  0.00     0.163 HD
BRANCH   5   8
ATOM      8  C   UNL A   1      33.689  25.913  24.111  1.00  0.00     0.274 C 
ATOM      9  N   UNL A   1      32.451  25.541  24.847  1.00  0.00    -0.317 N 
ATOM     10  C   UNL A   1      31.679  26.702  25.304  1.00  0.00     0.263 C 
ATOM     11  H   UNL A   1      31.875  25.053  24.162  1.00  0.00     0.349 HD
ATOM     12  C   UNL A   1      31.379  27.668  24.160  1.00  0.00     0.062 C 
ATOM     13  C   UNL A   1      33.491  26.976  23.019  1.00  0.00     0.076 C 
ATOM     14  C   UNL A   1      32.672  28.157  23.521  1.00  0.00     0.012 C 
BRANCH   9  15
ATOM     15  C   UNL A   1      32.706  24.589  25.963  1.00  0.00     0.364 C 
BRANCH  15  16
ATOM     16  C   UNL A   1      32.280  23.174  25.738  1.00  0.00     0.282 A 
ATOM     17  C   UNL A   1      32.064  21.146  25.272  1.00  0.00     0.202 A 
ATOM     18  N   UNL A   1      30.800  21.553  25.448  1.00  0.00    -0.057 NA
ATOM     19  N   UNL A   1      33.013  22.126  25.441  1.00  0.00    -0.186 NA
ATOM     20  O   UNL A   1      30.945  22.896  25.800  1.00  0.00    -0.333 OA
BRANCH  17  21
ATOM     21  C   UNL A   1      32.441  19.772  25.035  1.00  0.00     0.027 A 
ATOM     22  C   UNL A   1      33.127  17.122  24.464  1.00  0.00     0.160 A 
ATOM     23  C   UNL A   1      33.112  17.582  25.791  1.00  0.00     0.051 A 
ATOM     24  C   UNL A   1      32.778  17.983  23.417  1.00  0.00     0.161 A 
ATOM     25  C   UNL A   1      32.786  18.910  26.078  1.00  0.00     0.016 A 
ATOM     26  C   UNL A   1      32.432  19.301  23.718  1.00  0.00     0.062 A 
BRANCH  22  27
ATOM     27  O   UNL A   1      33.368  15.794  24.244  1.00  0.00    -0.493 OA
ATOM     28  C   UNL A   1      32.765  14.970  25.244  1.00  0.00     0.278 C 
ENDBRANCH  22  27
BRANCH  24  29
ATOM     29  O   UNL A   1      32.685  17.712  22.080  1.00  0.00    -0.493 OA
ATOM     30  C   UNL A   1      32.107  18.696  21.240  1.00  0.00     0.278 C 
ENDBRANCH  24  29
ENDBRANCH  17  21
ENDBRANCH  15  16
ENDBRANCH   9  15
ENDBRANCH   5   8
ENDBRANCH   3   4
ENDBRANCH   2   3
ENDBRANCH   1   2
BRANCH   1  31
ATOM     31  C   UNL A   1      39.393  22.818  26.644  1.00  0.00     0.002 C 
BRANCH  31  32
ATOM     32  C   UNL A   1      39.506  21.426  26.019  1.00  0.00     0.021 C 
BRANCH  32  33
ATOM     33  C   UNL A   1      40.082  20.368  26.955  1.00  0.00     0.116 C 
BRANCH  33  34
ATOM     34  N   UNL A   1      41.073  19.540  26.285  1.00  0.00    -0.352 N 
ATOM     35  C   UNL A   1      42.296  19.899  25.780  1.00  0.00     0.251 C 
ATOM     36  H   UNL A   1      40.832  18.591  26.181  1.00  0.00     0.163 HD
ATOM     37  O   UNL A   1      42.904  19.129  25.038  1.00  0.00    -0.269 OA
BRANCH  35  38
ATOM     38  C   UNL A   1      42.860  21.222  26.115  1.00  0.00     0.039 A 
ATOM     39  C   UNL A   1      43.007  22.175  25.106  1.00  0.00     0.014 A 
ATOM     40  C   UNL A   1      43.228  21.523  27.430  1.00  0.00     0.014 A 
ATOM     41  C   UNL A   1      43.465  23.455  25.428  1.00  0.00     0.010 A 
ATOM     42  C   UNL A   1      43.610  22.820  27.760  1.00  0.00     0.010 A 
ATOM     43  C   UNL A   1      43.733  23.800  26.764  1.00  0.00    -0.014 A 
BRANCH  43  44
ATOM     44  C   UNL A   1      44.146  25.177  27.139  1.00  0.00     0.031 A 
ATOM     45  C   UNL A   1      43.134  26.140  27.697  1.00  0.00     0.074 A 
ATOM     46  C   UNL A   1      45.414  25.578  26.916  1.00  0.00     0.049 A 
ATOM     47  N   UNL A   1      43.273  27.405  27.996  1.00  0.00    -0.248 NA
ATOM     48  C   UNL A   1      41.779  25.615  27.921  1.00  0.00     0.031 C 
ATOM     49  C   UNL A   1      46.477  24.743  26.352  1.00  0.00     0.029 A 
ATOM     50  N   UNL A   1      46.024  26.790  27.126  1.00  0.00    -0.354 N 
ATOM     51  C   UNL A   1      42.023  27.832  28.431  1.00  0.00     0.074 A 
ATOM     52  C   UNL A   1      41.126  26.704  28.295  1.00  0.00     0.031 C 
ATOM     53  C   UNL A   1      47.610  25.459  26.284  1.00  0.00     0.029 A 
ATOM     54  C   UNL A   1      47.345  26.819  26.744  1.00  0.00     0.049 A 
ATOM     55  H   UNL A   1      45.559  27.566  27.514  1.00  0.00     0.167 HD
ATOM     56  C   UNL A   1      41.663  29.046  28.918  1.00  0.00     0.034 A 
ATOM     57  C   UNL A   1      48.237  27.830  26.742  1.00  0.00     0.034 A 
ATOM     58  C   UNL A   1      42.574  30.156  29.052  1.00  0.00     0.049 A 
ATOM     59  C   UNL A   1      47.801  29.185  27.243  1.00  0.00     0.074 A 
ATOM     60  C   UNL A   1      42.330  31.412  29.580  1.00  0.00     0.029 A 
ATOM     61  N   UNL A   1      43.903  30.152  28.642  1.00  0.00    -0.354 N 
ATOM     62  N   UNL A   1      46.626  29.560  27.695  1.00  0.00    -0.248 NA
ATOM     63  C   UNL A   1      48.812  30.250  27.242  1.00  0.00     0.031 C 
ATOM     64  C   UNL A   1      43.479  32.189  29.415  1.00  0.00     0.029 A 
ATOM     65  C   UNL A   1      44.475  31.395  28.870  1.00  0.00     0.049 A 
ATOM     66  H   UNL A   1      44.369  29.380  28.248  1.00  0.00     0.167 HD
ATOM     67  C   UNL A   1      46.770  30.894  28.064  1.00  0.00     0.074 A 
ATOM     68  C   UNL A   1      48.145  31.254  27.794  1.00  0.00     0.031 C 
ATOM     69  C   UNL A   1      45.848  31.744  28.588  1.00  0.00     0.034 A 
BRANCH  56  70
ATOM     70  C   UNL A   1      40.217  29.240  29.310  1.00  0.00     0.023 A 
ATOM     71  C   UNL A   1      39.805  29.211  30.655  1.00  0.00     0.031 A 
ATOM     72  C   UNL A   1      39.232  29.440  28.327  1.00  0.00     0.131 A 
ATOM     73  C   UNL A   1      38.441  29.302  30.972  1.00  0.00     0.055 A 
ATOM     74  C   UNL A   1      37.887  29.617  28.655  1.00  0.00     0.041 A 
ATOM     75  F   UNL A   1      39.559  29.453  27.025  1.00  0.00    -0.206 F 
ATOM     76  C   UNL A   1      37.482  29.532  29.984  1.00  0.00     0.022 A 
BRANCH  73  77
ATOM     77  S   UNL A   1      37.925  28.960  32.677  1.00  0.00     0.124 S 
ATOM     78  O   UNL A   1      39.028  29.537  33.441  1.00  0.00    -0.237 OA
ATOM     79  O   UNL A   1      36.650  29.662  32.766  1.00  0.00    -0.237 OA
ATOM     80  O   UNL A   1      37.840  27.501  32.723  1.00  0.00    -0.744 OA
ENDBRANCH  73  77
ENDBRANCH  56  70
BRANCH  57  81
ATOM     81  C   UNL A   1      49.623  27.616  26.233  1.00  0.00     0.023 A 
ATOM     82  C   UNL A   1      49.923  27.753  24.868  1.00  0.00     0.031 A 
ATOM     83  C   UNL A   1      50.661  27.223  27.097  1.00  0.00     0.131 A 
ATOM     84  C   UNL A   1      51.212  27.452  24.400  1.00  0.00     0.055 A 
ATOM     85  C   UNL A   1      51.957  26.984  26.636  1.00  0.00     0.041 A 
ATOM     86  F   UNL A   1      50.431  27.076  28.412  1.00  0.00    -0.206 F 
ATOM     87  C   UNL A   1      52.235  27.084  25.277  1.00  0.00     0.022 A 
BRANCH  84  88
ATOM     88  S   UNL A   1      51.507  27.451  22.611  1.00  0.00     0.124 S 
ATOM     89  O   UNL A   1      51.777  28.860  22.354  1.00  0.00    -0.237 OA
ATOM     90  O   UNL A   1      52.645  26.545  22.492  1.00  0.00    -0.237 OA
ATOM     91  O   UNL A   1      50.250  26.945  22.060  1.00  0.00    -0.744 OA
ENDBRANCH  84  88
ENDBRANCH  57  81
BRANCH  69  92
ATOM     92  C   UNL A   1      46.315  33.133  28.951  1.00  0.00     0.023 A 
ATOM     93  C   UNL A   1      46.282  34.195  28.031  1.00  0.00     0.031 A 
ATOM     94  C   UNL A   1      46.797  33.396  30.247  1.00  0.00     0.131 A 
ATOM     95  C   UNL A   1      46.768  35.458  28.404  1.00  0.00     0.055 A 
ATOM     96  C   UNL A   1      47.218  34.670  30.631  1.00  0.00     0.041 A 
ATOM     97  F   UNL A   1      46.858  32.418  31.165  1.00  0.00    -0.206 F 
ATOM     98  C   UNL A   1      47.215  35.707  29.703  1.00  0.00     0.022 A 
BRANCH  95  99
ATOM     99  S   UNL A   1      46.890  36.753  27.140  1.00  0.00     0.124 S 
ATOM    100  O   UNL A   1      48.331  36.836  26.930  1.00  0.00    -0.237 OA
ATOM    101  O   UNL A   1      46.117  36.189  26.038  1.00  0.00    -0.237 OA
ATOM    102  O   UNL A   1      46.288  37.919  27.784  1.00  0.00    -0.744 OA
ENDBRANCH  95  99
ENDBRANCH  69  92
ENDBRANCH  43  44
ENDBRANCH  35  38
ENDBRANCH  33  34
ENDBRANCH  32  33
ENDBRANCH  31  32
ENDBRANCH   1  31
TORSDOF 21
ENDMDL
