MODEL 1
REMARK VINA RESULT:      -8.6      0.000      0.000
REMARK SMILES CS(=O)(=O)c1ccc(C2=NN(c3ccc(C(=O)NCCCCCCNC(=O)c4ccc(-c5c6nc(c(-c7cc(S(=O)(=O)[O-])ccc7F)c7ccc([nH]7)c(-c7cc(S(=O)(=O)[O-])ccc7F)c7nc(c(-c8cc(S(=O)(=O)[O-])ccc8F)c8ccc5[nH]8)C=C7)C=C6)cc4)cc3)[C@H](c3ccccc3)C2)cc1
REMARK SMILES IDX 21 1 20 2 19 3 18 4 16 5 17 6 15 8 12 9 13 10 92 11 14 12
REMARK SMILES IDX 91 13 11 14 9 15 10 16 100 17 93 18 8 19 5 20 6 21 102 22
REMARK SMILES IDX 7 23 101 24 2 25 1 26 3 27 4 28 94 29 95 30 99 31 96 32
REMARK SMILES IDX 98 33 97 34 22 35 23 36 24 37 25 38 26 39 27 41 28 42 29 43
REMARK SMILES IDX 90 44 30 45 89 46 31 47 32 48 33 49 83 50 34 51 88 52 82 53
REMARK SMILES IDX 84 54 35 55 87 56 81 57 80 58 36 60 68 61 48 62 67 63 49 64
REMARK SMILES IDX 52 65 66 66 85 67 50 68 51 69 65 71 86 72 53 73 37 74 38 75
REMARK SMILES IDX 46 76 39 77 45 78 47 79 44 80 40 81 41 82 42 83 43 84 69 85
REMARK SMILES IDX 70 86 78 87 71 88 77 89 79 90 76 91 72 92 73 93 74 94 75 95
REMARK SMILES IDX 54 96 55 97 63 98 56 99 62 100 64 101 61 102 57 103 58 104
REMARK SMILES IDX 59 105 60 106
REMARK H PARENT 18 7 25 40 84 59 52 70
REMARK Flexibility Score: inf
ROOT
ATOM      1  C   UNL A   1      51.919  36.805  29.782  1.00  0.00     0.002 C 
ENDROOT
BRANCH   1   2
ATOM      2  C   UNL A   1      51.359  37.117  28.389  1.00  0.00     0.021 C 
BRANCH   2   3
ATOM      3  C   UNL A   1      50.355  36.072  27.900  1.00  0.00     0.116 C 
BRANCH   3   4
ATOM      4  N   UNL A   1      50.181  36.184  26.462  1.00  0.00    -0.352 N 
ATOM      5  C   UNL A   1      49.203  36.787  25.713  1.00  0.00     0.251 C 
ATOM      6  O   UNL A   1      49.303  36.761  24.487  1.00  0.00    -0.269 OA
ATOM      7  H   UNL A   1      50.889  35.752  25.933  1.00  0.00     0.163 HD
BRANCH   5   8
ATOM      8  C   UNL A   1      48.078  37.530  26.338  1.00  0.00     0.039 A 
ATOM      9  C   UNL A   1      46.091  38.978  27.710  1.00  0.00     0.060 A 
ATOM     10  C   UNL A   1      47.343  39.552  27.466  1.00  0.00     0.029 A 
ATOM     11  C   UNL A   1      45.822  37.711  27.188  1.00  0.00     0.029 A 
ATOM     12  C   UNL A   1      48.332  38.833  26.788  1.00  0.00     0.016 A 
ATOM     13  C   UNL A   1      46.794  37.004  26.484  1.00  0.00     0.016 A 
BRANCH   9  14
ATOM     14  N   UNL A   1      45.097  39.643  28.406  1.00  0.00    -0.257 N 
ATOM     15  C   UNL A   1      44.235  40.239  30.250  1.00  0.00     0.071 C 
ATOM     16  N   UNL A   1      45.371  40.021  29.673  1.00  0.00    -0.176 NA
ATOM     17  C   UNL A   1      43.009  39.949  29.429  1.00  0.00     0.091 C 
ATOM     18  C   UNL A   1      43.665  39.555  28.088  1.00  0.00     0.144 C 
BRANCH  15  19
ATOM     19  C   UNL A   1      44.174  40.760  31.620  1.00  0.00    -0.002 A 
ATOM     20  C   UNL A   1      44.277  41.734  34.219  1.00  0.00     0.067 A 
ATOM     21  C   UNL A   1      45.073  42.325  33.237  1.00  0.00     0.021 A 
ATOM     22  C   UNL A   1      43.427  40.662  33.904  1.00  0.00     0.021 A 
ATOM     23  C   UNL A   1      45.025  41.826  31.937  1.00  0.00     0.011 A 
ATOM     24  C   UNL A   1      43.368  40.175  32.595  1.00  0.00     0.011 A 
BRANCH  20  25
ATOM     25  S   UNL A   1      44.305  42.290  35.906  1.00  0.00     0.175 S 
ATOM     26  C   UNL A   1      44.766  40.908  36.914  1.00  0.00     0.163 C 
ATOM     27  O   UNL A   1      42.943  42.644  36.244  1.00  0.00    -0.224 OA
ATOM     28  O   UNL A   1      45.377  43.266  35.993  1.00  0.00    -0.224 OA
ENDBRANCH  20  25
ENDBRANCH  15  19
BRANCH  18  29
ATOM     29  C   UNL A   1      43.322  40.377  26.847  1.00  0.00    -0.023 A 
ATOM     30  C   UNL A   1      42.077  40.355  26.199  1.00  0.00     0.006 A 
ATOM     31  C   UNL A   1      44.306  41.243  26.323  1.00  0.00     0.006 A 
ATOM     32  C   UNL A   1      41.830  41.159  25.079  1.00  0.00     0.000 A 
ATOM     33  C   UNL A   1      44.050  42.067  25.225  1.00  0.00     0.000 A 
ATOM     34  C   UNL A   1      42.811  42.021  24.598  1.00  0.00     0.000 A 
ENDBRANCH  18  29
ENDBRANCH   9  14
ENDBRANCH   5   8
ENDBRANCH   3   4
ENDBRANCH   2   3
ENDBRANCH   1   2
BRANCH   1  35
ATOM     35  C   UNL A   1      50.937  37.057  30.932  1.00  0.00     0.002 C 
BRANCH  35  36
ATOM     36  C   UNL A   1      51.570  37.648  32.195  1.00  0.00     0.021 C 
BRANCH  36  37
ATOM     37  C   UNL A   1      51.261  39.125  32.412  1.00  0.00     0.116 C 
BRANCH  37  38
ATOM     38  N   UNL A   1      51.330  39.481  33.820  1.00  0.00    -0.352 N 
ATOM     39  C   UNL A   1      50.323  39.530  34.751  1.00  0.00     0.251 C 
ATOM     40  H   UNL A   1      52.225  39.721  34.153  1.00  0.00     0.163 HD
ATOM     41  O   UNL A   1      50.506  40.110  35.817  1.00  0.00    -0.269 OA
BRANCH  39  42
ATOM     42  C   UNL A   1      49.023  38.894  34.453  1.00  0.00     0.039 A 
ATOM     43  C   UNL A   1      48.883  37.516  34.624  1.00  0.00     0.014 A 
ATOM     44  C   UNL A   1      47.944  39.660  33.998  1.00  0.00     0.014 A 
ATOM     45  C   UNL A   1      47.646  36.913  34.389  1.00  0.00     0.010 A 
ATOM     46  C   UNL A   1      46.694  39.072  33.844  1.00  0.00     0.010 A 
ATOM     47  C   UNL A   1      46.532  37.691  34.029  1.00  0.00    -0.014 A 
BRANCH  47  48
ATOM     48  C   UNL A   1      45.195  37.075  33.826  1.00  0.00     0.031 A 
ATOM     49  C   UNL A   1      44.290  36.832  35.003  1.00  0.00     0.074 A 
ATOM     50  C   UNL A   1      44.817  36.693  32.590  1.00  0.00     0.049 A 
ATOM     51  N   UNL A   1      43.115  36.259  35.040  1.00  0.00    -0.248 NA
ATOM     52  C   UNL A   1      44.793  37.262  36.316  1.00  0.00     0.031 C 
ATOM     53  C   UNL A   1      45.620  36.851  31.375  1.00  0.00     0.029 A 
ATOM     54  N   UNL A   1      43.664  36.096  32.150  1.00  0.00    -0.354 N 
ATOM     55  C   UNL A   1      42.736  36.260  36.379  1.00  0.00     0.074 A 
ATOM     56  C   UNL A   1      43.847  36.812  37.125  1.00  0.00     0.031 C 
ATOM     57  C   UNL A   1      44.916  36.403  30.324  1.00  0.00     0.029 A 
ATOM     58  C   UNL A   1      43.638  35.877  30.792  1.00  0.00     0.049 A 
ATOM     59  H   UNL A   1      42.924  35.847  32.749  1.00  0.00     0.167 HD
ATOM     60  C   UNL A   1      41.560  35.867  36.932  1.00  0.00     0.034 A 
ATOM     61  C   UNL A   1      42.693  35.312  30.015  1.00  0.00     0.034 A 
ATOM     62  C   UNL A   1      40.467  35.311  36.171  1.00  0.00     0.049 A 
ATOM     63  C   UNL A   1      41.422  34.819  30.658  1.00  0.00     0.074 A 
ATOM     64  C   UNL A   1      39.222  34.906  36.619  1.00  0.00     0.029 A 
ATOM     65  N   UNL A   1      40.491  35.071  34.801  1.00  0.00    -0.354 N 
ATOM     66  N   UNL A   1      41.062  34.861  31.920  1.00  0.00    -0.248 NA
ATOM     67  C   UNL A   1      40.427  34.208  29.767  1.00  0.00     0.031 C 
ATOM     68  C   UNL A   1      38.525  34.350  35.539  1.00  0.00     0.029 A 
ATOM     69  C   UNL A   1      39.297  34.491  34.397  1.00  0.00     0.049 A 
ATOM     70  H   UNL A   1      41.245  35.283  34.205  1.00  0.00     0.167 HD
ATOM     71  C   UNL A   1      39.780  34.318  31.967  1.00  0.00     0.074 A 
ATOM     72  C   UNL A   1      39.430  33.968  30.605  1.00  0.00     0.031 C 
ATOM     73  C   UNL A   1      38.964  34.132  33.036  1.00  0.00     0.034 A 
BRANCH  60  74
ATOM     74  C   UNL A   1      41.424  36.004  38.432  1.00  0.00     0.023 A 
ATOM     75  C   UNL A   1      40.953  37.191  39.022  1.00  0.00     0.031 A 
ATOM     76  C   UNL A   1      41.821  34.962  39.288  1.00  0.00     0.131 A 
ATOM     77  C   UNL A   1      40.990  37.346  40.416  1.00  0.00     0.055 A 
ATOM     78  C   UNL A   1      41.759  35.086  40.678  1.00  0.00     0.041 A 
ATOM     79  F   UNL A   1      42.299  33.811  38.791  1.00  0.00    -0.206 F 
ATOM     80  C   UNL A   1      41.361  36.292  41.250  1.00  0.00     0.022 A 
BRANCH  77  81
ATOM     81  S   UNL A   1      40.727  39.004  41.104  1.00  0.00     0.124 S 
ATOM     82  O   UNL A   1      41.848  39.743  40.527  1.00  0.00    -0.237 OA
ATOM     83  O   UNL A   1      39.405  39.350  40.600  1.00  0.00    -0.237 OA
ATOM     84  O   UNL A   1      40.810  38.791  42.548  1.00  0.00    -0.744 OA
ENDBRANCH  77  81
ENDBRANCH  60  74
BRANCH  61  85
ATOM     85  C   UNL A   1      42.901  35.187  28.543  1.00  0.00     0.023 A 
ATOM     86  C   UNL A   1      43.666  34.136  28.014  1.00  0.00     0.031 A 
ATOM     87  C   UNL A   1      42.374  36.135  27.648  1.00  0.00     0.131 A 
ATOM     88  C   UNL A   1      43.922  34.081  26.636  1.00  0.00     0.055 A 
ATOM     89  C   UNL A   1      42.583  36.042  26.271  1.00  0.00     0.041 A 
ATOM     90  F   UNL A   1      41.632  37.158  28.100  1.00  0.00    -0.206 F 
ATOM     91  C   UNL A   1      43.373  35.019  25.759  1.00  0.00     0.022 A 
BRANCH  88  92
ATOM     92  S   UNL A   1      45.062  32.814  26.016  1.00  0.00     0.124 S 
ATOM     93  O   UNL A   1      44.632  32.683  24.629  1.00  0.00    -0.237 OA
ATOM     94  O   UNL A   1      46.361  33.444  26.230  1.00  0.00    -0.237 OA
ATOM     95  O   UNL A   1      44.782  31.660  26.868  1.00  0.00    -0.744 OA
ENDBRANCH  88  92
ENDBRANCH  61  85
BRANCH  73  96
ATOM     96  C   UNL A   1      37.590  33.567  32.762  1.00  0.00     0.023 A 
ATOM     97  C   UNL A   1      36.506  34.388  32.407  1.00  0.00     0.031 A 
ATOM     98  C   UNL A   1      37.360  32.184  32.875  1.00  0.00     0.131 A 
ATOM     99  C   UNL A   1      35.229  33.828  32.240  1.00  0.00     0.055 A 
ATOM    100  C   UNL A   1      36.105  31.623  32.638  1.00  0.00     0.041 A 
ATOM    101  F   UNL A   1      38.356  31.351  33.215  1.00  0.00    -0.206 F 
ATOM    102  C   UNL A   1      35.026  32.449  32.333  1.00  0.00     0.022 A 
BRANCH  99 103
ATOM    103  S   UNL A   1      33.815  34.939  32.006  1.00  0.00     0.124 S 
ATOM    104  O   UNL A   1      33.545  34.790  30.579  1.00  0.00    -0.237 OA
ATOM    105  O   UNL A   1      32.817  34.368  32.906  1.00  0.00    -0.237 OA
ATOM    106  O   UNL A   1      34.334  36.246  32.406  1.00  0.00    -0.744 OA
ENDBRANCH  99 103
ENDBRANCH  73  96
ENDBRANCH  47  48
ENDBRANCH  39  42
ENDBRANCH  37  38
ENDBRANCH  36  37
ENDBRANCH  35  36
ENDBRANCH   1  35
TORSDOF 20
ENDMDL
MODEL 2
REMARK VINA RESULT:      -8.6     11.324     18.667
REMARK SMILES CS(=O)(=O)c1ccc(C2=NN(c3ccc(C(=O)NCCCCCCNC(=O)c4ccc(-c5c6nc(c(-c7cc(S(=O)(=O)[O-])ccc7F)c7ccc([nH]7)c(-c7cc(S(=O)(=O)[O-])ccc7F)c7nc(c(-c8cc(S(=O)(=O)[O-])ccc8F)c8ccc5[nH]8)C=C7)C=C6)cc4)cc3)[C@H](c3ccccc3)C2)cc1
REMARK SMILES IDX 21 1 20 2 19 3 18 4 16 5 17 6 15 8 12 9 13 10 92 11 14 12
REMARK SMILES IDX 91 13 11 14 9 15 10 16 100 17 93 18 8 19 5 20 6 21 102 22
REMARK SMILES IDX 7 23 101 24 2 25 1 26 3 27 4 28 94 29 95 30 99 31 96 32
REMARK SMILES IDX 98 33 97 34 22 35 23 36 24 37 25 38 26 39 27 41 28 42 29 43
REMARK SMILES IDX 90 44 30 45 89 46 31 47 32 48 33 49 83 50 34 51 88 52 82 53
REMARK SMILES IDX 84 54 35 55 87 56 81 57 80 58 36 60 68 61 48 62 67 63 49 64
REMARK SMILES IDX 52 65 66 66 85 67 50 68 51 69 65 71 86 72 53 73 37 74 38 75
REMARK SMILES IDX 46 76 39 77 45 78 47 79 44 80 40 81 41 82 42 83 43 84 69 85
REMARK SMILES IDX 70 86 78 87 71 88 77 89 79 90 76 91 72 92 73 93 74 94 75 95
REMARK SMILES IDX 54 96 55 97 63 98 56 99 62 100 64 101 61 102 57 103 58 104
REMARK SMILES IDX 59 105 60 106
REMARK H PARENT 18 7 25 40 84 59 52 70
REMARK Flexibility Score: inf
ROOT
ATOM      1  C   UNL A   1      38.205  29.556  27.944  1.00  0.00     0.002 C 
ENDROOT
BRANCH   1   2
ATOM      2  C   UNL A   1      37.277  30.162  29.004  1.00  0.00     0.021 C 
BRANCH   2   3
ATOM      3  C   UNL A   1      35.834  29.665  28.891  1.00  0.00     0.116 C 
BRANCH   3   4
ATOM      4  N   UNL A   1      34.957  30.764  28.529  1.00  0.00    -0.352 N 
ATOM      5  C   UNL A   1      33.874  30.820  27.689  1.00  0.00     0.251 C 
ATOM      6  O   UNL A   1      33.275  31.888  27.573  1.00  0.00    -0.269 OA
ATOM      7  H   UNL A   1      35.179  31.619  28.962  1.00  0.00     0.163 HD
BRANCH   5   8
ATOM      8  C   UNL A   1      33.362  29.616  26.983  1.00  0.00     0.039 A 
ATOM      9  C   UNL A   1      32.428  27.454  25.440  1.00  0.00     0.060 A 
ATOM     10  C   UNL A   1      33.694  27.998  25.202  1.00  0.00     0.029 A 
ATOM     11  C   UNL A   1      31.677  27.948  26.508  1.00  0.00     0.029 A 
ATOM     12  C   UNL A   1      34.158  29.075  25.965  1.00  0.00     0.016 A 
ATOM     13  C   UNL A   1      32.149  28.999  27.292  1.00  0.00     0.016 A 
BRANCH   9  14
ATOM     14  N   UNL A   1      31.918  26.411  24.686  1.00  0.00    -0.257 N 
ATOM     15  C   UNL A   1      32.068  24.420  23.974  1.00  0.00     0.071 C 
ATOM     16  N   UNL A   1      32.318  25.161  25.002  1.00  0.00    -0.176 NA
ATOM     17  C   UNL A   1      31.519  25.126  22.766  1.00  0.00     0.091 C 
ATOM     18  C   UNL A   1      31.387  26.560  23.324  1.00  0.00     0.144 C 
BRANCH  15  19
ATOM     19  C   UNL A   1      32.298  22.971  24.016  1.00  0.00    -0.002 A 
ATOM     20  C   UNL A   1      32.539  20.204  23.996  1.00  0.00     0.067 A 
ATOM     21  C   UNL A   1      32.228  20.871  22.810  1.00  0.00     0.021 A 
ATOM     22  C   UNL A   1      32.734  20.918  25.190  1.00  0.00     0.021 A 
ATOM     23  C   UNL A   1      32.097  22.257  22.828  1.00  0.00     0.011 A 
ATOM     24  C   UNL A   1      32.621  22.311  25.200  1.00  0.00     0.011 A 
BRANCH  20  25
ATOM     25  S   UNL A   1      32.690  18.436  24.065  1.00  0.00     0.175 S 
ATOM     26  C   UNL A   1      34.393  18.058  24.370  1.00  0.00     0.163 C 
ATOM     27  O   UNL A   1      32.362  17.944  22.744  1.00  0.00    -0.224 OA
ATOM     28  O   UNL A   1      31.935  18.010  25.231  1.00  0.00    -0.224 OA
ENDBRANCH  20  25
ENDBRANCH  15  19
BRANCH  18  29
ATOM     29  C   UNL A   1      30.002  27.205  23.338  1.00  0.00    -0.023 A 
ATOM     30  C   UNL A   1      29.707  28.462  22.787  1.00  0.00     0.006 A 
ATOM     31  C   UNL A   1      28.932  26.486  23.913  1.00  0.00     0.006 A 
ATOM     32  C   UNL A   1      28.404  28.977  22.815  1.00  0.00     0.000 A 
ATOM     33  C   UNL A   1      27.628  26.985  23.914  1.00  0.00     0.000 A 
ATOM     34  C   UNL A   1      27.364  28.235  23.369  1.00  0.00     0.000 A 
ENDBRANCH  18  29
ENDBRANCH   9  14
ENDBRANCH   5   8
ENDBRANCH   3   4
ENDBRANCH   2   3
ENDBRANCH   1   2
BRANCH   1  35
ATOM     35  C   UNL A   1      39.335  28.689  28.510  1.00  0.00     0.002 C 
BRANCH  35  36
ATOM     36  C   UNL A   1      38.946  27.237  28.795  1.00  0.00     0.021 C 
BRANCH  36  37
ATOM     37  C   UNL A   1      40.020  26.221  28.421  1.00  0.00     0.116 C 
BRANCH  37  38
ATOM     38  N   UNL A   1      40.269  26.215  26.989  1.00  0.00    -0.352 N 
ATOM     39  C   UNL A   1      41.446  26.424  26.314  1.00  0.00     0.251 C 
ATOM     40  H   UNL A   1      39.483  26.038  26.423  1.00  0.00     0.163 HD
ATOM     41  O   UNL A   1      41.425  26.654  25.109  1.00  0.00    -0.269 OA
BRANCH  39  42
ATOM     42  C   UNL A   1      42.726  26.383  27.050  1.00  0.00     0.039 A 
ATOM     43  C   UNL A   1      43.166  27.528  27.717  1.00  0.00     0.014 A 
ATOM     44  C   UNL A   1      43.495  25.215  27.077  1.00  0.00     0.014 A 
ATOM     45  C   UNL A   1      44.351  27.486  28.453  1.00  0.00     0.010 A 
ATOM     46  C   UNL A   1      44.630  25.150  27.876  1.00  0.00     0.010 A 
ATOM     47  C   UNL A   1      45.077  26.287  28.566  1.00  0.00    -0.014 A 
BRANCH  47  48
ATOM     48  C   UNL A   1      46.312  26.209  29.389  1.00  0.00     0.031 A 
ATOM     49  C   UNL A   1      47.645  26.549  28.781  1.00  0.00     0.074 A 
ATOM     50  C   UNL A   1      46.237  25.789  30.667  1.00  0.00     0.049 A 
ATOM     51  N   UNL A   1      48.838  26.492  29.315  1.00  0.00    -0.248 NA
ATOM     52  C   UNL A   1      47.635  26.979  27.375  1.00  0.00     0.031 C 
ATOM     53  C   UNL A   1      45.004  25.404  31.358  1.00  0.00     0.029 A 
ATOM     54  N   UNL A   1      47.215  25.615  31.612  1.00  0.00    -0.354 N 
ATOM     55  C   UNL A   1      49.721  26.878  28.311  1.00  0.00     0.074 A 
ATOM     56  C   UNL A   1      48.929  27.082  27.117  1.00  0.00     0.031 C 
ATOM     57  C   UNL A   1      45.296  25.084  32.627  1.00  0.00     0.029 A 
ATOM     58  C   UNL A   1      46.738  25.185  32.829  1.00  0.00     0.049 A 
ATOM     59  H   UNL A   1      48.169  25.784  31.437  1.00  0.00     0.167 HD
ATOM     60  C   UNL A   1      51.061  27.076  28.386  1.00  0.00     0.034 A 
ATOM     61  C   UNL A   1      47.390  24.900  33.973  1.00  0.00     0.034 A 
ATOM     62  C   UNL A   1      51.835  26.859  29.585  1.00  0.00     0.049 A 
ATOM     63  C   UNL A   1      48.888  25.059  34.015  1.00  0.00     0.074 A 
ATOM     64  C   UNL A   1      53.190  27.054  29.785  1.00  0.00     0.029 A 
ATOM     65  N   UNL A   1      51.322  26.388  30.789  1.00  0.00    -0.354 N 
ATOM     66  N   UNL A   1      49.705  25.462  33.069  1.00  0.00    -0.248 NA
ATOM     67  C   UNL A   1      49.550  24.732  35.284  1.00  0.00     0.031 C 
ATOM     68  C   UNL A   1      53.510  26.627  31.079  1.00  0.00     0.029 A 
ATOM     69  C   UNL A   1      52.340  26.252  31.721  1.00  0.00     0.049 A 
ATOM     70  H   UNL A   1      50.374  26.182  30.955  1.00  0.00     0.167 HD
ATOM     71  C   UNL A   1      50.974  25.474  33.644  1.00  0.00     0.074 A 
ATOM     72  C   UNL A   1      50.809  25.050  35.019  1.00  0.00     0.031 C 
ATOM     73  C   UNL A   1      52.166  25.813  33.088  1.00  0.00     0.034 A 
BRANCH  60  74
ATOM     74  C   UNL A   1      51.764  27.521  27.122  1.00  0.00     0.023 A 
ATOM     75  C   UNL A   1      52.198  26.594  26.157  1.00  0.00     0.031 A 
ATOM     76  C   UNL A   1      52.055  28.879  26.901  1.00  0.00     0.131 A 
ATOM     77  C   UNL A   1      52.986  27.021  25.077  1.00  0.00     0.055 A 
ATOM     78  C   UNL A   1      52.753  29.309  25.770  1.00  0.00     0.041 A 
ATOM     79  F   UNL A   1      51.687  29.812  27.793  1.00  0.00    -0.206 F 
ATOM     80  C   UNL A   1      53.242  28.375  24.861  1.00  0.00     0.022 A 
BRANCH  77  81
ATOM     81  S   UNL A   1      53.825  25.763  24.075  1.00  0.00     0.124 S 
ATOM     82  O   UNL A   1      55.227  26.136  24.249  1.00  0.00    -0.237 OA
ATOM     83  O   UNL A   1      53.409  24.520  24.714  1.00  0.00    -0.237 OA
ATOM     84  O   UNL A   1      53.292  25.984  22.732  1.00  0.00    -0.744 OA
ENDBRANCH  77  81
ENDBRANCH  60  74
BRANCH  61  85
ATOM     85  C   UNL A   1      46.637  24.443  35.177  1.00  0.00     0.023 A 
ATOM     86  C   UNL A   1      46.204  25.365  36.143  1.00  0.00     0.031 A 
ATOM     87  C   UNL A   1      46.373  23.081  35.400  1.00  0.00     0.131 A 
ATOM     88  C   UNL A   1      45.572  24.911  37.310  1.00  0.00     0.055 A 
ATOM     89  C   UNL A   1      45.692  22.639  36.536  1.00  0.00     0.041 A 
ATOM     90  F   UNL A   1      46.763  22.157  34.507  1.00  0.00    -0.206 F 
ATOM     91  C   UNL A   1      45.299  23.555  37.507  1.00  0.00     0.022 A 
BRANCH  88  92
ATOM     92  S   UNL A   1      45.191  26.112  38.614  1.00  0.00     0.124 S 
ATOM     93  O   UNL A   1      43.964  26.718  38.109  1.00  0.00    -0.237 OA
ATOM     94  O   UNL A   1      45.049  25.254  39.785  1.00  0.00    -0.237 OA
ATOM     95  O   UNL A   1      46.362  26.987  38.622  1.00  0.00    -0.744 OA
ENDBRANCH  88  92
ENDBRANCH  61  85
BRANCH  73  96
ATOM     96  C   UNL A   1      53.378  25.783  33.990  1.00  0.00     0.023 A 
ATOM     97  C   UNL A   1      54.276  24.703  33.993  1.00  0.00     0.031 A 
ATOM     98  C   UNL A   1      53.627  26.850  34.872  1.00  0.00     0.131 A 
ATOM     99  C   UNL A   1      55.344  24.682  34.904  1.00  0.00     0.055 A 
ATOM    100  C   UNL A   1      54.730  26.858  35.727  1.00  0.00     0.041 A 
ATOM    101  F   UNL A   1      52.801  27.908  34.917  1.00  0.00    -0.206 F 
ATOM    102  C   UNL A   1      55.588  25.762  35.757  1.00  0.00     0.022 A 
BRANCH  99 103
ATOM    103  S   UNL A   1      56.347  23.178  35.037  1.00  0.00     0.124 S 
ATOM    104  O   UNL A   1      57.270  23.522  36.114  1.00  0.00    -0.237 OA
ATOM    105  O   UNL A   1      55.347  22.163  35.355  1.00  0.00    -0.237 OA
ATOM    106  O   UNL A   1      56.957  23.052  33.714  1.00  0.00    -0.744 OA
ENDBRANCH  99 103
ENDBRANCH  73  96
ENDBRANCH  47  48
ENDBRANCH  39  42
ENDBRANCH  37  38
ENDBRANCH  36  37
ENDBRANCH  35  36
ENDBRANCH   1  35
TORSDOF 20
ENDMDL
MODEL 3
REMARK VINA RESULT:      -8.6      7.946     15.394
REMARK SMILES CS(=O)(=O)c1ccc(C2=NN(c3ccc(C(=O)NCCCCCCNC(=O)c4ccc(-c5c6nc(c(-c7cc(S(=O)(=O)[O-])ccc7F)c7ccc([nH]7)c(-c7cc(S(=O)(=O)[O-])ccc7F)c7nc(c(-c8cc(S(=O)(=O)[O-])ccc8F)c8ccc5[nH]8)C=C7)C=C6)cc4)cc3)[C@H](c3ccccc3)C2)cc1
REMARK SMILES IDX 21 1 20 2 19 3 18 4 16 5 17 6 15 8 12 9 13 10 92 11 14 12
REMARK SMILES IDX 91 13 11 14 9 15 10 16 100 17 93 18 8 19 5 20 6 21 102 22
REMARK SMILES IDX 7 23 101 24 2 25 1 26 3 27 4 28 94 29 95 30 99 31 96 32
REMARK SMILES IDX 98 33 97 34 22 35 23 36 24 37 25 38 26 39 27 41 28 42 29 43
REMARK SMILES IDX 90 44 30 45 89 46 31 47 32 48 33 49 83 50 34 51 88 52 82 53
REMARK SMILES IDX 84 54 35 55 87 56 81 57 80 58 36 60 68 61 48 62 67 63 49 64
REMARK SMILES IDX 52 65 66 66 85 67 50 68 51 69 65 71 86 72 53 73 37 74 38 75
REMARK SMILES IDX 46 76 39 77 45 78 47 79 44 80 40 81 41 82 42 83 43 84 69 85
REMARK SMILES IDX 70 86 78 87 71 88 77 89 79 90 76 91 72 92 73 93 74 94 75 95
REMARK SMILES IDX 54 96 55 97 63 98 56 99 62 100 64 101 61 102 57 103 58 104
REMARK SMILES IDX 59 105 60 106
REMARK H PARENT 18 7 25 40 84 59 52 70
REMARK Flexibility Score: inf
ROOT
ATOM      1  C   UNL A   1      41.188  24.201  28.247  1.00  0.00     0.002 C 
ENDROOT
BRANCH   1   2
ATOM      2  C   UNL A   1      40.138  25.219  27.786  1.00  0.00     0.021 C 
BRANCH   2   3
ATOM      3  C   UNL A   1      39.323  24.736  26.585  1.00  0.00     0.116 C 
BRANCH   3   4
ATOM      4  N   UNL A   1      39.522  23.310  26.390  1.00  0.00    -0.352 N 
ATOM      5  C   UNL A   1      38.686  22.337  25.906  1.00  0.00     0.251 C 
ATOM      6  O   UNL A   1      39.114  21.187  25.818  1.00  0.00    -0.269 OA
ATOM      7  H   UNL A   1      40.413  22.986  26.652  1.00  0.00     0.163 HD
BRANCH   5   8
ATOM      8  C   UNL A   1      37.317  22.646  25.418  1.00  0.00     0.039 A 
ATOM      9  C   UNL A   1      34.638  23.110  24.682  1.00  0.00     0.060 A 
ATOM     10  C   UNL A   1      35.094  23.467  25.955  1.00  0.00     0.029 A 
ATOM     11  C   UNL A   1      35.557  22.600  23.762  1.00  0.00     0.029 A 
ATOM     12  C   UNL A   1      36.423  23.234  26.324  1.00  0.00     0.016 A 
ATOM     13  C   UNL A   1      36.889  22.395  24.114  1.00  0.00     0.016 A 
BRANCH   9  14
ATOM     14  N   UNL A   1      33.324  23.293  24.289  1.00  0.00    -0.257 N 
ATOM     15  C   UNL A   1      31.657  24.571  24.004  1.00  0.00     0.071 C 
ATOM     16  N   UNL A   1      32.947  24.541  23.939  1.00  0.00    -0.176 NA
ATOM     17  C   UNL A   1      30.989  23.319  24.501  1.00  0.00     0.091 C 
ATOM     18  C   UNL A   1      32.219  22.400  24.663  1.00  0.00     0.144 C 
BRANCH  15  19
ATOM     19  C   UNL A   1      30.910  25.766  23.593  1.00  0.00    -0.002 A 
ATOM     20  C   UNL A   1      29.662  28.146  22.892  1.00  0.00     0.067 A 
ATOM     21  C   UNL A   1      30.985  27.929  22.503  1.00  0.00     0.021 A 
ATOM     22  C   UNL A   1      28.962  27.175  23.626  1.00  0.00     0.021 A 
ATOM     23  C   UNL A   1      31.609  26.738  22.866  1.00  0.00     0.011 A 
ATOM     24  C   UNL A   1      29.586  25.973  23.973  1.00  0.00     0.011 A 
BRANCH  20  25
ATOM     25  S   UNL A   1      28.806  29.651  22.499  1.00  0.00     0.175 S 
ATOM     26  C   UNL A   1      29.316  30.876  23.672  1.00  0.00     0.163 C 
ATOM     27  O   UNL A   1      27.399  29.393  22.718  1.00  0.00    -0.224 OA
ATOM     28  O   UNL A   1      29.298  30.068  21.196  1.00  0.00    -0.224 OA
ENDBRANCH  20  25
ENDBRANCH  15  19
BRANCH  18  29
ATOM     29  C   UNL A   1      32.261  21.100  23.860  1.00  0.00    -0.023 A 
ATOM     30  C   UNL A   1      32.502  19.833  24.413  1.00  0.00     0.006 A 
ATOM     31  C   UNL A   1      32.012  21.162  22.472  1.00  0.00     0.006 A 
ATOM     32  C   UNL A   1      32.499  18.682  23.614  1.00  0.00     0.000 A 
ATOM     33  C   UNL A   1      31.979  20.011  21.680  1.00  0.00     0.000 A 
ATOM     34  C   UNL A   1      32.228  18.770  22.251  1.00  0.00     0.000 A 
ENDBRANCH  18  29
ENDBRANCH   9  14
ENDBRANCH   5   8
ENDBRANCH   3   4
ENDBRANCH   2   3
ENDBRANCH   1   2
BRANCH   1  35
ATOM     35  C   UNL A   1      42.442  24.141  27.367  1.00  0.00     0.002 C 
BRANCH  35  36
ATOM     36  C   UNL A   1      43.742  24.520  28.081  1.00  0.00     0.021 C 
BRANCH  36  37
ATOM     37  C   UNL A   1      44.687  25.371  27.240  1.00  0.00     0.116 C 
BRANCH  37  38
ATOM     38  N   UNL A   1      44.085  25.730  25.965  1.00  0.00    -0.352 N 
ATOM     39  C   UNL A   1      43.376  26.856  25.629  1.00  0.00     0.251 C 
ATOM     40  H   UNL A   1      44.202  25.072  25.242  1.00  0.00     0.163 HD
ATOM     41  O   UNL A   1      42.710  26.872  24.599  1.00  0.00    -0.269 OA
BRANCH  39  42
ATOM     42  C   UNL A   1      43.411  28.033  26.521  1.00  0.00     0.039 A 
ATOM     43  C   UNL A   1      44.449  28.155  27.448  1.00  0.00     0.014 A 
ATOM     44  C   UNL A   1      42.416  29.013  26.447  1.00  0.00     0.014 A 
ATOM     45  C   UNL A   1      44.516  29.286  28.264  1.00  0.00     0.010 A 
ATOM     46  C   UNL A   1      42.530  30.175  27.201  1.00  0.00     0.010 A 
ATOM     47  C   UNL A   1      43.575  30.321  28.125  1.00  0.00    -0.014 A 
BRANCH  47  48
ATOM     48  C   UNL A   1      43.662  31.556  28.947  1.00  0.00     0.031 A 
ATOM     49  C   UNL A   1      44.647  32.634  28.588  1.00  0.00     0.074 A 
ATOM     50  C   UNL A   1      42.887  31.684  30.042  1.00  0.00     0.049 A 
ATOM     51  N   UNL A   1      44.911  33.755  29.208  1.00  0.00    -0.248 NA
ATOM     52  C   UNL A   1      45.466  32.401  27.389  1.00  0.00     0.031 C 
ATOM     53  C   UNL A   1      41.913  30.693  30.507  1.00  0.00     0.029 A 
ATOM     54  N   UNL A   1      42.792  32.698  30.960  1.00  0.00    -0.354 N 
ATOM     55  C   UNL A   1      45.927  34.362  28.475  1.00  0.00     0.074 A 
ATOM     56  C   UNL A   1      46.285  33.440  27.418  1.00  0.00     0.031 C 
ATOM     57  C   UNL A   1      41.291  31.169  31.597  1.00  0.00     0.029 A 
ATOM     58  C   UNL A   1      41.856  32.469  31.942  1.00  0.00     0.049 A 
ATOM     59  H   UNL A   1      43.343  33.512  30.921  1.00  0.00     0.167 HD
ATOM     60  C   UNL A   1      46.486  35.586  28.648  1.00  0.00     0.034 A 
ATOM     61  C   UNL A   1      41.497  33.222  33.000  1.00  0.00     0.034 A 
ATOM     62  C   UNL A   1      46.121  36.488  29.714  1.00  0.00     0.049 A 
ATOM     63  C   UNL A   1      42.180  34.549  33.214  1.00  0.00     0.074 A 
ATOM     64  C   UNL A   1      46.599  37.762  29.969  1.00  0.00     0.029 A 
ATOM     65  N   UNL A   1      45.193  36.208  30.710  1.00  0.00    -0.354 N 
ATOM     66  N   UNL A   1      43.112  35.127  32.491  1.00  0.00    -0.248 NA
ATOM     67  C   UNL A   1      41.755  35.327  34.385  1.00  0.00     0.031 C 
ATOM     68  C   UNL A   1      46.021  38.217  31.160  1.00  0.00     0.029 A 
ATOM     69  C   UNL A   1      45.113  37.269  31.601  1.00  0.00     0.049 A 
ATOM     70  H   UNL A   1      44.668  35.377  30.775  1.00  0.00     0.167 HD
ATOM     71  C   UNL A   1      43.355  36.356  33.099  1.00  0.00     0.074 A 
ATOM     72  C   UNL A   1      42.464  36.437  34.239  1.00  0.00     0.031 C 
ATOM     73  C   UNL A   1      44.229  37.332  32.744  1.00  0.00     0.034 A 
BRANCH  60  74
ATOM     74  C   UNL A   1      47.569  35.993  27.672  1.00  0.00     0.023 A 
ATOM     75  C   UNL A   1      48.929  35.754  27.942  1.00  0.00     0.031 A 
ATOM     76  C   UNL A   1      47.248  36.677  26.486  1.00  0.00     0.131 A 
ATOM     77  C   UNL A   1      49.916  36.284  27.098  1.00  0.00     0.055 A 
ATOM     78  C   UNL A   1      48.234  37.114  25.598  1.00  0.00     0.041 A 
ATOM     79  F   UNL A   1      45.972  36.956  26.179  1.00  0.00    -0.206 F 
ATOM     80  C   UNL A   1      49.579  36.937  25.912  1.00  0.00     0.022 A 
BRANCH  77  81
ATOM     81  S   UNL A   1      51.637  36.272  27.674  1.00  0.00     0.124 S 
ATOM     82  O   UNL A   1      52.194  35.157  26.911  1.00  0.00    -0.237 OA
ATOM     83  O   UNL A   1      52.105  37.600  27.301  1.00  0.00    -0.237 OA
ATOM     84  O   UNL A   1      51.515  36.032  29.111  1.00  0.00    -0.744 OA
ENDBRANCH  77  81
ENDBRANCH  60  74
BRANCH  61  85
ATOM     85  C   UNL A   1      40.437  32.750  33.937  1.00  0.00     0.023 A 
ATOM     86  C   UNL A   1      39.114  33.204  33.810  1.00  0.00     0.031 A 
ATOM     87  C   UNL A   1      40.733  31.872  34.994  1.00  0.00     0.131 A 
ATOM     88  C   UNL A   1      38.147  32.817  34.749  1.00  0.00     0.055 A 
ATOM     89  C   UNL A   1      39.754  31.443  35.892  1.00  0.00     0.041 A 
ATOM     90  F   UNL A   1      41.981  31.404  35.160  1.00  0.00    -0.206 F 
ATOM     91  C   UNL A   1      38.455  31.927  35.781  1.00  0.00     0.022 A 
BRANCH  88  92
ATOM     92  S   UNL A   1      36.499  33.566  34.656  1.00  0.00     0.124 S 
ATOM     93  O   UNL A   1      36.118  33.622  36.062  1.00  0.00    -0.237 OA
ATOM     94  O   UNL A   1      36.784  34.847  34.015  1.00  0.00    -0.237 OA
ATOM     95  O   UNL A   1      35.741  32.619  33.841  1.00  0.00    -0.744 OA
ENDBRANCH  88  92
ENDBRANCH  61  85
BRANCH  73  96
ATOM     96  C   UNL A   1      44.225  38.595  33.574  1.00  0.00     0.023 A 
ATOM     97  C   UNL A   1      43.407  39.692  33.254  1.00  0.00     0.031 A 
ATOM     98  C   UNL A   1      45.066  38.705  34.696  1.00  0.00     0.131 A 
ATOM     99  C   UNL A   1      43.495  40.874  34.007  1.00  0.00     0.055 A 
ATOM    100  C   UNL A   1      45.097  39.855  35.485  1.00  0.00     0.041 A 
ATOM    101  F   UNL A   1      45.871  37.690  35.049  1.00  0.00    -0.206 F 
ATOM    102  C   UNL A   1      44.320  40.955  35.132  1.00  0.00     0.022 A 
BRANCH  99 103
ATOM    103  S   UNL A   1      42.598  42.341  33.433  1.00  0.00     0.124 S 
ATOM    104  O   UNL A   1      41.938  42.791  34.655  1.00  0.00    -0.237 OA
ATOM    105  O   UNL A   1      43.676  43.194  32.941  1.00  0.00    -0.237 OA
ATOM    106  O   UNL A   1      41.704  41.817  32.402  1.00  0.00    -0.744 OA
ENDBRANCH  99 103
ENDBRANCH  73  96
ENDBRANCH  47  48
ENDBRANCH  39  42
ENDBRANCH  37  38
ENDBRANCH  36  37
ENDBRANCH  35  36
ENDBRANCH   1  35
TORSDOF 20
ENDMDL
