MODEL 1
REMARK VINA RESULT:     -12.6      0.000      0.000
REMARK SMILES Cc1cccc(C[NH2+]Cc2c(C(=O)NCCCCCCNC(=O)c3ccc(-c4c5nc(c(-c6cc(S(=O)(=O)[O-])ccc6F)c6ccc([nH]6)c(-c6cc(S(=O)(=O)[O-])ccc6F)c6nc(c(-c7cc(S(=O)(=O)[O-])ccc7F)c7ccc4[nH]7)C=C6)C=C5)cc3)c(C)n(Cc3cccc(F)c3)c2C)c1
REMARK SMILES IDX 17 1 16 2 15 3 14 4 12 5 13 6 11 8 10 9 98 10 87 11 89 12
REMARK SMILES IDX 99 13 88 14 9 15 8 16 7 19 6 20 1 21 2 22 3 23 100 24 4 25
REMARK SMILES IDX 5 26 90 27 91 28 92 29 97 30 93 31 95 32 94 33 96 34 18 35
REMARK SMILES IDX 19 36 20 37 21 38 22 39 23 41 24 42 25 43 86 44 26 45 85 46
REMARK SMILES IDX 27 47 28 48 29 49 79 50 30 51 84 52 78 53 80 54 31 55 83 56
REMARK SMILES IDX 77 57 76 58 32 60 64 61 44 62 63 63 45 64 48 65 62 66 81 67
REMARK SMILES IDX 46 68 47 69 61 71 82 72 49 73 33 74 34 75 42 76 35 77 41 78
REMARK SMILES IDX 43 79 40 80 36 81 37 82 38 83 39 84 65 85 66 86 74 87 67 88
REMARK SMILES IDX 73 89 75 90 72 91 68 92 69 93 70 94 71 95 50 96 51 97 59 98
REMARK SMILES IDX 52 99 58 100 60 101 57 102 53 103 54 104 55 105 56 106
REMARK H PARENT 14 7 8 17 8 18 21 40 80 59 48 70
REMARK Flexibility Score: inf
ROOT
ATOM      1  C   UNL A   1      36.046  23.907  25.233  1.00  0.00     0.002 C 
ENDROOT
BRANCH   1   2
ATOM      2  C   UNL A   1      34.767  24.320  25.984  1.00  0.00     0.021 C 
BRANCH   2   3
ATOM      3  C   UNL A   1      34.109  23.184  26.774  1.00  0.00     0.116 C 
BRANCH   3   4
ATOM      4  N   UNL A   1      32.726  23.484  27.040  1.00  0.00    -0.352 N 
ATOM      5  C   UNL A   1      31.689  24.124  26.432  1.00  0.00     0.253 C 
ATOM      6  O   UNL A   1      30.645  24.018  27.088  1.00  0.00    -0.269 OA
ATOM      7  H   UNL A   1      32.451  23.124  27.913  1.00  0.00     0.163 HD
BRANCH   5   8
ATOM      8  C   UNL A   1      31.683  24.842  25.122  1.00  0.00     0.069 A 
ATOM      9  C   UNL A   1      31.697  24.442  23.706  1.00  0.00     0.040 A 
ATOM     10  C   UNL A   1      31.792  25.628  22.958  1.00  0.00     0.025 A 
ATOM     11  C   UNL A   1      31.786  26.249  25.119  1.00  0.00     0.028 A 
ATOM     12  N   UNL A   1      31.746  26.705  23.824  1.00  0.00    -0.343 N 
ATOM     13  C   UNL A   1      31.980  25.848  21.493  1.00  0.00     0.065 C 
ATOM     14  C   UNL A   1      31.933  27.161  26.307  1.00  0.00     0.065 C 
BRANCH   9  15
ATOM     15  C   UNL A   1      31.658  23.011  23.202  1.00  0.00     0.300 C 
BRANCH  15  16
ATOM     16  N   UNL A   1      32.618  22.058  23.736  1.00  0.00    -0.339 N 
ATOM     17  H   UNL A   1      33.117  21.646  22.948  1.00  0.00     0.346 HD
ATOM     18  H   UNL A   1      33.202  22.596  24.377  1.00  0.00     0.346 HD
BRANCH  16  19
ATOM     19  C   UNL A   1      32.081  20.968  24.535  1.00  0.00     0.297 C 
BRANCH  19  20
ATOM     20  C   UNL A   1      33.071  19.811  24.545  1.00  0.00     0.006 A 
ATOM     21  C   UNL A   1      36.840  19.293  24.870  1.00  0.00     0.044 C 
ATOM     22  C   UNL A   1      35.382  19.011  24.661  1.00  0.00    -0.051 A 
ATOM     23  C   UNL A   1      34.949  17.729  24.311  1.00  0.00     0.003 A 
ATOM     24  C   UNL A   1      34.430  20.027  24.821  1.00  0.00     0.013 A 
ATOM     25  C   UNL A   1      33.594  17.483  24.087  1.00  0.00     0.001 A 
ATOM     26  C   UNL A   1      32.663  18.520  24.187  1.00  0.00     0.009 A 
ENDBRANCH  19  20
ENDBRANCH  16  19
ENDBRANCH  15  16
ENDBRANCH   9  15
BRANCH  12  27
ATOM     27  C   UNL A   1      31.778  28.117  23.405  1.00  0.00     0.157 C 
BRANCH  27  28
ATOM     28  C   UNL A   1      30.431  28.691  23.009  1.00  0.00    -0.025 A 
ATOM     29  C   UNL A   1      30.392  29.738  22.068  1.00  0.00     0.006 A 
ATOM     30  C   UNL A   1      29.221  28.204  23.523  1.00  0.00     0.044 A 
ATOM     31  C   UNL A   1      29.174  30.237  21.602  1.00  0.00     0.003 A 
ATOM     32  C   UNL A   1      28.013  28.701  23.043  1.00  0.00     0.123 A 
ATOM     33  C   UNL A   1      27.980  29.705  22.083  1.00  0.00     0.039 A 
ATOM     34  F   UNL A   1      26.862  28.192  23.501  1.00  0.00    -0.207 F 
ENDBRANCH  27  28
ENDBRANCH  12  27
ENDBRANCH   5   8
ENDBRANCH   3   4
ENDBRANCH   2   3
ENDBRANCH   1   2
BRANCH   1  35
ATOM     35  C   UNL A   1      37.321  23.773  26.085  1.00  0.00     0.002 C 
BRANCH  35  36
ATOM     36  C   UNL A   1      38.088  22.459  25.935  1.00  0.00     0.021 C 
BRANCH  36  37
ATOM     37  C   UNL A   1      39.533  22.541  26.417  1.00  0.00     0.116 C 
BRANCH  37  38
ATOM     38  N   UNL A   1      40.354  21.418  25.975  1.00  0.00    -0.352 N 
ATOM     39  C   UNL A   1      41.729  21.259  26.054  1.00  0.00     0.251 C 
ATOM     40  H   UNL A   1      39.864  20.669  25.565  1.00  0.00     0.163 HD
ATOM     41  O   UNL A   1      42.291  20.286  25.594  1.00  0.00    -0.269 OA
BRANCH  39  42
ATOM     42  C   UNL A   1      42.495  22.255  26.842  1.00  0.00     0.039 A 
ATOM     43  C   UNL A   1      42.440  22.132  28.235  1.00  0.00     0.014 A 
ATOM     44  C   UNL A   1      43.015  23.400  26.245  1.00  0.00     0.014 A 
ATOM     45  C   UNL A   1      42.679  23.252  29.023  1.00  0.00     0.010 A 
ATOM     46  C   UNL A   1      43.177  24.533  27.020  1.00  0.00     0.010 A 
ATOM     47  C   UNL A   1      42.930  24.474  28.397  1.00  0.00    -0.014 A 
BRANCH  47  48
ATOM     48  C   UNL A   1      42.773  25.750  29.090  1.00  0.00     0.031 A 
ATOM     49  C   UNL A   1      41.618  26.625  28.817  1.00  0.00     0.074 A 
ATOM     50  C   UNL A   1      43.713  26.141  29.979  1.00  0.00     0.049 A 
ATOM     51  N   UNL A   1      41.599  27.898  29.031  1.00  0.00    -0.248 NA
ATOM     52  C   UNL A   1      40.404  26.137  28.176  1.00  0.00     0.031 C 
ATOM     53  C   UNL A   1      43.646  27.263  30.910  1.00  0.00     0.029 A 
ATOM     54  N   UNL A   1      45.045  25.737  30.016  1.00  0.00    -0.354 N 
ATOM     55  C   UNL A   1      40.315  28.348  28.829  1.00  0.00     0.074 A 
ATOM     56  C   UNL A   1      39.654  27.243  28.180  1.00  0.00     0.031 C 
ATOM     57  C   UNL A   1      44.895  27.631  31.233  1.00  0.00     0.029 A 
ATOM     58  C   UNL A   1      45.808  26.842  30.423  1.00  0.00     0.049 A 
ATOM     59  H   UNL A   1      45.389  24.841  29.796  1.00  0.00     0.167 HD
ATOM     60  C   UNL A   1      39.947  29.551  29.357  1.00  0.00     0.034 A 
ATOM     61  C   UNL A   1      46.787  27.351  29.622  1.00  0.00     0.034 A 
ATOM     62  C   UNL A   1      41.127  30.311  29.799  1.00  0.00     0.049 A 
ATOM     63  C   UNL A   1      46.541  28.782  29.196  1.00  0.00     0.074 A 
ATOM     64  C   UNL A   1      41.667  30.601  31.041  1.00  0.00     0.029 A 
ATOM     65  N   UNL A   1      42.091  30.681  28.862  1.00  0.00    -0.354 N 
ATOM     66  N   UNL A   1      45.399  29.403  29.320  1.00  0.00    -0.248 NA
ATOM     67  C   UNL A   1      47.565  29.618  28.577  1.00  0.00     0.031 C 
ATOM     68  C   UNL A   1      42.998  31.064  30.843  1.00  0.00     0.029 A 
ATOM     69  C   UNL A   1      43.254  31.097  29.483  1.00  0.00     0.049 A 
ATOM     70  H   UNL A   1      41.960  30.652  27.886  1.00  0.00     0.167 HD
ATOM     71  C   UNL A   1      45.496  30.661  28.779  1.00  0.00     0.074 A 
ATOM     72  C   UNL A   1      46.887  30.758  28.366  1.00  0.00     0.031 C 
ATOM     73  C   UNL A   1      44.419  31.502  28.698  1.00  0.00     0.034 A 
BRANCH  60  74
ATOM     74  C   UNL A   1      38.518  29.956  29.719  1.00  0.00     0.023 A 
ATOM     75  C   UNL A   1      38.001  31.172  29.211  1.00  0.00     0.031 A 
ATOM     76  C   UNL A   1      37.658  29.291  30.621  1.00  0.00     0.131 A 
ATOM     77  C   UNL A   1      36.758  31.690  29.637  1.00  0.00     0.055 A 
ATOM     78  C   UNL A   1      36.425  29.805  31.044  1.00  0.00     0.041 A 
ATOM     79  F   UNL A   1      37.939  28.101  31.151  1.00  0.00    -0.206 F 
ATOM     80  C   UNL A   1      35.971  31.016  30.563  1.00  0.00     0.022 A 
BRANCH  77  81
ATOM     81  S   UNL A   1      36.186  33.293  29.004  1.00  0.00     0.124 S 
ATOM     82  O   UNL A   1      37.370  34.129  29.164  1.00  0.00    -0.237 OA
ATOM     83  O   UNL A   1      35.799  32.965  27.636  1.00  0.00    -0.237 OA
ATOM     84  O   UNL A   1      35.072  33.630  29.891  1.00  0.00    -0.744 OA
ENDBRANCH  77  81
ENDBRANCH  60  74
BRANCH  61  85
ATOM     85  C   UNL A   1      47.498  26.314  28.822  1.00  0.00     0.023 A 
ATOM     86  C   UNL A   1      47.214  26.260  27.439  1.00  0.00     0.031 A 
ATOM     87  C   UNL A   1      48.658  25.678  29.277  1.00  0.00     0.131 A 
ATOM     88  C   UNL A   1      48.147  25.721  26.544  1.00  0.00     0.055 A 
ATOM     89  C   UNL A   1      49.563  25.088  28.384  1.00  0.00     0.041 A 
ATOM     90  F   UNL A   1      49.001  25.726  30.573  1.00  0.00    -0.206 F 
ATOM     91  C   UNL A   1      49.331  25.146  27.008  1.00  0.00     0.022 A 
BRANCH  88  92
ATOM     92  S   UNL A   1      47.927  26.006  24.761  1.00  0.00     0.124 S 
ATOM     93  O   UNL A   1      49.305  26.117  24.297  1.00  0.00    -0.237 OA
ATOM     94  O   UNL A   1      47.204  24.814  24.322  1.00  0.00    -0.237 OA
ATOM     95  O   UNL A   1      47.141  27.237  24.713  1.00  0.00    -0.744 OA
ENDBRANCH  88  92
ENDBRANCH  61  85
BRANCH  73  96
ATOM     96  C   UNL A   1      44.386  32.818  27.937  1.00  0.00     0.023 A 
ATOM     97  C   UNL A   1      44.361  34.076  28.559  1.00  0.00     0.031 A 
ATOM     98  C   UNL A   1      44.447  32.844  26.522  1.00  0.00     0.131 A 
ATOM     99  C   UNL A   1      44.297  35.266  27.807  1.00  0.00     0.055 A 
ATOM    100  C   UNL A   1      44.468  34.028  25.777  1.00  0.00     0.041 A 
ATOM    101  F   UNL A   1      44.498  31.716  25.797  1.00  0.00    -0.206 F 
ATOM    102  C   UNL A   1      44.371  35.253  26.418  1.00  0.00     0.022 A 
BRANCH  99 103
ATOM    103  S   UNL A   1      44.038  36.828  28.691  1.00  0.00     0.124 S 
ATOM    104  O   UNL A   1      44.138  36.405  30.085  1.00  0.00    -0.237 OA
ATOM    105  O   UNL A   1      45.136  37.653  28.198  1.00  0.00    -0.237 OA
ATOM    106  O   UNL A   1      42.704  37.250  28.267  1.00  0.00    -0.744 OA
ENDBRANCH  99 103
ENDBRANCH  73  96
ENDBRANCH  47  48
ENDBRANCH  39  42
ENDBRANCH  37  38
ENDBRANCH  36  37
ENDBRANCH  35  36
ENDBRANCH   1  35
TORSDOF 22
ENDMDL
MODEL 2
REMARK VINA RESULT:     -12.0      2.557      3.755
REMARK SMILES Cc1cccc(C[NH2+]Cc2c(C(=O)NCCCCCCNC(=O)c3ccc(-c4c5nc(c(-c6cc(S(=O)(=O)[O-])ccc6F)c6ccc([nH]6)c(-c6cc(S(=O)(=O)[O-])ccc6F)c6nc(c(-c7cc(S(=O)(=O)[O-])ccc7F)c7ccc4[nH]7)C=C6)C=C5)cc3)c(C)n(Cc3cccc(F)c3)c2C)c1
REMARK SMILES IDX 17 1 16 2 15 3 14 4 12 5 13 6 11 8 10 9 98 10 87 11 89 12
REMARK SMILES IDX 99 13 88 14 9 15 8 16 7 19 6 20 1 21 2 22 3 23 100 24 4 25
REMARK SMILES IDX 5 26 90 27 91 28 92 29 97 30 93 31 95 32 94 33 96 34 18 35
REMARK SMILES IDX 19 36 20 37 21 38 22 39 23 41 24 42 25 43 86 44 26 45 85 46
REMARK SMILES IDX 27 47 28 48 29 49 79 50 30 51 84 52 78 53 80 54 31 55 83 56
REMARK SMILES IDX 77 57 76 58 32 60 64 61 44 62 63 63 45 64 48 65 62 66 81 67
REMARK SMILES IDX 46 68 47 69 61 71 82 72 49 73 33 74 34 75 42 76 35 77 41 78
REMARK SMILES IDX 43 79 40 80 36 81 37 82 38 83 39 84 65 85 66 86 74 87 67 88
REMARK SMILES IDX 73 89 75 90 72 91 68 92 69 93 70 94 71 95 50 96 51 97 59 98
REMARK SMILES IDX 52 99 58 100 60 101 57 102 53 103 54 104 55 105 56 106
REMARK H PARENT 14 7 8 17 8 18 21 40 80 59 48 70
REMARK Flexibility Score: inf
ROOT
ATOM      1  C   UNL A   1      39.162  22.658  26.447  1.00  0.00     0.002 C 
ENDROOT
BRANCH   1   2
ATOM      2  C   UNL A   1      37.905  22.321  25.625  1.00  0.00     0.021 C 
BRANCH   2   3
ATOM      3  C   UNL A   1      37.012  23.529  25.322  1.00  0.00     0.116 C 
BRANCH   3   4
ATOM      4  N   UNL A   1      36.268  23.318  24.106  1.00  0.00    -0.352 N 
ATOM      5  C   UNL A   1      34.973  23.357  23.688  1.00  0.00     0.253 C 
ATOM      6  O   UNL A   1      34.887  23.164  22.467  1.00  0.00    -0.269 OA
ATOM      7  H   UNL A   1      36.869  23.077  23.366  1.00  0.00     0.163 HD
BRANCH   5   8
ATOM      8  C   UNL A   1      33.746  23.641  24.491  1.00  0.00     0.069 A 
ATOM      9  C   UNL A   1      33.064  23.000  25.626  1.00  0.00     0.040 A 
ATOM     10  C   UNL A   1      31.878  23.723  25.837  1.00  0.00     0.025 A 
ATOM     11  C   UNL A   1      32.905  24.701  24.092  1.00  0.00     0.028 A 
ATOM     12  N   UNL A   1      31.852  24.798  24.968  1.00  0.00    -0.343 N 
ATOM     13  C   UNL A   1      30.725  23.468  26.752  1.00  0.00     0.065 C 
ATOM     14  C   UNL A   1      33.072  25.607  22.903  1.00  0.00     0.065 C 
BRANCH   9  15
ATOM     15  C   UNL A   1      33.562  21.772  26.365  1.00  0.00     0.300 C 
BRANCH  15  16
ATOM     16  N   UNL A   1      32.865  20.510  26.168  1.00  0.00    -0.339 N 
ATOM     17  H   UNL A   1      33.537  19.759  26.321  1.00  0.00     0.346 HD
ATOM     18  H   UNL A   1      32.086  20.528  26.827  1.00  0.00     0.346 HD
BRANCH  16  19
ATOM     19  C   UNL A   1      32.256  20.297  24.865  1.00  0.00     0.297 C 
BRANCH  19  20
ATOM     20  C   UNL A   1      32.760  18.987  24.277  1.00  0.00     0.006 A 
ATOM     21  C   UNL A   1      35.280  16.257  25.157  1.00  0.00     0.044 C 
ATOM     22  C   UNL A   1      34.261  17.056  24.402  1.00  0.00    -0.051 A 
ATOM     23  C   UNL A   1      33.899  16.699  23.101  1.00  0.00     0.003 A 
ATOM     24  C   UNL A   1      33.650  18.171  24.993  1.00  0.00     0.013 A 
ATOM     25  C   UNL A   1      32.974  17.467  22.393  1.00  0.00     0.001 A 
ATOM     26  C   UNL A   1      32.421  18.612  22.971  1.00  0.00     0.009 A 
ENDBRANCH  19  20
ENDBRANCH  16  19
ENDBRANCH  15  16
ENDBRANCH   9  15
BRANCH  12  27
ATOM     27  C   UNL A   1      30.782  25.811  24.923  1.00  0.00     0.157 C 
BRANCH  27  28
ATOM     28  C   UNL A   1      31.106  27.107  25.640  1.00  0.00    -0.025 A 
ATOM     29  C   UNL A   1      31.210  27.096  27.044  1.00  0.00     0.006 A 
ATOM     30  C   UNL A   1      31.330  28.313  24.959  1.00  0.00     0.044 A 
ATOM     31  C   UNL A   1      31.595  28.243  27.742  1.00  0.00     0.003 A 
ATOM     32  C   UNL A   1      31.725  29.445  25.664  1.00  0.00     0.123 A 
ATOM     33  C   UNL A   1      31.867  29.417  27.046  1.00  0.00     0.039 A 
ATOM     34  F   UNL A   1      31.989  30.577  24.999  1.00  0.00    -0.207 F 
ENDBRANCH  27  28
ENDBRANCH  12  27
ENDBRANCH   5   8
ENDBRANCH   3   4
ENDBRANCH   2   3
ENDBRANCH   1   2
BRANCH   1  35
ATOM     35  C   UNL A   1      40.103  21.482  26.763  1.00  0.00     0.002 C 
BRANCH  35  36
ATOM     36  C   UNL A   1      41.533  21.613  26.239  1.00  0.00     0.021 C 
BRANCH  36  37
ATOM     37  C   UNL A   1      42.233  22.889  26.695  1.00  0.00     0.116 C 
BRANCH  37  38
ATOM     38  N   UNL A   1      42.241  23.938  25.681  1.00  0.00    -0.352 N 
ATOM     39  C   UNL A   1      41.990  25.294  25.827  1.00  0.00     0.251 C 
ATOM     40  H   UNL A   1      42.455  23.643  24.766  1.00  0.00     0.163 HD
ATOM     41  O   UNL A   1      41.979  26.051  24.877  1.00  0.00    -0.269 OA
BRANCH  39  42
ATOM     42  C   UNL A   1      41.866  25.829  27.204  1.00  0.00     0.039 A 
ATOM     43  C   UNL A   1      40.567  26.029  27.686  1.00  0.00     0.014 A 
ATOM     44  C   UNL A   1      42.967  26.356  27.874  1.00  0.00     0.014 A 
ATOM     45  C   UNL A   1      40.357  26.957  28.700  1.00  0.00     0.010 A 
ATOM     46  C   UNL A   1      42.753  27.334  28.826  1.00  0.00     0.010 A 
ATOM     47  C   UNL A   1      41.445  27.688  29.179  1.00  0.00    -0.014 A 
BRANCH  47  48
ATOM     48  C   UNL A   1      41.278  28.943  29.907  1.00  0.00     0.031 A 
ATOM     49  C   UNL A   1      40.134  29.833  29.634  1.00  0.00     0.074 A 
ATOM     50  C   UNL A   1      42.198  29.301  30.831  1.00  0.00     0.049 A 
ATOM     51  N   UNL A   1      40.118  31.099  29.887  1.00  0.00    -0.248 NA
ATOM     52  C   UNL A   1      38.934  29.373  28.948  1.00  0.00     0.031 C 
ATOM     53  C   UNL A   1      42.115  30.394  31.793  1.00  0.00     0.029 A 
ATOM     54  N   UNL A   1      43.527  28.887  30.887  1.00  0.00    -0.354 N 
ATOM     55  C   UNL A   1      38.841  31.563  29.667  1.00  0.00     0.074 A 
ATOM     56  C   UNL A   1      38.191  30.482  28.968  1.00  0.00     0.031 C 
ATOM     57  C   UNL A   1      43.358  30.744  32.158  1.00  0.00     0.029 A 
ATOM     58  C   UNL A   1      44.285  29.975  31.347  1.00  0.00     0.049 A 
ATOM     59  H   UNL A   1      43.871  27.997  30.648  1.00  0.00     0.167 HD
ATOM     60  C   UNL A   1      38.468  32.752  30.223  1.00  0.00     0.034 A 
ATOM     61  C   UNL A   1      45.287  30.502  30.585  1.00  0.00     0.034 A 
ATOM     62  C   UNL A   1      39.640  33.490  30.717  1.00  0.00     0.049 A 
ATOM     63  C   UNL A   1      45.058  31.947  30.198  1.00  0.00     0.074 A 
ATOM     64  C   UNL A   1      40.152  33.739  31.980  1.00  0.00     0.029 A 
ATOM     65  N   UNL A   1      40.629  33.883  29.814  1.00  0.00    -0.354 N 
ATOM     66  N   UNL A   1      43.918  32.570  30.313  1.00  0.00    -0.248 NA
ATOM     67  C   UNL A   1      46.102  32.795  29.630  1.00  0.00     0.031 C 
ATOM     68  C   UNL A   1      41.490  34.199  31.828  1.00  0.00     0.029 A 
ATOM     69  C   UNL A   1      41.779  34.272  30.476  1.00  0.00     0.049 A 
ATOM     70  H   UNL A   1      40.521  33.884  28.835  1.00  0.00     0.167 HD
ATOM     71  C   UNL A   1      44.035  33.844  29.814  1.00  0.00     0.074 A 
ATOM     72  C   UNL A   1      45.436  33.945  29.437  1.00  0.00     0.031 C 
ATOM     73  C   UNL A   1      42.965  34.694  29.732  1.00  0.00     0.034 A 
BRANCH  60  74
ATOM     74  C   UNL A   1      37.032  33.154  30.563  1.00  0.00     0.023 A 
ATOM     75  C   UNL A   1      36.193  33.635  29.529  1.00  0.00     0.031 A 
ATOM     76  C   UNL A   1      36.456  33.207  31.851  1.00  0.00     0.131 A 
ATOM     77  C   UNL A   1      34.919  34.182  29.796  1.00  0.00     0.055 A 
ATOM     78  C   UNL A   1      35.191  33.750  32.117  1.00  0.00     0.041 A 
ATOM     79  F   UNL A   1      37.063  32.737  32.940  1.00  0.00    -0.206 F 
ATOM     80  C   UNL A   1      34.417  34.253  31.091  1.00  0.00     0.022 A 
BRANCH  77  81
ATOM     81  S   UNL A   1      33.922  34.852  28.434  1.00  0.00     0.124 S 
ATOM     82  O   UNL A   1      34.516  36.169  28.236  1.00  0.00    -0.237 OA
ATOM     83  O   UNL A   1      34.143  33.872  27.378  1.00  0.00    -0.237 OA
ATOM     84  O   UNL A   1      32.565  34.868  28.982  1.00  0.00    -0.744 OA
ENDBRANCH  77  81
ENDBRANCH  60  74
BRANCH  61  85
ATOM     85  C   UNL A   1      46.011  29.485  29.771  1.00  0.00     0.023 A 
ATOM     86  C   UNL A   1      45.701  29.423  28.394  1.00  0.00     0.031 A 
ATOM     87  C   UNL A   1      47.198  28.883  30.203  1.00  0.00     0.131 A 
ATOM     88  C   UNL A   1      46.631  28.911  27.480  1.00  0.00     0.055 A 
ATOM     89  C   UNL A   1      48.101  28.320  29.291  1.00  0.00     0.041 A 
ATOM     90  F   UNL A   1      47.565  28.941  31.492  1.00  0.00    -0.206 F 
ATOM     91  C   UNL A   1      47.841  28.371  27.921  1.00  0.00     0.022 A 
BRANCH  88  92
ATOM     92  S   UNL A   1      46.368  29.189  25.702  1.00  0.00     0.124 S 
ATOM     93  O   UNL A   1      47.589  28.640  25.123  1.00  0.00    -0.237 OA
ATOM     94  O   UNL A   1      45.143  28.440  25.428  1.00  0.00    -0.237 OA
ATOM     95  O   UNL A   1      46.219  30.640  25.609  1.00  0.00    -0.744 OA
ENDBRANCH  88  92
ENDBRANCH  61  85
BRANCH  73  96
ATOM     96  C   UNL A   1      42.957  36.033  29.012  1.00  0.00     0.023 A 
ATOM     97  C   UNL A   1      43.340  37.243  29.613  1.00  0.00     0.031 A 
ATOM     98  C   UNL A   1      42.618  36.120  27.640  1.00  0.00     0.131 A 
ATOM     99  C   UNL A   1      43.282  38.462  28.911  1.00  0.00     0.055 A 
ATOM    100  C   UNL A   1      42.641  37.320  26.919  1.00  0.00     0.041 A 
ATOM    101  F   UNL A   1      42.255  35.040  26.932  1.00  0.00    -0.206 F 
ATOM    102  C   UNL A   1      42.955  38.508  27.560  1.00  0.00     0.022 A 
BRANCH  99 103
ATOM    103  S   UNL A   1      43.574  39.998  29.830  1.00  0.00     0.124 S 
ATOM    104  O   UNL A   1      44.580  40.657  29.002  1.00  0.00    -0.237 OA
ATOM    105  O   UNL A   1      42.252  40.617  29.835  1.00  0.00    -0.237 OA
ATOM    106  O   UNL A   1      44.050  39.537  31.133  1.00  0.00    -0.744 OA
ENDBRANCH  99 103
ENDBRANCH  73  96
ENDBRANCH  47  48
ENDBRANCH  39  42
ENDBRANCH  37  38
ENDBRANCH  36  37
ENDBRANCH  35  36
ENDBRANCH   1  35
TORSDOF 22
ENDMDL
MODEL 3
REMARK VINA RESULT:     -11.8      3.775      5.087
REMARK SMILES Cc1cccc(C[NH2+]Cc2c(C(=O)NCCCCCCNC(=O)c3ccc(-c4c5nc(c(-c6cc(S(=O)(=O)[O-])ccc6F)c6ccc([nH]6)c(-c6cc(S(=O)(=O)[O-])ccc6F)c6nc(c(-c7cc(S(=O)(=O)[O-])ccc7F)c7ccc4[nH]7)C=C6)C=C5)cc3)c(C)n(Cc3cccc(F)c3)c2C)c1
REMARK SMILES IDX 17 1 16 2 15 3 14 4 12 5 13 6 11 8 10 9 98 10 87 11 89 12
REMARK SMILES IDX 99 13 88 14 9 15 8 16 7 19 6 20 1 21 2 22 3 23 100 24 4 25
REMARK SMILES IDX 5 26 90 27 91 28 92 29 97 30 93 31 95 32 94 33 96 34 18 35
REMARK SMILES IDX 19 36 20 37 21 38 22 39 23 41 24 42 25 43 86 44 26 45 85 46
REMARK SMILES IDX 27 47 28 48 29 49 79 50 30 51 84 52 78 53 80 54 31 55 83 56
REMARK SMILES IDX 77 57 76 58 32 60 64 61 44 62 63 63 45 64 48 65 62 66 81 67
REMARK SMILES IDX 46 68 47 69 61 71 82 72 49 73 33 74 34 75 42 76 35 77 41 78
REMARK SMILES IDX 43 79 40 80 36 81 37 82 38 83 39 84 65 85 66 86 74 87 67 88
REMARK SMILES IDX 73 89 75 90 72 91 68 92 69 93 70 94 71 95 50 96 51 97 59 98
REMARK SMILES IDX 52 99 58 100 60 101 57 102 53 103 54 104 55 105 56 106
REMARK H PARENT 14 7 8 17 8 18 21 40 80 59 48 70
REMARK Flexibility Score: inf
ROOT
ATOM      1  C   UNL A   1      38.841  22.045  26.108  1.00  0.00     0.002 C 
ENDROOT
BRANCH   1   2
ATOM      2  C   UNL A   1      37.661  21.629  25.211  1.00  0.00     0.021 C 
BRANCH   2   3
ATOM      3  C   UNL A   1      36.417  22.510  25.361  1.00  0.00     0.116 C 
BRANCH   3   4
ATOM      4  N   UNL A   1      35.805  22.749  24.080  1.00  0.00    -0.352 N 
ATOM      5  C   UNL A   1      34.710  23.384  23.579  1.00  0.00     0.253 C 
ATOM      6  O   UNL A   1      34.696  23.353  22.341  1.00  0.00    -0.269 OA
ATOM      7  H   UNL A   1      36.330  22.335  23.358  1.00  0.00     0.163 HD
BRANCH   5   8
ATOM      8  C   UNL A   1      33.633  24.104  24.324  1.00  0.00     0.069 A 
ATOM      9  C   UNL A   1      32.700  23.763  25.408  1.00  0.00     0.040 A 
ATOM     10  C   UNL A   1      31.858  24.876  25.573  1.00  0.00     0.025 A 
ATOM     11  C   UNL A   1      33.270  25.401  23.904  1.00  0.00     0.028 A 
ATOM     12  N   UNL A   1      32.281  25.883  24.727  1.00  0.00    -0.343 N 
ATOM     13  C   UNL A   1      30.644  25.068  26.422  1.00  0.00     0.065 C 
ATOM     14  C   UNL A   1      33.827  26.180  22.744  1.00  0.00     0.065 C 
BRANCH   9  15
ATOM     15  C   UNL A   1      32.664  22.438  26.147  1.00  0.00     0.300 C 
BRANCH  15  16
ATOM     16  N   UNL A   1      31.877  21.350  25.588  1.00  0.00    -0.339 N 
ATOM     17  H   UNL A   1      32.062  20.516  26.145  1.00  0.00     0.346 HD
ATOM     18  H   UNL A   1      30.911  21.677  25.616  1.00  0.00     0.346 HD
BRANCH  16  19
ATOM     19  C   UNL A   1      32.125  21.013  24.195  1.00  0.00     0.297 C 
BRANCH  19  20
ATOM     20  C   UNL A   1      32.845  19.675  24.117  1.00  0.00     0.006 A 
ATOM     21  C   UNL A   1      36.293  18.247  24.924  1.00  0.00     0.044 C 
ATOM     22  C   UNL A   1      34.882  18.352  24.429  1.00  0.00    -0.051 A 
ATOM     23  C   UNL A   1      34.286  17.286  23.751  1.00  0.00     0.003 A 
ATOM     24  C   UNL A   1      34.136  19.519  24.646  1.00  0.00     0.013 A 
ATOM     25  C   UNL A   1      32.983  17.403  23.265  1.00  0.00     0.001 A 
ATOM     26  C   UNL A   1      32.273  18.595  23.433  1.00  0.00     0.009 A 
ENDBRANCH  19  20
ENDBRANCH  16  19
ENDBRANCH  15  16
ENDBRANCH   9  15
BRANCH  12  27
ATOM     27  C   UNL A   1      31.669  27.221  24.647  1.00  0.00     0.157 C 
BRANCH  27  28
ATOM     28  C   UNL A   1      32.352  28.283  25.487  1.00  0.00    -0.025 A 
ATOM     29  C   UNL A   1      31.682  29.500  25.715  1.00  0.00     0.006 A 
ATOM     30  C   UNL A   1      33.614  28.091  26.068  1.00  0.00     0.044 A 
ATOM     31  C   UNL A   1      32.228  30.471  26.557  1.00  0.00     0.003 A 
ATOM     32  C   UNL A   1      34.143  29.060  26.914  1.00  0.00     0.123 A 
ATOM     33  C   UNL A   1      33.457  30.242  27.169  1.00  0.00     0.039 A 
ATOM     34  F   UNL A   1      35.324  28.845  27.507  1.00  0.00    -0.207 F 
ENDBRANCH  27  28
ENDBRANCH  12  27
ENDBRANCH   5   8
ENDBRANCH   3   4
ENDBRANCH   2   3
ENDBRANCH   1   2
BRANCH   1  35
ATOM     35  C   UNL A   1      39.962  21.005  26.283  1.00  0.00     0.002 C 
BRANCH  35  36
ATOM     36  C   UNL A   1      41.389  21.554  26.266  1.00  0.00     0.021 C 
BRANCH  36  37
ATOM     37  C   UNL A   1      41.524  22.916  26.939  1.00  0.00     0.116 C 
BRANCH  37  38
ATOM     38  N   UNL A   1      41.422  24.035  26.008  1.00  0.00    -0.352 N 
ATOM     39  C   UNL A   1      41.029  25.341  26.253  1.00  0.00     0.251 C 
ATOM     40  H   UNL A   1      41.668  23.834  25.076  1.00  0.00     0.163 HD
ATOM     41  O   UNL A   1      40.940  26.164  25.364  1.00  0.00    -0.269 OA
BRANCH  39  42
ATOM     42  C   UNL A   1      40.845  25.754  27.665  1.00  0.00     0.039 A 
ATOM     43  C   UNL A   1      39.537  25.733  28.162  1.00  0.00     0.014 A 
ATOM     44  C   UNL A   1      41.868  26.381  28.371  1.00  0.00     0.014 A 
ATOM     45  C   UNL A   1      39.209  26.547  29.240  1.00  0.00     0.010 A 
ATOM     46  C   UNL A   1      41.529  27.249  29.392  1.00  0.00     0.010 A 
ATOM     47  C   UNL A   1      40.188  27.389  29.770  1.00  0.00    -0.014 A 
BRANCH  47  48
ATOM     48  C   UNL A   1      39.855  28.552  30.587  1.00  0.00     0.031 A 
ATOM     49  C   UNL A   1      39.160  29.715  30.005  1.00  0.00     0.074 A 
ATOM     50  C   UNL A   1      40.207  28.568  31.892  1.00  0.00     0.049 A 
ATOM     51  N   UNL A   1      39.199  30.909  30.493  1.00  0.00    -0.248 NA
ATOM     52  C   UNL A   1      38.432  29.638  28.744  1.00  0.00     0.031 C 
ATOM     53  C   UNL A   1      39.800  29.528  32.912  1.00  0.00     0.029 A 
ATOM     54  N   UNL A   1      41.241  27.847  32.485  1.00  0.00    -0.354 N 
ATOM     55  C   UNL A   1      38.303  31.687  29.797  1.00  0.00     0.074 A 
ATOM     56  C   UNL A   1      37.956  30.883  28.652  1.00  0.00     0.031 C 
ATOM     57  C   UNL A   1      40.713  29.527  33.896  1.00  0.00     0.029 A 
ATOM     58  C   UNL A   1      41.802  28.660  33.481  1.00  0.00     0.049 A 
ATOM     59  H   UNL A   1      41.525  26.934  32.249  1.00  0.00     0.167 HD
ATOM     60  C   UNL A   1      37.873  32.856  30.355  1.00  0.00     0.034 A 
ATOM     61  C   UNL A   1      43.117  29.020  33.433  1.00  0.00     0.034 A 
ATOM     62  C   UNL A   1      38.716  33.230  31.501  1.00  0.00     0.049 A 
ATOM     63  C   UNL A   1      43.334  30.513  33.317  1.00  0.00     0.074 A 
ATOM     64  C   UNL A   1      38.533  33.199  32.873  1.00  0.00     0.029 A 
ATOM     65  N   UNL A   1      40.074  33.480  31.297  1.00  0.00    -0.354 N 
ATOM     66  N   UNL A   1      42.402  31.372  33.006  1.00  0.00    -0.248 NA
ATOM     67  C   UNL A   1      44.632  31.148  33.524  1.00  0.00     0.031 C 
ATOM     68  C   UNL A   1      39.808  33.342  33.489  1.00  0.00     0.029 A 
ATOM     69  C   UNL A   1      40.760  33.503  32.497  1.00  0.00     0.049 A 
ATOM     70  H   UNL A   1      40.488  33.622  30.415  1.00  0.00     0.167 HD
ATOM     71  C   UNL A   1      42.944  32.630  32.922  1.00  0.00     0.074 A 
ATOM     72  C   UNL A   1      44.336  32.439  33.297  1.00  0.00     0.031 C 
ATOM     73  C   UNL A   1      42.206  33.715  32.528  1.00  0.00     0.034 A 
BRANCH  60  74
ATOM     74  C   UNL A   1      36.545  33.546  30.044  1.00  0.00     0.023 A 
ATOM     75  C   UNL A   1      35.846  34.192  31.092  1.00  0.00     0.031 A 
ATOM     76  C   UNL A   1      35.852  33.521  28.813  1.00  0.00     0.131 A 
ATOM     77  C   UNL A   1      34.540  34.700  30.916  1.00  0.00     0.055 A 
ATOM     78  C   UNL A   1      34.556  34.025  28.638  1.00  0.00     0.041 A 
ATOM     79  F   UNL A   1      36.374  33.019  27.694  1.00  0.00    -0.206 F 
ATOM     80  C   UNL A   1      33.885  34.608  29.694  1.00  0.00     0.022 A 
BRANCH  77  81
ATOM     81  S   UNL A   1      33.669  35.451  32.322  1.00  0.00     0.124 S 
ATOM     82  O   UNL A   1      32.307  34.964  32.136  1.00  0.00    -0.237 OA
ATOM     83  O   UNL A   1      34.403  34.915  33.463  1.00  0.00    -0.237 OA
ATOM     84  O   UNL A   1      33.843  36.887  32.100  1.00  0.00    -0.744 OA
ENDBRANCH  77  81
ENDBRANCH  60  74
BRANCH  61  85
ATOM     85  C   UNL A   1      44.000  27.963  32.863  1.00  0.00     0.023 A 
ATOM     86  C   UNL A   1      44.220  26.812  33.652  1.00  0.00     0.031 A 
ATOM     87  C   UNL A   1      44.294  27.886  31.497  1.00  0.00     0.131 A 
ATOM     88  C   UNL A   1      44.574  25.597  33.052  1.00  0.00     0.055 A 
ATOM     89  C   UNL A   1      44.703  26.682  30.908  1.00  0.00     0.041 A 
ATOM     90  F   UNL A   1      44.071  28.933  30.689  1.00  0.00    -0.206 F 
ATOM     91  C   UNL A   1      44.802  25.521  31.677  1.00  0.00     0.022 A 
BRANCH  88  92
ATOM     92  S   UNL A   1      44.480  24.068  34.031  1.00  0.00     0.124 S 
ATOM     93  O   UNL A   1      45.536  24.270  35.016  1.00  0.00    -0.237 OA
ATOM     94  O   UNL A   1      43.114  24.091  34.551  1.00  0.00    -0.237 OA
ATOM     95  O   UNL A   1      44.728  23.021  33.042  1.00  0.00    -0.744 OA
ENDBRANCH  88  92
ENDBRANCH  61  85
BRANCH  73  96
ATOM     96  C   UNL A   1      42.766  35.092  32.212  1.00  0.00     0.023 A 
ATOM     97  C   UNL A   1      43.077  36.050  33.189  1.00  0.00     0.031 A 
ATOM     98  C   UNL A   1      43.074  35.465  30.880  1.00  0.00     0.131 A 
ATOM     99  C   UNL A   1      43.562  37.326  32.840  1.00  0.00     0.055 A 
ATOM    100  C   UNL A   1      43.634  36.702  30.541  1.00  0.00     0.041 A 
ATOM    101  F   UNL A   1      42.851  34.640  29.846  1.00  0.00    -0.206 F 
ATOM    102  C   UNL A   1      43.864  37.652  31.522  1.00  0.00     0.022 A 
BRANCH  99 103
ATOM    103  S   UNL A   1      43.719  38.573  34.147  1.00  0.00     0.124 S 
ATOM    104  O   UNL A   1      43.076  39.732  33.534  1.00  0.00    -0.237 OA
ATOM    105  O   UNL A   1      42.994  37.959  35.256  1.00  0.00    -0.237 OA
ATOM    106  O   UNL A   1      45.163  38.695  34.339  1.00  0.00    -0.744 OA
ENDBRANCH  99 103
ENDBRANCH  73  96
ENDBRANCH  47  48
ENDBRANCH  39  42
ENDBRANCH  37  38
ENDBRANCH  36  37
ENDBRANCH  35  36
ENDBRANCH   1  35
TORSDOF 22
ENDMDL
