MODEL 1
REMARK VINA RESULT:     -10.8      0.000      0.000
REMARK SMILES C[C@H](Cc1ccco1)[NH2+]Cc1cc(C(=O)NCCCCCCNC(=O)c2ccc(-c3c4nc(c(-c5cc(S(=O)(=O)[O-])ccc5F)c5ccc([nH]5)c(-c5cc(S(=O)(=O)[O-])ccc5F)c5nc(c(-c6cc(S(=O)(=O)[O-])ccc6F)c6ccc3[nH]6)C=C5)C=C4)cc2)cs1
REMARK SMILES IDX 18 1 17 2 16 3 14 4 15 5 13 7 11 8 12 9 90 10 89 11 10 12
REMARK SMILES IDX 9 13 2 16 1 17 3 18 4 19 5 20 8 21 6 22 7 23 19 24 20 25
REMARK SMILES IDX 21 26 22 27 23 28 24 29 25 31 26 32 27 33 88 34 28 35 87 36
REMARK SMILES IDX 29 37 30 38 31 39 81 40 32 41 86 42 80 43 82 44 33 45 85 46
REMARK SMILES IDX 79 47 78 48 34 50 66 51 46 52 65 53 47 54 50 55 64 56 83 57
REMARK SMILES IDX 48 58 49 59 63 61 84 62 51 63 35 64 36 65 44 66 37 67 43 68
REMARK SMILES IDX 45 69 42 70 38 71 39 72 40 73 41 74 67 75 68 76 76 77 69 78
REMARK SMILES IDX 75 79 77 80 74 81 70 82 71 83 72 84 73 85 52 86 53 87 61 88
REMARK SMILES IDX 54 89 60 90 62 91 59 92 55 93 56 94 57 95 58 96
REMARK H PARENT 16 6 9 14 9 15 23 30 82 49 50 60
REMARK Flexibility Score: inf
ROOT
ATOM      1  C   UNL A   1      34.150  23.830  26.497  1.00  0.00     0.021 C 
ENDROOT
BRANCH   1   2
ATOM      2  C   UNL A   1      34.699  22.585  25.802  1.00  0.00     0.116 C 
BRANCH   2   3
ATOM      3  N   UNL A   1      33.662  21.575  25.711  1.00  0.00    -0.352 N 
ATOM      4  C   UNL A   1      32.501  21.526  24.985  1.00  0.00     0.252 C 
ATOM      5  O   UNL A   1      31.825  20.502  25.049  1.00  0.00    -0.269 OA
ATOM      6  H   UNL A   1      33.820  20.782  26.274  1.00  0.00     0.163 HD
BRANCH   4   7
ATOM      7  C   UNL A   1      32.147  22.629  24.097  1.00  0.00     0.051 A 
ATOM      8  C   UNL A   1      31.098  24.547  23.236  1.00  0.00     0.059 A 
ATOM      9  C   UNL A   1      31.007  23.496  24.126  1.00  0.00     0.035 A 
ATOM     10  S   UNL A   1      32.476  24.384  22.231  1.00  0.00    -0.142 S 
ATOM     11  C   UNL A   1      32.943  22.940  23.009  1.00  0.00     0.079 A 
BRANCH   8  12
ATOM     12  C   UNL A   1      30.162  25.713  23.093  1.00  0.00     0.308 C 
BRANCH  12  13
ATOM     13  N   UNL A   1      30.513  26.825  23.970  1.00  0.00    -0.339 N 
ATOM     14  H   UNL A   1      29.969  26.732  24.827  1.00  0.00     0.346 HD
ATOM     15  H   UNL A   1      31.522  26.759  24.110  1.00  0.00     0.346 HD
BRANCH  13  16
ATOM     16  C   UNL A   1      30.271  28.171  23.425  1.00  0.00     0.187 C 
ATOM     17  C   UNL A   1      30.824  29.336  24.263  1.00  0.00     0.075 C 
BRANCH  16  18
ATOM     18  C   UNL A   1      28.754  28.329  23.143  1.00  0.00     0.140 C 
BRANCH  18  19
ATOM     19  C   UNL A   1      28.378  29.686  22.656  1.00  0.00     0.109 A 
ATOM     20  C   UNL A   1      27.910  30.834  23.262  1.00  0.00     0.046 A 
ATOM     21  O   UNL A   1      28.599  29.919  21.329  1.00  0.00    -0.469 OA
ATOM     22  C   UNL A   1      27.891  31.834  22.259  1.00  0.00     0.042 A 
ATOM     23  C   UNL A   1      28.308  31.224  21.100  1.00  0.00     0.195 A 
ENDBRANCH  18  19
ENDBRANCH  16  18
ENDBRANCH  13  16
ENDBRANCH  12  13
ENDBRANCH   8  12
ENDBRANCH   4   7
ENDBRANCH   2   3
ENDBRANCH   1   2
BRANCH   1  24
ATOM     24  C   UNL A   1      34.342  25.099  25.659  1.00  0.00     0.002 C 
BRANCH  24  25
ATOM     25  C   UNL A   1      33.285  26.183  25.910  1.00  0.00     0.002 C 
BRANCH  25  26
ATOM     26  C   UNL A   1      33.852  27.593  26.099  1.00  0.00     0.021 C 
BRANCH  26  27
ATOM     27  C   UNL A   1      33.290  28.326  27.311  1.00  0.00     0.116 C 
BRANCH  27  28
ATOM     28  N   UNL A   1      33.356  29.766  27.128  1.00  0.00    -0.352 N 
ATOM     29  C   UNL A   1      34.269  30.663  27.615  1.00  0.00     0.251 C 
ATOM     30  H   UNL A   1      32.641  30.153  26.572  1.00  0.00     0.163 HD
ATOM     31  O   UNL A   1      33.999  31.861  27.606  1.00  0.00    -0.269 OA
BRANCH  29  32
ATOM     32  C   UNL A   1      35.564  30.189  28.146  1.00  0.00     0.039 A 
ATOM     33  C   UNL A   1      36.684  30.218  27.314  1.00  0.00     0.014 A 
ATOM     34  C   UNL A   1      35.666  29.670  29.442  1.00  0.00     0.014 A 
ATOM     35  C   UNL A   1      37.908  29.746  27.786  1.00  0.00     0.010 A 
ATOM     36  C   UNL A   1      36.906  29.282  29.941  1.00  0.00     0.010 A 
ATOM     37  C   UNL A   1      38.035  29.288  29.109  1.00  0.00    -0.014 A 
BRANCH  37  38
ATOM     38  C   UNL A   1      39.336  28.777  29.610  1.00  0.00     0.031 A 
ATOM     39  C   UNL A   1      40.006  29.437  30.786  1.00  0.00     0.074 A 
ATOM     40  C   UNL A   1      39.915  27.726  28.999  1.00  0.00     0.049 A 
ATOM     41  N   UNL A   1      41.133  29.130  31.378  1.00  0.00    -0.248 NA
ATOM     42  C   UNL A   1      39.334  30.617  31.355  1.00  0.00     0.031 C 
ATOM     43  C   UNL A   1      39.380  27.036  27.822  1.00  0.00     0.029 A 
ATOM     44  N   UNL A   1      41.073  27.048  29.282  1.00  0.00    -0.354 N 
ATOM     45  C   UNL A   1      41.306  30.078  32.381  1.00  0.00     0.074 A 
ATOM     46  C   UNL A   1      40.210  31.014  32.267  1.00  0.00     0.031 C 
ATOM     47  C   UNL A   1      40.184  26.007  27.514  1.00  0.00     0.029 A 
ATOM     48  C   UNL A   1      41.314  25.990  28.437  1.00  0.00     0.049 A 
ATOM     49  H   UNL A   1      41.674  27.295  30.022  1.00  0.00     0.167 HD
ATOM     50  C   UNL A   1      42.275  30.144  33.328  1.00  0.00     0.034 A 
ATOM     51  C   UNL A   1      42.331  25.107  28.409  1.00  0.00     0.034 A 
ATOM     52  C   UNL A   1      43.359  29.196  33.427  1.00  0.00     0.049 A 
ATOM     53  C   UNL A   1      43.406  25.211  29.461  1.00  0.00     0.074 A 
ATOM     54  C   UNL A   1      44.371  29.138  34.369  1.00  0.00     0.029 A 
ATOM     55  N   UNL A   1      43.579  28.142  32.547  1.00  0.00    -0.354 N 
ATOM     56  N   UNL A   1      43.527  26.080  30.440  1.00  0.00    -0.248 NA
ATOM     57  C   UNL A   1      44.470  24.203  29.416  1.00  0.00     0.031 C 
ATOM     58  C   UNL A   1      45.244  28.104  34.015  1.00  0.00     0.029 A 
ATOM     59  C   UNL A   1      44.727  27.453  32.906  1.00  0.00     0.049 A 
ATOM     60  H   UNL A   1      43.003  27.918  31.781  1.00  0.00     0.167 HD
ATOM     61  C   UNL A   1      44.664  25.698  31.148  1.00  0.00     0.074 A 
ATOM     62  C   UNL A   1      45.174  24.509  30.495  1.00  0.00     0.031 C 
ATOM     63  C   UNL A   1      45.236  26.276  32.236  1.00  0.00     0.034 A 
BRANCH  50  64
ATOM     64  C   UNL A   1      42.216  31.297  34.305  1.00  0.00     0.023 A 
ATOM     65  C   UNL A   1      41.267  31.343  35.342  1.00  0.00     0.031 A 
ATOM     66  C   UNL A   1      43.102  32.383  34.182  1.00  0.00     0.131 A 
ATOM     67  C   UNL A   1      41.170  32.481  36.158  1.00  0.00     0.055 A 
ATOM     68  C   UNL A   1      43.060  33.472  35.055  1.00  0.00     0.041 A 
ATOM     69  F   UNL A   1      44.016  32.412  33.199  1.00  0.00    -0.206 F 
ATOM     70  C   UNL A   1      42.080  33.534  36.040  1.00  0.00     0.022 A 
BRANCH  67  71
ATOM     71  S   UNL A   1      39.741  32.635  37.265  1.00  0.00     0.124 S 
ATOM     72  O   UNL A   1      39.029  31.386  37.001  1.00  0.00    -0.237 OA
ATOM     73  O   UNL A   1      40.367  32.751  38.576  1.00  0.00    -0.237 OA
ATOM     74  O   UNL A   1      39.065  33.840  36.787  1.00  0.00    -0.744 OA
ENDBRANCH  67  71
ENDBRANCH  50  64
BRANCH  51  75
ATOM     75  C   UNL A   1      42.388  24.050  27.358  1.00  0.00     0.023 A 
ATOM     76  C   UNL A   1      41.811  22.786  27.565  1.00  0.00     0.031 A 
ATOM     77  C   UNL A   1      43.061  24.274  26.144  1.00  0.00     0.131 A 
ATOM     78  C   UNL A   1      41.965  21.780  26.598  1.00  0.00     0.055 A 
ATOM     79  C   UNL A   1      43.158  23.290  25.159  1.00  0.00     0.041 A 
ATOM     80  F   UNL A   1      43.627  25.466  25.891  1.00  0.00    -0.206 F 
ATOM     81  C   UNL A   1      42.621  22.028  25.390  1.00  0.00     0.022 A 
BRANCH  78  82
ATOM     82  S   UNL A   1      41.377  20.108  26.983  1.00  0.00     0.124 S 
ATOM     83  O   UNL A   1      42.618  19.343  26.953  1.00  0.00    -0.237 OA
ATOM     84  O   UNL A   1      40.769  20.295  28.296  1.00  0.00    -0.237 OA
ATOM     85  O   UNL A   1      40.440  19.820  25.899  1.00  0.00    -0.744 OA
ENDBRANCH  78  82
ENDBRANCH  51  75
BRANCH  63  86
ATOM     86  C   UNL A   1      46.454  25.590  32.812  1.00  0.00     0.023 A 
ATOM     87  C   UNL A   1      47.733  25.757  32.253  1.00  0.00     0.031 A 
ATOM     88  C   UNL A   1      46.325  24.721  33.910  1.00  0.00     0.131 A 
ATOM     89  C   UNL A   1      48.811  25.000  32.734  1.00  0.00     0.055 A 
ATOM     90  C   UNL A   1      47.418  24.032  34.437  1.00  0.00     0.041 A 
ATOM     91  F   UNL A   1      45.128  24.517  34.485  1.00  0.00    -0.206 F 
ATOM     92  C   UNL A   1      48.666  24.153  33.835  1.00  0.00     0.022 A 
BRANCH  89  93
ATOM     93  S   UNL A   1      50.371  25.025  31.807  1.00  0.00     0.124 S 
ATOM     94  O   UNL A   1      51.044  26.187  32.380  1.00  0.00    -0.237 OA
ATOM     95  O   UNL A   1      50.949  23.727  32.137  1.00  0.00    -0.237 OA
ATOM     96  O   UNL A   1      49.942  25.179  30.418  1.00  0.00    -0.744 OA
ENDBRANCH  89  93
ENDBRANCH  63  86
ENDBRANCH  37  38
ENDBRANCH  29  32
ENDBRANCH  27  28
ENDBRANCH  26  27
ENDBRANCH  25  26
ENDBRANCH  24  25
ENDBRANCH   1  24
TORSDOF 21
ENDMDL
MODEL 2
REMARK VINA RESULT:     -10.7      1.910      2.279
REMARK SMILES C[C@H](Cc1ccco1)[NH2+]Cc1cc(C(=O)NCCCCCCNC(=O)c2ccc(-c3c4nc(c(-c5cc(S(=O)(=O)[O-])ccc5F)c5ccc([nH]5)c(-c5cc(S(=O)(=O)[O-])ccc5F)c5nc(c(-c6cc(S(=O)(=O)[O-])ccc6F)c6ccc3[nH]6)C=C5)C=C4)cc2)cs1
REMARK SMILES IDX 18 1 17 2 16 3 14 4 15 5 13 7 11 8 12 9 90 10 89 11 10 12
REMARK SMILES IDX 9 13 2 16 1 17 3 18 4 19 5 20 8 21 6 22 7 23 19 24 20 25
REMARK SMILES IDX 21 26 22 27 23 28 24 29 25 31 26 32 27 33 88 34 28 35 87 36
REMARK SMILES IDX 29 37 30 38 31 39 81 40 32 41 86 42 80 43 82 44 33 45 85 46
REMARK SMILES IDX 79 47 78 48 34 50 66 51 46 52 65 53 47 54 50 55 64 56 83 57
REMARK SMILES IDX 48 58 49 59 63 61 84 62 51 63 35 64 36 65 44 66 37 67 43 68
REMARK SMILES IDX 45 69 42 70 38 71 39 72 40 73 41 74 67 75 68 76 76 77 69 78
REMARK SMILES IDX 75 79 77 80 74 81 70 82 71 83 72 84 73 85 52 86 53 87 61 88
REMARK SMILES IDX 54 89 60 90 62 91 59 92 55 93 56 94 57 95 58 96
REMARK H PARENT 16 6 9 14 9 15 23 30 82 49 50 60
REMARK Flexibility Score: inf
ROOT
ATOM      1  C   UNL A   1      34.908  24.148  25.711  1.00  0.00     0.021 C 
ENDROOT
BRANCH   1   2
ATOM      2  C   UNL A   1      35.361  23.188  24.612  1.00  0.00     0.116 C 
BRANCH   2   3
ATOM      3  N   UNL A   1      34.384  22.127  24.454  1.00  0.00    -0.352 N 
ATOM      4  C   UNL A   1      33.172  22.095  23.816  1.00  0.00     0.252 C 
ATOM      5  O   UNL A   1      32.568  21.026  23.781  1.00  0.00    -0.269 OA
ATOM      6  H   UNL A   1      34.638  21.278  24.883  1.00  0.00     0.163 HD
BRANCH   4   7
ATOM      7  C   UNL A   1      32.677  23.281  23.125  1.00  0.00     0.051 A 
ATOM      8  C   UNL A   1      31.571  25.310  22.694  1.00  0.00     0.059 A 
ATOM      9  C   UNL A   1      31.640  24.195  23.505  1.00  0.00     0.035 A 
ATOM     10  S   UNL A   1      32.637  25.167  21.360  1.00  0.00    -0.142 S 
ATOM     11  C   UNL A   1      33.190  23.644  21.893  1.00  0.00     0.079 A 
BRANCH   8  12
ATOM     12  C   UNL A   1      30.708  26.525  22.875  1.00  0.00     0.308 C 
BRANCH  12  13
ATOM     13  N   UNL A   1      31.009  27.576  21.910  1.00  0.00    -0.339 N 
ATOM     14  H   UNL A   1      31.826  27.284  21.374  1.00  0.00     0.346 HD
ATOM     15  H   UNL A   1      30.163  27.688  21.350  1.00  0.00     0.346 HD
BRANCH  13  16
ATOM     16  C   UNL A   1      31.293  28.905  22.478  1.00  0.00     0.187 C 
ATOM     17  C   UNL A   1      32.658  29.054  23.170  1.00  0.00     0.075 C 
BRANCH  16  18
ATOM     18  C   UNL A   1      30.123  29.306  23.413  1.00  0.00     0.140 C 
BRANCH  18  19
ATOM     19  C   UNL A   1      29.203  30.314  22.815  1.00  0.00     0.109 A 
ATOM     20  C   UNL A   1      28.503  31.396  23.310  1.00  0.00     0.046 A 
ATOM     21  O   UNL A   1      29.043  30.238  21.462  1.00  0.00    -0.469 OA
ATOM     22  C   UNL A   1      27.924  32.042  22.190  1.00  0.00     0.042 A 
ATOM     23  C   UNL A   1      28.274  31.292  21.092  1.00  0.00     0.195 A 
ENDBRANCH  18  19
ENDBRANCH  16  18
ENDBRANCH  13  16
ENDBRANCH  12  13
ENDBRANCH   8  12
ENDBRANCH   4   7
ENDBRANCH   2   3
ENDBRANCH   1   2
BRANCH   1  24
ATOM     24  C   UNL A   1      34.473  25.509  25.155  1.00  0.00     0.002 C 
BRANCH  24  25
ATOM     25  C   UNL A   1      33.556  26.306  26.092  1.00  0.00     0.002 C 
BRANCH  25  26
ATOM     26  C   UNL A   1      33.907  27.792  26.213  1.00  0.00     0.021 C 
BRANCH  26  27
ATOM     27  C   UNL A   1      33.238  28.489  27.392  1.00  0.00     0.116 C 
BRANCH  27  28
ATOM     28  N   UNL A   1      33.341  29.933  27.272  1.00  0.00    -0.352 N 
ATOM     29  C   UNL A   1      34.299  30.780  27.765  1.00  0.00     0.251 C 
ATOM     30  H   UNL A   1      32.620  30.366  26.760  1.00  0.00     0.163 HD
ATOM     31  O   UNL A   1      34.066  31.984  27.820  1.00  0.00    -0.269 OA
BRANCH  29  32
ATOM     32  C   UNL A   1      35.596  30.244  28.226  1.00  0.00     0.039 A 
ATOM     33  C   UNL A   1      35.687  29.722  29.517  1.00  0.00     0.014 A 
ATOM     34  C   UNL A   1      36.732  30.300  27.411  1.00  0.00     0.014 A 
ATOM     35  C   UNL A   1      36.910  29.241  29.983  1.00  0.00     0.010 A 
ATOM     36  C   UNL A   1      37.929  29.738  27.844  1.00  0.00     0.010 A 
ATOM     37  C   UNL A   1      38.039  29.229  29.146  1.00  0.00    -0.014 A 
BRANCH  37  38
ATOM     38  C   UNL A   1      39.344  28.724  29.645  1.00  0.00     0.031 A 
ATOM     39  C   UNL A   1      39.996  29.365  30.841  1.00  0.00     0.074 A 
ATOM     40  C   UNL A   1      39.941  27.696  29.013  1.00  0.00     0.049 A 
ATOM     41  N   UNL A   1      41.122  29.060  31.433  1.00  0.00    -0.248 NA
ATOM     42  C   UNL A   1      39.304  30.521  31.433  1.00  0.00     0.031 C 
ATOM     43  C   UNL A   1      39.425  27.027  27.816  1.00  0.00     0.029 A 
ATOM     44  N   UNL A   1      41.106  27.028  29.288  1.00  0.00    -0.354 N 
ATOM     45  C   UNL A   1      41.276  29.986  32.460  1.00  0.00     0.074 A 
ATOM     46  C   UNL A   1      40.167  30.909  32.360  1.00  0.00     0.031 C 
ATOM     47  C   UNL A   1      40.245  26.017  27.490  1.00  0.00     0.029 A 
ATOM     48  C   UNL A   1      41.369  25.993  28.420  1.00  0.00     0.049 A 
ATOM     49  H   UNL A   1      41.700  27.265  30.038  1.00  0.00     0.167 HD
ATOM     50  C   UNL A   1      42.237  30.043  33.415  1.00  0.00     0.034 A 
ATOM     51  C   UNL A   1      42.398  25.125  28.379  1.00  0.00     0.034 A 
ATOM     52  C   UNL A   1      43.334  29.108  33.500  1.00  0.00     0.049 A 
ATOM     53  C   UNL A   1      43.464  25.220  29.441  1.00  0.00     0.074 A 
ATOM     54  C   UNL A   1      44.339  29.042  34.447  1.00  0.00     0.029 A 
ATOM     55  N   UNL A   1      43.574  28.079  32.596  1.00  0.00    -0.354 N 
ATOM     56  N   UNL A   1      43.566  26.067  30.440  1.00  0.00    -0.248 NA
ATOM     57  C   UNL A   1      44.543  24.228  29.379  1.00  0.00     0.031 C 
ATOM     58  C   UNL A   1      45.229  28.029  34.075  1.00  0.00     0.029 A 
ATOM     59  C   UNL A   1      44.730  27.397  32.947  1.00  0.00     0.049 A 
ATOM     60  H   UNL A   1      43.007  27.865  31.821  1.00  0.00     0.167 HD
ATOM     61  C   UNL A   1      44.704  25.684  31.147  1.00  0.00     0.074 A 
ATOM     62  C   UNL A   1      45.234  24.518  30.471  1.00  0.00     0.031 C 
ATOM     63  C   UNL A   1      45.260  26.244  32.254  1.00  0.00     0.034 A 
BRANCH  50  64
ATOM     64  C   UNL A   1      42.155  31.172  34.419  1.00  0.00     0.023 A 
ATOM     65  C   UNL A   1      42.793  32.406  34.201  1.00  0.00     0.031 A 
ATOM     66  C   UNL A   1      41.454  31.002  35.627  1.00  0.00     0.131 A 
ATOM     67  C   UNL A   1      42.789  33.387  35.206  1.00  0.00     0.055 A 
ATOM     68  C   UNL A   1      41.377  32.017  36.583  1.00  0.00     0.041 A 
ATOM     69  F   UNL A   1      40.844  29.840  35.906  1.00  0.00    -0.206 F 
ATOM     70  C   UNL A   1      42.060  33.212  36.384  1.00  0.00     0.022 A 
BRANCH  67  71
ATOM     71  S   UNL A   1      43.880  34.825  35.017  1.00  0.00     0.124 S 
ATOM     72  O   UNL A   1      43.387  35.406  33.770  1.00  0.00    -0.237 OA
ATOM     73  O   UNL A   1      43.610  35.588  36.229  1.00  0.00    -0.237 OA
ATOM     74  O   UNL A   1      45.215  34.234  34.935  1.00  0.00    -0.744 OA
ENDBRANCH  67  71
ENDBRANCH  50  64
BRANCH  51  75
ATOM     75  C   UNL A   1      42.477  24.095  27.303  1.00  0.00     0.023 A 
ATOM     76  C   UNL A   1      41.720  22.914  27.370  1.00  0.00     0.031 A 
ATOM     77  C   UNL A   1      43.348  24.256  26.211  1.00  0.00     0.131 A 
ATOM     78  C   UNL A   1      41.887  21.919  26.394  1.00  0.00     0.055 A 
ATOM     79  C   UNL A   1      43.466  23.290  25.211  1.00  0.00     0.041 A 
ATOM     80  F   UNL A   1      44.093  25.368  26.095  1.00  0.00    -0.206 F 
ATOM     81  C   UNL A   1      42.744  22.106  25.307  1.00  0.00     0.022 A 
BRANCH  78  82
ATOM     82  S   UNL A   1      41.040  20.331  26.618  1.00  0.00     0.124 S 
ATOM     83  O   UNL A   1      39.826  20.530  25.833  1.00  0.00    -0.237 OA
ATOM     84  O   UNL A   1      42.011  19.390  26.071  1.00  0.00    -0.237 OA
ATOM     85  O   UNL A   1      40.842  20.252  28.064  1.00  0.00    -0.744 OA
ENDBRANCH  78  82
ENDBRANCH  51  75
BRANCH  63  86
ATOM     86  C   UNL A   1      46.483  25.561  32.822  1.00  0.00     0.023 A 
ATOM     87  C   UNL A   1      46.386  24.565  33.809  1.00  0.00     0.031 A 
ATOM     88  C   UNL A   1      47.769  25.947  32.402  1.00  0.00     0.131 A 
ATOM     89  C   UNL A   1      47.548  24.054  34.404  1.00  0.00     0.055 A 
ATOM     90  C   UNL A   1      48.922  25.375  32.939  1.00  0.00     0.041 A 
ATOM     91  F   UNL A   1      47.927  26.897  31.465  1.00  0.00    -0.206 F 
ATOM     92  C   UNL A   1      48.817  24.438  33.962  1.00  0.00     0.022 A 
BRANCH  89  93
ATOM     93  S   UNL A   1      47.380  22.991  35.865  1.00  0.00     0.124 S 
ATOM     94  O   UNL A   1      46.157  22.253  35.562  1.00  0.00    -0.237 OA
ATOM     95  O   UNL A   1      48.616  22.217  35.830  1.00  0.00    -0.237 OA
ATOM     96  O   UNL A   1      47.273  23.942  36.970  1.00  0.00    -0.744 OA
ENDBRANCH  89  93
ENDBRANCH  63  86
ENDBRANCH  37  38
ENDBRANCH  29  32
ENDBRANCH  27  28
ENDBRANCH  26  27
ENDBRANCH  25  26
ENDBRANCH  24  25
ENDBRANCH   1  24
TORSDOF 21
ENDMDL
MODEL 3
REMARK VINA RESULT:     -10.6      4.515      9.412
REMARK SMILES C[C@H](Cc1ccco1)[NH2+]Cc1cc(C(=O)NCCCCCCNC(=O)c2ccc(-c3c4nc(c(-c5cc(S(=O)(=O)[O-])ccc5F)c5ccc([nH]5)c(-c5cc(S(=O)(=O)[O-])ccc5F)c5nc(c(-c6cc(S(=O)(=O)[O-])ccc6F)c6ccc3[nH]6)C=C5)C=C4)cc2)cs1
REMARK SMILES IDX 18 1 17 2 16 3 14 4 15 5 13 7 11 8 12 9 90 10 89 11 10 12
REMARK SMILES IDX 9 13 2 16 1 17 3 18 4 19 5 20 8 21 6 22 7 23 19 24 20 25
REMARK SMILES IDX 21 26 22 27 23 28 24 29 25 31 26 32 27 33 88 34 28 35 87 36
REMARK SMILES IDX 29 37 30 38 31 39 81 40 32 41 86 42 80 43 82 44 33 45 85 46
REMARK SMILES IDX 79 47 78 48 34 50 66 51 46 52 65 53 47 54 50 55 64 56 83 57
REMARK SMILES IDX 48 58 49 59 63 61 84 62 51 63 35 64 36 65 44 66 37 67 43 68
REMARK SMILES IDX 45 69 42 70 38 71 39 72 40 73 41 74 67 75 68 76 76 77 69 78
REMARK SMILES IDX 75 79 77 80 74 81 70 82 71 83 72 84 73 85 52 86 53 87 61 88
REMARK SMILES IDX 54 89 60 90 62 91 59 92 55 93 56 94 57 95 58 96
REMARK H PARENT 16 6 9 14 9 15 23 30 82 49 50 60
REMARK Flexibility Score: inf
ROOT
ATOM      1  C   UNL A   1      32.562  21.634  23.244  1.00  0.00     0.021 C 
ENDROOT
BRANCH   1   2
ATOM      2  C   UNL A   1      32.335  23.136  23.082  1.00  0.00     0.116 C 
BRANCH   2   3
ATOM      3  N   UNL A   1      32.713  23.548  21.743  1.00  0.00    -0.352 N 
ATOM      4  C   UNL A   1      32.802  24.786  21.164  1.00  0.00     0.252 C 
ATOM      5  O   UNL A   1      33.218  24.854  20.010  1.00  0.00    -0.269 OA
ATOM      6  H   UNL A   1      32.948  22.803  21.143  1.00  0.00     0.163 HD
BRANCH   4   7
ATOM      7  C   UNL A   1      32.496  25.982  21.943  1.00  0.00     0.051 A 
ATOM      8  C   UNL A   1      32.759  27.966  23.174  1.00  0.00     0.059 A 
ATOM      9  C   UNL A   1      33.366  26.811  22.724  1.00  0.00     0.035 A 
ATOM     10  S   UNL A   1      31.084  27.962  22.813  1.00  0.00    -0.142 S 
ATOM     11  C   UNL A   1      31.196  26.444  22.043  1.00  0.00     0.079 A 
BRANCH   8  12
ATOM     12  C   UNL A   1      33.397  29.118  23.896  1.00  0.00     0.308 C 
BRANCH  12  13
ATOM     13  N   UNL A   1      32.530  29.688  24.921  1.00  0.00    -0.339 N 
ATOM     14  H   UNL A   1      32.742  30.682  24.994  1.00  0.00     0.346 HD
ATOM     15  H   UNL A   1      31.576  29.487  24.619  1.00  0.00     0.346 HD
BRANCH  13  16
ATOM     16  C   UNL A   1      32.656  29.099  26.265  1.00  0.00     0.187 C 
ATOM     17  C   UNL A   1      31.454  28.267  26.741  1.00  0.00     0.075 C 
BRANCH  16  18
ATOM     18  C   UNL A   1      33.014  30.225  27.270  1.00  0.00     0.140 C 
BRANCH  18  19
ATOM     19  C   UNL A   1      34.473  30.327  27.552  1.00  0.00     0.109 A 
ATOM     20  C   UNL A   1      35.522  29.429  27.552  1.00  0.00     0.046 A 
ATOM     21  O   UNL A   1      34.941  31.585  27.800  1.00  0.00    -0.469 OA
ATOM     22  C   UNL A   1      36.698  30.190  27.762  1.00  0.00     0.042 A 
ATOM     23  C   UNL A   1      36.288  31.493  27.918  1.00  0.00     0.195 A 
ENDBRANCH  18  19
ENDBRANCH  16  18
ENDBRANCH  13  16
ENDBRANCH  12  13
ENDBRANCH   8  12
ENDBRANCH   4   7
ENDBRANCH   2   3
ENDBRANCH   1   2
BRANCH   1  24
ATOM     24  C   UNL A   1      33.700  21.318  24.223  1.00  0.00     0.002 C 
BRANCH  24  25
ATOM     25  C   UNL A   1      34.151  22.515  25.069  1.00  0.00     0.002 C 
BRANCH  25  26
ATOM     26  C   UNL A   1      35.586  22.979  24.800  1.00  0.00     0.021 C 
BRANCH  26  27
ATOM     27  C   UNL A   1      36.468  23.008  26.043  1.00  0.00     0.116 C 
BRANCH  27  28
ATOM     28  N   UNL A   1      37.431  21.920  26.026  1.00  0.00    -0.352 N 
ATOM     29  C   UNL A   1      38.793  21.963  26.162  1.00  0.00     0.251 C 
ATOM     30  H   UNL A   1      37.049  21.022  25.899  1.00  0.00     0.163 HD
ATOM     31  O   UNL A   1      39.462  20.991  25.824  1.00  0.00    -0.269 OA
BRANCH  29  32
ATOM     32  C   UNL A   1      39.446  23.171  26.708  1.00  0.00     0.039 A 
ATOM     33  C   UNL A   1      39.139  24.412  26.148  1.00  0.00     0.014 A 
ATOM     34  C   UNL A   1      40.394  23.079  27.733  1.00  0.00     0.014 A 
ATOM     35  C   UNL A   1      39.768  25.561  26.628  1.00  0.00     0.010 A 
ATOM     36  C   UNL A   1      40.955  24.235  28.270  1.00  0.00     0.010 A 
ATOM     37  C   UNL A   1      40.670  25.485  27.703  1.00  0.00    -0.014 A 
BRANCH  37  38
ATOM     38  C   UNL A   1      41.347  26.707  28.209  1.00  0.00     0.031 A 
ATOM     39  C   UNL A   1      42.782  26.981  27.845  1.00  0.00     0.074 A 
ATOM     40  C   UNL A   1      40.670  27.560  29.001  1.00  0.00     0.049 A 
ATOM     41  N   UNL A   1      43.541  27.996  28.175  1.00  0.00    -0.248 NA
ATOM     42  C   UNL A   1      43.464  25.967  27.027  1.00  0.00     0.031 C 
ATOM     43  C   UNL A   1      39.290  27.373  29.456  1.00  0.00     0.029 A 
ATOM     44  N   UNL A   1      41.042  28.756  29.558  1.00  0.00    -0.354 N 
ATOM     45  C   UNL A   1      44.786  27.739  27.611  1.00  0.00     0.074 A 
ATOM     46  C   UNL A   1      44.701  26.439  26.985  1.00  0.00     0.031 C 
ATOM     47  C   UNL A   1      38.919  28.438  30.183  1.00  0.00     0.029 A 
ATOM     48  C   UNL A   1      40.045  29.360  30.288  1.00  0.00     0.049 A 
ATOM     49  H   UNL A   1      41.940  29.146  29.446  1.00  0.00     0.167 HD
ATOM     50  C   UNL A   1      45.888  28.529  27.592  1.00  0.00     0.034 A 
ATOM     51  C   UNL A   1      40.039  30.525  30.965  1.00  0.00     0.034 A 
ATOM     52  C   UNL A   1      45.950  29.828  28.219  1.00  0.00     0.049 A 
ATOM     53  C   UNL A   1      41.283  31.377  30.944  1.00  0.00     0.074 A 
ATOM     54  C   UNL A   1      46.996  30.733  28.227  1.00  0.00     0.029 A 
ATOM     55  N   UNL A   1      44.924  30.404  28.960  1.00  0.00    -0.354 N 
ATOM     56  N   UNL A   1      42.436  31.148  30.358  1.00  0.00    -0.248 NA
ATOM     57  C   UNL A   1      41.215  32.656  31.661  1.00  0.00     0.031 C 
ATOM     58  C   UNL A   1      46.634  31.816  29.035  1.00  0.00     0.029 A 
ATOM     59  C   UNL A   1      45.326  31.635  29.455  1.00  0.00     0.049 A 
ATOM     60  H   UNL A   1      44.040  29.997  29.110  1.00  0.00     0.167 HD
ATOM     61  C   UNL A   1      43.219  32.272  30.607  1.00  0.00     0.074 A 
ATOM     62  C   UNL A   1      42.395  33.184  31.374  1.00  0.00     0.031 C 
ATOM     63  C   UNL A   1      44.500  32.530  30.236  1.00  0.00     0.034 A 
BRANCH  50  64
ATOM     64  C   UNL A   1      47.118  27.991  26.895  1.00  0.00     0.023 A 
ATOM     65  C   UNL A   1      47.302  28.122  25.507  1.00  0.00     0.031 A 
ATOM     66  C   UNL A   1      48.110  27.311  27.624  1.00  0.00     0.131 A 
ATOM     67  C   UNL A   1      48.400  27.510  24.882  1.00  0.00     0.055 A 
ATOM     68  C   UNL A   1      49.248  26.784  27.009  1.00  0.00     0.041 A 
ATOM     69  F   UNL A   1      47.984  27.131  28.949  1.00  0.00    -0.206 F 
ATOM     70  C   UNL A   1      49.391  26.868  25.628  1.00  0.00     0.022 A 
BRANCH  67  71
ATOM     71  S   UNL A   1      48.432  27.430  23.070  1.00  0.00     0.124 S 
ATOM     72  O   UNL A   1      49.668  28.148  22.765  1.00  0.00    -0.237 OA
ATOM     73  O   UNL A   1      48.445  25.995  22.816  1.00  0.00    -0.237 OA
ATOM     74  O   UNL A   1      47.206  28.122  22.675  1.00  0.00    -0.744 OA
ENDBRANCH  67  71
ENDBRANCH  50  64
BRANCH  51  75
ATOM     75  C   UNL A   1      38.826  30.957  31.718  1.00  0.00     0.023 A 
ATOM     76  C   UNL A   1      37.899  31.849  31.154  1.00  0.00     0.031 A 
ATOM     77  C   UNL A   1      38.598  30.518  33.034  1.00  0.00     0.131 A 
ATOM     78  C   UNL A   1      36.819  32.314  31.921  1.00  0.00     0.055 A 
ATOM     79  C   UNL A   1      37.489  30.935  33.772  1.00  0.00     0.041 A 
ATOM     80  F   UNL A   1      39.450  29.661  33.621  1.00  0.00    -0.206 F 
ATOM     81  C   UNL A   1      36.600  31.851  33.220  1.00  0.00     0.022 A 
BRANCH  78  82
ATOM     82  S   UNL A   1      35.756  33.610  31.229  1.00  0.00     0.124 S 
ATOM     83  O   UNL A   1      35.703  34.568  32.327  1.00  0.00    -0.237 OA
ATOM     84  O   UNL A   1      36.511  34.025  30.051  1.00  0.00    -0.237 OA
ATOM     85  O   UNL A   1      34.504  32.909  30.949  1.00  0.00    -0.744 OA
ENDBRANCH  78  82
ENDBRANCH  51  75
BRANCH  63  86
ATOM     86  C   UNL A   1      45.065  33.878  30.622  1.00  0.00     0.023 A 
ATOM     87  C   UNL A   1      44.968  34.994  29.773  1.00  0.00     0.031 A 
ATOM     88  C   UNL A   1      45.751  34.036  31.839  1.00  0.00     0.131 A 
ATOM     89  C   UNL A   1      45.620  36.189  30.109  1.00  0.00     0.055 A 
ATOM     90  C   UNL A   1      46.329  35.252  32.207  1.00  0.00     0.041 A 
ATOM     91  F   UNL A   1      45.882  33.006  32.690  1.00  0.00    -0.206 F 
ATOM     92  C   UNL A   1      46.284  36.331  31.330  1.00  0.00     0.022 A 
BRANCH  89  93
ATOM     93  S   UNL A   1      45.716  37.505  28.865  1.00  0.00     0.124 S 
ATOM     94  O   UNL A   1      44.584  38.351  29.232  1.00  0.00    -0.237 OA
ATOM     95  O   UNL A   1      47.039  38.070  29.111  1.00  0.00    -0.237 OA
ATOM     96  O   UNL A   1      45.571  36.791  27.598  1.00  0.00    -0.744 OA
ENDBRANCH  89  93
ENDBRANCH  63  86
ENDBRANCH  37  38
ENDBRANCH  29  32
ENDBRANCH  27  28
ENDBRANCH  26  27
ENDBRANCH  25  26
ENDBRANCH  24  25
ENDBRANCH   1  24
TORSDOF 21
ENDMDL
