MODEL 1
REMARK VINA RESULT:     -11.3      0.000      0.000
REMARK SMILES CC(C)C[C@H](CNC(=O)c1ccc(O)cc1O)C(=O)NCCCCCCNC(=O)c1ccc(-c2c3nc(c(-c4cc(S(=O)(=O)[O-])ccc4F)c4ccc([nH]4)c(-c4cc(S(=O)(=O)[O-])ccc4F)c4nc(c(-c5cc(S(=O)(=O)[O-])ccc5F)c5ccc2[nH]5)C=C4)C=C3)cc1
REMARK SMILES IDX 23 1 22 2 21 3 20 4 18 5 19 6 5 8 4 9 2 10 1 11 3 12 6 13
REMARK SMILES IDX 7 14 8 15 9 17 10 18 11 19 16 20 12 21 15 22 13 23 17 24
REMARK SMILES IDX 14 26 24 28 25 29 26 30 27 31 28 32 29 34 30 35 31 36 92 37
REMARK SMILES IDX 32 38 91 39 33 40 34 41 35 42 85 43 36 44 90 45 84 46 86 47
REMARK SMILES IDX 37 48 89 49 83 50 82 51 38 53 70 54 50 55 69 56 51 57 54 58
REMARK SMILES IDX 68 59 87 60 52 61 53 62 67 64 88 65 55 66 39 67 40 68 48 69
REMARK SMILES IDX 41 70 47 71 49 72 46 73 42 74 43 75 44 76 45 77 71 78 72 79
REMARK SMILES IDX 80 80 73 81 79 82 81 83 78 84 74 85 75 86 76 87 77 88 56 89
REMARK SMILES IDX 57 90 65 91 58 92 64 93 66 94 63 95 59 96 60 97 61 98 62 99
REMARK H PARENT 20 7 7 16 17 25 14 27 27 33 86 52 54 63
REMARK Flexibility Score: inf
ROOT
ATOM      1  C   UNL A   1      33.137  30.077  26.566  1.00  0.00     0.002 C 
ENDROOT
BRANCH   1   2
ATOM      2  C   UNL A   1      33.221  28.565  26.789  1.00  0.00     0.021 C 
BRANCH   2   3
ATOM      3  C   UNL A   1      32.719  27.731  25.612  1.00  0.00     0.116 C 
BRANCH   3   4
ATOM      4  N   UNL A   1      33.394  28.106  24.386  1.00  0.00    -0.356 N 
ATOM      5  C   UNL A   1      32.924  28.342  23.138  1.00  0.00     0.224 C 
ATOM      6  O   UNL A   1      33.764  28.637  22.280  1.00  0.00    -0.275 OA
ATOM      7  H   UNL A   1      34.368  28.208  24.476  1.00  0.00     0.163 HD
BRANCH   5   8
ATOM      8  C   UNL A   1      31.458  28.210  22.733  1.00  0.00     0.098 C 
BRANCH   8   9
ATOM      9  C   UNL A   1      30.395  29.194  23.265  1.00  0.00     0.018 C 
BRANCH   9  10
ATOM     10  C   UNL A   1      29.175  29.600  22.416  1.00  0.00    -0.017 C 
ATOM     11  C   UNL A   1      27.819  29.172  22.964  1.00  0.00     0.007 C 
ATOM     12  C   UNL A   1      29.188  31.125  22.228  1.00  0.00     0.007 C 
ENDBRANCH   9  10
ENDBRANCH   8   9
BRANCH   8  13
ATOM     13  C   UNL A   1      30.991  26.731  22.773  1.00  0.00     0.129 C 
BRANCH  13  14
ATOM     14  N   UNL A   1      31.888  25.807  22.092  1.00  0.00    -0.351 N 
ATOM     15  C   UNL A   1      32.778  24.914  22.630  1.00  0.00     0.255 C 
ATOM     16  H   UNL A   1      31.849  25.827  21.109  1.00  0.00     0.163 HD
ATOM     17  O   UNL A   1      33.831  24.664  22.046  1.00  0.00    -0.269 OA
BRANCH  15  18
ATOM     18  C   UNL A   1      32.493  24.230  23.903  1.00  0.00     0.081 A 
ATOM     19  C   UNL A   1      33.369  24.388  24.985  1.00  0.00     0.021 A 
ATOM     20  C   UNL A   1      31.283  23.550  24.083  1.00  0.00     0.132 A 
ATOM     21  C   UNL A   1      33.044  23.847  26.230  1.00  0.00     0.047 A 
ATOM     22  C   UNL A   1      30.971  22.983  25.315  1.00  0.00     0.093 A 
ATOM     23  C   UNL A   1      31.848  23.148  26.383  1.00  0.00     0.119 A 
BRANCH  20  24
ATOM     24  O   UNL A   1      30.352  23.425  23.087  1.00  0.00    -0.507 OA
ATOM     25  H   UNL A   1      30.110  24.171  22.575  1.00  0.00     0.293 HD
ENDBRANCH  20  24
BRANCH  23  26
ATOM     26  O   UNL A   1      31.489  22.626  27.589  1.00  0.00    -0.508 OA
ATOM     27  H   UNL A   1      30.946  23.120  28.172  1.00  0.00     0.293 HD
ENDBRANCH  23  26
ENDBRANCH  15  18
ENDBRANCH  13  14
ENDBRANCH   8  13
ENDBRANCH   5   8
ENDBRANCH   3   4
ENDBRANCH   2   3
ENDBRANCH   1   2
BRANCH   1  28
ATOM     28  C   UNL A   1      31.719  30.650  26.473  1.00  0.00     0.002 C 
BRANCH  28  29
ATOM     29  C   UNL A   1      31.600  32.160  26.705  1.00  0.00     0.021 C 
BRANCH  29  30
ATOM     30  C   UNL A   1      32.813  32.810  27.365  1.00  0.00     0.116 C 
BRANCH  30  31
ATOM     31  N   UNL A   1      32.548  34.181  27.767  1.00  0.00    -0.352 N 
ATOM     32  C   UNL A   1      33.108  34.908  28.782  1.00  0.00     0.251 C 
ATOM     33  H   UNL A   1      31.869  34.653  27.233  1.00  0.00     0.163 HD
ATOM     34  O   UNL A   1      32.619  35.996  29.095  1.00  0.00    -0.269 OA
BRANCH  32  35
ATOM     35  C   UNL A   1      34.280  34.382  29.512  1.00  0.00     0.039 A 
ATOM     36  C   UNL A   1      34.080  33.713  30.722  1.00  0.00     0.014 A 
ATOM     37  C   UNL A   1      35.574  34.557  29.011  1.00  0.00     0.014 A 
ATOM     38  C   UNL A   1      35.173  33.171  31.404  1.00  0.00     0.010 A 
ATOM     39  C   UNL A   1      36.655  33.967  29.661  1.00  0.00     0.010 A 
ATOM     40  C   UNL A   1      36.465  33.270  30.866  1.00  0.00    -0.014 A 
BRANCH  40  41
ATOM     41  C   UNL A   1      37.636  32.666  31.552  1.00  0.00     0.031 A 
ATOM     42  C   UNL A   1      38.363  31.512  30.915  1.00  0.00     0.074 A 
ATOM     43  C   UNL A   1      37.997  33.105  32.775  1.00  0.00     0.049 A 
ATOM     44  N   UNL A   1      39.338  30.782  31.392  1.00  0.00    -0.248 NA
ATOM     45  C   UNL A   1      37.915  31.111  29.572  1.00  0.00     0.031 C 
ATOM     46  C   UNL A   1      37.347  34.196  33.505  1.00  0.00     0.029 A 
ATOM     47  N   UNL A   1      38.984  32.679  33.627  1.00  0.00    -0.354 N 
ATOM     48  C   UNL A   1      39.599  29.817  30.425  1.00  0.00     0.074 A 
ATOM     49  C   UNL A   1      38.657  30.036  29.349  1.00  0.00     0.031 C 
ATOM     50  C   UNL A   1      37.960  34.359  34.689  1.00  0.00     0.029 A 
ATOM     51  C   UNL A   1      39.014  33.359  34.824  1.00  0.00     0.049 A 
ATOM     52  H   UNL A   1      39.613  31.955  33.404  1.00  0.00     0.167 HD
ATOM     53  C   UNL A   1      40.546  28.847  30.432  1.00  0.00     0.034 A 
ATOM     54  C   UNL A   1      39.791  33.181  35.912  1.00  0.00     0.034 A 
ATOM     55  C   UNL A   1      41.501  28.667  31.497  1.00  0.00     0.049 A 
ATOM     56  C   UNL A   1      40.832  32.089  35.894  1.00  0.00     0.074 A 
ATOM     57  C   UNL A   1      42.558  27.775  31.563  1.00  0.00     0.029 A 
ATOM     58  N   UNL A   1      41.511  29.382  32.686  1.00  0.00    -0.354 N 
ATOM     59  N   UNL A   1      41.110  31.230  34.941  1.00  0.00    -0.248 NA
ATOM     60  C   UNL A   1      41.669  31.950  37.092  1.00  0.00     0.031 C 
ATOM     61  C   UNL A   1      43.168  27.909  32.814  1.00  0.00     0.029 A 
ATOM     62  C   UNL A   1      42.535  28.930  33.504  1.00  0.00     0.049 A 
ATOM     63  H   UNL A   1      40.884  30.105  32.915  1.00  0.00     0.167 HD
ATOM     64  C   UNL A   1      42.182  30.476  35.413  1.00  0.00     0.074 A 
ATOM     65  C   UNL A   1      42.503  30.987  36.729  1.00  0.00     0.031 C 
ATOM     66  C   UNL A   1      42.844  29.456  34.812  1.00  0.00     0.034 A 
BRANCH  53  67
ATOM     67  C   UNL A   1      40.576  27.887  29.269  1.00  0.00     0.023 A 
ATOM     68  C   UNL A   1      41.495  28.024  28.215  1.00  0.00     0.031 A 
ATOM     69  C   UNL A   1      39.670  26.812  29.218  1.00  0.00     0.131 A 
ATOM     70  C   UNL A   1      41.450  27.137  27.128  1.00  0.00     0.055 A 
ATOM     71  C   UNL A   1      39.677  25.892  28.169  1.00  0.00     0.041 A 
ATOM     72  F   UNL A   1      38.757  26.643  30.189  1.00  0.00    -0.206 F 
ATOM     73  C   UNL A   1      40.562  26.058  27.110  1.00  0.00     0.022 A 
BRANCH  70  74
ATOM     74  S   UNL A   1      42.494  27.476  25.685  1.00  0.00     0.124 S 
ATOM     75  O   UNL A   1      42.058  28.820  25.314  1.00  0.00    -0.237 OA
ATOM     76  O   UNL A   1      43.840  27.372  26.237  1.00  0.00    -0.237 OA
ATOM     77  O   UNL A   1      42.125  26.426  24.739  1.00  0.00    -0.744 OA
ENDBRANCH  70  74
ENDBRANCH  53  67
BRANCH  54  78
ATOM     78  C   UNL A   1      39.615  34.035  37.124  1.00  0.00     0.023 A 
ATOM     79  C   UNL A   1      39.009  33.524  38.283  1.00  0.00     0.031 A 
ATOM     80  C   UNL A   1      39.982  35.392  37.116  1.00  0.00     0.131 A 
ATOM     81  C   UNL A   1      38.735  34.376  39.363  1.00  0.00     0.055 A 
ATOM     82  C   UNL A   1      39.757  36.223  38.216  1.00  0.00     0.041 A 
ATOM     83  F   UNL A   1      40.568  35.932  36.035  1.00  0.00    -0.206 F 
ATOM     84  C   UNL A   1      39.114  35.719  39.342  1.00  0.00     0.022 A 
BRANCH  81  85
ATOM     85  S   UNL A   1      37.769  33.726  40.755  1.00  0.00     0.124 S 
ATOM     86  O   UNL A   1      37.401  34.948  41.460  1.00  0.00    -0.237 OA
ATOM     87  O   UNL A   1      36.686  33.028  40.069  1.00  0.00    -0.237 OA
ATOM     88  O   UNL A   1      38.719  32.863  41.455  1.00  0.00    -0.744 OA
ENDBRANCH  81  85
ENDBRANCH  54  78
BRANCH  66  89
ATOM     89  C   UNL A   1      44.023  28.875  35.551  1.00  0.00     0.023 A 
ATOM     90  C   UNL A   1      43.886  27.777  36.418  1.00  0.00     0.031 A 
ATOM     91  C   UNL A   1      45.302  29.438  35.388  1.00  0.00     0.131 A 
ATOM     92  C   UNL A   1      45.001  27.306  37.127  1.00  0.00     0.055 A 
ATOM     93  C   UNL A   1      46.417  28.930  36.055  1.00  0.00     0.041 A 
ATOM     94  F   UNL A   1      45.486  30.488  34.573  1.00  0.00    -0.206 F 
ATOM     95  C   UNL A   1      46.268  27.866  36.939  1.00  0.00     0.022 A 
BRANCH  92  96
ATOM     96  S   UNL A   1      44.761  25.997  38.360  1.00  0.00     0.124 S 
ATOM     97  O   UNL A   1      43.885  26.647  39.328  1.00  0.00    -0.237 OA
ATOM     98  O   UNL A   1      44.157  24.930  37.569  1.00  0.00    -0.237 OA
ATOM     99  O   UNL A   1      46.116  25.721  38.836  1.00  0.00    -0.744 OA
ENDBRANCH  92  96
ENDBRANCH  66  89
ENDBRANCH  40  41
ENDBRANCH  32  35
ENDBRANCH  30  31
ENDBRANCH  29  30
ENDBRANCH  28  29
ENDBRANCH   1  28
TORSDOF 23
ENDMDL
MODEL 2
REMARK VINA RESULT:     -11.2      5.907     11.389
REMARK SMILES CC(C)C[C@H](CNC(=O)c1ccc(O)cc1O)C(=O)NCCCCCCNC(=O)c1ccc(-c2c3nc(c(-c4cc(S(=O)(=O)[O-])ccc4F)c4ccc([nH]4)c(-c4cc(S(=O)(=O)[O-])ccc4F)c4nc(c(-c5cc(S(=O)(=O)[O-])ccc5F)c5ccc2[nH]5)C=C4)C=C3)cc1
REMARK SMILES IDX 23 1 22 2 21 3 20 4 18 5 19 6 5 8 4 9 2 10 1 11 3 12 6 13
REMARK SMILES IDX 7 14 8 15 9 17 10 18 11 19 16 20 12 21 15 22 13 23 17 24
REMARK SMILES IDX 14 26 24 28 25 29 26 30 27 31 28 32 29 34 30 35 31 36 92 37
REMARK SMILES IDX 32 38 91 39 33 40 34 41 35 42 85 43 36 44 90 45 84 46 86 47
REMARK SMILES IDX 37 48 89 49 83 50 82 51 38 53 70 54 50 55 69 56 51 57 54 58
REMARK SMILES IDX 68 59 87 60 52 61 53 62 67 64 88 65 55 66 39 67 40 68 48 69
REMARK SMILES IDX 41 70 47 71 49 72 46 73 42 74 43 75 44 76 45 77 71 78 72 79
REMARK SMILES IDX 80 80 73 81 79 82 81 83 78 84 74 85 75 86 76 87 77 88 56 89
REMARK SMILES IDX 57 90 65 91 58 92 64 93 66 94 63 95 59 96 60 97 61 98 62 99
REMARK H PARENT 20 7 7 16 17 25 14 27 27 33 86 52 54 63
REMARK Flexibility Score: inf
ROOT
ATOM      1  C   UNL A   1      37.223  22.647  24.609  1.00  0.00     0.002 C 
ENDROOT
BRANCH   1   2
ATOM      2  C   UNL A   1      36.649  23.671  25.593  1.00  0.00     0.021 C 
BRANCH   2   3
ATOM      3  C   UNL A   1      35.136  23.852  25.495  1.00  0.00     0.116 C 
BRANCH   3   4
ATOM      4  N   UNL A   1      34.748  24.262  24.161  1.00  0.00    -0.356 N 
ATOM      5  C   UNL A   1      33.670  23.951  23.403  1.00  0.00     0.224 C 
ATOM      6  O   UNL A   1      33.624  24.458  22.276  1.00  0.00    -0.275 OA
ATOM      7  H   UNL A   1      35.382  24.878  23.727  1.00  0.00     0.163 HD
BRANCH   5   8
ATOM      8  C   UNL A   1      32.567  22.988  23.833  1.00  0.00     0.098 C 
BRANCH   8   9
ATOM      9  C   UNL A   1      32.639  21.488  23.476  1.00  0.00     0.018 C 
BRANCH   9  10
ATOM     10  C   UNL A   1      32.425  20.395  24.541  1.00  0.00    -0.017 C 
ATOM     11  C   UNL A   1      32.866  18.991  24.142  1.00  0.00     0.007 C 
ATOM     12  C   UNL A   1      33.152  20.808  25.829  1.00  0.00     0.007 C 
ENDBRANCH   9  10
ENDBRANCH   8   9
BRANCH   8  13
ATOM     13  C   UNL A   1      31.160  23.600  23.605  1.00  0.00     0.129 C 
BRANCH  13  14
ATOM     14  N   UNL A   1      30.601  24.255  24.779  1.00  0.00    -0.351 N 
ATOM     15  C   UNL A   1      30.725  25.559  25.182  1.00  0.00     0.255 C 
ATOM     16  H   UNL A   1      30.057  23.680  25.365  1.00  0.00     0.163 HD
ATOM     17  O   UNL A   1      30.751  25.836  26.380  1.00  0.00    -0.269 OA
BRANCH  15  18
ATOM     18  C   UNL A   1      30.816  26.653  24.199  1.00  0.00     0.081 A 
ATOM     19  C   UNL A   1      29.657  27.097  23.549  1.00  0.00     0.021 A 
ATOM     20  C   UNL A   1      32.021  27.344  24.023  1.00  0.00     0.132 A 
ATOM     21  C   UNL A   1      29.712  28.212  22.711  1.00  0.00     0.047 A 
ATOM     22  C   UNL A   1      32.084  28.438  23.165  1.00  0.00     0.093 A 
ATOM     23  C   UNL A   1      30.926  28.871  22.526  1.00  0.00     0.119 A 
BRANCH  20  24
ATOM     24  O   UNL A   1      33.169  27.006  24.686  1.00  0.00    -0.507 OA
ATOM     25  H   UNL A   1      33.185  26.251  25.241  1.00  0.00     0.293 HD
ENDBRANCH  20  24
BRANCH  23  26
ATOM     26  O   UNL A   1      31.011  29.976  21.732  1.00  0.00    -0.508 OA
ATOM     27  H   UNL A   1      31.835  30.407  21.614  1.00  0.00     0.293 HD
ENDBRANCH  23  26
ENDBRANCH  15  18
ENDBRANCH  13  14
ENDBRANCH   8  13
ENDBRANCH   5   8
ENDBRANCH   3   4
ENDBRANCH   2   3
ENDBRANCH   1   2
BRANCH   1  28
ATOM     28  C   UNL A   1      36.678  21.221  24.755  1.00  0.00     0.002 C 
BRANCH  28  29
ATOM     29  C   UNL A   1      37.734  20.132  24.972  1.00  0.00     0.021 C 
BRANCH  29  30
ATOM     30  C   UNL A   1      38.976  20.578  25.738  1.00  0.00     0.116 C 
BRANCH  30  31
ATOM     31  N   UNL A   1      39.950  19.508  25.872  1.00  0.00    -0.352 N 
ATOM     32  C   UNL A   1      41.299  19.589  26.090  1.00  0.00     0.251 C 
ATOM     33  H   UNL A   1      39.587  18.596  25.796  1.00  0.00     0.163 HD
ATOM     34  O   UNL A   1      41.996  18.578  25.983  1.00  0.00    -0.269 OA
BRANCH  32  35
ATOM     35  C   UNL A   1      41.919  20.887  26.430  1.00  0.00     0.039 A 
ATOM     36  C   UNL A   1      42.188  21.798  25.406  1.00  0.00     0.014 A 
ATOM     37  C   UNL A   1      42.244  21.199  27.754  1.00  0.00     0.014 A 
ATOM     38  C   UNL A   1      42.734  23.047  25.716  1.00  0.00     0.010 A 
ATOM     39  C   UNL A   1      42.734  22.465  28.067  1.00  0.00     0.010 A 
ATOM     40  C   UNL A   1      42.986  23.401  27.050  1.00  0.00    -0.014 A 
BRANCH  40  41
ATOM     41  C   UNL A   1      43.527  24.738  27.407  1.00  0.00     0.031 A 
ATOM     42  C   UNL A   1      42.603  25.803  27.933  1.00  0.00     0.074 A 
ATOM     43  C   UNL A   1      44.828  25.014  27.187  1.00  0.00     0.049 A 
ATOM     44  N   UNL A   1      42.854  27.057  28.205  1.00  0.00    -0.248 NA
ATOM     45  C   UNL A   1      41.203  25.408  28.160  1.00  0.00     0.031 C 
ATOM     46  C   UNL A   1      45.813  24.071  26.651  1.00  0.00     0.029 A 
ATOM     47  N   UNL A   1      45.544  26.170  27.371  1.00  0.00    -0.354 N 
ATOM     48  C   UNL A   1      41.642  27.610  28.603  1.00  0.00     0.074 A 
ATOM     49  C   UNL A   1      40.649  26.561  28.505  1.00  0.00     0.031 C 
ATOM     50  C   UNL A   1      47.004  24.684  26.559  1.00  0.00     0.029 A 
ATOM     51  C   UNL A   1      46.862  26.073  26.985  1.00  0.00     0.049 A 
ATOM     52  H   UNL A   1      45.152  26.993  27.743  1.00  0.00     0.167 HD
ATOM     53  C   UNL A   1      41.385  28.874  29.022  1.00  0.00     0.034 A 
ATOM     54  C   UNL A   1      47.838  27.003  26.960  1.00  0.00     0.034 A 
ATOM     55  C   UNL A   1      42.394  29.897  29.149  1.00  0.00     0.049 A 
ATOM     56  C   UNL A   1      47.522  28.403  27.427  1.00  0.00     0.074 A 
ATOM     57  C   UNL A   1      42.259  31.180  29.649  1.00  0.00     0.029 A 
ATOM     58  N   UNL A   1      43.720  29.758  28.764  1.00  0.00    -0.354 N 
ATOM     59  N   UNL A   1      46.384  28.890  27.865  1.00  0.00    -0.248 NA
ATOM     60  C   UNL A   1      48.623  29.375  27.404  1.00  0.00     0.031 C 
ATOM     61  C   UNL A   1      43.487  31.837  29.510  1.00  0.00     0.029 A 
ATOM     62  C   UNL A   1      44.406  30.943  28.985  1.00  0.00     0.049 A 
ATOM     63  H   UNL A   1      44.116  28.939  28.389  1.00  0.00     0.167 HD
ATOM     64  C   UNL A   1      46.647  30.214  28.208  1.00  0.00     0.074 A 
ATOM     65  C   UNL A   1      48.049  30.445  27.932  1.00  0.00     0.031 C 
ATOM     66  C   UNL A   1      45.806  31.154  28.709  1.00  0.00     0.034 A 
BRANCH  53  67
ATOM     67  C   UNL A   1      39.956  29.230  29.345  1.00  0.00     0.023 A 
ATOM     68  C   UNL A   1      39.505  29.370  30.668  1.00  0.00     0.031 A 
ATOM     69  C   UNL A   1      39.029  29.437  28.307  1.00  0.00     0.131 A 
ATOM     70  C   UNL A   1      38.152  29.651  30.920  1.00  0.00     0.055 A 
ATOM     71  C   UNL A   1      37.702  29.785  28.563  1.00  0.00     0.041 A 
ATOM     72  F   UNL A   1      39.400  29.298  27.024  1.00  0.00    -0.206 F 
ATOM     73  C   UNL A   1      37.253  29.883  29.875  1.00  0.00     0.022 A 
BRANCH  70  74
ATOM     74  S   UNL A   1      37.558  29.601  32.633  1.00  0.00     0.124 S 
ATOM     75  O   UNL A   1      37.455  28.163  32.868  1.00  0.00    -0.237 OA
ATOM     76  O   UNL A   1      38.620  30.291  33.356  1.00  0.00    -0.237 OA
ATOM     77  O   UNL A   1      36.282  30.310  32.574  1.00  0.00    -0.744 OA
ENDBRANCH  70  74
ENDBRANCH  53  67
BRANCH  54  78
ATOM     78  C   UNL A   1      49.204  26.665  26.463  1.00  0.00     0.023 A 
ATOM     79  C   UNL A   1      49.661  27.152  25.228  1.00  0.00     0.031 A 
ATOM     80  C   UNL A   1      50.042  25.792  27.178  1.00  0.00     0.131 A 
ATOM     81  C   UNL A   1      50.894  26.717  24.718  1.00  0.00     0.055 A 
ATOM     82  C   UNL A   1      51.293  25.408  26.692  1.00  0.00     0.041 A 
ATOM     83  F   UNL A   1      49.656  25.300  28.366  1.00  0.00    -0.206 F 
ATOM     84  C   UNL A   1      51.718  25.857  25.446  1.00  0.00     0.022 A 
BRANCH  81  85
ATOM     85  S   UNL A   1      51.354  27.207  23.032  1.00  0.00     0.124 S 
ATOM     86  O   UNL A   1      51.873  28.553  23.243  1.00  0.00    -0.237 OA
ATOM     87  O   UNL A   1      52.337  26.187  22.680  1.00  0.00    -0.237 OA
ATOM     88  O   UNL A   1      50.091  27.132  22.300  1.00  0.00    -0.744 OA
ENDBRANCH  81  85
ENDBRANCH  54  78
BRANCH  66  89
ATOM     89  C   UNL A   1      46.403  32.495  29.050  1.00  0.00     0.023 A 
ATOM     90  C   UNL A   1      46.939  32.766  30.321  1.00  0.00     0.031 A 
ATOM     91  C   UNL A   1      46.428  33.519  28.086  1.00  0.00     0.131 A 
ATOM     92  C   UNL A   1      47.433  34.047  30.610  1.00  0.00     0.055 A 
ATOM     93  C   UNL A   1      46.969  34.775  28.363  1.00  0.00     0.041 A 
ATOM     94  F   UNL A   1      45.927  33.312  26.858  1.00  0.00    -0.206 F 
ATOM     95  C   UNL A   1      47.466  35.048  29.634  1.00  0.00     0.022 A 
BRANCH  92  96
ATOM     96  S   UNL A   1      47.966  34.415  32.305  1.00  0.00     0.124 S 
ATOM     97  O   UNL A   1      48.481  35.773  32.174  1.00  0.00    -0.237 OA
ATOM     98  O   UNL A   1      46.725  34.273  33.060  1.00  0.00    -0.237 OA
ATOM     99  O   UNL A   1      48.974  33.391  32.578  1.00  0.00    -0.744 OA
ENDBRANCH  92  96
ENDBRANCH  66  89
ENDBRANCH  40  41
ENDBRANCH  32  35
ENDBRANCH  30  31
ENDBRANCH  29  30
ENDBRANCH  28  29
ENDBRANCH   1  28
TORSDOF 23
ENDMDL
MODEL 3
REMARK VINA RESULT:     -11.2      6.347     11.507
REMARK SMILES CC(C)C[C@H](CNC(=O)c1ccc(O)cc1O)C(=O)NCCCCCCNC(=O)c1ccc(-c2c3nc(c(-c4cc(S(=O)(=O)[O-])ccc4F)c4ccc([nH]4)c(-c4cc(S(=O)(=O)[O-])ccc4F)c4nc(c(-c5cc(S(=O)(=O)[O-])ccc5F)c5ccc2[nH]5)C=C4)C=C3)cc1
REMARK SMILES IDX 23 1 22 2 21 3 20 4 18 5 19 6 5 8 4 9 2 10 1 11 3 12 6 13
REMARK SMILES IDX 7 14 8 15 9 17 10 18 11 19 16 20 12 21 15 22 13 23 17 24
REMARK SMILES IDX 14 26 24 28 25 29 26 30 27 31 28 32 29 34 30 35 31 36 92 37
REMARK SMILES IDX 32 38 91 39 33 40 34 41 35 42 85 43 36 44 90 45 84 46 86 47
REMARK SMILES IDX 37 48 89 49 83 50 82 51 38 53 70 54 50 55 69 56 51 57 54 58
REMARK SMILES IDX 68 59 87 60 52 61 53 62 67 64 88 65 55 66 39 67 40 68 48 69
REMARK SMILES IDX 41 70 47 71 49 72 46 73 42 74 43 75 44 76 45 77 71 78 72 79
REMARK SMILES IDX 80 80 73 81 79 82 81 83 78 84 74 85 75 86 76 87 77 88 56 89
REMARK SMILES IDX 57 90 65 91 58 92 64 93 66 94 63 95 59 96 60 97 61 98 62 99
REMARK H PARENT 20 7 7 16 17 25 14 27 27 33 86 52 54 63
REMARK Flexibility Score: inf
ROOT
ATOM      1  C   UNL A   1      35.732  21.095  25.205  1.00  0.00     0.002 C 
ENDROOT
BRANCH   1   2
ATOM      2  C   UNL A   1      34.337  21.139  24.577  1.00  0.00     0.021 C 
BRANCH   2   3
ATOM      3  C   UNL A   1      33.229  20.595  25.477  1.00  0.00     0.116 C 
BRANCH   3   4
ATOM      4  N   UNL A   1      32.893  21.546  26.517  1.00  0.00    -0.356 N 
ATOM      5  C   UNL A   1      32.347  22.785  26.459  1.00  0.00     0.224 C 
ATOM      6  O   UNL A   1      32.190  23.369  27.538  1.00  0.00    -0.275 OA
ATOM      7  H   UNL A   1      33.097  21.238  27.429  1.00  0.00     0.163 HD
BRANCH   5   8
ATOM      8  C   UNL A   1      31.980  23.502  25.162  1.00  0.00     0.098 C 
BRANCH   8   9
ATOM      9  C   UNL A   1      33.018  24.362  24.410  1.00  0.00     0.018 C 
BRANCH   9  10
ATOM     10  C   UNL A   1      32.844  24.714  22.920  1.00  0.00    -0.017 C 
ATOM     11  C   UNL A   1      33.650  25.910  22.427  1.00  0.00     0.007 C 
ATOM     12  C   UNL A   1      33.199  23.481  22.075  1.00  0.00     0.007 C 
ENDBRANCH   9  10
ENDBRANCH   8   9
BRANCH   8  13
ATOM     13  C   UNL A   1      30.589  24.179  25.265  1.00  0.00     0.129 C 
BRANCH  13  14
ATOM     14  N   UNL A   1      30.510  25.223  26.277  1.00  0.00    -0.351 N 
ATOM     15  C   UNL A   1      30.982  26.510  26.229  1.00  0.00     0.255 C 
ATOM     16  H   UNL A   1      30.054  24.970  27.112  1.00  0.00     0.163 HD
ATOM     17  O   UNL A   1      31.392  27.056  27.252  1.00  0.00    -0.269 OA
BRANCH  15  18
ATOM     18  C   UNL A   1      30.998  27.267  24.966  1.00  0.00     0.081 A 
ATOM     19  C   UNL A   1      29.921  27.153  24.078  1.00  0.00     0.021 A 
ATOM     20  C   UNL A   1      32.006  28.207  24.719  1.00  0.00     0.132 A 
ATOM     21  C   UNL A   1      29.867  27.959  22.939  1.00  0.00     0.047 A 
ATOM     22  C   UNL A   1      31.971  28.990  23.569  1.00  0.00     0.093 A 
ATOM     23  C   UNL A   1      30.894  28.869  22.695  1.00  0.00     0.119 A 
BRANCH  20  24
ATOM     24  O   UNL A   1      33.045  28.418  25.585  1.00  0.00    -0.507 OA
ATOM     25  H   UNL A   1      33.722  27.776  25.669  1.00  0.00     0.293 HD
ENDBRANCH  20  24
BRANCH  23  26
ATOM     26  O   UNL A   1      30.863  29.687  21.605  1.00  0.00    -0.508 OA
ATOM     27  H   UNL A   1      30.278  29.503  20.897  1.00  0.00     0.293 HD
ENDBRANCH  23  26
ENDBRANCH  15  18
ENDBRANCH  13  14
ENDBRANCH   8  13
ENDBRANCH   5   8
ENDBRANCH   3   4
ENDBRANCH   2   3
ENDBRANCH   1   2
BRANCH   1  28
ATOM     28  C   UNL A   1      36.514  19.797  24.976  1.00  0.00     0.002 C 
BRANCH  28  29
ATOM     29  C   UNL A   1      38.007  19.970  24.677  1.00  0.00     0.021 C 
BRANCH  29  30
ATOM     30  C   UNL A   1      38.892  20.182  25.902  1.00  0.00     0.116 C 
BRANCH  30  31
ATOM     31  N   UNL A   1      39.962  19.203  25.980  1.00  0.00    -0.352 N 
ATOM     32  C   UNL A   1      41.308  19.403  26.129  1.00  0.00     0.251 C 
ATOM     33  H   UNL A   1      39.679  18.262  25.917  1.00  0.00     0.163 HD
ATOM     34  O   UNL A   1      42.086  18.458  25.981  1.00  0.00    -0.269 OA
BRANCH  32  35
ATOM     35  C   UNL A   1      41.827  20.750  26.445  1.00  0.00     0.039 A 
ATOM     36  C   UNL A   1      42.027  21.660  25.403  1.00  0.00     0.014 A 
ATOM     37  C   UNL A   1      42.126  21.112  27.762  1.00  0.00     0.014 A 
ATOM     38  C   UNL A   1      42.477  22.952  25.689  1.00  0.00     0.010 A 
ATOM     39  C   UNL A   1      42.518  22.417  28.050  1.00  0.00     0.010 A 
ATOM     40  C   UNL A   1      42.699  23.350  27.016  1.00  0.00    -0.014 A 
BRANCH  40  41
ATOM     41  C   UNL A   1      43.136  24.730  27.347  1.00  0.00     0.031 A 
ATOM     42  C   UNL A   1      42.168  25.689  27.986  1.00  0.00     0.074 A 
ATOM     43  C   UNL A   1      44.375  25.141  27.005  1.00  0.00     0.049 A 
ATOM     44  N   UNL A   1      42.318  26.960  28.260  1.00  0.00    -0.248 NA
ATOM     45  C   UNL A   1      40.845  25.151  28.342  1.00  0.00     0.031 C 
ATOM     46  C   UNL A   1      45.390  24.310  26.353  1.00  0.00     0.029 A 
ATOM     47  N   UNL A   1      44.986  26.362  27.143  1.00  0.00    -0.354 N 
ATOM     48  C   UNL A   1      41.103  27.381  28.789  1.00  0.00     0.074 A 
ATOM     49  C   UNL A   1      40.216  26.237  28.767  1.00  0.00     0.031 C 
ATOM     50  C   UNL A   1      46.498  25.043  26.157  1.00  0.00     0.029 A 
ATOM     51  C   UNL A   1      46.261  26.404  26.626  1.00  0.00     0.049 A 
ATOM     52  H   UNL A   1      44.553  27.136  27.570  1.00  0.00     0.167 HD
ATOM     53  C   UNL A   1      40.765  28.606  29.259  1.00  0.00     0.034 A 
ATOM     54  C   UNL A   1      47.131  27.430  26.525  1.00  0.00     0.034 A 
ATOM     55  C   UNL A   1      41.673  29.726  29.307  1.00  0.00     0.049 A 
ATOM     56  C   UNL A   1      46.725  28.784  27.052  1.00  0.00     0.074 A 
ATOM     57  C   UNL A   1      41.462  30.982  29.848  1.00  0.00     0.029 A 
ATOM     58  N   UNL A   1      42.961  29.728  28.790  1.00  0.00    -0.354 N 
ATOM     59  N   UNL A   1      45.594  29.147  27.612  1.00  0.00    -0.248 NA
ATOM     60  C   UNL A   1      47.714  29.864  26.941  1.00  0.00     0.031 C 
ATOM     61  C   UNL A   1      42.596  31.762  29.601  1.00  0.00     0.029 A 
ATOM     62  C   UNL A   1      43.543  30.974  28.968  1.00  0.00     0.049 A 
ATOM     63  H   UNL A   1      43.397  28.958  28.359  1.00  0.00     0.167 HD
ATOM     64  C   UNL A   1      45.755  30.487  27.956  1.00  0.00     0.074 A 
ATOM     65  C   UNL A   1      47.092  30.863  27.547  1.00  0.00     0.031 C 
ATOM     66  C   UNL A   1      44.880  31.330  28.559  1.00  0.00     0.034 A 
BRANCH  53  67
ATOM     67  C   UNL A   1      39.347  28.811  29.730  1.00  0.00     0.023 A 
ATOM     68  C   UNL A   1      38.324  29.216  28.857  1.00  0.00     0.031 A 
ATOM     69  C   UNL A   1      39.014  28.592  31.080  1.00  0.00     0.131 A 
ATOM     70  C   UNL A   1      37.030  29.445  29.353  1.00  0.00     0.055 A 
ATOM     71  C   UNL A   1      37.710  28.753  31.552  1.00  0.00     0.041 A 
ATOM     72  F   UNL A   1      39.955  28.222  31.963  1.00  0.00    -0.206 F 
ATOM     73  C   UNL A   1      36.712  29.193  30.690  1.00  0.00     0.022 A 
BRANCH  70  74
ATOM     74  S   UNL A   1      35.794  30.182  28.249  1.00  0.00     0.124 S 
ATOM     75  O   UNL A   1      36.570  30.382  27.028  1.00  0.00    -0.237 OA
ATOM     76  O   UNL A   1      34.767  29.148  28.191  1.00  0.00    -0.237 OA
ATOM     77  O   UNL A   1      35.405  31.408  28.941  1.00  0.00    -0.744 OA
ENDBRANCH  70  74
ENDBRANCH  53  67
BRANCH  54  78
ATOM     78  C   UNL A   1      48.467  27.239  25.887  1.00  0.00     0.023 A 
ATOM     79  C   UNL A   1      48.651  27.483  24.517  1.00  0.00     0.031 A 
ATOM     80  C   UNL A   1      49.558  26.740  26.620  1.00  0.00     0.131 A 
ATOM     81  C   UNL A   1      49.878  27.172  23.910  1.00  0.00     0.055 A 
ATOM     82  C   UNL A   1      50.794  26.487  26.023  1.00  0.00     0.041 A 
ATOM     83  F   UNL A   1      49.438  26.493  27.935  1.00  0.00    -0.206 F 
ATOM     84  C   UNL A   1      50.953  26.686  24.655  1.00  0.00     0.022 A 
BRANCH  81  85
ATOM     85  S   UNL A   1      50.009  27.308  22.105  1.00  0.00     0.124 S 
ATOM     86  O   UNL A   1      48.988  26.366  21.660  1.00  0.00    -0.237 OA
ATOM     87  O   UNL A   1      49.719  28.721  21.887  1.00  0.00    -0.237 OA
ATOM     88  O   UNL A   1      51.388  26.907  21.833  1.00  0.00    -0.744 OA
ENDBRANCH  81  85
ENDBRANCH  54  78
BRANCH  66  89
ATOM     89  C   UNL A   1      45.371  32.721  28.869  1.00  0.00     0.023 A 
ATOM     90  C   UNL A   1      45.113  33.806  28.014  1.00  0.00     0.031 A 
ATOM     91  C   UNL A   1      46.117  32.958  30.038  1.00  0.00     0.131 A 
ATOM     92  C   UNL A   1      45.638  35.071  28.316  1.00  0.00     0.055 A 
ATOM     93  C   UNL A   1      46.591  34.230  30.360  1.00  0.00     0.041 A 
ATOM     94  F   UNL A   1      46.392  31.955  30.887  1.00  0.00    -0.206 F 
ATOM     95  C   UNL A   1      46.362  35.293  29.492  1.00  0.00     0.022 A 
BRANCH  92  96
ATOM     96  S   UNL A   1      45.428  36.413  27.114  1.00  0.00     0.124 S 
ATOM     97  O   UNL A   1      45.704  37.593  27.924  1.00  0.00    -0.237 OA
ATOM     98  O   UNL A   1      46.428  36.085  26.103  1.00  0.00    -0.237 OA
ATOM     99  O   UNL A   1      44.040  36.269  26.678  1.00  0.00    -0.744 OA
ENDBRANCH  92  96
ENDBRANCH  66  89
ENDBRANCH  40  41
ENDBRANCH  32  35
ENDBRANCH  30  31
ENDBRANCH  29  30
ENDBRANCH  28  29
ENDBRANCH   1  28
TORSDOF 23
ENDMDL
