MODEL 1
REMARK VINA RESULT:     -12.6      0.000      0.000
REMARK SMILES COC(=O)c1ccc(C)c(NC(=O)[C@H]2CC=CC[C@H]2C(=O)NCCCCCCNC(=O)c2ccc(-c3c4nc(c(-c5cc(S(=O)(=O)[O-])ccc5F)c5ccc([nH]5)c(-c5cc(S(=O)(=O)[O-])ccc5F)c5nc(c(-c6cc(S(=O)(=O)[O-])ccc6F)c6ccc3[nH]6)C=C5)C=C4)cc2)c1
REMARK SMILES IDX 25 1 24 2 23 3 22 4 20 5 21 6 19 8 14 9 15 10 16 11 18 12
REMARK SMILES IDX 17 13 12 14 11 15 13 17 10 18 5 19 6 20 95 21 7 22 8 23 9 24
REMARK SMILES IDX 3 25 4 26 2 27 1 28 26 29 27 30 28 31 29 32 30 33 31 35
REMARK SMILES IDX 32 36 33 37 94 38 34 39 93 40 35 41 36 42 37 43 87 44 38 45
REMARK SMILES IDX 92 46 86 47 88 48 39 49 91 50 85 51 84 52 40 54 72 55 52 56
REMARK SMILES IDX 71 57 53 58 56 59 70 60 89 61 54 62 55 63 69 65 90 66 57 67
REMARK SMILES IDX 41 68 42 69 50 70 43 71 49 72 51 73 48 74 44 75 45 76 46 77
REMARK SMILES IDX 47 78 73 79 74 80 82 81 75 82 81 83 83 84 80 85 76 86 77 87
REMARK SMILES IDX 78 88 79 89 58 90 59 91 67 92 60 93 66 94 68 95 65 96 61 97
REMARK SMILES IDX 62 98 63 99 64 100
REMARK H PARENT 22 7 11 16 29 34 88 53 56 64
REMARK Flexibility Score: inf
ROOT
ATOM      1  C   UNL A   1      35.908  20.597  24.997  1.00  0.00     0.002 C 
ENDROOT
BRANCH   1   2
ATOM      2  C   UNL A   1      34.593  21.291  25.367  1.00  0.00     0.021 C 
BRANCH   2   3
ATOM      3  C   UNL A   1      33.445  21.081  24.382  1.00  0.00     0.116 C 
BRANCH   3   4
ATOM      4  N   UNL A   1      33.407  22.085  23.336  1.00  0.00    -0.356 N 
ATOM      5  C   UNL A   1      32.797  23.298  23.279  1.00  0.00     0.224 C 
ATOM      6  O   UNL A   1      32.955  23.979  22.260  1.00  0.00    -0.275 OA
ATOM      7  H   UNL A   1      33.911  21.845  22.524  1.00  0.00     0.163 HD
BRANCH   5   8
ATOM      8  C   UNL A   1      31.961  23.862  24.427  1.00  0.00     0.095 C 
ATOM      9  C   UNL A   1      32.743  24.640  25.528  1.00  0.00     0.095 C 
ATOM     10  C   UNL A   1      31.759  25.155  26.585  1.00  0.00     0.041 C 
ATOM     11  C   UNL A   1      30.540  25.823  26.037  1.00  0.00    -0.030 C 
ATOM     12  C   UNL A   1      30.629  24.472  23.945  1.00  0.00     0.041 C 
ATOM     13  C   UNL A   1      30.030  25.510  24.842  1.00  0.00    -0.030 C 
BRANCH   9  14
ATOM     14  C   UNL A   1      33.873  25.541  24.993  1.00  0.00     0.228 C 
ATOM     15  N   UNL A   1      33.650  26.676  24.276  1.00  0.00    -0.326 N 
ATOM     16  H   UNL A   1      34.143  26.729  23.425  1.00  0.00     0.169 HD
ATOM     17  O   UNL A   1      35.043  25.153  25.074  1.00  0.00    -0.274 OA
BRANCH  15  18
ATOM     18  C   UNL A   1      32.834  27.781  24.552  1.00  0.00     0.044 A 
ATOM     19  C   UNL A   1      30.995  29.159  23.758  1.00  0.00     0.062 A 
ATOM     20  C   UNL A   1      31.058  29.916  24.929  1.00  0.00     0.016 A 
ATOM     21  C   UNL A   1      31.885  28.093  23.577  1.00  0.00     0.042 A 
ATOM     22  C   UNL A   1      32.074  29.669  25.859  1.00  0.00     0.006 A 
ATOM     23  C   UNL A   1      33.009  28.638  25.651  1.00  0.00    -0.027 A 
ATOM     24  C   UNL A   1      34.232  28.583  26.529  1.00  0.00     0.046 C 
BRANCH  19  25
ATOM     25  C   UNL A   1      29.952  29.460  22.744  1.00  0.00     0.337 C 
ATOM     26  O   UNL A   1      29.912  28.963  21.629  1.00  0.00    -0.246 OA
BRANCH  25  27
ATOM     27  O   UNL A   1      29.102  30.386  23.250  1.00  0.00    -0.465 OA
ATOM     28  C   UNL A   1      27.741  30.302  22.828  1.00  0.00     0.282 C 
ENDBRANCH  25  27
ENDBRANCH  19  25
ENDBRANCH  15  18
ENDBRANCH   9  14
ENDBRANCH   5   8
ENDBRANCH   3   4
ENDBRANCH   2   3
ENDBRANCH   1   2
BRANCH   1  29
ATOM     29  C   UNL A   1      37.063  21.510  24.566  1.00  0.00     0.002 C 
BRANCH  29  30
ATOM     30  C   UNL A   1      38.295  21.492  25.467  1.00  0.00     0.021 C 
BRANCH  30  31
ATOM     31  C   UNL A   1      38.683  22.852  26.039  1.00  0.00     0.116 C 
BRANCH  31  32
ATOM     32  N   UNL A   1      40.083  22.936  26.438  1.00  0.00    -0.352 N 
ATOM     33  C   UNL A   1      40.817  24.049  26.804  1.00  0.00     0.251 C 
ATOM     34  H   UNL A   1      40.573  22.082  26.450  1.00  0.00     0.163 HD
ATOM     35  O   UNL A   1      42.030  23.995  26.993  1.00  0.00    -0.269 OA
BRANCH  33  36
ATOM     36  C   UNL A   1      40.085  25.289  27.145  1.00  0.00     0.039 A 
ATOM     37  C   UNL A   1      40.443  26.438  26.428  1.00  0.00     0.014 A 
ATOM     38  C   UNL A   1      39.321  25.381  28.304  1.00  0.00     0.014 A 
ATOM     39  C   UNL A   1      40.263  27.685  27.013  1.00  0.00     0.010 A 
ATOM     40  C   UNL A   1      39.227  26.608  28.929  1.00  0.00     0.010 A 
ATOM     41  C   UNL A   1      39.765  27.744  28.312  1.00  0.00    -0.014 A 
BRANCH  41  42
ATOM     42  C   UNL A   1      39.896  28.926  29.150  1.00  0.00     0.031 A 
ATOM     43  C   UNL A   1      38.849  29.958  29.150  1.00  0.00     0.074 A 
ATOM     44  C   UNL A   1      40.973  29.053  29.956  1.00  0.00     0.049 A 
ATOM     45  N   UNL A   1      39.057  31.196  29.437  1.00  0.00    -0.248 NA
ATOM     46  C   UNL A   1      37.468  29.675  28.775  1.00  0.00     0.031 C 
ATOM     47  C   UNL A   1      41.181  30.026  31.023  1.00  0.00     0.029 A 
ATOM     48  N   UNL A   1      42.219  28.452  29.789  1.00  0.00    -0.354 N 
ATOM     49  C   UNL A   1      37.831  31.801  29.574  1.00  0.00     0.074 A 
ATOM     50  C   UNL A   1      36.877  30.834  29.080  1.00  0.00     0.031 C 
ATOM     51  C   UNL A   1      42.499  30.149  31.248  1.00  0.00     0.029 A 
ATOM     52  C   UNL A   1      43.184  29.370  30.233  1.00  0.00     0.049 A 
ATOM     53  H   UNL A   1      42.389  27.552  29.427  1.00  0.00     0.167 HD
ATOM     54  C   UNL A   1      37.743  32.993  30.228  1.00  0.00     0.034 A 
ATOM     55  C   UNL A   1      44.131  29.854  29.379  1.00  0.00     0.034 A 
ATOM     56  C   UNL A   1      39.058  33.475  30.645  1.00  0.00     0.049 A 
ATOM     57  C   UNL A   1      44.072  31.357  29.205  1.00  0.00     0.074 A 
ATOM     58  C   UNL A   1      39.737  33.437  31.852  1.00  0.00     0.029 A 
ATOM     59  N   UNL A   1      39.994  33.831  29.682  1.00  0.00    -0.354 N 
ATOM     60  N   UNL A   1      43.046  32.100  29.522  1.00  0.00    -0.248 NA
ATOM     61  C   UNL A   1      45.173  32.135  28.652  1.00  0.00     0.031 C 
ATOM     62  C   UNL A   1      41.099  33.742  31.601  1.00  0.00     0.029 A 
ATOM     63  C   UNL A   1      41.245  33.994  30.248  1.00  0.00     0.049 A 
ATOM     64  H   UNL A   1      39.795  33.950  28.726  1.00  0.00     0.167 HD
ATOM     65  C   UNL A   1      43.313  33.417  29.223  1.00  0.00     0.074 A 
ATOM     66  C   UNL A   1      44.668  33.380  28.698  1.00  0.00     0.031 C 
ATOM     67  C   UNL A   1      42.382  34.403  29.431  1.00  0.00     0.034 A 
BRANCH  54  68
ATOM     68  C   UNL A   1      36.444  33.546  30.759  1.00  0.00     0.023 A 
ATOM     69  C   UNL A   1      35.563  34.201  29.876  1.00  0.00     0.031 A 
ATOM     70  C   UNL A   1      36.037  33.504  32.106  1.00  0.00     0.131 A 
ATOM     71  C   UNL A   1      34.415  34.866  30.343  1.00  0.00     0.055 A 
ATOM     72  C   UNL A   1      34.923  34.209  32.582  1.00  0.00     0.041 A 
ATOM     73  F   UNL A   1      36.679  32.746  33.007  1.00  0.00    -0.206 F 
ATOM     74  C   UNL A   1      34.112  34.909  31.700  1.00  0.00     0.022 A 
BRANCH  71  75
ATOM     75  S   UNL A   1      33.320  35.672  29.142  1.00  0.00     0.124 S 
ATOM     76  O   UNL A   1      34.271  36.309  28.236  1.00  0.00    -0.237 OA
ATOM     77  O   UNL A   1      32.571  34.544  28.601  1.00  0.00    -0.237 OA
ATOM     78  O   UNL A   1      32.538  36.594  29.963  1.00  0.00    -0.744 OA
ENDBRANCH  71  75
ENDBRANCH  54  68
BRANCH  55  79
ATOM     79  C   UNL A   1      44.537  28.867  28.334  1.00  0.00     0.023 A 
ATOM     80  C   UNL A   1      45.337  27.778  28.748  1.00  0.00     0.031 A 
ATOM     81  C   UNL A   1      43.850  28.750  27.118  1.00  0.00     0.131 A 
ATOM     82  C   UNL A   1      45.295  26.563  28.051  1.00  0.00     0.055 A 
ATOM     83  C   UNL A   1      43.866  27.553  26.388  1.00  0.00     0.041 A 
ATOM     84  F   UNL A   1      43.051  29.736  26.685  1.00  0.00    -0.206 F 
ATOM     85  C   UNL A   1      44.550  26.440  26.877  1.00  0.00     0.022 A 
BRANCH  82  86
ATOM     86  S   UNL A   1      45.986  25.067  28.822  1.00  0.00     0.124 S 
ATOM     87  O   UNL A   1      44.788  24.281  29.093  1.00  0.00    -0.237 OA
ATOM     88  O   UNL A   1      46.870  24.537  27.788  1.00  0.00    -0.237 OA
ATOM     89  O   UNL A   1      46.681  25.588  29.998  1.00  0.00    -0.744 OA
ENDBRANCH  82  86
ENDBRANCH  55  79
BRANCH  67  90
ATOM     90  C   UNL A   1      42.454  35.856  28.971  1.00  0.00     0.023 A 
ATOM     91  C   UNL A   1      43.205  36.849  29.612  1.00  0.00     0.031 A 
ATOM     92  C   UNL A   1      41.776  36.291  27.798  1.00  0.00     0.131 A 
ATOM     93  C   UNL A   1      43.229  38.180  29.147  1.00  0.00     0.055 A 
ATOM     94  C   UNL A   1      41.847  37.599  27.303  1.00  0.00     0.041 A 
ATOM     95  F   UNL A   1      41.016  35.466  27.064  1.00  0.00    -0.206 F 
ATOM     96  C   UNL A   1      42.570  38.559  27.984  1.00  0.00     0.022 A 
BRANCH  93  97
ATOM     97  S   UNL A   1      44.111  39.414  30.138  1.00  0.00     0.124 S 
ATOM     98  O   UNL A   1      45.498  39.180  29.745  1.00  0.00    -0.237 OA
ATOM     99  O   UNL A   1      43.525  40.666  29.668  1.00  0.00    -0.237 OA
ATOM    100  O   UNL A   1      43.785  39.052  31.514  1.00  0.00    -0.744 OA
ENDBRANCH  93  97
ENDBRANCH  67  90
ENDBRANCH  41  42
ENDBRANCH  33  36
ENDBRANCH  31  32
ENDBRANCH  30  31
ENDBRANCH  29  30
ENDBRANCH   1  29
TORSDOF 20
ENDMDL
MODEL 2
REMARK VINA RESULT:     -12.6      3.929     10.550
REMARK SMILES COC(=O)c1ccc(C)c(NC(=O)[C@H]2CC=CC[C@H]2C(=O)NCCCCCCNC(=O)c2ccc(-c3c4nc(c(-c5cc(S(=O)(=O)[O-])ccc5F)c5ccc([nH]5)c(-c5cc(S(=O)(=O)[O-])ccc5F)c5nc(c(-c6cc(S(=O)(=O)[O-])ccc6F)c6ccc3[nH]6)C=C5)C=C4)cc2)c1
REMARK SMILES IDX 25 1 24 2 23 3 22 4 20 5 21 6 19 8 14 9 15 10 16 11 18 12
REMARK SMILES IDX 17 13 12 14 11 15 13 17 10 18 5 19 6 20 95 21 7 22 8 23 9 24
REMARK SMILES IDX 3 25 4 26 2 27 1 28 26 29 27 30 28 31 29 32 30 33 31 35
REMARK SMILES IDX 32 36 33 37 94 38 34 39 93 40 35 41 36 42 37 43 87 44 38 45
REMARK SMILES IDX 92 46 86 47 88 48 39 49 91 50 85 51 84 52 40 54 72 55 52 56
REMARK SMILES IDX 71 57 53 58 56 59 70 60 89 61 54 62 55 63 69 65 90 66 57 67
REMARK SMILES IDX 41 68 42 69 50 70 43 71 49 72 51 73 48 74 44 75 45 76 46 77
REMARK SMILES IDX 47 78 73 79 74 80 82 81 75 82 81 83 83 84 80 85 76 86 77 87
REMARK SMILES IDX 78 88 79 89 58 90 59 91 67 92 60 93 66 94 68 95 65 96 61 97
REMARK SMILES IDX 62 98 63 99 64 100
REMARK H PARENT 22 7 11 16 29 34 88 53 56 64
REMARK Flexibility Score: inf
ROOT
ATOM      1  C   UNL A   1      32.108  29.573  25.248  1.00  0.00     0.002 C 
ENDROOT
BRANCH   1   2
ATOM      2  C   UNL A   1      30.860  29.375  24.382  1.00  0.00     0.021 C 
BRANCH   2   3
ATOM      3  C   UNL A   1      30.720  27.995  23.745  1.00  0.00     0.116 C 
BRANCH   3   4
ATOM      4  N   UNL A   1      30.444  26.950  24.712  1.00  0.00    -0.356 N 
ATOM      5  C   UNL A   1      30.828  25.647  24.759  1.00  0.00     0.224 C 
ATOM      6  O   UNL A   1      30.471  24.973  25.731  1.00  0.00    -0.275 OA
ATOM      7  H   UNL A   1      29.879  27.235  25.467  1.00  0.00     0.163 HD
BRANCH   5   8
ATOM      8  C   UNL A   1      31.704  25.000  23.687  1.00  0.00     0.095 C 
ATOM      9  C   UNL A   1      33.242  25.200  23.843  1.00  0.00     0.095 C 
ATOM     10  C   UNL A   1      33.968  24.472  22.706  1.00  0.00     0.041 C 
ATOM     11  C   UNL A   1      33.501  23.076  22.452  1.00  0.00    -0.030 C 
ATOM     12  C   UNL A   1      31.212  23.592  23.293  1.00  0.00     0.041 C 
ATOM     13  C   UNL A   1      32.252  22.682  22.718  1.00  0.00    -0.030 C 
BRANCH   9  14
ATOM     14  C   UNL A   1      33.753  25.111  25.294  1.00  0.00     0.228 C 
ATOM     15  N   UNL A   1      33.869  23.940  25.976  1.00  0.00    -0.326 N 
ATOM     16  H   UNL A   1      33.434  23.934  26.860  1.00  0.00     0.169 HD
ATOM     17  O   UNL A   1      33.924  26.152  25.938  1.00  0.00    -0.274 OA
BRANCH  15  18
ATOM     18  C   UNL A   1      34.508  22.743  25.627  1.00  0.00     0.044 A 
ATOM     19  C   UNL A   1      34.223  20.358  25.254  1.00  0.00     0.062 A 
ATOM     20  C   UNL A   1      35.568  20.254  24.898  1.00  0.00     0.016 A 
ATOM     21  C   UNL A   1      33.699  21.604  25.616  1.00  0.00     0.042 A 
ATOM     22  C   UNL A   1      36.402  21.372  25.008  1.00  0.00     0.006 A 
ATOM     23  C   UNL A   1      35.893  22.614  25.431  1.00  0.00    -0.027 A 
ATOM     24  C   UNL A   1      36.863  23.708  25.793  1.00  0.00     0.046 C 
BRANCH  19  25
ATOM     25  C   UNL A   1      33.352  19.156  25.192  1.00  0.00     0.337 C 
ATOM     26  O   UNL A   1      32.186  19.132  25.555  1.00  0.00    -0.246 OA
BRANCH  25  27
ATOM     27  O   UNL A   1      34.074  18.114  24.713  1.00  0.00    -0.465 OA
ATOM     28  C   UNL A   1      33.681  17.594  23.444  1.00  0.00     0.282 C 
ENDBRANCH  25  27
ENDBRANCH  19  25
ENDBRANCH  15  18
ENDBRANCH   9  14
ENDBRANCH   5   8
ENDBRANCH   3   4
ENDBRANCH   2   3
ENDBRANCH   1   2
BRANCH   1  29
ATOM     29  C   UNL A   1      31.871  30.039  26.691  1.00  0.00     0.002 C 
BRANCH  29  30
ATOM     30  C   UNL A   1      32.859  31.073  27.225  1.00  0.00     0.021 C 
BRANCH  30  31
ATOM     31  C   UNL A   1      34.200  30.499  27.671  1.00  0.00     0.116 C 
BRANCH  31  32
ATOM     32  N   UNL A   1      34.986  31.422  28.481  1.00  0.00    -0.352 N 
ATOM     33  C   UNL A   1      36.150  31.183  29.188  1.00  0.00     0.251 C 
ATOM     34  H   UNL A   1      34.642  32.342  28.531  1.00  0.00     0.163 HD
ATOM     35  O   UNL A   1      36.641  32.023  29.938  1.00  0.00    -0.269 OA
BRANCH  33  36
ATOM     36  C   UNL A   1      36.909  29.948  28.890  1.00  0.00     0.039 A 
ATOM     37  C   UNL A   1      37.135  29.083  29.968  1.00  0.00     0.014 A 
ATOM     38  C   UNL A   1      37.616  29.804  27.700  1.00  0.00     0.014 A 
ATOM     39  C   UNL A   1      38.247  28.250  29.947  1.00  0.00     0.010 A 
ATOM     40  C   UNL A   1      38.772  29.051  27.714  1.00  0.00     0.010 A 
ATOM     41  C   UNL A   1      39.120  28.335  28.865  1.00  0.00    -0.014 A 
BRANCH  41  42
ATOM     42  C   UNL A   1      40.480  27.819  28.912  1.00  0.00     0.031 A 
ATOM     43  C   UNL A   1      40.767  26.442  28.482  1.00  0.00     0.074 A 
ATOM     44  C   UNL A   1      41.484  28.626  29.320  1.00  0.00     0.049 A 
ATOM     45  N   UNL A   1      41.762  25.746  28.912  1.00  0.00    -0.248 NA
ATOM     46  C   UNL A   1      39.913  25.715  27.551  1.00  0.00     0.031 C 
ATOM     47  C   UNL A   1      42.920  28.384  29.223  1.00  0.00     0.029 A 
ATOM     48  N   UNL A   1      41.375  29.745  30.142  1.00  0.00    -0.354 N 
ATOM     49  C   UNL A   1      41.856  24.625  28.124  1.00  0.00     0.074 A 
ATOM     50  C   UNL A   1      40.640  24.614  27.341  1.00  0.00     0.031 C 
ATOM     51  C   UNL A   1      43.549  29.143  30.135  1.00  0.00     0.029 A 
ATOM     52  C   UNL A   1      42.527  29.783  30.944  1.00  0.00     0.049 A 
ATOM     53  H   UNL A   1      40.631  30.389  30.157  1.00  0.00     0.167 HD
ATOM     54  C   UNL A   1      43.015  23.912  28.110  1.00  0.00     0.034 A 
ATOM     55  C   UNL A   1      42.435  29.697  32.302  1.00  0.00     0.034 A 
ATOM     56  C   UNL A   1      43.998  24.467  29.038  1.00  0.00     0.049 A 
ATOM     57  C   UNL A   1      43.153  28.496  32.880  1.00  0.00     0.074 A 
ATOM     58  C   UNL A   1      45.096  25.295  28.865  1.00  0.00     0.029 A 
ATOM     59  N   UNL A   1      43.746  24.434  30.404  1.00  0.00    -0.354 N 
ATOM     60  N   UNL A   1      43.521  27.450  32.190  1.00  0.00    -0.248 NA
ATOM     61  C   UNL A   1      43.505  28.384  34.289  1.00  0.00     0.031 C 
ATOM     62  C   UNL A   1      45.481  25.787  30.140  1.00  0.00     0.029 A 
ATOM     63  C   UNL A   1      44.639  25.236  31.090  1.00  0.00     0.049 A 
ATOM     64  H   UNL A   1      43.027  23.911  30.827  1.00  0.00     0.167 HD
ATOM     65  C   UNL A   1      44.132  26.536  33.018  1.00  0.00     0.074 A 
ATOM     66  C   UNL A   1      44.110  27.184  34.318  1.00  0.00     0.031 C 
ATOM     67  C   UNL A   1      44.586  25.331  32.545  1.00  0.00     0.034 A 
BRANCH  54  68
ATOM     68  C   UNL A   1      43.358  22.918  27.029  1.00  0.00     0.023 A 
ATOM     69  C   UNL A   1      42.773  21.636  27.062  1.00  0.00     0.031 A 
ATOM     70  C   UNL A   1      44.268  23.145  25.979  1.00  0.00     0.131 A 
ATOM     71  C   UNL A   1      43.170  20.624  26.170  1.00  0.00     0.055 A 
ATOM     72  C   UNL A   1      44.706  22.124  25.123  1.00  0.00     0.041 A 
ATOM     73  F   UNL A   1      44.741  24.372  25.716  1.00  0.00    -0.206 F 
ATOM     74  C   UNL A   1      44.166  20.849  25.226  1.00  0.00     0.022 A 
BRANCH  71  75
ATOM     75  S   UNL A   1      42.358  19.005  26.265  1.00  0.00     0.124 S 
ATOM     76  O   UNL A   1      43.216  18.179  25.422  1.00  0.00    -0.237 OA
ATOM     77  O   UNL A   1      42.397  18.723  27.696  1.00  0.00    -0.237 OA
ATOM     78  O   UNL A   1      41.025  19.263  25.724  1.00  0.00    -0.744 OA
ENDBRANCH  71  75
ENDBRANCH  54  68
BRANCH  55  79
ATOM     79  C   UNL A   1      41.189  30.316  32.844  1.00  0.00     0.023 A 
ATOM     80  C   UNL A   1      41.104  31.727  32.823  1.00  0.00     0.031 A 
ATOM     81  C   UNL A   1      39.996  29.591  32.975  1.00  0.00     0.131 A 
ATOM     82  C   UNL A   1      39.856  32.361  32.754  1.00  0.00     0.055 A 
ATOM     83  C   UNL A   1      38.751  30.235  32.974  1.00  0.00     0.041 A 
ATOM     84  F   UNL A   1      40.007  28.250  32.971  1.00  0.00    -0.206 F 
ATOM     85  C   UNL A   1      38.676  31.619  32.815  1.00  0.00     0.022 A 
BRANCH  82  86
ATOM     86  S   UNL A   1      39.773  34.122  32.306  1.00  0.00     0.124 S 
ATOM     87  O   UNL A   1      38.708  34.610  33.173  1.00  0.00    -0.237 OA
ATOM     88  O   UNL A   1      41.115  34.608  32.616  1.00  0.00    -0.237 OA
ATOM     89  O   UNL A   1      39.462  34.090  30.877  1.00  0.00    -0.744 OA
ENDBRANCH  82  86
ENDBRANCH  55  79
BRANCH  67  90
ATOM     90  C   UNL A   1      45.096  24.148  33.362  1.00  0.00     0.023 A 
ATOM     91  C   UNL A   1      46.383  24.063  33.906  1.00  0.00     0.031 A 
ATOM     92  C   UNL A   1      44.250  23.045  33.668  1.00  0.00     0.131 A 
ATOM     93  C   UNL A   1      46.805  22.941  34.649  1.00  0.00     0.055 A 
ATOM     94  C   UNL A   1      44.649  21.958  34.455  1.00  0.00     0.041 A 
ATOM     95  F   UNL A   1      42.986  22.971  33.228  1.00  0.00    -0.206 F 
ATOM     96  C   UNL A   1      45.939  21.894  34.945  1.00  0.00     0.022 A 
BRANCH  93  97
ATOM     97  S   UNL A   1      48.536  22.868  35.178  1.00  0.00     0.124 S 
ATOM     98  O   UNL A   1      48.970  21.592  34.615  1.00  0.00    -0.237 OA
ATOM     99  O   UNL A   1      49.102  24.059  34.553  1.00  0.00    -0.237 OA
ATOM    100  O   UNL A   1      48.455  22.909  36.636  1.00  0.00    -0.744 OA
ENDBRANCH  93  97
ENDBRANCH  67  90
ENDBRANCH  41  42
ENDBRANCH  33  36
ENDBRANCH  31  32
ENDBRANCH  30  31
ENDBRANCH  29  30
ENDBRANCH   1  29
TORSDOF 20
ENDMDL
MODEL 3
REMARK VINA RESULT:     -12.6      3.906     10.142
REMARK SMILES COC(=O)c1ccc(C)c(NC(=O)[C@H]2CC=CC[C@H]2C(=O)NCCCCCCNC(=O)c2ccc(-c3c4nc(c(-c5cc(S(=O)(=O)[O-])ccc5F)c5ccc([nH]5)c(-c5cc(S(=O)(=O)[O-])ccc5F)c5nc(c(-c6cc(S(=O)(=O)[O-])ccc6F)c6ccc3[nH]6)C=C5)C=C4)cc2)c1
REMARK SMILES IDX 25 1 24 2 23 3 22 4 20 5 21 6 19 8 14 9 15 10 16 11 18 12
REMARK SMILES IDX 17 13 12 14 11 15 13 17 10 18 5 19 6 20 95 21 7 22 8 23 9 24
REMARK SMILES IDX 3 25 4 26 2 27 1 28 26 29 27 30 28 31 29 32 30 33 31 35
REMARK SMILES IDX 32 36 33 37 94 38 34 39 93 40 35 41 36 42 37 43 87 44 38 45
REMARK SMILES IDX 92 46 86 47 88 48 39 49 91 50 85 51 84 52 40 54 72 55 52 56
REMARK SMILES IDX 71 57 53 58 56 59 70 60 89 61 54 62 55 63 69 65 90 66 57 67
REMARK SMILES IDX 41 68 42 69 50 70 43 71 49 72 51 73 48 74 44 75 45 76 46 77
REMARK SMILES IDX 47 78 73 79 74 80 82 81 75 82 81 83 83 84 80 85 76 86 77 87
REMARK SMILES IDX 78 88 79 89 58 90 59 91 67 92 60 93 66 94 68 95 65 96 61 97
REMARK SMILES IDX 62 98 63 99 64 100
REMARK H PARENT 22 7 11 16 29 34 88 53 56 64
REMARK Flexibility Score: inf
ROOT
ATOM      1  C   UNL A   1      32.399  28.563  26.995  1.00  0.00     0.002 C 
ENDROOT
BRANCH   1   2
ATOM      2  C   UNL A   1      31.244  27.558  26.922  1.00  0.00     0.021 C 
BRANCH   2   3
ATOM      3  C   UNL A   1      31.528  26.296  26.110  1.00  0.00     0.116 C 
BRANCH   3   4
ATOM      4  N   UNL A   1      32.945  26.060  25.908  1.00  0.00    -0.356 N 
ATOM      5  C   UNL A   1      33.612  24.995  25.390  1.00  0.00     0.224 C 
ATOM      6  O   UNL A   1      34.842  25.069  25.303  1.00  0.00    -0.275 OA
ATOM      7  H   UNL A   1      33.525  26.801  26.197  1.00  0.00     0.163 HD
BRANCH   5   8
ATOM      8  C   UNL A   1      32.905  23.738  24.886  1.00  0.00     0.095 C 
ATOM      9  C   UNL A   1      32.199  23.856  23.501  1.00  0.00     0.095 C 
ATOM     10  C   UNL A   1      31.565  22.509  23.136  1.00  0.00     0.041 C 
ATOM     11  C   UNL A   1      32.451  21.321  23.332  1.00  0.00    -0.030 C 
ATOM     12  C   UNL A   1      33.716  22.454  25.156  1.00  0.00     0.041 C 
ATOM     13  C   UNL A   1      33.423  21.300  24.249  1.00  0.00    -0.030 C 
BRANCH   9  14
ATOM     14  C   UNL A   1      32.981  24.672  22.454  1.00  0.00     0.228 C 
ATOM     15  N   UNL A   1      32.499  25.806  21.876  1.00  0.00    -0.326 N 
ATOM     16  H   UNL A   1      32.530  25.811  20.891  1.00  0.00     0.169 HD
ATOM     17  O   UNL A   1      34.028  24.211  21.989  1.00  0.00    -0.274 OA
BRANCH  15  18
ATOM     18  C   UNL A   1      31.966  26.966  22.453  1.00  0.00     0.044 A 
ATOM     19  C   UNL A   1      29.929  28.148  23.056  1.00  0.00     0.062 A 
ATOM     20  C   UNL A   1      30.692  29.174  23.617  1.00  0.00     0.016 A 
ATOM     21  C   UNL A   1      30.572  27.048  22.477  1.00  0.00     0.042 A 
ATOM     22  C   UNL A   1      32.085  29.142  23.502  1.00  0.00     0.006 A 
ATOM     23  C   UNL A   1      32.734  28.067  22.866  1.00  0.00    -0.027 A 
ATOM     24  C   UNL A   1      34.196  28.203  22.527  1.00  0.00     0.046 C 
BRANCH  19  25
ATOM     25  C   UNL A   1      28.447  28.212  23.128  1.00  0.00     0.337 C 
ATOM     26  O   UNL A   1      27.753  27.420  23.749  1.00  0.00    -0.246 OA
BRANCH  25  27
ATOM     27  O   UNL A   1      28.014  29.249  22.372  1.00  0.00    -0.465 OA
ATOM     28  C   UNL A   1      27.656  30.442  23.068  1.00  0.00     0.282 C 
ENDBRANCH  25  27
ENDBRANCH  19  25
ENDBRANCH  15  18
ENDBRANCH   9  14
ENDBRANCH   5   8
ENDBRANCH   3   4
ENDBRANCH   2   3
ENDBRANCH   1   2
BRANCH   1  29
ATOM     29  C   UNL A   1      32.008  30.043  27.106  1.00  0.00     0.002 C 
BRANCH  29  30
ATOM     30  C   UNL A   1      33.168  31.027  27.237  1.00  0.00     0.021 C 
BRANCH  30  31
ATOM     31  C   UNL A   1      34.463  30.416  27.762  1.00  0.00     0.116 C 
BRANCH  31  32
ATOM     32  N   UNL A   1      35.278  31.351  28.527  1.00  0.00    -0.352 N 
ATOM     33  C   UNL A   1      36.488  31.133  29.161  1.00  0.00     0.251 C 
ATOM     34  H   UNL A   1      34.918  32.264  28.603  1.00  0.00     0.163 HD
ATOM     35  O   UNL A   1      37.005  31.980  29.884  1.00  0.00    -0.269 OA
BRANCH  33  36
ATOM     36  C   UNL A   1      37.252  29.916  28.810  1.00  0.00     0.039 A 
ATOM     37  C   UNL A   1      37.385  28.954  29.819  1.00  0.00     0.014 A 
ATOM     38  C   UNL A   1      38.046  29.865  27.668  1.00  0.00     0.014 A 
ATOM     39  C   UNL A   1      38.485  28.105  29.807  1.00  0.00     0.010 A 
ATOM     40  C   UNL A   1      39.189  29.092  27.701  1.00  0.00     0.010 A 
ATOM     41  C   UNL A   1      39.439  28.270  28.806  1.00  0.00    -0.014 A 
BRANCH  41  42
ATOM     42  C   UNL A   1      40.785  27.726  28.908  1.00  0.00     0.031 A 
ATOM     43  C   UNL A   1      41.066  26.351  28.468  1.00  0.00     0.074 A 
ATOM     44  C   UNL A   1      41.783  28.505  29.377  1.00  0.00     0.049 A 
ATOM     45  N   UNL A   1      42.025  25.628  28.933  1.00  0.00    -0.248 NA
ATOM     46  C   UNL A   1      40.243  25.657  27.485  1.00  0.00     0.031 C 
ATOM     47  C   UNL A   1      43.217  28.237  29.345  1.00  0.00     0.029 A 
ATOM     48  N   UNL A   1      41.657  29.613  30.213  1.00  0.00    -0.354 N 
ATOM     49  C   UNL A   1      42.135  24.519  28.129  1.00  0.00     0.074 A 
ATOM     50  C   UNL A   1      40.958  24.546  27.290  1.00  0.00     0.031 C 
ATOM     51  C   UNL A   1      43.816  28.967  30.299  1.00  0.00     0.029 A 
ATOM     52  C   UNL A   1      42.770  29.614  31.070  1.00  0.00     0.049 A 
ATOM     53  H   UNL A   1      40.925  30.271  30.204  1.00  0.00     0.167 HD
ATOM     54  C   UNL A   1      43.280  23.783  28.159  1.00  0.00     0.034 A 
ATOM     55  C   UNL A   1      42.611  29.507  32.420  1.00  0.00     0.034 A 
ATOM     56  C   UNL A   1      44.227  24.302  29.142  1.00  0.00     0.049 A 
ATOM     57  C   UNL A   1      43.277  28.282  33.010  1.00  0.00     0.074 A 
ATOM     58  C   UNL A   1      45.348  25.111  29.036  1.00  0.00     0.029 A 
ATOM     59  N   UNL A   1      43.909  24.252  30.493  1.00  0.00    -0.354 N 
ATOM     60  N   UNL A   1      43.658  27.241  32.319  1.00  0.00    -0.248 NA
ATOM     61  C   UNL A   1      43.559  28.139  34.432  1.00  0.00     0.031 C 
ATOM     62  C   UNL A   1      45.682  25.573  30.336  1.00  0.00     0.029 A 
ATOM     63  C   UNL A   1      44.784  25.024  31.235  1.00  0.00     0.049 A 
ATOM     64  H   UNL A   1      43.162  23.736  30.873  1.00  0.00     0.167 HD
ATOM     65  C   UNL A   1      44.211  26.301  33.159  1.00  0.00     0.074 A 
ATOM     66  C   UNL A   1      44.139  26.928  34.469  1.00  0.00     0.031 C 
ATOM     67  C   UNL A   1      44.664  25.095  32.687  1.00  0.00     0.034 A 
BRANCH  54  68
ATOM     68  C   UNL A   1      43.654  22.801  27.077  1.00  0.00     0.023 A 
ATOM     69  C   UNL A   1      43.012  21.547  27.033  1.00  0.00     0.031 A 
ATOM     70  C   UNL A   1      44.647  23.010  26.102  1.00  0.00     0.131 A 
ATOM     71  C   UNL A   1      43.426  20.539  26.144  1.00  0.00     0.055 A 
ATOM     72  C   UNL A   1      45.099  21.991  25.251  1.00  0.00     0.041 A 
ATOM     73  F   UNL A   1      45.193  24.219  25.906  1.00  0.00    -0.206 F 
ATOM     74  C   UNL A   1      44.497  20.741  25.279  1.00  0.00     0.022 A 
BRANCH  71  75
ATOM     75  S   UNL A   1      42.537  18.958  26.136  1.00  0.00     0.124 S 
ATOM     76  O   UNL A   1      42.442  18.650  27.559  1.00  0.00    -0.237 OA
ATOM     77  O   UNL A   1      41.290  19.309  25.467  1.00  0.00    -0.237 OA
ATOM     78  O   UNL A   1      43.420  18.078  25.372  1.00  0.00    -0.744 OA
ENDBRANCH  71  75
ENDBRANCH  54  68
BRANCH  55  79
ATOM     79  C   UNL A   1      41.352  30.142  32.914  1.00  0.00     0.023 A 
ATOM     80  C   UNL A   1      41.316  31.554  32.964  1.00  0.00     0.031 A 
ATOM     81  C   UNL A   1      40.131  29.454  32.927  1.00  0.00     0.131 A 
ATOM     82  C   UNL A   1      40.096  32.236  32.848  1.00  0.00     0.055 A 
ATOM     83  C   UNL A   1      38.910  30.142  32.881  1.00  0.00     0.041 A 
ATOM     84  F   UNL A   1      40.098  28.116  32.851  1.00  0.00    -0.206 F 
ATOM     85  C   UNL A   1      38.891  31.535  32.792  1.00  0.00     0.022 A 
BRANCH  82  86
ATOM     86  S   UNL A   1      40.101  34.020  32.492  1.00  0.00     0.124 S 
ATOM     87  O   UNL A   1      39.976  34.043  31.040  1.00  0.00    -0.237 OA
ATOM     88  O   UNL A   1      38.944  34.511  33.235  1.00  0.00    -0.237 OA
ATOM     89  O   UNL A   1      41.389  34.463  33.024  1.00  0.00    -0.744 OA
ENDBRANCH  82  86
ENDBRANCH  55  79
BRANCH  67  90
ATOM     90  C   UNL A   1      45.111  23.888  33.507  1.00  0.00     0.023 A 
ATOM     91  C   UNL A   1      46.427  23.669  33.931  1.00  0.00     0.031 A 
ATOM     92  C   UNL A   1      44.178  22.907  33.941  1.00  0.00     0.131 A 
ATOM     93  C   UNL A   1      46.787  22.530  34.682  1.00  0.00     0.055 A 
ATOM     94  C   UNL A   1      44.523  21.807  34.736  1.00  0.00     0.041 A 
ATOM     95  F   UNL A   1      42.876  22.969  33.625  1.00  0.00    -0.206 F 
ATOM     96  C   UNL A   1      45.839  21.606  35.106  1.00  0.00     0.022 A 
BRANCH  93  97
ATOM     97  S   UNL A   1      48.541  22.269  35.049  1.00  0.00     0.124 S 
ATOM     98  O   UNL A   1      49.167  23.383  34.342  1.00  0.00    -0.237 OA
ATOM     99  O   UNL A   1      48.569  22.351  36.506  1.00  0.00    -0.237 OA
ATOM    100  O   UNL A   1      48.819  20.946  34.495  1.00  0.00    -0.744 OA
ENDBRANCH  93  97
ENDBRANCH  67  90
ENDBRANCH  41  42
ENDBRANCH  33  36
ENDBRANCH  31  32
ENDBRANCH  30  31
ENDBRANCH  29  30
ENDBRANCH   1  29
TORSDOF 20
ENDMDL
