MODEL 1
REMARK VINA RESULT:     -11.6      0.000      0.000
REMARK SMILES O=C(NCCCCCCNC(=O)c1ccc(S(=O)(=O)Cc2ncccn2)c(F)c1)c1ccc(-c2c3nc(c(-c4cc(S(=O)(=O)[O-])ccc4F)c4ccc([nH]4)c(-c4cc(S(=O)(=O)[O-])ccc4F)c4nc(c(-c5cc(S(=O)(=O)[O-])ccc5F)c5ccc2[nH]5)C=C4)C=C3)cc1
REMARK SMILES IDX 6 1 5 2 4 3 3 4 1 5 2 6 30 8 31 9 92 10 32 11 91 12 33 13
REMARK SMILES IDX 34 14 35 15 85 16 36 17 90 18 84 19 86 20 37 21 89 22 83 23
REMARK SMILES IDX 82 24 38 26 70 27 50 28 69 29 51 30 54 31 68 32 87 33 52 34
REMARK SMILES IDX 53 35 67 37 88 38 55 39 39 40 40 41 48 42 41 43 47 44 49 45
REMARK SMILES IDX 46 46 42 47 43 48 44 49 45 50 71 51 72 52 80 53 73 54 79 55
REMARK SMILES IDX 81 56 78 57 74 58 75 59 76 60 77 61 56 62 57 63 65 64 58 65
REMARK SMILES IDX 64 66 66 67 63 68 59 69 60 70 61 71 62 72 7 73 8 74 9 75
REMARK SMILES IDX 10 76 11 77 12 79 13 80 14 81 29 82 15 83 27 84 16 85 28 86
REMARK SMILES IDX 17 87 18 88 19 89 20 90 21 91 22 92 26 93 23 94 25 95 24 96
REMARK H PARENT 3 7 86 25 54 36 10 78
REMARK Flexibility Score: inf
ROOT
ATOM      1  C   UNL A   1      31.423  28.003  25.366  1.00  0.00     0.002 C 
ENDROOT
BRANCH   1   2
ATOM      2  C   UNL A   1      31.545  29.209  26.297  1.00  0.00     0.021 C 
BRANCH   2   3
ATOM      3  C   UNL A   1      32.796  30.054  26.095  1.00  0.00     0.116 C 
BRANCH   3   4
ATOM      4  N   UNL A   1      32.576  31.451  26.430  1.00  0.00    -0.352 N 
ATOM      5  O   UNL A   1      32.835  33.348  27.618  1.00  0.00    -0.269 OA
ATOM      6  C   UNL A   1      33.262  32.234  27.325  1.00  0.00     0.251 C 
ATOM      7  H   UNL A   1      31.839  31.893  25.952  1.00  0.00     0.163 HD
BRANCH   6   8
ATOM      8  C   UNL A   1      34.508  31.728  27.941  1.00  0.00     0.039 A 
ATOM      9  C   UNL A   1      35.593  32.582  28.155  1.00  0.00     0.014 A 
ATOM     10  C   UNL A   1      34.575  30.389  28.339  1.00  0.00     0.014 A 
ATOM     11  C   UNL A   1      36.777  32.079  28.683  1.00  0.00     0.010 A 
ATOM     12  C   UNL A   1      35.741  29.901  28.937  1.00  0.00     0.010 A 
ATOM     13  C   UNL A   1      36.849  30.743  29.111  1.00  0.00    -0.014 A 
BRANCH  13  14
ATOM     14  C   UNL A   1      38.044  30.286  29.860  1.00  0.00     0.031 A 
ATOM     15  C   UNL A   1      39.076  29.399  29.230  1.00  0.00     0.074 A 
ATOM     16  C   UNL A   1      38.192  30.710  31.130  1.00  0.00     0.049 A 
ATOM     17  N   UNL A   1      40.168  28.907  29.758  1.00  0.00    -0.248 NA
ATOM     18  C   UNL A   1      38.852  29.010  27.832  1.00  0.00     0.031 C 
ATOM     19  C   UNL A   1      37.255  31.590  31.833  1.00  0.00     0.029 A 
ATOM     20  N   UNL A   1      39.188  30.488  32.043  1.00  0.00    -0.354 N 
ATOM     21  C   UNL A   1      40.767  28.149  28.759  1.00  0.00     0.074 A 
ATOM     22  C   UNL A   1      39.894  28.221  27.604  1.00  0.00     0.031 C 
ATOM     23  C   UNL A   1      37.752  31.882  33.043  1.00  0.00     0.029 A 
ATOM     24  C   UNL A   1      39.002  31.155  33.228  1.00  0.00     0.049 A 
ATOM     25  H   UNL A   1      39.964  29.906  31.866  1.00  0.00     0.167 HD
ATOM     26  C   UNL A   1      41.937  27.464  28.805  1.00  0.00     0.034 A 
ATOM     27  C   UNL A   1      39.744  31.175  34.350  1.00  0.00     0.034 A 
ATOM     28  C   UNL A   1      42.780  27.390  29.977  1.00  0.00     0.049 A 
ATOM     29  C   UNL A   1      40.996  30.354  34.405  1.00  0.00     0.074 A 
ATOM     30  C   UNL A   1      43.975  26.707  30.140  1.00  0.00     0.029 A 
ATOM     31  N   UNL A   1      42.518  28.015  31.191  1.00  0.00    -0.354 N 
ATOM     32  N   UNL A   1      41.521  29.593  33.473  1.00  0.00    -0.248 NA
ATOM     33  C   UNL A   1      41.751  30.384  35.662  1.00  0.00     0.031 C 
ATOM     34  C   UNL A   1      44.401  26.872  31.463  1.00  0.00     0.029 A 
ATOM     35  C   UNL A   1      43.514  27.718  32.110  1.00  0.00     0.049 A 
ATOM     36  H   UNL A   1      41.737  28.587  31.373  1.00  0.00     0.167 HD
ATOM     37  C   UNL A   1      42.680  29.065  34.025  1.00  0.00     0.074 A 
ATOM     38  C   UNL A   1      42.778  29.595  35.372  1.00  0.00     0.031 C 
ATOM     39  C   UNL A   1      43.586  28.227  33.461  1.00  0.00     0.034 A 
BRANCH  26  40
ATOM     40  C   UNL A   1      42.346  26.706  27.566  1.00  0.00     0.023 A 
ATOM     41  C   UNL A   1      42.053  25.340  27.407  1.00  0.00     0.031 A 
ATOM     42  C   UNL A   1      43.052  27.353  26.536  1.00  0.00     0.131 A 
ATOM     43  C   UNL A   1      42.517  24.651  26.275  1.00  0.00     0.055 A 
ATOM     44  C   UNL A   1      43.449  26.679  25.379  1.00  0.00     0.041 A 
ATOM     45  F   UNL A   1      43.379  28.651  26.642  1.00  0.00    -0.206 F 
ATOM     46  C   UNL A   1      43.193  25.318  25.248  1.00  0.00     0.022 A 
BRANCH  43  47
ATOM     47  S   UNL A   1      42.330  22.849  26.216  1.00  0.00     0.124 S 
ATOM     48  O   UNL A   1      43.242  22.422  27.274  1.00  0.00    -0.237 OA
ATOM     49  O   UNL A   1      40.909  22.669  26.488  1.00  0.00    -0.237 OA
ATOM     50  O   UNL A   1      42.754  22.504  24.861  1.00  0.00    -0.744 OA
ENDBRANCH  43  47
ENDBRANCH  26  40
BRANCH  27  51
ATOM     51  C   UNL A   1      39.296  32.003  35.498  1.00  0.00     0.023 A 
ATOM     52  C   UNL A   1      38.473  31.461  36.495  1.00  0.00     0.031 A 
ATOM     53  C   UNL A   1      39.760  33.321  35.657  1.00  0.00     0.131 A 
ATOM     54  C   UNL A   1      38.138  32.236  37.615  1.00  0.00     0.055 A 
ATOM     55  C   UNL A   1      39.449  34.077  36.786  1.00  0.00     0.041 A 
ATOM     56  F   UNL A   1      40.569  33.870  34.736  1.00  0.00    -0.206 F 
ATOM     57  C   UNL A   1      38.633  33.534  37.774  1.00  0.00     0.022 A 
BRANCH  54  58
ATOM     58  S   UNL A   1      37.063  31.515  38.885  1.00  0.00     0.124 S 
ATOM     59  O   UNL A   1      35.842  32.295  38.716  1.00  0.00    -0.237 OA
ATOM     60  O   UNL A   1      36.995  30.117  38.475  1.00  0.00    -0.237 OA
ATOM     61  O   UNL A   1      37.794  31.758  40.127  1.00  0.00    -0.744 OA
ENDBRANCH  54  58
ENDBRANCH  27  51
BRANCH  39  62
ATOM     62  C   UNL A   1      44.786  27.862  34.293  1.00  0.00     0.023 A 
ATOM     63  C   UNL A   1      44.785  26.742  35.142  1.00  0.00     0.031 A 
ATOM     64  C   UNL A   1      45.950  28.648  34.228  1.00  0.00     0.131 A 
ATOM     65  C   UNL A   1      45.916  26.462  35.923  1.00  0.00     0.055 A 
ATOM     66  C   UNL A   1      47.088  28.336  34.972  1.00  0.00     0.041 A 
ATOM     67  F   UNL A   1      46.000  29.731  33.435  1.00  0.00    -0.206 F 
ATOM     68  C   UNL A   1      47.072  27.242  35.832  1.00  0.00     0.022 A 
BRANCH  65  69
ATOM     69  S   UNL A   1      45.841  25.090  37.108  1.00  0.00     0.124 S 
ATOM     70  O   UNL A   1      47.214  25.041  37.600  1.00  0.00    -0.237 OA
ATOM     71  O   UNL A   1      44.839  25.552  38.064  1.00  0.00    -0.237 OA
ATOM     72  O   UNL A   1      45.434  23.950  36.289  1.00  0.00    -0.744 OA
ENDBRANCH  65  69
ENDBRANCH  39  62
ENDBRANCH  13  14
ENDBRANCH   6   8
ENDBRANCH   3   4
ENDBRANCH   2   3
ENDBRANCH   1   2
BRANCH   1  73
ATOM     73  C   UNL A   1      30.443  28.165  24.200  1.00  0.00     0.002 C 
BRANCH  73  74
ATOM     74  C   UNL A   1      31.066  28.580  22.862  1.00  0.00     0.021 C 
BRANCH  74  75
ATOM     75  C   UNL A   1      32.558  28.283  22.719  1.00  0.00     0.116 C 
BRANCH  75  76
ATOM     76  N   UNL A   1      32.836  27.442  21.565  1.00  0.00    -0.352 N 
ATOM     77  C   UNL A   1      32.934  26.077  21.503  1.00  0.00     0.251 C 
ATOM     78  H   UNL A   1      32.971  27.917  20.714  1.00  0.00     0.163 HD
ATOM     79  O   UNL A   1      33.314  25.508  20.486  1.00  0.00    -0.269 OA
BRANCH  77  80
ATOM     80  C   UNL A   1      32.591  25.281  22.691  1.00  0.00     0.042 A 
ATOM     81  C   UNL A   1      31.322  24.703  22.812  1.00  0.00     0.015 A 
ATOM     82  C   UNL A   1      33.546  25.129  23.698  1.00  0.00     0.054 A 
ATOM     83  C   UNL A   1      31.000  23.991  23.967  1.00  0.00     0.024 A 
ATOM     84  C   UNL A   1      33.205  24.441  24.858  1.00  0.00     0.142 A 
ATOM     85  C   UNL A   1      31.948  23.866  24.994  1.00  0.00     0.103 A 
ATOM     86  F   UNL A   1      34.100  24.396  25.850  1.00  0.00    -0.206 F 
BRANCH  85  87
ATOM     87  S   UNL A   1      31.461  23.060  26.487  1.00  0.00     0.188 S 
ATOM     88  O   UNL A   1      31.392  24.130  27.470  1.00  0.00    -0.223 OA
ATOM     89  O   UNL A   1      30.250  22.315  26.181  1.00  0.00    -0.223 OA
BRANCH  87  90
ATOM     90  C   UNL A   1      32.691  21.935  27.048  1.00  0.00     0.219 C 
BRANCH  90  91
ATOM     91  C   UNL A   1      33.073  20.957  25.991  1.00  0.00     0.143 A 
ATOM     92  N   UNL A   1      34.387  20.872  25.695  1.00  0.00    -0.240 NA
ATOM     93  N   UNL A   1      32.148  20.123  25.487  1.00  0.00    -0.240 NA
ATOM     94  C   UNL A   1      34.762  19.924  24.817  1.00  0.00     0.115 A 
ATOM     95  C   UNL A   1      32.572  19.190  24.614  1.00  0.00     0.115 A 
ATOM     96  C   UNL A   1      33.884  19.044  24.238  1.00  0.00     0.040 A 
ENDBRANCH  90  91
ENDBRANCH  87  90
ENDBRANCH  85  87
ENDBRANCH  77  80
ENDBRANCH  75  76
ENDBRANCH  74  75
ENDBRANCH  73  74
ENDBRANCH   1  73
TORSDOF 19
ENDMDL
MODEL 2
REMARK VINA RESULT:     -11.6      1.855      7.602
REMARK SMILES O=C(NCCCCCCNC(=O)c1ccc(S(=O)(=O)Cc2ncccn2)c(F)c1)c1ccc(-c2c3nc(c(-c4cc(S(=O)(=O)[O-])ccc4F)c4ccc([nH]4)c(-c4cc(S(=O)(=O)[O-])ccc4F)c4nc(c(-c5cc(S(=O)(=O)[O-])ccc5F)c5ccc2[nH]5)C=C4)C=C3)cc1
REMARK SMILES IDX 6 1 5 2 4 3 3 4 1 5 2 6 30 8 31 9 92 10 32 11 91 12 33 13
REMARK SMILES IDX 34 14 35 15 85 16 36 17 90 18 84 19 86 20 37 21 89 22 83 23
REMARK SMILES IDX 82 24 38 26 70 27 50 28 69 29 51 30 54 31 68 32 87 33 52 34
REMARK SMILES IDX 53 35 67 37 88 38 55 39 39 40 40 41 48 42 41 43 47 44 49 45
REMARK SMILES IDX 46 46 42 47 43 48 44 49 45 50 71 51 72 52 80 53 73 54 79 55
REMARK SMILES IDX 81 56 78 57 74 58 75 59 76 60 77 61 56 62 57 63 65 64 58 65
REMARK SMILES IDX 64 66 66 67 63 68 59 69 60 70 61 71 62 72 7 73 8 74 9 75
REMARK SMILES IDX 10 76 11 77 12 79 13 80 14 81 29 82 15 83 27 84 16 85 28 86
REMARK SMILES IDX 17 87 18 88 19 89 20 90 21 91 22 92 26 93 23 94 25 95 24 96
REMARK H PARENT 3 7 86 25 54 36 10 78
REMARK Flexibility Score: inf
ROOT
ATOM      1  C   UNL A   1      31.328  29.482  24.659  1.00  0.00     0.002 C 
ENDROOT
BRANCH   1   2
ATOM      2  C   UNL A   1      32.580  28.662  24.974  1.00  0.00     0.021 C 
BRANCH   2   3
ATOM      3  C   UNL A   1      33.631  29.384  25.806  1.00  0.00     0.116 C 
BRANCH   3   4
ATOM      4  N   UNL A   1      33.190  30.704  26.224  1.00  0.00    -0.352 N 
ATOM      5  O   UNL A   1      33.078  32.505  27.575  1.00  0.00    -0.269 OA
ATOM      6  C   UNL A   1      33.681  31.488  27.238  1.00  0.00     0.251 C 
ATOM      7  H   UNL A   1      32.440  31.085  25.714  1.00  0.00     0.163 HD
BRANCH   6   8
ATOM      8  C   UNL A   1      34.929  31.099  27.930  1.00  0.00     0.039 A 
ATOM      9  C   UNL A   1      35.988  32.004  28.047  1.00  0.00     0.014 A 
ATOM     10  C   UNL A   1      35.025  29.824  28.495  1.00  0.00     0.014 A 
ATOM     11  C   UNL A   1      37.176  31.605  28.651  1.00  0.00     0.010 A 
ATOM     12  C   UNL A   1      36.194  29.449  29.165  1.00  0.00     0.010 A 
ATOM     13  C   UNL A   1      37.276  30.336  29.245  1.00  0.00    -0.014 A 
BRANCH  13  14
ATOM     14  C   UNL A   1      38.471  30.011  30.061  1.00  0.00     0.031 A 
ATOM     15  C   UNL A   1      38.672  30.592  31.428  1.00  0.00     0.074 A 
ATOM     16  C   UNL A   1      39.373  29.153  29.545  1.00  0.00     0.049 A 
ATOM     17  N   UNL A   1      39.668  30.412  32.258  1.00  0.00    -0.248 NA
ATOM     18  C   UNL A   1      37.625  31.493  31.926  1.00  0.00     0.031 C 
ATOM     19  C   UNL A   1      39.265  28.517  28.229  1.00  0.00     0.029 A 
ATOM     20  N   UNL A   1      40.533  28.647  30.064  1.00  0.00    -0.354 N 
ATOM     21  C   UNL A   1      39.372  31.176  33.380  1.00  0.00     0.074 A 
ATOM     22  C   UNL A   1      38.117  31.848  33.106  1.00  0.00     0.031 C 
ATOM     23  C   UNL A   1      40.281  27.658  28.072  1.00  0.00     0.029 A 
ATOM     24  C   UNL A   1      41.150  27.738  29.240  1.00  0.00     0.049 A 
ATOM     25  H   UNL A   1      40.891  28.909  30.944  1.00  0.00     0.167 HD
ATOM     26  C   UNL A   1      40.082  31.298  34.530  1.00  0.00     0.034 A 
ATOM     27  C   UNL A   1      42.295  27.049  29.395  1.00  0.00     0.034 A 
ATOM     28  C   UNL A   1      41.343  30.634  34.772  1.00  0.00     0.049 A 
ATOM     29  C   UNL A   1      43.101  27.253  30.642  1.00  0.00     0.074 A 
ATOM     30  C   UNL A   1      42.156  30.704  35.891  1.00  0.00     0.029 A 
ATOM     31  N   UNL A   1      41.981  29.781  33.878  1.00  0.00    -0.354 N 
ATOM     32  N   UNL A   1      42.839  28.025  31.671  1.00  0.00    -0.248 NA
ATOM     33  C   UNL A   1      44.357  26.504  30.746  1.00  0.00     0.031 C 
ATOM     34  C   UNL A   1      43.306  29.943  35.651  1.00  0.00     0.029 A 
ATOM     35  C   UNL A   1      43.182  29.337  34.412  1.00  0.00     0.049 A 
ATOM     36  H   UNL A   1      41.630  29.528  32.993  1.00  0.00     0.167 HD
ATOM     37  C   UNL A   1      43.893  27.842  32.557  1.00  0.00     0.074 A 
ATOM     38  C   UNL A   1      44.794  26.887  31.940  1.00  0.00     0.031 C 
ATOM     39  C   UNL A   1      44.088  28.407  33.775  1.00  0.00     0.034 A 
BRANCH  26  40
ATOM     40  C   UNL A   1      39.530  32.218  35.592  1.00  0.00     0.023 A 
ATOM     41  C   UNL A   1      39.916  33.567  35.672  1.00  0.00     0.031 A 
ATOM     42  C   UNL A   1      38.617  31.736  36.547  1.00  0.00     0.131 A 
ATOM     43  C   UNL A   1      39.439  34.371  36.720  1.00  0.00     0.055 A 
ATOM     44  C   UNL A   1      38.090  32.559  37.545  1.00  0.00     0.041 A 
ATOM     45  F   UNL A   1      38.228  30.451  36.533  1.00  0.00    -0.206 F 
ATOM     46  C   UNL A   1      38.510  33.882  37.643  1.00  0.00     0.022 A 
BRANCH  43  47
ATOM     47  S   UNL A   1      40.140  36.030  36.931  1.00  0.00     0.124 S 
ATOM     48  O   UNL A   1      39.368  36.535  38.064  1.00  0.00    -0.237 OA
ATOM     49  O   UNL A   1      41.546  35.749  37.192  1.00  0.00    -0.237 OA
ATOM     50  O   UNL A   1      39.861  36.686  35.655  1.00  0.00    -0.744 OA
ENDBRANCH  43  47
ENDBRANCH  26  40
BRANCH  27  51
ATOM     51  C   UNL A   1      42.728  26.116  28.324  1.00  0.00     0.023 A 
ATOM     52  C   UNL A   1      42.136  24.852  28.192  1.00  0.00     0.031 A 
ATOM     53  C   UNL A   1      43.675  26.515  27.364  1.00  0.00     0.131 A 
ATOM     54  C   UNL A   1      42.498  24.026  27.118  1.00  0.00     0.055 A 
ATOM     55  C   UNL A   1      44.009  25.702  26.281  1.00  0.00     0.041 A 
ATOM     56  F   UNL A   1      44.247  27.727  27.440  1.00  0.00    -0.206 F 
ATOM     57  C   UNL A   1      43.418  24.449  26.154  1.00  0.00     0.022 A 
BRANCH  54  58
ATOM     58  S   UNL A   1      41.727  22.391  26.978  1.00  0.00     0.124 S 
ATOM     59  O   UNL A   1      42.007  22.050  25.588  1.00  0.00    -0.237 OA
ATOM     60  O   UNL A   1      42.447  21.622  27.987  1.00  0.00    -0.237 OA
ATOM     61  O   UNL A   1      40.322  22.650  27.287  1.00  0.00    -0.744 OA
ENDBRANCH  54  58
ENDBRANCH  27  51
BRANCH  39  62
ATOM     62  C   UNL A   1      45.310  27.972  34.540  1.00  0.00     0.023 A 
ATOM     63  C   UNL A   1      45.303  26.830  35.358  1.00  0.00     0.031 A 
ATOM     64  C   UNL A   1      46.500  28.714  34.441  1.00  0.00     0.131 A 
ATOM     65  C   UNL A   1      46.457  26.484  36.078  1.00  0.00     0.055 A 
ATOM     66  C   UNL A   1      47.658  28.338  35.121  1.00  0.00     0.041 A 
ATOM     67  F   UNL A   1      46.555  29.816  33.674  1.00  0.00    -0.206 F 
ATOM     68  C   UNL A   1      47.638  27.221  35.952  1.00  0.00     0.022 A 
BRANCH  65  69
ATOM     69  S   UNL A   1      46.383  25.084  37.229  1.00  0.00     0.124 S 
ATOM     70  O   UNL A   1      46.023  25.742  38.481  1.00  0.00    -0.237 OA
ATOM     71  O   UNL A   1      45.352  24.240  36.634  1.00  0.00    -0.237 OA
ATOM     72  O   UNL A   1      47.735  24.531  37.185  1.00  0.00    -0.744 OA
ENDBRANCH  65  69
ENDBRANCH  39  62
ENDBRANCH  13  14
ENDBRANCH   6   8
ENDBRANCH   3   4
ENDBRANCH   2   3
ENDBRANCH   1   2
BRANCH   1  73
ATOM     73  C   UNL A   1      30.398  28.887  23.598  1.00  0.00     0.002 C 
BRANCH  73  74
ATOM     74  C   UNL A   1      30.189  27.370  23.674  1.00  0.00     0.021 C 
BRANCH  74  75
ATOM     75  C   UNL A   1      30.540  26.600  22.401  1.00  0.00     0.116 C 
BRANCH  75  76
ATOM     76  N   UNL A   1      31.854  26.961  21.893  1.00  0.00    -0.352 N 
ATOM     77  C   UNL A   1      33.042  26.296  22.040  1.00  0.00     0.251 C 
ATOM     78  H   UNL A   1      31.896  27.797  21.375  1.00  0.00     0.163 HD
ATOM     79  O   UNL A   1      34.103  26.791  21.677  1.00  0.00    -0.269 OA
BRANCH  77  80
ATOM     80  C   UNL A   1      33.043  24.963  22.663  1.00  0.00     0.042 A 
ATOM     81  C   UNL A   1      32.885  23.815  21.877  1.00  0.00     0.015 A 
ATOM     82  C   UNL A   1      33.186  24.868  24.048  1.00  0.00     0.054 A 
ATOM     83  C   UNL A   1      32.842  22.564  22.491  1.00  0.00     0.024 A 
ATOM     84  C   UNL A   1      33.112  23.617  24.654  1.00  0.00     0.142 A 
ATOM     85  C   UNL A   1      32.951  22.471  23.887  1.00  0.00     0.103 A 
ATOM     86  F   UNL A   1      33.149  23.561  25.989  1.00  0.00    -0.206 F 
BRANCH  85  87
ATOM     87  S   UNL A   1      32.772  20.882  24.635  1.00  0.00     0.188 S 
ATOM     88  O   UNL A   1      34.091  20.582  25.169  1.00  0.00    -0.223 OA
ATOM     89  O   UNL A   1      31.652  20.982  25.558  1.00  0.00    -0.223 OA
BRANCH  87  90
ATOM     90  C   UNL A   1      32.414  19.640  23.443  1.00  0.00     0.219 C 
BRANCH  90  91
ATOM     91  C   UNL A   1      32.718  18.274  23.954  1.00  0.00     0.143 A 
ATOM     92  N   UNL A   1      33.733  17.618  23.352  1.00  0.00    -0.240 NA
ATOM     93  N   UNL A   1      32.088  17.814  25.047  1.00  0.00    -0.240 NA
ATOM     94  C   UNL A   1      34.088  16.426  23.866  1.00  0.00     0.115 A 
ATOM     95  C   UNL A   1      32.480  16.618  25.525  1.00  0.00     0.115 A 
ATOM     96  C   UNL A   1      33.487  15.870  24.967  1.00  0.00     0.040 A 
ENDBRANCH  90  91
ENDBRANCH  87  90
ENDBRANCH  85  87
ENDBRANCH  77  80
ENDBRANCH  75  76
ENDBRANCH  74  75
ENDBRANCH  73  74
ENDBRANCH   1  73
TORSDOF 19
ENDMDL
MODEL 3
REMARK VINA RESULT:     -11.6      2.787      7.763
REMARK SMILES O=C(NCCCCCCNC(=O)c1ccc(S(=O)(=O)Cc2ncccn2)c(F)c1)c1ccc(-c2c3nc(c(-c4cc(S(=O)(=O)[O-])ccc4F)c4ccc([nH]4)c(-c4cc(S(=O)(=O)[O-])ccc4F)c4nc(c(-c5cc(S(=O)(=O)[O-])ccc5F)c5ccc2[nH]5)C=C4)C=C3)cc1
REMARK SMILES IDX 6 1 5 2 4 3 3 4 1 5 2 6 30 8 31 9 92 10 32 11 91 12 33 13
REMARK SMILES IDX 34 14 35 15 85 16 36 17 90 18 84 19 86 20 37 21 89 22 83 23
REMARK SMILES IDX 82 24 38 26 70 27 50 28 69 29 51 30 54 31 68 32 87 33 52 34
REMARK SMILES IDX 53 35 67 37 88 38 55 39 39 40 40 41 48 42 41 43 47 44 49 45
REMARK SMILES IDX 46 46 42 47 43 48 44 49 45 50 71 51 72 52 80 53 73 54 79 55
REMARK SMILES IDX 81 56 78 57 74 58 75 59 76 60 77 61 56 62 57 63 65 64 58 65
REMARK SMILES IDX 64 66 66 67 63 68 59 69 60 70 61 71 62 72 7 73 8 74 9 75
REMARK SMILES IDX 10 76 11 77 12 79 13 80 14 81 29 82 15 83 27 84 16 85 28 86
REMARK SMILES IDX 17 87 18 88 19 89 20 90 21 91 22 92 26 93 23 94 25 95 24 96
REMARK H PARENT 3 7 86 25 54 36 10 78
REMARK Flexibility Score: inf
ROOT
ATOM      1  C   UNL A   1      31.447  28.080  26.802  1.00  0.00     0.002 C 
ENDROOT
BRANCH   1   2
ATOM      2  C   UNL A   1      32.913  27.995  27.227  1.00  0.00     0.021 C 
BRANCH   2   3
ATOM      3  C   UNL A   1      33.871  28.852  26.409  1.00  0.00     0.116 C 
BRANCH   3   4
ATOM      4  N   UNL A   1      33.789  30.259  26.762  1.00  0.00    -0.352 N 
ATOM      5  O   UNL A   1      34.296  32.123  27.924  1.00  0.00    -0.269 OA
ATOM      6  C   UNL A   1      34.609  30.982  27.593  1.00  0.00     0.251 C 
ATOM      7  H   UNL A   1      33.047  30.759  26.353  1.00  0.00     0.163 HD
BRANCH   6   8
ATOM      8  C   UNL A   1      35.863  30.378  28.095  1.00  0.00     0.039 A 
ATOM      9  C   UNL A   1      37.050  30.499  27.368  1.00  0.00     0.014 A 
ATOM     10  C   UNL A   1      35.853  29.712  29.324  1.00  0.00     0.014 A 
ATOM     11  C   UNL A   1      38.208  29.879  27.824  1.00  0.00     0.010 A 
ATOM     12  C   UNL A   1      37.035  29.151  29.817  1.00  0.00     0.010 A 
ATOM     13  C   UNL A   1      38.218  29.229  29.069  1.00  0.00    -0.014 A 
BRANCH  13  14
ATOM     14  C   UNL A   1      39.508  28.759  29.630  1.00  0.00     0.031 A 
ATOM     15  C   UNL A   1      40.099  29.371  30.864  1.00  0.00     0.074 A 
ATOM     16  C   UNL A   1      40.132  27.740  29.007  1.00  0.00     0.049 A 
ATOM     17  N   UNL A   1      41.222  29.076  31.469  1.00  0.00    -0.248 NA
ATOM     18  C   UNL A   1      39.337  30.454  31.498  1.00  0.00     0.031 C 
ATOM     19  C   UNL A   1      39.634  27.061  27.808  1.00  0.00     0.029 A 
ATOM     20  N   UNL A   1      41.295  27.081  29.303  1.00  0.00    -0.354 N 
ATOM     21  C   UNL A   1      41.306  29.936  32.557  1.00  0.00     0.074 A 
ATOM     22  C   UNL A   1      40.133  30.786  32.506  1.00  0.00     0.031 C 
ATOM     23  C   UNL A   1      40.452  26.043  27.509  1.00  0.00     0.029 A 
ATOM     24  C   UNL A   1      41.567  26.043  28.447  1.00  0.00     0.049 A 
ATOM     25  H   UNL A   1      41.879  27.328  30.057  1.00  0.00     0.167 HD
ATOM     26  C   UNL A   1      42.270  30.002  33.510  1.00  0.00     0.034 A 
ATOM     27  C   UNL A   1      42.605  25.187  28.407  1.00  0.00     0.034 A 
ATOM     28  C   UNL A   1      43.443  29.156  33.527  1.00  0.00     0.049 A 
ATOM     29  C   UNL A   1      43.696  25.324  29.426  1.00  0.00     0.074 A 
ATOM     30  C   UNL A   1      44.492  29.153  34.432  1.00  0.00     0.029 A 
ATOM     31  N   UNL A   1      43.728  28.166  32.594  1.00  0.00    -0.354 N 
ATOM     32  N   UNL A   1      43.793  26.181  30.416  1.00  0.00    -0.248 NA
ATOM     33  C   UNL A   1      44.820  24.388  29.319  1.00  0.00     0.031 C 
ATOM     34  C   UNL A   1      45.433  28.205  34.014  1.00  0.00     0.029 A 
ATOM     35  C   UNL A   1      44.941  27.562  32.890  1.00  0.00     0.049 A 
ATOM     36  H   UNL A   1      43.151  27.927  31.833  1.00  0.00     0.167 HD
ATOM     37  C   UNL A   1      44.983  25.877  31.063  1.00  0.00     0.074 A 
ATOM     38  C   UNL A   1      45.569  24.758  30.350  1.00  0.00     0.031 C 
ATOM     39  C   UNL A   1      45.532  26.466  32.155  1.00  0.00     0.034 A 
BRANCH  26  40
ATOM     40  C   UNL A   1      42.116  31.053  34.581  1.00  0.00     0.023 A 
ATOM     41  C   UNL A   1      42.643  32.347  34.426  1.00  0.00     0.031 A 
ATOM     42  C   UNL A   1      41.447  30.754  35.782  1.00  0.00     0.131 A 
ATOM     43  C   UNL A   1      42.546  33.274  35.476  1.00  0.00     0.055 A 
ATOM     44  C   UNL A   1      41.290  31.702  36.795  1.00  0.00     0.041 A 
ATOM     45  F   UNL A   1      40.941  29.529  35.995  1.00  0.00    -0.206 F 
ATOM     46  C   UNL A   1      41.852  32.968  36.651  1.00  0.00     0.022 A 
BRANCH  43  47
ATOM     47  S   UNL A   1      43.440  34.845  35.336  1.00  0.00     0.124 S 
ATOM     48  O   UNL A   1      43.706  35.160  36.738  1.00  0.00    -0.237 OA
ATOM     49  O   UNL A   1      44.600  34.478  34.533  1.00  0.00    -0.237 OA
ATOM     50  O   UNL A   1      42.480  35.729  34.677  1.00  0.00    -0.744 OA
ENDBRANCH  43  47
ENDBRANCH  26  40
BRANCH  27  51
ATOM     51  C   UNL A   1      42.640  24.142  27.354  1.00  0.00     0.023 A 
ATOM     52  C   UNL A   1      41.832  22.999  27.451  1.00  0.00     0.031 A 
ATOM     53  C   UNL A   1      43.415  24.317  26.194  1.00  0.00     0.131 A 
ATOM     54  C   UNL A   1      41.816  22.071  26.399  1.00  0.00     0.055 A 
ATOM     55  C   UNL A   1      43.372  23.407  25.139  1.00  0.00     0.041 A 
ATOM     56  F   UNL A   1      44.184  25.409  26.052  1.00  0.00    -0.206 F 
ATOM     57  C   UNL A   1      42.568  22.275  25.239  1.00  0.00     0.022 A 
BRANCH  54  58
ATOM     58  S   UNL A   1      40.772  20.596  26.554  1.00  0.00     0.124 S 
ATOM     59  O   UNL A   1      39.482  21.098  26.096  1.00  0.00    -0.237 OA
ATOM     60  O   UNL A   1      41.445  19.649  25.671  1.00  0.00    -0.237 OA
ATOM     61  O   UNL A   1      40.849  20.273  27.977  1.00  0.00    -0.744 OA
ENDBRANCH  54  58
ENDBRANCH  27  51
BRANCH  39  62
ATOM     62  C   UNL A   1      46.820  25.881  32.669  1.00  0.00     0.023 A 
ATOM     63  C   UNL A   1      46.835  24.846  33.619  1.00  0.00     0.031 A 
ATOM     64  C   UNL A   1      48.050  26.367  32.194  1.00  0.00     0.131 A 
ATOM     65  C   UNL A   1      48.061  24.356  34.094  1.00  0.00     0.055 A 
ATOM     66  C   UNL A   1      49.266  25.843  32.635  1.00  0.00     0.041 A 
ATOM     67  F   UNL A   1      48.089  27.358  31.289  1.00  0.00    -0.206 F 
ATOM     68  C   UNL A   1      49.276  24.837  33.596  1.00  0.00     0.022 A 
BRANCH  65  69
ATOM     69  S   UNL A   1      48.054  23.114  35.416  1.00  0.00     0.124 S 
ATOM     70  O   UNL A   1      47.051  23.651  36.329  1.00  0.00    -0.237 OA
ATOM     71  O   UNL A   1      47.680  21.896  34.704  1.00  0.00    -0.237 OA
ATOM     72  O   UNL A   1      49.426  23.138  35.918  1.00  0.00    -0.744 OA
ENDBRANCH  65  69
ENDBRANCH  39  62
ENDBRANCH  13  14
ENDBRANCH   6   8
ENDBRANCH   3   4
ENDBRANCH   2   3
ENDBRANCH   1   2
BRANCH   1  73
ATOM     73  C   UNL A   1      31.085  27.316  25.524  1.00  0.00     0.002 C 
BRANCH  73  74
ATOM     74  C   UNL A   1      30.773  28.183  24.299  1.00  0.00     0.021 C 
BRANCH  74  75
ATOM     75  C   UNL A   1      30.839  27.457  22.955  1.00  0.00     0.116 C 
BRANCH  75  76
ATOM     76  N   UNL A   1      32.045  27.794  22.214  1.00  0.00    -0.352 N 
ATOM     77  C   UNL A   1      33.261  27.164  22.225  1.00  0.00     0.251 C 
ATOM     78  H   UNL A   1      31.977  28.580  21.627  1.00  0.00     0.163 HD
ATOM     79  O   UNL A   1      34.235  27.644  21.656  1.00  0.00    -0.269 OA
BRANCH  77  80
ATOM     80  C   UNL A   1      33.402  25.892  22.951  1.00  0.00     0.042 A 
ATOM     81  C   UNL A   1      33.921  25.875  24.250  1.00  0.00     0.015 A 
ATOM     82  C   UNL A   1      33.025  24.709  22.314  1.00  0.00     0.054 A 
ATOM     83  C   UNL A   1      34.090  24.655  24.904  1.00  0.00     0.024 A 
ATOM     84  C   UNL A   1      33.226  23.495  22.964  1.00  0.00     0.142 A 
ATOM     85  C   UNL A   1      33.744  23.462  24.252  1.00  0.00     0.103 A 
ATOM     86  F   UNL A   1      32.954  22.370  22.295  1.00  0.00    -0.206 F 
BRANCH  85  87
ATOM     87  S   UNL A   1      34.085  21.934  25.067  1.00  0.00     0.188 S 
ATOM     88  O   UNL A   1      35.106  21.304  24.244  1.00  0.00    -0.223 OA
ATOM     89  O   UNL A   1      34.407  22.263  26.446  1.00  0.00    -0.223 OA
BRANCH  87  90
ATOM     90  C   UNL A   1      32.690  20.864  25.050  1.00  0.00     0.219 C 
BRANCH  90  91
ATOM     91  C   UNL A   1      32.970  19.596  24.319  1.00  0.00     0.143 A 
ATOM     92  N   UNL A   1      33.756  18.697  24.951  1.00  0.00    -0.240 NA
ATOM     93  N   UNL A   1      32.342  19.341  23.161  1.00  0.00    -0.240 NA
ATOM     94  C   UNL A   1      33.937  17.507  24.351  1.00  0.00     0.115 A 
ATOM     95  C   UNL A   1      32.553  18.134  22.599  1.00  0.00     0.115 A 
ATOM     96  C   UNL A   1      33.351  17.167  23.158  1.00  0.00     0.040 A 
ENDBRANCH  90  91
ENDBRANCH  87  90
ENDBRANCH  85  87
ENDBRANCH  77  80
ENDBRANCH  75  76
ENDBRANCH  74  75
ENDBRANCH  73  74
ENDBRANCH   1  73
TORSDOF 19
ENDMDL
