MODEL 1
REMARK VINA RESULT:     -11.6      0.000      0.000
REMARK SMILES Cc1cnc(S[C@H]2CC[C@@]([NH2+]C(C)C)(C(=O)NCCCCCCNC(=O)c3ccc(-c4c5nc(c(-c6cc(S(=O)(=O)[O-])ccc6F)c6ccc([nH]6)c(-c6cc(S(=O)(=O)[O-])ccc6F)c6nc(c(-c7cc(S(=O)(=O)[O-])ccc7F)c7ccc4[nH]7)C=C6)C=C5)cc3)C2)nc1
REMARK SMILES IDX 21 1 20 2 19 3 18 4 17 5 15 6 16 7 10 9 7 10 8 11 90 12 9 13
REMARK SMILES IDX 6 14 5 15 1 16 2 17 3 18 92 19 4 20 91 21 11 22 12 25 13 26
REMARK SMILES IDX 14 27 22 28 23 29 24 30 25 31 26 33 27 34 28 35 89 36 29 37
REMARK SMILES IDX 88 38 30 39 31 40 32 41 82 42 33 43 87 44 81 45 83 46 34 47
REMARK SMILES IDX 86 48 80 49 79 50 35 52 67 53 47 54 66 55 48 56 51 57 65 58
REMARK SMILES IDX 84 59 49 60 50 61 64 63 85 64 52 65 36 66 37 67 45 68 38 69
REMARK SMILES IDX 44 70 46 71 43 72 39 73 40 74 41 75 42 76 68 77 69 78 77 79
REMARK SMILES IDX 70 80 76 81 78 82 75 83 71 84 72 85 73 86 74 87 53 88 54 89
REMARK SMILES IDX 62 90 55 91 61 92 63 93 60 94 56 95 57 96 58 97 59 98
REMARK H PARENT 17 8 11 23 11 24 24 32 83 51 51 62
REMARK Flexibility Score: inf
ROOT
ATOM      1  C   UNL A   1      32.079  30.222  25.896  1.00  0.00     0.002 C 
ENDROOT
BRANCH   1   2
ATOM      2  C   UNL A   1      32.845  29.155  26.686  1.00  0.00     0.002 C 
BRANCH   2   3
ATOM      3  C   UNL A   1      33.804  28.294  25.855  1.00  0.00     0.021 C 
BRANCH   3   4
ATOM      4  C   UNL A   1      33.427  26.813  25.790  1.00  0.00     0.116 C 
BRANCH   4   5
ATOM      5  N   UNL A   1      33.958  26.185  24.594  1.00  0.00    -0.351 N 
ATOM      6  C   UNL A   1      33.321  25.516  23.589  1.00  0.00     0.281 C 
ATOM      7  O   UNL A   1      33.995  25.261  22.584  1.00  0.00    -0.268 OA
ATOM      8  H   UNL A   1      34.935  26.254  24.491  1.00  0.00     0.163 HD
BRANCH   6   9
ATOM      9  C   UNL A   1      31.780  25.219  23.657  1.00  0.00     0.176 C 
ATOM     10  C   UNL A   1      31.473  22.923  24.534  1.00  0.00     0.062 C 
ATOM     11  C   UNL A   1      30.807  23.872  25.518  1.00  0.00     0.022 C 
ATOM     12  C   UNL A   1      31.440  23.761  23.243  1.00  0.00     0.094 C 
ATOM     13  C   UNL A   1      31.265  25.276  25.124  1.00  0.00     0.080 C 
BRANCH  10  14
ATOM     14  S   UNL A   1      33.206  22.494  24.927  1.00  0.00    -0.083 SA
BRANCH  14  15
ATOM     15  C   UNL A   1      33.356  20.794  24.480  1.00  0.00     0.187 A 
ATOM     16  C   UNL A   1      33.821  16.668  23.854  1.00  0.00     0.048 C 
ATOM     17  C   UNL A   1      33.667  18.136  24.051  1.00  0.00    -0.014 A 
ATOM     18  C   UNL A   1      32.511  18.816  23.725  1.00  0.00     0.119 A 
ATOM     19  C   UNL A   1      34.661  18.916  24.592  1.00  0.00     0.119 A 
ATOM     20  N   UNL A   1      32.330  20.138  23.920  1.00  0.00    -0.231 NA
ATOM     21  N   UNL A   1      34.531  20.233  24.814  1.00  0.00    -0.231 NA
ENDBRANCH  14  15
ENDBRANCH  10  14
BRANCH   9  22
ATOM     22  N   UNL A   1      31.071  26.223  22.814  1.00  0.00    -0.332 N 
ATOM     23  H   UNL A   1      30.163  25.831  22.566  1.00  0.00     0.347 HD
ATOM     24  H   UNL A   1      31.693  26.394  22.024  1.00  0.00     0.347 HD
BRANCH  22  25
ATOM     25  C   UNL A   1      30.837  27.548  23.414  1.00  0.00     0.176 C 
ATOM     26  C   UNL A   1      31.606  28.679  22.731  1.00  0.00     0.075 C 
ATOM     27  C   UNL A   1      29.333  27.834  23.333  1.00  0.00     0.075 C 
ENDBRANCH  22  25
ENDBRANCH   9  22
ENDBRANCH   6   9
ENDBRANCH   4   5
ENDBRANCH   3   4
ENDBRANCH   2   3
ENDBRANCH   1   2
BRANCH   1  28
ATOM     28  C   UNL A   1      31.716  31.479  26.688  1.00  0.00     0.021 C 
BRANCH  28  29
ATOM     29  C   UNL A   1      32.902  32.201  27.319  1.00  0.00     0.116 C 
BRANCH  29  30
ATOM     30  N   UNL A   1      32.616  33.601  27.586  1.00  0.00    -0.352 N 
ATOM     31  C   UNL A   1      33.169  34.429  28.533  1.00  0.00     0.251 C 
ATOM     32  H   UNL A   1      31.932  34.012  27.009  1.00  0.00     0.163 HD
ATOM     33  O   UNL A   1      32.679  35.534  28.744  1.00  0.00    -0.269 OA
BRANCH  31  34
ATOM     34  C   UNL A   1      34.340  33.968  29.310  1.00  0.00     0.039 A 
ATOM     35  C   UNL A   1      34.137  33.163  30.434  1.00  0.00     0.014 A 
ATOM     36  C   UNL A   1      35.636  34.317  28.919  1.00  0.00     0.014 A 
ATOM     37  C   UNL A   1      35.238  32.658  31.130  1.00  0.00     0.010 A 
ATOM     38  C   UNL A   1      36.729  33.757  29.573  1.00  0.00     0.010 A 
ATOM     39  C   UNL A   1      36.542  32.922  30.686  1.00  0.00    -0.014 A 
BRANCH  39  40
ATOM     40  C   UNL A   1      37.731  32.351  31.374  1.00  0.00     0.031 A 
ATOM     41  C   UNL A   1      38.488  31.217  30.736  1.00  0.00     0.074 A 
ATOM     42  C   UNL A   1      38.081  32.796  32.597  1.00  0.00     0.049 A 
ATOM     43  N   UNL A   1      39.463  30.494  31.222  1.00  0.00    -0.248 NA
ATOM     44  C   UNL A   1      38.067  30.824  29.381  1.00  0.00     0.031 C 
ATOM     45  C   UNL A   1      37.408  33.873  33.329  1.00  0.00     0.029 A 
ATOM     46  N   UNL A   1      39.077  32.390  33.450  1.00  0.00    -0.354 N 
ATOM     47  C   UNL A   1      39.760  29.550  30.245  1.00  0.00     0.074 A 
ATOM     48  C   UNL A   1      38.824  29.760  29.162  1.00  0.00     0.031 C 
ATOM     49  C   UNL A   1      38.017  34.048  34.513  1.00  0.00     0.029 A 
ATOM     50  C   UNL A   1      39.089  33.066  34.650  1.00  0.00     0.049 A 
ATOM     51  H   UNL A   1      39.722  31.682  33.226  1.00  0.00     0.167 HD
ATOM     52  C   UNL A   1      40.734  28.607  30.246  1.00  0.00     0.034 A 
ATOM     53  C   UNL A   1      39.861  32.899  35.743  1.00  0.00     0.034 A 
ATOM     54  C   UNL A   1      41.673  28.424  31.326  1.00  0.00     0.049 A 
ATOM     55  C   UNL A   1      40.922  31.825  35.729  1.00  0.00     0.074 A 
ATOM     56  C   UNL A   1      42.733  27.538  31.405  1.00  0.00     0.029 A 
ATOM     57  N   UNL A   1      41.663  29.139  32.517  1.00  0.00    -0.354 N 
ATOM     58  N   UNL A   1      41.216  30.967  34.780  1.00  0.00    -0.248 NA
ATOM     59  C   UNL A   1      41.763  31.704  36.928  1.00  0.00     0.031 C 
ATOM     60  C   UNL A   1      43.321  27.668  32.667  1.00  0.00     0.029 A 
ATOM     61  C   UNL A   1      42.681  28.691  33.347  1.00  0.00     0.049 A 
ATOM     62  H   UNL A   1      41.027  29.856  32.740  1.00  0.00     0.167 HD
ATOM     63  C   UNL A   1      42.301  30.234  35.252  1.00  0.00     0.074 A 
ATOM     64  C   UNL A   1      42.614  30.756  36.567  1.00  0.00     0.031 C 
ATOM     65  C   UNL A   1      42.983  29.226  34.653  1.00  0.00     0.034 A 
BRANCH  52  66
ATOM     66  C   UNL A   1      40.815  27.684  29.053  1.00  0.00     0.023 A 
ATOM     67  C   UNL A   1      41.768  27.871  28.035  1.00  0.00     0.031 A 
ATOM     68  C   UNL A   1      39.922  26.606  28.926  1.00  0.00     0.131 A 
ATOM     69  C   UNL A   1      41.761  27.037  26.908  1.00  0.00     0.055 A 
ATOM     70  C   UNL A   1      39.972  25.731  27.840  1.00  0.00     0.041 A 
ATOM     71  F   UNL A   1      38.977  26.390  29.855  1.00  0.00    -0.206 F 
ATOM     72  C   UNL A   1      40.886  25.952  26.814  1.00  0.00     0.022 A 
BRANCH  69  73
ATOM     73  S   UNL A   1      42.822  27.471  25.503  1.00  0.00     0.124 S 
ATOM     74  O   UNL A   1      44.058  27.862  26.178  1.00  0.00    -0.237 OA
ATOM     75  O   UNL A   1      42.875  26.223  24.749  1.00  0.00    -0.237 OA
ATOM     76  O   UNL A   1      42.103  28.564  24.853  1.00  0.00    -0.744 OA
ENDBRANCH  69  73
ENDBRANCH  52  66
BRANCH  53  77
ATOM     77  C   UNL A   1      39.654  33.742  36.958  1.00  0.00     0.023 A 
ATOM     78  C   UNL A   1      39.030  33.221  38.103  1.00  0.00     0.031 A 
ATOM     79  C   UNL A   1      40.020  35.100  36.969  1.00  0.00     0.131 A 
ATOM     80  C   UNL A   1      38.739  34.064  39.186  1.00  0.00     0.055 A 
ATOM     81  C   UNL A   1      39.782  35.920  38.074  1.00  0.00     0.041 A 
ATOM     82  F   UNL A   1      40.621  35.652  35.903  1.00  0.00    -0.206 F 
ATOM     83  C   UNL A   1      39.122  35.406  39.186  1.00  0.00     0.022 A 
BRANCH  80  84
ATOM     84  S   UNL A   1      37.748  33.403  40.556  1.00  0.00     0.124 S 
ATOM     85  O   UNL A   1      38.571  32.286  41.004  1.00  0.00    -0.237 OA
ATOM     86  O   UNL A   1      37.674  34.548  41.455  1.00  0.00    -0.237 OA
ATOM     87  O   UNL A   1      36.487  33.032  39.914  1.00  0.00    -0.744 OA
ENDBRANCH  80  84
ENDBRANCH  53  77
BRANCH  65  88
ATOM     88  C   UNL A   1      44.177  28.666  35.387  1.00  0.00     0.023 A 
ATOM     89  C   UNL A   1      44.054  27.634  36.332  1.00  0.00     0.031 A 
ATOM     90  C   UNL A   1      45.462  29.177  35.125  1.00  0.00     0.131 A 
ATOM     91  C   UNL A   1      45.191  27.174  37.014  1.00  0.00     0.055 A 
ATOM     92  C   UNL A   1      46.595  28.676  35.765  1.00  0.00     0.041 A 
ATOM     93  F   UNL A   1      45.636  30.165  34.233  1.00  0.00    -0.206 F 
ATOM     94  C   UNL A   1      46.463  27.677  36.724  1.00  0.00     0.022 A 
BRANCH  91  95
ATOM     95  S   UNL A   1      44.979  25.959  38.345  1.00  0.00     0.124 S 
ATOM     96  O   UNL A   1      44.284  24.875  37.659  1.00  0.00    -0.237 OA
ATOM     97  O   UNL A   1      46.356  25.685  38.741  1.00  0.00    -0.237 OA
ATOM     98  O   UNL A   1      44.181  26.676  39.338  1.00  0.00    -0.744 OA
ENDBRANCH  91  95
ENDBRANCH  65  88
ENDBRANCH  39  40
ENDBRANCH  31  34
ENDBRANCH  29  30
ENDBRANCH  28  29
ENDBRANCH   1  28
TORSDOF 20
ENDMDL
MODEL 2
REMARK VINA RESULT:     -11.5      1.669      3.842
REMARK SMILES Cc1cnc(S[C@H]2CC[C@@]([NH2+]C(C)C)(C(=O)NCCCCCCNC(=O)c3ccc(-c4c5nc(c(-c6cc(S(=O)(=O)[O-])ccc6F)c6ccc([nH]6)c(-c6cc(S(=O)(=O)[O-])ccc6F)c6nc(c(-c7cc(S(=O)(=O)[O-])ccc7F)c7ccc4[nH]7)C=C6)C=C5)cc3)C2)nc1
REMARK SMILES IDX 21 1 20 2 19 3 18 4 17 5 15 6 16 7 10 9 7 10 8 11 90 12 9 13
REMARK SMILES IDX 6 14 5 15 1 16 2 17 3 18 92 19 4 20 91 21 11 22 12 25 13 26
REMARK SMILES IDX 14 27 22 28 23 29 24 30 25 31 26 33 27 34 28 35 89 36 29 37
REMARK SMILES IDX 88 38 30 39 31 40 32 41 82 42 33 43 87 44 81 45 83 46 34 47
REMARK SMILES IDX 86 48 80 49 79 50 35 52 67 53 47 54 66 55 48 56 51 57 65 58
REMARK SMILES IDX 84 59 49 60 50 61 64 63 85 64 52 65 36 66 37 67 45 68 38 69
REMARK SMILES IDX 44 70 46 71 43 72 39 73 40 74 41 75 42 76 68 77 69 78 77 79
REMARK SMILES IDX 70 80 76 81 78 82 75 83 71 84 72 85 73 86 74 87 53 88 54 89
REMARK SMILES IDX 62 90 55 91 61 92 63 93 60 94 56 95 57 96 58 97 59 98
REMARK H PARENT 17 8 11 23 11 24 24 32 83 51 51 62
REMARK Flexibility Score: inf
ROOT
ATOM      1  C   UNL A   1      32.004  30.348  26.086  1.00  0.00     0.002 C 
ENDROOT
BRANCH   1   2
ATOM      2  C   UNL A   1      32.370  29.335  27.177  1.00  0.00     0.002 C 
BRANCH   2   3
ATOM      3  C   UNL A   1      31.519  28.059  27.190  1.00  0.00     0.021 C 
BRANCH   3   4
ATOM      4  C   UNL A   1      32.303  26.774  26.920  1.00  0.00     0.116 C 
BRANCH   4   5
ATOM      5  N   UNL A   1      31.417  25.634  26.781  1.00  0.00    -0.351 N 
ATOM      6  C   UNL A   1      31.388  24.645  25.840  1.00  0.00     0.281 C 
ATOM      7  O   UNL A   1      30.653  23.680  26.078  1.00  0.00    -0.268 OA
ATOM      8  H   UNL A   1      30.726  25.561  27.478  1.00  0.00     0.163 HD
BRANCH   6   9
ATOM      9  C   UNL A   1      32.348  24.676  24.598  1.00  0.00     0.176 C 
ATOM     10  C   UNL A   1      31.318  26.110  22.860  1.00  0.00     0.062 C 
ATOM     11  C   UNL A   1      32.642  26.752  23.245  1.00  0.00     0.022 C 
ATOM     12  C   UNL A   1      31.574  24.643  23.251  1.00  0.00     0.094 C 
ATOM     13  C   UNL A   1      33.106  26.032  24.511  1.00  0.00     0.080 C 
BRANCH  10  14
ATOM     14  S   UNL A   1      29.862  26.730  23.777  1.00  0.00    -0.083 SA
BRANCH  14  15
ATOM     15  C   UNL A   1      29.355  28.166  22.886  1.00  0.00     0.187 A 
ATOM     16  C   UNL A   1      27.968  31.733  21.159  1.00  0.00     0.048 C 
ATOM     17  C   UNL A   1      28.454  30.455  21.747  1.00  0.00    -0.014 A 
ATOM     18  C   UNL A   1      29.773  30.055  21.679  1.00  0.00     0.119 A 
ATOM     19  C   UNL A   1      27.623  29.590  22.420  1.00  0.00     0.119 A 
ATOM     20  N   UNL A   1      30.249  28.919  22.230  1.00  0.00    -0.231 NA
ATOM     21  N   UNL A   1      28.045  28.452  22.991  1.00  0.00    -0.231 NA
ENDBRANCH  14  15
ENDBRANCH  10  14
BRANCH   9  22
ATOM     22  N   UNL A   1      33.311  23.545  24.720  1.00  0.00    -0.332 N 
ATOM     23  H   UNL A   1      33.022  22.822  24.061  1.00  0.00     0.347 HD
ATOM     24  H   UNL A   1      33.274  23.269  25.701  1.00  0.00     0.347 HD
BRANCH  22  25
ATOM     25  C   UNL A   1      34.729  23.848  24.458  1.00  0.00     0.176 C 
ATOM     26  C   UNL A   1      35.679  23.331  25.537  1.00  0.00     0.075 C 
ATOM     27  C   UNL A   1      35.096  23.215  23.111  1.00  0.00     0.075 C 
ENDBRANCH  22  25
ENDBRANCH   9  22
ENDBRANCH   6   9
ENDBRANCH   4   5
ENDBRANCH   3   4
ENDBRANCH   2   3
ENDBRANCH   1   2
BRANCH   1  28
ATOM     28  C   UNL A   1      31.698  31.760  26.589  1.00  0.00     0.021 C 
BRANCH  28  29
ATOM     29  C   UNL A   1      32.833  32.422  27.364  1.00  0.00     0.116 C 
BRANCH  29  30
ATOM     30  N   UNL A   1      32.572  33.827  27.630  1.00  0.00    -0.352 N 
ATOM     31  C   UNL A   1      33.150  34.649  28.567  1.00  0.00     0.251 C 
ATOM     32  H   UNL A   1      31.886  34.247  27.061  1.00  0.00     0.163 HD
ATOM     33  O   UNL A   1      32.679  35.762  28.781  1.00  0.00    -0.269 OA
BRANCH  31  34
ATOM     34  C   UNL A   1      34.323  34.172  29.331  1.00  0.00     0.039 A 
ATOM     35  C   UNL A   1      34.121  33.434  30.499  1.00  0.00     0.014 A 
ATOM     36  C   UNL A   1      35.620  34.441  28.884  1.00  0.00     0.014 A 
ATOM     37  C   UNL A   1      35.220  32.912  31.186  1.00  0.00     0.010 A 
ATOM     38  C   UNL A   1      36.708  33.863  29.531  1.00  0.00     0.010 A 
ATOM     39  C   UNL A   1      36.520  33.093  30.690  1.00  0.00    -0.014 A 
BRANCH  39  40
ATOM     40  C   UNL A   1      37.704  32.501  31.369  1.00  0.00     0.031 A 
ATOM     41  C   UNL A   1      38.442  31.360  30.721  1.00  0.00     0.074 A 
ATOM     42  C   UNL A   1      38.065  32.935  32.593  1.00  0.00     0.049 A 
ATOM     43  N   UNL A   1      39.409  30.621  31.199  1.00  0.00    -0.248 NA
ATOM     44  C   UNL A   1      38.010  30.982  29.366  1.00  0.00     0.031 C 
ATOM     45  C   UNL A   1      37.411  34.016  33.334  1.00  0.00     0.029 A 
ATOM     46  N   UNL A   1      39.059  32.510  33.439  1.00  0.00    -0.354 N 
ATOM     47  C   UNL A   1      39.688  29.678  30.215  1.00  0.00     0.074 A 
ATOM     48  C   UNL A   1      38.750  29.909  29.137  1.00  0.00     0.031 C 
ATOM     49  C   UNL A   1      38.028  34.176  34.516  1.00  0.00     0.029 A 
ATOM     50  C   UNL A   1      39.086  33.178  34.643  1.00  0.00     0.049 A 
ATOM     51  H   UNL A   1      39.694  31.794  33.209  1.00  0.00     0.167 HD
ATOM     52  C   UNL A   1      40.649  28.722  30.206  1.00  0.00     0.034 A 
ATOM     53  C   UNL A   1      39.860  32.994  35.732  1.00  0.00     0.034 A 
ATOM     54  C   UNL A   1      41.589  28.520  31.280  1.00  0.00     0.049 A 
ATOM     55  C   UNL A   1      40.906  31.906  35.706  1.00  0.00     0.074 A 
ATOM     56  C   UNL A   1      42.638  27.618  31.350  1.00  0.00     0.029 A 
ATOM     57  N   UNL A   1      41.595  29.228  32.476  1.00  0.00    -0.354 N 
ATOM     58  N   UNL A   1      41.184  31.049  34.751  1.00  0.00    -0.248 NA
ATOM     59  C   UNL A   1      41.751  31.766  36.901  1.00  0.00     0.031 C 
ATOM     60  C   UNL A   1      43.233  27.733  32.610  1.00  0.00     0.029 A 
ATOM     61  C   UNL A   1      42.610  28.761  33.298  1.00  0.00     0.049 A 
ATOM     62  H   UNL A   1      40.970  29.953  32.706  1.00  0.00     0.167 HD
ATOM     63  C   UNL A   1      42.261  30.298  35.214  1.00  0.00     0.074 A 
ATOM     64  C   UNL A   1      42.587  30.808  36.530  1.00  0.00     0.031 C 
ATOM     65  C   UNL A   1      42.926  29.284  34.606  1.00  0.00     0.034 A 
BRANCH  52  66
ATOM     66  C   UNL A   1      40.712  27.805  29.007  1.00  0.00     0.023 A 
ATOM     67  C   UNL A   1      41.677  27.971  27.998  1.00  0.00     0.031 A 
ATOM     68  C   UNL A   1      39.788  26.755  28.867  1.00  0.00     0.131 A 
ATOM     69  C   UNL A   1      41.653  27.146  26.864  1.00  0.00     0.055 A 
ATOM     70  C   UNL A   1      39.820  25.885  27.775  1.00  0.00     0.041 A 
ATOM     71  F   UNL A   1      38.831  26.559  29.787  1.00  0.00    -0.206 F 
ATOM     72  C   UNL A   1      40.748  26.087  26.758  1.00  0.00     0.022 A 
BRANCH  69  73
ATOM     73  S   UNL A   1      42.737  27.557  25.470  1.00  0.00     0.124 S 
ATOM     74  O   UNL A   1      42.788  26.285  24.752  1.00  0.00    -0.237 OA
ATOM     75  O   UNL A   1      42.007  28.634  24.810  1.00  0.00    -0.237 OA
ATOM     76  O   UNL A   1      43.988  27.953  26.112  1.00  0.00    -0.744 OA
ENDBRANCH  69  73
ENDBRANCH  52  66
BRANCH  53  77
ATOM     77  C   UNL A   1      39.671  33.833  36.952  1.00  0.00     0.023 A 
ATOM     78  C   UNL A   1      39.061  33.309  38.103  1.00  0.00     0.031 A 
ATOM     79  C   UNL A   1      40.040  35.191  36.964  1.00  0.00     0.131 A 
ATOM     80  C   UNL A   1      38.785  34.148  39.194  1.00  0.00     0.055 A 
ATOM     81  C   UNL A   1      39.817  36.007  38.075  1.00  0.00     0.041 A 
ATOM     82  F   UNL A   1      40.627  35.745  35.892  1.00  0.00    -0.206 F 
ATOM     83  C   UNL A   1      39.171  35.490  39.193  1.00  0.00     0.022 A 
BRANCH  80  84
ATOM     84  S   UNL A   1      37.811  33.483  40.573  1.00  0.00     0.124 S 
ATOM     85  O   UNL A   1      36.567  33.116  39.907  1.00  0.00    -0.237 OA
ATOM     86  O   UNL A   1      38.647  32.378  41.027  1.00  0.00    -0.237 OA
ATOM     87  O   UNL A   1      37.716  34.613  41.497  1.00  0.00    -0.744 OA
ENDBRANCH  80  84
ENDBRANCH  53  77
BRANCH  65  88
ATOM     88  C   UNL A   1      44.115  28.703  35.331  1.00  0.00     0.023 A 
ATOM     89  C   UNL A   1      43.978  27.694  36.299  1.00  0.00     0.031 A 
ATOM     90  C   UNL A   1      45.409  29.169  35.038  1.00  0.00     0.131 A 
ATOM     91  C   UNL A   1      45.112  27.214  36.972  1.00  0.00     0.055 A 
ATOM     92  C   UNL A   1      46.538  28.647  35.668  1.00  0.00     0.041 A 
ATOM     93  F   UNL A   1      45.598  30.133  34.123  1.00  0.00    -0.206 F 
ATOM     94  C   UNL A   1      46.393  27.672  36.651  1.00  0.00     0.022 A 
BRANCH  91  95
ATOM     95  S   UNL A   1      44.886  26.034  38.331  1.00  0.00     0.124 S 
ATOM     96  O   UNL A   1      43.666  26.526  38.962  1.00  0.00    -0.237 OA
ATOM     97  O   UNL A   1      44.771  24.762  37.625  1.00  0.00    -0.237 OA
ATOM     98  O   UNL A   1      46.103  26.191  39.127  1.00  0.00    -0.744 OA
ENDBRANCH  91  95
ENDBRANCH  65  88
ENDBRANCH  39  40
ENDBRANCH  31  34
ENDBRANCH  29  30
ENDBRANCH  28  29
ENDBRANCH   1  28
TORSDOF 20
ENDMDL
MODEL 3
REMARK VINA RESULT:     -11.5      1.855      2.338
REMARK SMILES Cc1cnc(S[C@H]2CC[C@@]([NH2+]C(C)C)(C(=O)NCCCCCCNC(=O)c3ccc(-c4c5nc(c(-c6cc(S(=O)(=O)[O-])ccc6F)c6ccc([nH]6)c(-c6cc(S(=O)(=O)[O-])ccc6F)c6nc(c(-c7cc(S(=O)(=O)[O-])ccc7F)c7ccc4[nH]7)C=C6)C=C5)cc3)C2)nc1
REMARK SMILES IDX 21 1 20 2 19 3 18 4 17 5 15 6 16 7 10 9 7 10 8 11 90 12 9 13
REMARK SMILES IDX 6 14 5 15 1 16 2 17 3 18 92 19 4 20 91 21 11 22 12 25 13 26
REMARK SMILES IDX 14 27 22 28 23 29 24 30 25 31 26 33 27 34 28 35 89 36 29 37
REMARK SMILES IDX 88 38 30 39 31 40 32 41 82 42 33 43 87 44 81 45 83 46 34 47
REMARK SMILES IDX 86 48 80 49 79 50 35 52 67 53 47 54 66 55 48 56 51 57 65 58
REMARK SMILES IDX 84 59 49 60 50 61 64 63 85 64 52 65 36 66 37 67 45 68 38 69
REMARK SMILES IDX 44 70 46 71 43 72 39 73 40 74 41 75 42 76 68 77 69 78 77 79
REMARK SMILES IDX 70 80 76 81 78 82 75 83 71 84 72 85 73 86 74 87 53 88 54 89
REMARK SMILES IDX 62 90 55 91 61 92 63 93 60 94 56 95 57 96 58 97 59 98
REMARK H PARENT 17 8 11 23 11 24 24 32 83 51 51 62
REMARK Flexibility Score: inf
ROOT
ATOM      1  C   UNL A   1      31.890  30.506  26.117  1.00  0.00     0.002 C 
ENDROOT
BRANCH   1   2
ATOM      2  C   UNL A   1      33.108  29.787  26.706  1.00  0.00     0.002 C 
BRANCH   2   3
ATOM      3  C   UNL A   1      32.786  28.547  27.549  1.00  0.00     0.021 C 
BRANCH   3   4
ATOM      4  C   UNL A   1      32.865  27.225  26.783  1.00  0.00     0.116 C 
BRANCH   4   5
ATOM      5  N   UNL A   1      31.665  26.432  26.974  1.00  0.00    -0.351 N 
ATOM      6  C   UNL A   1      30.799  25.902  26.059  1.00  0.00     0.281 C 
ATOM      7  O   UNL A   1      29.971  25.093  26.491  1.00  0.00    -0.268 OA
ATOM      8  H   UNL A   1      31.439  26.245  27.913  1.00  0.00     0.163 HD
BRANCH   6   9
ATOM      9  C   UNL A   1      30.951  26.203  24.526  1.00  0.00     0.176 C 
ATOM     10  C   UNL A   1      32.311  24.396  23.515  1.00  0.00     0.062 C 
ATOM     11  C   UNL A   1      30.947  24.361  22.843  1.00  0.00     0.022 C 
ATOM     12  C   UNL A   1      32.369  25.858  23.994  1.00  0.00     0.094 C 
ATOM     13  C   UNL A   1      30.043  25.265  23.680  1.00  0.00     0.080 C 
BRANCH  10  14
ATOM     14  S   UNL A   1      32.491  23.285  24.956  1.00  0.00    -0.083 SA
BRANCH  14  15
ATOM     15  C   UNL A   1      34.226  22.989  25.074  1.00  0.00     0.187 A 
ATOM     16  C   UNL A   1      38.321  22.399  25.796  1.00  0.00     0.048 C 
ATOM     17  C   UNL A   1      36.875  22.618  25.515  1.00  0.00    -0.014 A 
ATOM     18  C   UNL A   1      36.063  21.640  24.976  1.00  0.00     0.119 A 
ATOM     19  C   UNL A   1      36.242  23.806  25.792  1.00  0.00     0.119 A 
ATOM     20  N   UNL A   1      34.744  21.798  24.739  1.00  0.00    -0.231 NA
ATOM     21  N   UNL A   1      34.933  24.013  25.583  1.00  0.00    -0.231 NA
ENDBRANCH  14  15
ENDBRANCH  10  14
BRANCH   9  22
ATOM     22  N   UNL A   1      30.594  27.630  24.290  1.00  0.00    -0.332 N 
ATOM     23  H   UNL A   1      31.435  28.188  24.445  1.00  0.00     0.347 HD
ATOM     24  H   UNL A   1      29.829  27.824  24.936  1.00  0.00     0.347 HD
BRANCH  22  25
ATOM     25  C   UNL A   1      30.070  27.973  22.956  1.00  0.00     0.176 C 
ATOM     26  C   UNL A   1      28.661  28.564  22.981  1.00  0.00     0.075 C 
ATOM     27  C   UNL A   1      31.034  28.983  22.324  1.00  0.00     0.075 C 
ENDBRANCH  22  25
ENDBRANCH   9  22
ENDBRANCH   6   9
ENDBRANCH   4   5
ENDBRANCH   3   4
ENDBRANCH   2   3
ENDBRANCH   1   2
BRANCH   1  28
ATOM     28  C   UNL A   1      31.596  31.882  26.719  1.00  0.00     0.021 C 
BRANCH  28  29
ATOM     29  C   UNL A   1      32.794  32.561  27.376  1.00  0.00     0.116 C 
BRANCH  29  30
ATOM     30  N   UNL A   1      32.550  33.969  27.642  1.00  0.00    -0.352 N 
ATOM     31  C   UNL A   1      33.133  34.782  28.584  1.00  0.00     0.251 C 
ATOM     32  H   UNL A   1      31.874  34.399  27.070  1.00  0.00     0.163 HD
ATOM     33  O   UNL A   1      32.677  35.901  28.797  1.00  0.00    -0.269 OA
BRANCH  31  34
ATOM     34  C   UNL A   1      34.295  34.288  29.355  1.00  0.00     0.039 A 
ATOM     35  C   UNL A   1      34.074  33.570  30.533  1.00  0.00     0.014 A 
ATOM     36  C   UNL A   1      35.598  34.520  28.905  1.00  0.00     0.014 A 
ATOM     37  C   UNL A   1      35.161  33.031  31.228  1.00  0.00     0.010 A 
ATOM     38  C   UNL A   1      36.671  33.925  29.561  1.00  0.00     0.010 A 
ATOM     39  C   UNL A   1      36.465  33.175  30.730  1.00  0.00    -0.014 A 
BRANCH  39  40
ATOM     40  C   UNL A   1      37.634  32.565  31.418  1.00  0.00     0.031 A 
ATOM     41  C   UNL A   1      38.370  31.424  30.766  1.00  0.00     0.074 A 
ATOM     42  C   UNL A   1      37.984  32.981  32.651  1.00  0.00     0.049 A 
ATOM     43  N   UNL A   1      39.324  30.671  31.249  1.00  0.00    -0.248 NA
ATOM     44  C   UNL A   1      37.952  31.065  29.402  1.00  0.00     0.031 C 
ATOM     45  C   UNL A   1      37.330  34.061  33.395  1.00  0.00     0.029 A 
ATOM     46  N   UNL A   1      38.963  32.538  33.505  1.00  0.00    -0.354 N 
ATOM     47  C   UNL A   1      39.607  29.736  30.258  1.00  0.00     0.074 A 
ATOM     48  C   UNL A   1      38.685  29.987  29.171  1.00  0.00     0.031 C 
ATOM     49  C   UNL A   1      37.933  34.202  34.587  1.00  0.00     0.029 A 
ATOM     50  C   UNL A   1      38.980  33.193  34.717  1.00  0.00     0.049 A 
ATOM     51  H   UNL A   1      39.593  31.819  33.275  1.00  0.00     0.167 HD
ATOM     52  C   UNL A   1      40.559  28.771  30.251  1.00  0.00     0.034 A 
ATOM     53  C   UNL A   1      39.739  32.989  35.813  1.00  0.00     0.034 A 
ATOM     54  C   UNL A   1      41.483  28.548  31.335  1.00  0.00     0.049 A 
ATOM     55  C   UNL A   1      40.775  31.891  35.789  1.00  0.00     0.074 A 
ATOM     56  C   UNL A   1      42.522  27.636  31.408  1.00  0.00     0.029 A 
ATOM     57  N   UNL A   1      41.481  29.242  32.538  1.00  0.00    -0.354 N 
ATOM     58  N   UNL A   1      41.056  31.043  34.828  1.00  0.00    -0.248 NA
ATOM     59  C   UNL A   1      41.602  31.731  36.992  1.00  0.00     0.031 C 
ATOM     60  C   UNL A   1      43.102  27.731  32.676  1.00  0.00     0.029 A 
ATOM     61  C   UNL A   1      42.480  28.757  33.368  1.00  0.00     0.049 A 
ATOM     62  H   UNL A   1      40.859  29.971  32.768  1.00  0.00     0.167 HD
ATOM     63  C   UNL A   1      42.121  30.277  35.297  1.00  0.00     0.074 A 
ATOM     64  C   UNL A   1      42.434  30.769  36.622  1.00  0.00     0.031 C 
ATOM     65  C   UNL A   1      42.784  29.263  34.685  1.00  0.00     0.034 A 
BRANCH  52  66
ATOM     66  C   UNL A   1      40.629  27.867  29.043  1.00  0.00     0.023 A 
ATOM     67  C   UNL A   1      41.576  28.065  28.023  1.00  0.00     0.031 A 
ATOM     68  C   UNL A   1      39.729  26.795  28.904  1.00  0.00     0.131 A 
ATOM     69  C   UNL A   1      41.558  27.250  26.882  1.00  0.00     0.055 A 
ATOM     70  C   UNL A   1      39.769  25.936  27.805  1.00  0.00     0.041 A 
ATOM     71  F   UNL A   1      38.789  26.568  29.835  1.00  0.00    -0.206 F 
ATOM     72  C   UNL A   1      40.678  26.170  26.777  1.00  0.00     0.022 A 
BRANCH  69  73
ATOM     73  S   UNL A   1      42.613  27.700  25.477  1.00  0.00     0.124 S 
ATOM     74  O   UNL A   1      41.928  28.885  24.964  1.00  0.00    -0.237 OA
ATOM     75  O   UNL A   1      43.904  27.935  26.114  1.00  0.00    -0.237 OA
ATOM     76  O   UNL A   1      42.549  26.527  24.609  1.00  0.00    -0.744 OA
ENDBRANCH  69  73
ENDBRANCH  52  66
BRANCH  53  77
ATOM     77  C   UNL A   1      39.541  33.817  37.040  1.00  0.00     0.023 A 
ATOM     78  C   UNL A   1      40.377  34.911  37.316  1.00  0.00     0.031 A 
ATOM     79  C   UNL A   1      38.553  33.489  37.986  1.00  0.00     0.131 A 
ATOM     80  C   UNL A   1      40.250  35.600  38.532  1.00  0.00     0.055 A 
ATOM     81  C   UNL A   1      38.391  34.217  39.167  1.00  0.00     0.041 A 
ATOM     82  F   UNL A   1      37.725  32.454  37.773  1.00  0.00    -0.206 F 
ATOM     83  C   UNL A   1      39.254  35.269  39.453  1.00  0.00     0.022 A 
BRANCH  80  84
ATOM     84  S   UNL A   1      41.481  36.869  38.941  1.00  0.00     0.124 S 
ATOM     85  O   UNL A   1      42.191  37.011  37.675  1.00  0.00    -0.237 OA
ATOM     86  O   UNL A   1      40.637  37.992  39.334  1.00  0.00    -0.237 OA
ATOM     87  O   UNL A   1      42.250  36.259  40.024  1.00  0.00    -0.744 OA
ENDBRANCH  80  84
ENDBRANCH  53  77
BRANCH  65  88
ATOM     88  C   UNL A   1      43.958  28.663  35.420  1.00  0.00     0.023 A 
ATOM     89  C   UNL A   1      43.805  27.606  36.333  1.00  0.00     0.031 A 
ATOM     90  C   UNL A   1      45.254  29.160  35.191  1.00  0.00     0.131 A 
ATOM     91  C   UNL A   1      44.925  27.109  37.018  1.00  0.00     0.055 A 
ATOM     92  C   UNL A   1      46.370  28.622  35.831  1.00  0.00     0.041 A 
ATOM     93  F   UNL A   1      45.457  30.170  34.330  1.00  0.00    -0.206 F 
ATOM     94  C   UNL A   1      46.208  27.598  36.760  1.00  0.00     0.022 A 
BRANCH  91  95
ATOM     95  S   UNL A   1      44.674  25.860  38.309  1.00  0.00     0.124 S 
ATOM     96  O   UNL A   1      43.977  26.624  39.339  1.00  0.00    -0.237 OA
ATOM     97  O   UNL A   1      43.881  24.850  37.618  1.00  0.00    -0.237 OA
ATOM     98  O   UNL A   1      46.033  25.448  38.656  1.00  0.00    -0.744 OA
ENDBRANCH  91  95
ENDBRANCH  65  88
ENDBRANCH  39  40
ENDBRANCH  31  34
ENDBRANCH  29  30
ENDBRANCH  28  29
ENDBRANCH   1  28
TORSDOF 20
ENDMDL
