MODEL 1
REMARK VINA RESULT:     -10.3      0.000      0.000
REMARK SMILES CC(C)(C)OCC[C@@H]1CCC[C@]1([NH2+]C1CC1)C(=O)NCCCCCCNC(=O)c1ccc(-c2c3nc(c(-c4cc(S(=O)(=O)[O-])ccc4F)c4ccc([nH]4)c(-c4cc(S(=O)(=O)[O-])ccc4F)c4nc(c(-c5cc(S(=O)(=O)[O-])ccc5F)c5ccc2[nH]5)C=C4)C=C3)cc1
REMARK SMILES IDX 22 1 21 2 20 3 19 4 17 5 18 6 12 8 8 9 9 10 10 11 11 12 7 13
REMARK SMILES IDX 6 14 5 15 2 16 1 17 3 18 4 19 13 20 14 23 15 24 16 25 23 26
REMARK SMILES IDX 24 27 25 28 26 29 27 30 28 32 29 33 30 34 91 35 31 36 90 37
REMARK SMILES IDX 32 38 33 39 34 40 84 41 35 42 89 43 83 44 85 45 36 46 88 47
REMARK SMILES IDX 82 48 81 49 37 51 69 52 49 53 68 54 50 55 53 56 67 57 86 58
REMARK SMILES IDX 51 59 52 60 66 62 87 63 54 64 38 65 39 66 47 67 40 68 46 69
REMARK SMILES IDX 48 70 45 71 41 72 42 73 43 74 44 75 70 76 71 77 79 78 72 79
REMARK SMILES IDX 78 80 80 81 77 82 73 83 74 84 75 85 76 86 55 87 56 88 64 89
REMARK SMILES IDX 57 90 63 91 65 92 62 93 58 94 59 95 60 96 61 97
REMARK H PARENT 19 7 13 21 13 22 26 31 85 50 53 61
REMARK Flexibility Score: inf
ROOT
ATOM      1  C   UNL A   1      36.753  21.801  25.725  1.00  0.00     0.002 C 
ENDROOT
BRANCH   1   2
ATOM      2  C   UNL A   1      36.286  23.069  25.012  1.00  0.00     0.021 C 
BRANCH   2   3
ATOM      3  C   UNL A   1      34.787  23.084  24.720  1.00  0.00     0.116 C 
BRANCH   3   4
ATOM      4  N   UNL A   1      34.525  23.782  23.486  1.00  0.00    -0.351 N 
ATOM      5  C   UNL A   1      33.616  24.744  23.181  1.00  0.00     0.281 C 
ATOM      6  O   UNL A   1      33.642  25.123  22.001  1.00  0.00    -0.268 OA
ATOM      7  H   UNL A   1      35.103  23.515  22.736  1.00  0.00     0.163 HD
BRANCH   5   8
ATOM      8  C   UNL A   1      32.600  25.361  24.215  1.00  0.00     0.178 C 
ATOM      9  C   UNL A   1      32.092  26.815  23.912  1.00  0.00     0.063 C 
ATOM     10  C   UNL A   1      33.389  27.628  24.046  1.00  0.00     0.011 C 
ATOM     11  C   UNL A   1      34.063  27.041  25.282  1.00  0.00     0.008 C 
ATOM     12  C   UNL A   1      33.384  25.685  25.525  1.00  0.00     0.079 C 
BRANCH   9  13
ATOM     13  C   UNL A   1      31.307  27.233  22.664  1.00  0.00     0.039 C 
BRANCH  13  14
ATOM     14  C   UNL A   1      29.881  27.791  22.807  1.00  0.00     0.161 C 
BRANCH  14  15
ATOM     15  O   UNL A   1      29.612  28.949  22.029  1.00  0.00    -0.376 OA
BRANCH  15  16
ATOM     16  C   UNL A   1      28.611  29.900  22.422  1.00  0.00     0.060 C 
ATOM     17  C   UNL A   1      27.447  29.066  22.990  1.00  0.00     0.042 C 
ATOM     18  C   UNL A   1      28.091  30.592  21.157  1.00  0.00     0.042 C 
ATOM     19  C   UNL A   1      28.994  30.912  23.513  1.00  0.00     0.042 C 
ENDBRANCH  15  16
ENDBRANCH  14  15
ENDBRANCH  13  14
ENDBRANCH   9  13
BRANCH   8  20
ATOM     20  N   UNL A   1      31.484  24.451  24.508  1.00  0.00    -0.331 N 
ATOM     21  H   UNL A   1      31.508  23.728  23.788  1.00  0.00     0.347 HD
ATOM     22  H   UNL A   1      30.690  25.091  24.544  1.00  0.00     0.347 HD
BRANCH  20  23
ATOM     23  C   UNL A   1      31.365  23.749  25.786  1.00  0.00     0.183 C 
ATOM     24  C   UNL A   1      30.261  22.840  26.227  1.00  0.00     0.071 C 
ATOM     25  C   UNL A   1      31.555  22.250  25.763  1.00  0.00     0.071 C 
ENDBRANCH  20  23
ENDBRANCH   8  20
ENDBRANCH   5   8
ENDBRANCH   3   4
ENDBRANCH   2   3
ENDBRANCH   1   2
BRANCH   1  26
ATOM     26  C   UNL A   1      36.931  20.590  24.806  1.00  0.00     0.002 C 
BRANCH  26  27
ATOM     27  C   UNL A   1      38.236  19.810  24.996  1.00  0.00     0.021 C 
BRANCH  27  28
ATOM     28  C   UNL A   1      39.219  20.427  25.990  1.00  0.00     0.116 C 
BRANCH  28  29
ATOM     29  N   UNL A   1      40.445  19.654  26.088  1.00  0.00    -0.352 N 
ATOM     30  C   UNL A   1      41.739  20.078  26.256  1.00  0.00     0.251 C 
ATOM     31  H   UNL A   1      40.329  18.678  26.026  1.00  0.00     0.163 HD
ATOM     32  O   UNL A   1      42.659  19.288  26.078  1.00  0.00    -0.269 OA
BRANCH  30  33
ATOM     33  C   UNL A   1      42.020  21.480  26.636  1.00  0.00     0.039 A 
ATOM     34  C   UNL A   1      42.144  22.439  25.627  1.00  0.00     0.014 A 
ATOM     35  C   UNL A   1      42.207  21.841  27.973  1.00  0.00     0.014 A 
ATOM     36  C   UNL A   1      42.414  23.768  25.963  1.00  0.00     0.010 A 
ATOM     37  C   UNL A   1      42.408  23.178  28.311  1.00  0.00     0.010 A 
ATOM     38  C   UNL A   1      42.529  24.153  27.309  1.00  0.00    -0.014 A 
BRANCH  38  39
ATOM     39  C   UNL A   1      42.821  25.560  27.684  1.00  0.00     0.031 A 
ATOM     40  C   UNL A   1      44.227  26.087  27.573  1.00  0.00     0.074 A 
ATOM     41  C   UNL A   1      41.838  26.347  28.166  1.00  0.00     0.049 A 
ATOM     42  N   UNL A   1      44.708  27.252  27.924  1.00  0.00    -0.248 NA
ATOM     43  C   UNL A   1      45.232  25.166  27.018  1.00  0.00     0.031 C 
ATOM     44  C   UNL A   1      40.442  25.941  28.342  1.00  0.00     0.029 A 
ATOM     45  N   UNL A   1      41.863  27.648  28.599  1.00  0.00    -0.354 N 
ATOM     46  C   UNL A   1      46.070  27.200  27.645  1.00  0.00     0.074 A 
ATOM     47  C   UNL A   1      46.346  25.867  27.156  1.00  0.00     0.031 C 
ATOM     48  C   UNL A   1      39.742  26.980  28.827  1.00  0.00     0.029 A 
ATOM     49  C   UNL A   1      40.642  28.109  29.038  1.00  0.00     0.049 A 
ATOM     50  H   UNL A   1      42.677  28.201  28.598  1.00  0.00     0.167 HD
ATOM     51  C   UNL A   1      46.999  28.182  27.761  1.00  0.00     0.034 A 
ATOM     52  C   UNL A   1      40.293  29.302  29.560  1.00  0.00     0.034 A 
ATOM     53  C   UNL A   1      46.704  29.512  28.238  1.00  0.00     0.049 A 
ATOM     54  C   UNL A   1      41.349  30.370  29.704  1.00  0.00     0.074 A 
ATOM     55  C   UNL A   1      47.559  30.592  28.367  1.00  0.00     0.029 A 
ATOM     56  N   UNL A   1      45.454  29.943  28.666  1.00  0.00    -0.354 N 
ATOM     57  N   UNL A   1      42.627  30.316  29.407  1.00  0.00    -0.248 NA
ATOM     58  C   UNL A   1      40.913  31.664  30.243  1.00  0.00     0.031 C 
ATOM     59  C   UNL A   1      46.843  31.655  28.928  1.00  0.00     0.029 A 
ATOM     60  C   UNL A   1      45.522  31.266  29.078  1.00  0.00     0.049 A 
ATOM     61  H   UNL A   1      44.640  29.390  28.676  1.00  0.00     0.167 HD
ATOM     62  C   UNL A   1      43.136  31.582  29.684  1.00  0.00     0.074 A 
ATOM     63  C   UNL A   1      42.025  32.379  30.161  1.00  0.00     0.031 C 
ATOM     64  C   UNL A   1      44.404  32.048  29.550  1.00  0.00     0.034 A 
BRANCH  51  65
ATOM     65  C   UNL A   1      48.422  27.839  27.387  1.00  0.00     0.023 A 
ATOM     66  C   UNL A   1      48.945  28.147  26.119  1.00  0.00     0.031 A 
ATOM     67  C   UNL A   1      49.259  27.170  28.298  1.00  0.00     0.131 A 
ATOM     68  C   UNL A   1      50.235  27.720  25.770  1.00  0.00     0.055 A 
ATOM     69  C   UNL A   1      50.572  26.823  27.974  1.00  0.00     0.041 A 
ATOM     70  F   UNL A   1      48.811  26.830  29.517  1.00  0.00    -0.206 F 
ATOM     71  C   UNL A   1      51.062  27.083  26.697  1.00  0.00     0.022 A 
BRANCH  68  72
ATOM     72  S   UNL A   1      50.762  27.882  24.042  1.00  0.00     0.124 S 
ATOM     73  O   UNL A   1      51.413  29.191  24.055  1.00  0.00    -0.237 OA
ATOM     74  O   UNL A   1      51.642  26.733  23.869  1.00  0.00    -0.237 OA
ATOM     75  O   UNL A   1      49.508  27.827  23.294  1.00  0.00    -0.744 OA
ENDBRANCH  68  72
ENDBRANCH  51  65
BRANCH  52  76
ATOM     76  C   UNL A   1      38.889  29.562  29.990  1.00  0.00     0.023 A 
ATOM     77  C   UNL A   1      37.999  30.266  29.164  1.00  0.00     0.031 A 
ATOM     78  C   UNL A   1      38.433  29.161  31.258  1.00  0.00     0.131 A 
ATOM     79  C   UNL A   1      36.719  30.599  29.635  1.00  0.00     0.055 A 
ATOM     80  C   UNL A   1      37.139  29.444  31.701  1.00  0.00     0.041 A 
ATOM     81  F   UNL A   1      39.239  28.480  32.088  1.00  0.00    -0.206 F 
ATOM     82  C   UNL A   1      36.279  30.181  30.893  1.00  0.00     0.022 A 
BRANCH  79  83
ATOM     83  S   UNL A   1      35.673  31.675  28.616  1.00  0.00     0.124 S 
ATOM     84  O   UNL A   1      34.594  32.001  29.541  1.00  0.00    -0.237 OA
ATOM     85  O   UNL A   1      36.589  32.763  28.289  1.00  0.00    -0.237 OA
ATOM     86  O   UNL A   1      35.298  30.819  27.493  1.00  0.00    -0.744 OA
ENDBRANCH  79  83
ENDBRANCH  52  76
BRANCH  64  87
ATOM     87  C   UNL A   1      44.638  33.505  29.865  1.00  0.00     0.023 A 
ATOM     88  C   UNL A   1      44.519  34.506  28.884  1.00  0.00     0.031 A 
ATOM     89  C   UNL A   1      44.999  33.893  31.167  1.00  0.00     0.131 A 
ATOM     90  C   UNL A   1      44.815  35.839  29.209  1.00  0.00     0.055 A 
ATOM     91  C   UNL A   1      45.233  35.228  31.498  1.00  0.00     0.041 A 
ATOM     92  F   UNL A   1      45.128  32.978  32.141  1.00  0.00    -0.206 F 
ATOM     93  C   UNL A   1      45.155  36.208  30.513  1.00  0.00     0.022 A 
BRANCH  90  94
ATOM     94  S   UNL A   1      44.841  37.074  27.880  1.00  0.00     0.124 S 
ATOM     95  O   UNL A   1      44.381  38.274  28.571  1.00  0.00    -0.237 OA
ATOM     96  O   UNL A   1      46.244  37.069  27.479  1.00  0.00    -0.237 OA
ATOM     97  O   UNL A   1      43.911  36.533  26.890  1.00  0.00    -0.744 OA
ENDBRANCH  90  94
ENDBRANCH  64  87
ENDBRANCH  38  39
ENDBRANCH  30  33
ENDBRANCH  28  29
ENDBRANCH  27  28
ENDBRANCH  26  27
ENDBRANCH   1  26
TORSDOF 22
ENDMDL
MODEL 2
REMARK VINA RESULT:     -10.3      1.591      2.466
REMARK SMILES CC(C)(C)OCC[C@@H]1CCC[C@]1([NH2+]C1CC1)C(=O)NCCCCCCNC(=O)c1ccc(-c2c3nc(c(-c4cc(S(=O)(=O)[O-])ccc4F)c4ccc([nH]4)c(-c4cc(S(=O)(=O)[O-])ccc4F)c4nc(c(-c5cc(S(=O)(=O)[O-])ccc5F)c5ccc2[nH]5)C=C4)C=C3)cc1
REMARK SMILES IDX 22 1 21 2 20 3 19 4 17 5 18 6 12 8 8 9 9 10 10 11 11 12 7 13
REMARK SMILES IDX 6 14 5 15 2 16 1 17 3 18 4 19 13 20 14 23 15 24 16 25 23 26
REMARK SMILES IDX 24 27 25 28 26 29 27 30 28 32 29 33 30 34 91 35 31 36 90 37
REMARK SMILES IDX 32 38 33 39 34 40 84 41 35 42 89 43 83 44 85 45 36 46 88 47
REMARK SMILES IDX 82 48 81 49 37 51 69 52 49 53 68 54 50 55 53 56 67 57 86 58
REMARK SMILES IDX 51 59 52 60 66 62 87 63 54 64 38 65 39 66 47 67 40 68 46 69
REMARK SMILES IDX 48 70 45 71 41 72 42 73 43 74 44 75 70 76 71 77 79 78 72 79
REMARK SMILES IDX 78 80 80 81 77 82 73 83 74 84 75 85 76 86 55 87 56 88 64 89
REMARK SMILES IDX 57 90 63 91 65 92 62 93 58 94 59 95 60 96 61 97
REMARK H PARENT 19 7 13 21 13 22 26 31 85 50 53 61
REMARK Flexibility Score: inf
ROOT
ATOM      1  C   UNL A   1      33.929  22.369  25.988  1.00  0.00     0.002 C 
ENDROOT
BRANCH   1   2
ATOM      2  C   UNL A   1      32.505  22.919  25.932  1.00  0.00     0.021 C 
BRANCH   2   3
ATOM      3  C   UNL A   1      32.371  24.320  26.524  1.00  0.00     0.116 C 
BRANCH   3   4
ATOM      4  N   UNL A   1      31.275  25.023  25.904  1.00  0.00    -0.351 N 
ATOM      5  C   UNL A   1      31.258  25.972  24.933  1.00  0.00     0.281 C 
ATOM      6  O   UNL A   1      30.129  26.389  24.638  1.00  0.00    -0.268 OA
ATOM      7  H   UNL A   1      30.386  24.771  26.243  1.00  0.00     0.163 HD
BRANCH   5   8
ATOM      8  C   UNL A   1      32.545  26.521  24.210  1.00  0.00     0.178 C 
ATOM      9  C   UNL A   1      32.305  27.467  22.980  1.00  0.00     0.063 C 
ATOM     10  C   UNL A   1      31.627  26.512  21.985  1.00  0.00     0.011 C 
ATOM     11  C   UNL A   1      32.427  25.221  22.113  1.00  0.00     0.008 C 
ATOM     12  C   UNL A   1      33.202  25.337  23.433  1.00  0.00     0.079 C 
BRANCH   9  13
ATOM     13  C   UNL A   1      31.578  28.815  23.033  1.00  0.00     0.039 C 
BRANCH  13  14
ATOM     14  C   UNL A   1      30.219  28.980  22.331  1.00  0.00     0.161 C 
BRANCH  14  15
ATOM     15  O   UNL A   1      29.892  30.315  21.972  1.00  0.00    -0.376 OA
BRANCH  15  16
ATOM     16  C   UNL A   1      28.586  30.859  22.219  1.00  0.00     0.060 C 
ATOM     17  C   UNL A   1      28.722  31.697  23.505  1.00  0.00     0.042 C 
ATOM     18  C   UNL A   1      27.641  29.697  22.539  1.00  0.00     0.042 C 
ATOM     19  C   UNL A   1      28.002  31.795  21.150  1.00  0.00     0.042 C 
ENDBRANCH  15  16
ENDBRANCH  14  15
ENDBRANCH  13  14
ENDBRANCH   9  13
BRANCH   8  20
ATOM     20  N   UNL A   1      33.510  27.100  25.155  1.00  0.00    -0.331 N 
ATOM     21  H   UNL A   1      34.385  27.204  24.642  1.00  0.00     0.347 HD
ATOM     22  H   UNL A   1      33.465  26.444  25.935  1.00  0.00     0.347 HD
BRANCH  20  23
ATOM     23  C   UNL A   1      33.274  28.381  25.823  1.00  0.00     0.183 C 
ATOM     24  C   UNL A   1      33.031  28.616  27.281  1.00  0.00     0.071 C 
ATOM     25  C   UNL A   1      34.382  28.904  26.707  1.00  0.00     0.071 C 
ENDBRANCH  20  23
ENDBRANCH   8  20
ENDBRANCH   5   8
ENDBRANCH   3   4
ENDBRANCH   2   3
ENDBRANCH   1   2
BRANCH   1  26
ATOM     26  C   UNL A   1      34.491  21.933  24.633  1.00  0.00     0.002 C 
BRANCH  26  27
ATOM     27  C   UNL A   1      36.002  22.116  24.460  1.00  0.00     0.021 C 
BRANCH  27  28
ATOM     28  C   UNL A   1      36.779  22.328  25.758  1.00  0.00     0.116 C 
BRANCH  28  29
ATOM     29  N   UNL A   1      37.789  21.303  25.957  1.00  0.00    -0.352 N 
ATOM     30  C   UNL A   1      39.125  21.429  26.243  1.00  0.00     0.251 C 
ATOM     31  H   UNL A   1      37.465  20.377  25.875  1.00  0.00     0.163 HD
ATOM     32  O   UNL A   1      39.858  20.452  26.139  1.00  0.00    -0.269 OA
BRANCH  30  33
ATOM     33  C   UNL A   1      39.676  22.737  26.659  1.00  0.00     0.039 A 
ATOM     34  C   UNL A   1      39.291  23.884  25.960  1.00  0.00     0.014 A 
ATOM     35  C   UNL A   1      40.602  22.830  27.702  1.00  0.00     0.014 A 
ATOM     36  C   UNL A   1      39.804  25.129  26.333  1.00  0.00     0.010 A 
ATOM     37  C   UNL A   1      41.059  24.079  28.118  1.00  0.00     0.010 A 
ATOM     38  C   UNL A   1      40.677  25.240  27.428  1.00  0.00    -0.014 A 
BRANCH  38  39
ATOM     39  C   UNL A   1      41.235  26.555  27.836  1.00  0.00     0.031 A 
ATOM     40  C   UNL A   1      42.668  26.891  27.515  1.00  0.00     0.074 A 
ATOM     41  C   UNL A   1      40.475  27.424  28.531  1.00  0.00     0.049 A 
ATOM     42  N   UNL A   1      43.370  27.942  27.851  1.00  0.00    -0.248 NA
ATOM     43  C   UNL A   1      43.418  25.893  26.736  1.00  0.00     0.031 C 
ATOM     44  C   UNL A   1      39.081  27.201  28.922  1.00  0.00     0.029 A 
ATOM     45  N   UNL A   1      40.766  28.666  29.036  1.00  0.00    -0.354 N 
ATOM     46  C   UNL A   1      44.644  27.728  27.337  1.00  0.00     0.074 A 
ATOM     47  C   UNL A   1      44.633  26.418  26.723  1.00  0.00     0.031 C 
ATOM     48  C   UNL A   1      38.634  28.279  29.586  1.00  0.00     0.029 A 
ATOM     49  C   UNL A   1      39.716  29.250  29.709  1.00  0.00     0.049 A 
ATOM     50  H   UNL A   1      41.643  29.099  28.929  1.00  0.00     0.167 HD
ATOM     51  C   UNL A   1      45.718  28.558  27.352  1.00  0.00     0.034 A 
ATOM     52  C   UNL A   1      39.642  30.428  30.359  1.00  0.00     0.034 A 
ATOM     53  C   UNL A   1      45.709  29.868  27.957  1.00  0.00     0.049 A 
ATOM     54  C   UNL A   1      40.856  31.323  30.386  1.00  0.00     0.074 A 
ATOM     55  C   UNL A   1      46.726  30.805  28.004  1.00  0.00     0.029 A 
ATOM     56  N   UNL A   1      44.625  30.428  28.623  1.00  0.00    -0.354 N 
ATOM     57  N   UNL A   1      42.046  31.120  29.867  1.00  0.00    -0.248 NA
ATOM     58  C   UNL A   1      40.714  32.612  31.074  1.00  0.00     0.031 C 
ATOM     59  C   UNL A   1      46.280  31.902  28.748  1.00  0.00     0.029 A 
ATOM     60  C   UNL A   1      44.958  31.686  29.100  1.00  0.00     0.049 A 
ATOM     61  H   UNL A   1      43.749  29.994  28.739  1.00  0.00     0.167 HD
ATOM     62  C   UNL A   1      42.778  32.274  30.132  1.00  0.00     0.074 A 
ATOM     63  C   UNL A   1      41.893  33.171  30.845  1.00  0.00     0.031 C 
ATOM     64  C   UNL A   1      44.062  32.570  29.809  1.00  0.00     0.034 A 
BRANCH  51  65
ATOM     65  C   UNL A   1      46.992  28.056  26.714  1.00  0.00     0.023 A 
ATOM     66  C   UNL A   1      47.205  28.141  25.327  1.00  0.00     0.031 A 
ATOM     67  C   UNL A   1      47.997  27.461  27.498  1.00  0.00     0.131 A 
ATOM     68  C   UNL A   1      48.353  27.570  24.758  1.00  0.00     0.055 A 
ATOM     69  C   UNL A   1      49.176  26.971  26.934  1.00  0.00     0.041 A 
ATOM     70  F   UNL A   1      47.844  27.333  28.825  1.00  0.00    -0.206 F 
ATOM     71  C   UNL A   1      49.353  27.009  25.554  1.00  0.00     0.022 A 
BRANCH  68  72
ATOM     72  S   UNL A   1      48.452  27.444  22.951  1.00  0.00     0.124 S 
ATOM     73  O   UNL A   1      48.337  26.001  22.750  1.00  0.00    -0.237 OA
ATOM     74  O   UNL A   1      47.312  28.242  22.514  1.00  0.00    -0.237 OA
ATOM     75  O   UNL A   1      49.765  28.005  22.639  1.00  0.00    -0.744 OA
ENDBRANCH  68  72
ENDBRANCH  51  65
BRANCH  52  76
ATOM     76  C   UNL A   1      38.382  30.840  31.043  1.00  0.00     0.023 A 
ATOM     77  C   UNL A   1      37.351  31.476  30.335  1.00  0.00     0.031 A 
ATOM     78  C   UNL A   1      38.214  30.656  32.428  1.00  0.00     0.131 A 
ATOM     79  C   UNL A   1      36.223  31.957  31.020  1.00  0.00     0.055 A 
ATOM     80  C   UNL A   1      37.066  31.086  33.096  1.00  0.00     0.041 A 
ATOM     81  F   UNL A   1      39.167  30.049  33.154  1.00  0.00    -0.206 F 
ATOM     82  C   UNL A   1      36.069  31.755  32.393  1.00  0.00     0.022 A 
BRANCH  79  83
ATOM     83  S   UNL A   1      35.008  32.944  30.103  1.00  0.00     0.124 S 
ATOM     84  O   UNL A   1      34.017  33.227  31.134  1.00  0.00    -0.237 OA
ATOM     85  O   UNL A   1      35.813  34.076  29.658  1.00  0.00    -0.237 OA
ATOM     86  O   UNL A   1      34.568  32.039  29.043  1.00  0.00    -0.744 OA
ENDBRANCH  79  83
ENDBRANCH  52  76
BRANCH  64  87
ATOM     87  C   UNL A   1      44.562  33.948  30.171  1.00  0.00     0.023 A 
ATOM     88  C   UNL A   1      44.388  35.051  29.317  1.00  0.00     0.031 A 
ATOM     89  C   UNL A   1      45.236  34.153  31.388  1.00  0.00     0.131 A 
ATOM     90  C   UNL A   1      44.931  36.296  29.666  1.00  0.00     0.055 A 
ATOM     91  C   UNL A   1      45.722  35.408  31.757  1.00  0.00     0.041 A 
ATOM     92  F   UNL A   1      45.432  33.134  32.241  1.00  0.00    -0.206 F 
ATOM     93  C   UNL A   1      45.583  36.486  30.888  1.00  0.00     0.022 A 
BRANCH  90  94
ATOM     94  S   UNL A   1      44.859  37.648  28.457  1.00  0.00     0.124 S 
ATOM     95  O   UNL A   1      46.270  37.985  28.293  1.00  0.00    -0.237 OA
ATOM     96  O   UNL A   1      44.219  37.008  27.313  1.00  0.00    -0.237 OA
ATOM     97  O   UNL A   1      44.053  38.666  29.129  1.00  0.00    -0.744 OA
ENDBRANCH  90  94
ENDBRANCH  64  87
ENDBRANCH  38  39
ENDBRANCH  30  33
ENDBRANCH  28  29
ENDBRANCH  27  28
ENDBRANCH  26  27
ENDBRANCH   1  26
TORSDOF 22
ENDMDL
MODEL 3
REMARK VINA RESULT:     -10.3      2.379      3.268
REMARK SMILES CC(C)(C)OCC[C@@H]1CCC[C@]1([NH2+]C1CC1)C(=O)NCCCCCCNC(=O)c1ccc(-c2c3nc(c(-c4cc(S(=O)(=O)[O-])ccc4F)c4ccc([nH]4)c(-c4cc(S(=O)(=O)[O-])ccc4F)c4nc(c(-c5cc(S(=O)(=O)[O-])ccc5F)c5ccc2[nH]5)C=C4)C=C3)cc1
REMARK SMILES IDX 22 1 21 2 20 3 19 4 17 5 18 6 12 8 8 9 9 10 10 11 11 12 7 13
REMARK SMILES IDX 6 14 5 15 2 16 1 17 3 18 4 19 13 20 14 23 15 24 16 25 23 26
REMARK SMILES IDX 24 27 25 28 26 29 27 30 28 32 29 33 30 34 91 35 31 36 90 37
REMARK SMILES IDX 32 38 33 39 34 40 84 41 35 42 89 43 83 44 85 45 36 46 88 47
REMARK SMILES IDX 82 48 81 49 37 51 69 52 49 53 68 54 50 55 53 56 67 57 86 58
REMARK SMILES IDX 51 59 52 60 66 62 87 63 54 64 38 65 39 66 47 67 40 68 46 69
REMARK SMILES IDX 48 70 45 71 41 72 42 73 43 74 44 75 70 76 71 77 79 78 72 79
REMARK SMILES IDX 78 80 80 81 77 82 73 83 74 84 75 85 76 86 55 87 56 88 64 89
REMARK SMILES IDX 57 90 63 91 65 92 62 93 58 94 59 95 60 96 61 97
REMARK H PARENT 19 7 13 21 13 22 26 31 85 50 53 61
REMARK Flexibility Score: inf
ROOT
ATOM      1  C   UNL A   1      34.685  22.249  25.800  1.00  0.00     0.002 C 
ENDROOT
BRANCH   1   2
ATOM      2  C   UNL A   1      33.223  22.692  25.843  1.00  0.00     0.021 C 
BRANCH   2   3
ATOM      3  C   UNL A   1      33.033  24.105  26.390  1.00  0.00     0.116 C 
BRANCH   3   4
ATOM      4  N   UNL A   1      31.834  24.694  25.849  1.00  0.00    -0.351 N 
ATOM      5  C   UNL A   1      31.660  25.671  24.921  1.00  0.00     0.281 C 
ATOM      6  O   UNL A   1      30.476  25.961  24.692  1.00  0.00    -0.268 OA
ATOM      7  H   UNL A   1      30.998  24.325  26.213  1.00  0.00     0.163 HD
BRANCH   5   8
ATOM      8  C   UNL A   1      32.838  26.397  24.168  1.00  0.00     0.178 C 
ATOM      9  C   UNL A   1      32.432  27.338  22.980  1.00  0.00     0.063 C 
ATOM     10  C   UNL A   1      31.838  26.333  21.980  1.00  0.00     0.011 C 
ATOM     11  C   UNL A   1      32.798  25.149  22.037  1.00  0.00     0.008 C 
ATOM     12  C   UNL A   1      33.605  25.326  23.331  1.00  0.00     0.079 C 
BRANCH   9  13
ATOM     13  C   UNL A   1      31.546  28.582  23.103  1.00  0.00     0.039 C 
BRANCH  13  14
ATOM     14  C   UNL A   1      30.211  28.650  22.340  1.00  0.00     0.161 C 
BRANCH  14  15
ATOM     15  O   UNL A   1      29.806  29.958  21.963  1.00  0.00    -0.376 OA
BRANCH  15  16
ATOM     16  C   UNL A   1      28.530  30.488  22.352  1.00  0.00     0.060 C 
ATOM     17  C   UNL A   1      27.917  31.080  21.069  1.00  0.00     0.042 C 
ATOM     18  C   UNL A   1      28.774  31.657  23.313  1.00  0.00     0.042 C 
ATOM     19  C   UNL A   1      27.498  29.495  22.909  1.00  0.00     0.042 C 
ENDBRANCH  15  16
ENDBRANCH  14  15
ENDBRANCH  13  14
ENDBRANCH   9  13
BRANCH   8  20
ATOM     20  N   UNL A   1      33.760  27.066  25.095  1.00  0.00    -0.331 N 
ATOM     21  H   UNL A   1      34.380  27.637  24.520  1.00  0.00     0.347 HD
ATOM     22  H   UNL A   1      34.149  26.279  25.615  1.00  0.00     0.347 HD
BRANCH  20  23
ATOM     23  C   UNL A   1      33.288  27.937  26.172  1.00  0.00     0.183 C 
ATOM     24  C   UNL A   1      34.118  28.742  27.124  1.00  0.00     0.071 C 
ATOM     25  C   UNL A   1      33.455  29.426  25.971  1.00  0.00     0.071 C 
ENDBRANCH  20  23
ENDBRANCH   8  20
ENDBRANCH   5   8
ENDBRANCH   3   4
ENDBRANCH   2   3
ENDBRANCH   1   2
BRANCH   1  26
ATOM     26  C   UNL A   1      35.266  22.129  24.389  1.00  0.00     0.002 C 
BRANCH  26  27
ATOM     27  C   UNL A   1      36.745  22.507  24.256  1.00  0.00     0.021 C 
BRANCH  27  28
ATOM     28  C   UNL A   1      37.423  22.931  25.557  1.00  0.00     0.116 C 
BRANCH  28  29
ATOM     29  N   UNL A   1      38.477  22.010  25.943  1.00  0.00    -0.352 N 
ATOM     30  C   UNL A   1      39.734  22.267  26.428  1.00  0.00     0.251 C 
ATOM     31  H   UNL A   1      38.255  21.055  25.841  1.00  0.00     0.163 HD
ATOM     32  O   UNL A   1      40.560  21.361  26.471  1.00  0.00    -0.269 OA
BRANCH  30  33
ATOM     33  C   UNL A   1      40.093  23.628  26.883  1.00  0.00     0.039 A 
ATOM     34  C   UNL A   1      40.100  24.669  25.952  1.00  0.00     0.014 A 
ATOM     35  C   UNL A   1      40.464  23.870  28.209  1.00  0.00     0.014 A 
ATOM     36  C   UNL A   1      40.441  25.962  26.359  1.00  0.00     0.010 A 
ATOM     37  C   UNL A   1      40.736  25.171  28.628  1.00  0.00     0.010 A 
ATOM     38  C   UNL A   1      40.742  26.228  27.705  1.00  0.00    -0.014 A 
BRANCH  38  39
ATOM     39  C   UNL A   1      41.111  27.595  28.155  1.00  0.00     0.031 A 
ATOM     40  C   UNL A   1      42.558  28.010  28.175  1.00  0.00     0.074 A 
ATOM     41  C   UNL A   1      40.156  28.442  28.586  1.00  0.00     0.049 A 
ATOM     42  N   UNL A   1      43.098  29.120  28.607  1.00  0.00    -0.248 NA
ATOM     43  C   UNL A   1      43.530  27.029  27.667  1.00  0.00     0.031 C 
ATOM     44  C   UNL A   1      38.723  28.145  28.636  1.00  0.00     0.029 A 
ATOM     45  N   UNL A   1      40.246  29.723  29.069  1.00  0.00    -0.354 N 
ATOM     46  C   UNL A   1      44.470  28.968  28.435  1.00  0.00     0.074 A 
ATOM     47  C   UNL A   1      44.681  27.633  27.920  1.00  0.00     0.031 C 
ATOM     48  C   UNL A   1      38.068  29.221  29.102  1.00  0.00     0.029 A 
ATOM     49  C   UNL A   1      39.032  30.267  29.426  1.00  0.00     0.049 A 
ATOM     50  H   UNL A   1      41.098  30.209  29.154  1.00  0.00     0.167 HD
ATOM     51  C   UNL A   1      45.460  29.868  28.662  1.00  0.00     0.034 A 
ATOM     52  C   UNL A   1      38.736  31.467  29.964  1.00  0.00     0.034 A 
ATOM     53  C   UNL A   1      45.231  31.202  29.164  1.00  0.00     0.049 A 
ATOM     54  C   UNL A   1      39.857  32.442  30.232  1.00  0.00     0.074 A 
ATOM     55  C   UNL A   1      46.153  32.205  29.401  1.00  0.00     0.029 A 
ATOM     56  N   UNL A   1      43.987  31.718  29.507  1.00  0.00    -0.354 N 
ATOM     57  N   UNL A   1      41.147  32.294  30.035  1.00  0.00    -0.248 NA
ATOM     58  C   UNL A   1      39.479  33.750  30.783  1.00  0.00     0.031 C 
ATOM     59  C   UNL A   1      45.478  33.305  29.942  1.00  0.00     0.029 A 
ATOM     60  C   UNL A   1      44.124  33.018  29.972  1.00  0.00     0.049 A 
ATOM     61  H   UNL A   1      43.134  31.233  29.431  1.00  0.00     0.167 HD
ATOM     62  C   UNL A   1      41.727  33.506  30.398  1.00  0.00     0.074 A 
ATOM     63  C   UNL A   1      40.647  34.375  30.816  1.00  0.00     0.031 C 
ATOM     64  C   UNL A   1      43.034  33.872  30.383  1.00  0.00     0.034 A 
BRANCH  51  65
ATOM     65  C   UNL A   1      46.877  29.423  28.389  1.00  0.00     0.023 A 
ATOM     66  C   UNL A   1      47.645  28.768  29.367  1.00  0.00     0.031 A 
ATOM     67  C   UNL A   1      47.480  29.682  27.145  1.00  0.00     0.131 A 
ATOM     68  C   UNL A   1      48.992  28.465  29.115  1.00  0.00     0.055 A 
ATOM     69  C   UNL A   1      48.795  29.300  26.870  1.00  0.00     0.041 A 
ATOM     70  F   UNL A   1      46.805  30.322  26.177  1.00  0.00    -0.206 F 
ATOM     71  C   UNL A   1      49.565  28.702  27.864  1.00  0.00     0.022 A 
BRANCH  68  72
ATOM     72  S   UNL A   1      50.022  27.886  30.491  1.00  0.00     0.124 S 
ATOM     73  O   UNL A   1      50.319  29.139  31.182  1.00  0.00    -0.237 OA
ATOM     74  O   UNL A   1      49.131  26.967  31.189  1.00  0.00    -0.237 OA
ATOM     75  O   UNL A   1      51.166  27.265  29.827  1.00  0.00    -0.744 OA
ENDBRANCH  68  72
ENDBRANCH  51  65
BRANCH  52  76
ATOM     76  C   UNL A   1      37.326  31.826  30.291  1.00  0.00     0.023 A 
ATOM     77  C   UNL A   1      36.454  32.303  29.300  1.00  0.00     0.031 A 
ATOM     78  C   UNL A   1      36.845  31.752  31.610  1.00  0.00     0.131 A 
ATOM     79  C   UNL A   1      35.167  32.742  29.650  1.00  0.00     0.055 A 
ATOM     80  C   UNL A   1      35.545  32.137  31.945  1.00  0.00     0.041 A 
ATOM     81  F   UNL A   1      37.635  31.299  32.598  1.00  0.00    -0.206 F 
ATOM     82  C   UNL A   1      34.703  32.650  30.964  1.00  0.00     0.022 A 
BRANCH  79  83
ATOM     83  S   UNL A   1      34.144  33.531  28.378  1.00  0.00     0.124 S 
ATOM     84  O   UNL A   1      35.154  34.124  27.510  1.00  0.00    -0.237 OA
ATOM     85  O   UNL A   1      33.414  32.393  27.829  1.00  0.00    -0.237 OA
ATOM     86  O   UNL A   1      33.333  34.482  29.135  1.00  0.00    -0.744 OA
ENDBRANCH  79  83
ENDBRANCH  52  76
BRANCH  64  87
ATOM     87  C   UNL A   1      43.354  35.296  30.770  1.00  0.00     0.023 A 
ATOM     88  C   UNL A   1      43.414  36.330  29.819  1.00  0.00     0.031 A 
ATOM     89  C   UNL A   1      43.616  35.616  32.114  1.00  0.00     0.131 A 
ATOM     90  C   UNL A   1      43.785  37.623  30.218  1.00  0.00     0.055 A 
ATOM     91  C   UNL A   1      43.924  36.917  32.513  1.00  0.00     0.041 A 
ATOM     92  F   UNL A   1      43.573  34.667  33.063  1.00  0.00    -0.206 F 
ATOM     93  C   UNL A   1      44.024  37.927  31.561  1.00  0.00     0.022 A 
BRANCH  90  94
ATOM     94  S   UNL A   1      44.043  38.887  28.942  1.00  0.00     0.124 S 
ATOM     95  O   UNL A   1      45.076  39.722  29.545  1.00  0.00    -0.237 OA
ATOM     96  O   UNL A   1      44.458  38.089  27.793  1.00  0.00    -0.237 OA
ATOM     97  O   UNL A   1      42.731  39.520  28.815  1.00  0.00    -0.744 OA
ENDBRANCH  90  94
ENDBRANCH  64  87
ENDBRANCH  38  39
ENDBRANCH  30  33
ENDBRANCH  28  29
ENDBRANCH  27  28
ENDBRANCH  26  27
ENDBRANCH   1  26
TORSDOF 22
ENDMDL
