MODEL 1
REMARK VINA RESULT:     -11.1      0.000      0.000
REMARK SMILES CC[C@@](C)(NS(=O)(=O)c1ccc(F)c(F)c1)C(=O)NCCCCCCNC(=O)c1ccc(-c2c3nc(c(-c4cc(S(=O)(=O)[O-])ccc4F)c4ccc([nH]4)c(-c4cc(S(=O)(=O)[O-])ccc4F)c4nc(c(-c5cc(S(=O)(=O)[O-])ccc5F)c5ccc2[nH]5)C=C4)C=C3)cc1
REMARK SMILES IDX 22 1 21 2 20 3 19 4 17 5 18 6 3 8 4 9 2 10 1 11 5 12 6 14
REMARK SMILES IDX 7 15 8 16 9 17 10 18 16 19 11 20 14 21 12 22 15 23 13 24
REMARK SMILES IDX 23 25 24 26 25 27 26 28 27 29 28 31 29 32 30 33 91 34 31 35
REMARK SMILES IDX 90 36 32 37 33 38 34 39 84 40 35 41 89 42 83 43 85 44 36 45
REMARK SMILES IDX 88 46 82 47 81 48 37 50 69 51 49 52 68 53 50 54 53 55 67 56
REMARK SMILES IDX 86 57 51 58 52 59 66 61 87 62 54 63 38 64 39 65 47 66 40 67
REMARK SMILES IDX 46 68 48 69 45 70 41 71 42 72 43 73 44 74 70 75 71 76 79 77
REMARK SMILES IDX 72 78 78 79 80 80 77 81 73 82 74 83 75 84 76 85 55 86 56 87
REMARK SMILES IDX 64 88 57 89 63 90 65 91 62 92 58 93 59 94 60 95 61 96
REMARK H PARENT 19 7 5 13 26 30 85 49 53 60
REMARK Flexibility Score: inf
ROOT
ATOM      1  C   UNL A   1      31.004  27.080  26.498  1.00  0.00     0.002 C 
ENDROOT
BRANCH   1   2
ATOM      2  C   UNL A   1      31.686  26.138  25.499  1.00  0.00     0.021 C 
BRANCH   2   3
ATOM      3  C   UNL A   1      33.169  25.764  25.682  1.00  0.00     0.116 C 
BRANCH   3   4
ATOM      4  N   UNL A   1      33.471  24.485  26.314  1.00  0.00    -0.354 N 
ATOM      5  C   UNL A   1      33.957  23.270  25.935  1.00  0.00     0.241 C 
ATOM      6  O   UNL A   1      34.188  22.512  26.891  1.00  0.00    -0.273 OA
ATOM      7  H   UNL A   1      33.269  24.505  27.277  1.00  0.00     0.163 HD
BRANCH   5   8
ATOM      8  C   UNL A   1      34.164  22.754  24.489  1.00  0.00     0.108 C 
ATOM      9  C   UNL A   1      33.302  23.515  23.473  1.00  0.00     0.040 C 
BRANCH   8  10
ATOM     10  C   UNL A   1      35.676  22.954  24.071  1.00  0.00     0.030 C 
ATOM     11  C   UNL A   1      36.678  21.868  24.433  1.00  0.00     0.006 C 
ENDBRANCH   8  10
BRANCH   8  12
ATOM     12  N   UNL A   1      34.007  21.303  24.246  1.00  0.00    -0.196 NA
ATOM     13  H   UNL A   1      34.615  20.874  24.945  1.00  0.00     0.142 HD
BRANCH  12  14
ATOM     14  S   UNL A   1      32.673  20.327  24.240  1.00  0.00     0.241 S 
ATOM     15  O   UNL A   1      31.847  20.694  25.372  1.00  0.00    -0.207 OA
ATOM     16  O   UNL A   1      32.154  20.450  22.900  1.00  0.00    -0.207 OA
BRANCH  14  17
ATOM     17  C   UNL A   1      33.155  18.630  24.450  1.00  0.00     0.085 A 
ATOM     18  C   UNL A   1      34.487  18.285  24.210  1.00  0.00     0.025 A 
ATOM     19  C   UNL A   1      32.330  17.708  25.088  1.00  0.00     0.064 A 
ATOM     20  C   UNL A   1      35.013  17.043  24.541  1.00  0.00     0.044 A 
ATOM     21  C   UNL A   1      32.859  16.460  25.438  1.00  0.00     0.160 A 
ATOM     22  C   UNL A   1      34.187  16.130  25.165  1.00  0.00     0.158 A 
ATOM     23  F   UNL A   1      32.080  15.580  26.080  1.00  0.00    -0.204 F 
ATOM     24  F   UNL A   1      34.685  14.940  25.526  1.00  0.00    -0.204 F 
ENDBRANCH  14  17
ENDBRANCH  12  14
ENDBRANCH   8  12
ENDBRANCH   5   8
ENDBRANCH   3   4
ENDBRANCH   2   3
ENDBRANCH   1   2
BRANCH   1  25
ATOM     25  C   UNL A   1      31.895  28.092  27.212  1.00  0.00     0.002 C 
BRANCH  25  26
ATOM     26  C   UNL A   1      32.225  29.327  26.381  1.00  0.00     0.021 C 
BRANCH  26  27
ATOM     27  C   UNL A   1      33.563  29.983  26.709  1.00  0.00     0.116 C 
BRANCH  27  28
ATOM     28  N   UNL A   1      33.444  31.256  27.412  1.00  0.00    -0.352 N 
ATOM     29  C   UNL A   1      34.362  31.774  28.302  1.00  0.00     0.251 C 
ATOM     30  H   UNL A   1      32.637  31.792  27.235  1.00  0.00     0.163 HD
ATOM     31  O   UNL A   1      34.164  32.821  28.903  1.00  0.00    -0.269 OA
BRANCH  29  32
ATOM     32  C   UNL A   1      35.587  30.981  28.515  1.00  0.00     0.039 A 
ATOM     33  C   UNL A   1      36.808  31.480  28.060  1.00  0.00     0.014 A 
ATOM     34  C   UNL A   1      35.525  29.869  29.360  1.00  0.00     0.014 A 
ATOM     35  C   UNL A   1      37.991  30.889  28.506  1.00  0.00     0.010 A 
ATOM     36  C   UNL A   1      36.706  29.329  29.853  1.00  0.00     0.010 A 
ATOM     37  C   UNL A   1      37.949  29.834  29.432  1.00  0.00    -0.014 A 
BRANCH  37  38
ATOM     38  C   UNL A   1      39.194  29.210  29.946  1.00  0.00     0.031 A 
ATOM     39  C   UNL A   1      39.822  29.762  31.195  1.00  0.00     0.074 A 
ATOM     40  C   UNL A   1      39.787  28.210  29.264  1.00  0.00     0.049 A 
ATOM     41  N   UNL A   1      40.952  29.439  31.769  1.00  0.00    -0.248 NA
ATOM     42  C   UNL A   1      39.099  30.855  31.863  1.00  0.00     0.031 C 
ATOM     43  C   UNL A   1      39.293  27.628  28.012  1.00  0.00     0.029 A 
ATOM     44  N   UNL A   1      40.939  27.509  29.520  1.00  0.00    -0.354 N 
ATOM     45  C   UNL A   1      41.085  30.306  32.849  1.00  0.00     0.074 A 
ATOM     46  C   UNL A   1      39.956  31.210  32.806  1.00  0.00     0.031 C 
ATOM     47  C   UNL A   1      40.125  26.646  27.625  1.00  0.00     0.029 A 
ATOM     48  C   UNL A   1      41.227  26.547  28.577  1.00  0.00     0.049 A 
ATOM     49  H   UNL A   1      41.506  27.678  30.306  1.00  0.00     0.167 HD
ATOM     50  C   UNL A   1      42.044  30.326  33.806  1.00  0.00     0.034 A 
ATOM     51  C   UNL A   1      42.266  25.691  28.494  1.00  0.00     0.034 A 
ATOM     52  C   UNL A   1      43.142  29.395  33.848  1.00  0.00     0.049 A 
ATOM     53  C   UNL A   1      43.312  25.718  29.582  1.00  0.00     0.074 A 
ATOM     54  C   UNL A   1      44.143  29.282  34.797  1.00  0.00     0.029 A 
ATOM     55  N   UNL A   1      43.380  28.408  32.899  1.00  0.00    -0.354 N 
ATOM     56  N   UNL A   1      43.397  26.510  30.627  1.00  0.00    -0.248 NA
ATOM     57  C   UNL A   1      44.393  24.729  29.489  1.00  0.00     0.031 C 
ATOM     58  C   UNL A   1      45.014  28.262  34.394  1.00  0.00     0.029 A 
ATOM     59  C   UNL A   1      44.520  27.695  33.230  1.00  0.00     0.049 A 
ATOM     60  H   UNL A   1      42.821  28.242  32.106  1.00  0.00     0.167 HD
ATOM     61  C   UNL A   1      44.519  26.086  31.335  1.00  0.00     0.074 A 
ATOM     62  C   UNL A   1      45.071  24.965  30.603  1.00  0.00     0.031 C 
ATOM     63  C   UNL A   1      45.045  26.575  32.487  1.00  0.00     0.034 A 
BRANCH  50  64
ATOM     64  C   UNL A   1      41.944  31.400  34.862  1.00  0.00     0.023 A 
ATOM     65  C   UNL A   1      40.923  31.386  35.830  1.00  0.00     0.031 A 
ATOM     66  C   UNL A   1      42.848  32.476  34.875  1.00  0.00     0.131 A 
ATOM     67  C   UNL A   1      40.777  32.469  36.709  1.00  0.00     0.055 A 
ATOM     68  C   UNL A   1      42.749  33.508  35.810  1.00  0.00     0.041 A 
ATOM     69  F   UNL A   1      43.831  32.553  33.964  1.00  0.00    -0.206 F 
ATOM     70  C   UNL A   1      41.699  33.518  36.723  1.00  0.00     0.022 A 
BRANCH  67  71
ATOM     71  S   UNL A   1      39.281  32.557  37.730  1.00  0.00     0.124 S 
ATOM     72  O   UNL A   1      39.844  32.528  39.077  1.00  0.00    -0.237 OA
ATOM     73  O   UNL A   1      38.687  33.823  37.313  1.00  0.00    -0.237 OA
ATOM     74  O   UNL A   1      38.535  31.361  37.346  1.00  0.00    -0.744 OA
ENDBRANCH  67  71
ENDBRANCH  50  64
BRANCH  51  75
ATOM     75  C   UNL A   1      42.377  24.731  27.356  1.00  0.00     0.023 A 
ATOM     76  C   UNL A   1      41.715  23.493  27.387  1.00  0.00     0.031 A 
ATOM     77  C   UNL A   1      43.194  25.013  26.247  1.00  0.00     0.131 A 
ATOM     78  C   UNL A   1      41.923  22.560  26.358  1.00  0.00     0.055 A 
ATOM     79  C   UNL A   1      43.357  24.102  25.201  1.00  0.00     0.041 A 
ATOM     80  F   UNL A   1      43.845  26.184  26.161  1.00  0.00    -0.206 F 
ATOM     81  C   UNL A   1      42.731  22.860  25.260  1.00  0.00     0.022 A 
BRANCH  78  82
ATOM     82  S   UNL A   1      41.195  20.907  26.524  1.00  0.00     0.124 S 
ATOM     83  O   UNL A   1      39.821  21.142  26.093  1.00  0.00    -0.237 OA
ATOM     84  O   UNL A   1      42.027  20.119  25.621  1.00  0.00    -0.237 OA
ATOM     85  O   UNL A   1      41.360  20.603  27.945  1.00  0.00    -0.744 OA
ENDBRANCH  78  82
ENDBRANCH  51  75
BRANCH  63  86
ATOM     86  C   UNL A   1      46.244  25.857  33.051  1.00  0.00     0.023 A 
ATOM     87  C   UNL A   1      46.110  24.776  33.940  1.00  0.00     0.031 A 
ATOM     88  C   UNL A   1      47.540  26.261  32.687  1.00  0.00     0.131 A 
ATOM     89  C   UNL A   1      47.255  24.167  34.472  1.00  0.00     0.055 A 
ATOM     90  C   UNL A   1      48.675  25.615  33.177  1.00  0.00     0.041 A 
ATOM     91  F   UNL A   1      47.723  27.288  31.841  1.00  0.00    -0.206 F 
ATOM     92  C   UNL A   1      48.536  24.568  34.085  1.00  0.00     0.022 A 
BRANCH  89  93
ATOM     93  S   UNL A   1      47.050  22.888  35.742  1.00  0.00     0.124 S 
ATOM     94  O   UNL A   1      45.596  22.798  35.850  1.00  0.00    -0.237 OA
ATOM     95  O   UNL A   1      47.716  21.738  35.138  1.00  0.00    -0.237 OA
ATOM     96  O   UNL A   1      47.724  23.452  36.910  1.00  0.00    -0.744 OA
ENDBRANCH  89  93
ENDBRANCH  63  86
ENDBRANCH  37  38
ENDBRANCH  29  32
ENDBRANCH  27  28
ENDBRANCH  26  27
ENDBRANCH  25  26
ENDBRANCH   1  25
TORSDOF 20
ENDMDL
MODEL 2
REMARK VINA RESULT:     -11.1      1.906      2.379
REMARK SMILES CC[C@@](C)(NS(=O)(=O)c1ccc(F)c(F)c1)C(=O)NCCCCCCNC(=O)c1ccc(-c2c3nc(c(-c4cc(S(=O)(=O)[O-])ccc4F)c4ccc([nH]4)c(-c4cc(S(=O)(=O)[O-])ccc4F)c4nc(c(-c5cc(S(=O)(=O)[O-])ccc5F)c5ccc2[nH]5)C=C4)C=C3)cc1
REMARK SMILES IDX 22 1 21 2 20 3 19 4 17 5 18 6 3 8 4 9 2 10 1 11 5 12 6 14
REMARK SMILES IDX 7 15 8 16 9 17 10 18 16 19 11 20 14 21 12 22 15 23 13 24
REMARK SMILES IDX 23 25 24 26 25 27 26 28 27 29 28 31 29 32 30 33 91 34 31 35
REMARK SMILES IDX 90 36 32 37 33 38 34 39 84 40 35 41 89 42 83 43 85 44 36 45
REMARK SMILES IDX 88 46 82 47 81 48 37 50 69 51 49 52 68 53 50 54 53 55 67 56
REMARK SMILES IDX 86 57 51 58 52 59 66 61 87 62 54 63 38 64 39 65 47 66 40 67
REMARK SMILES IDX 46 68 48 69 45 70 41 71 42 72 43 73 44 74 70 75 71 76 79 77
REMARK SMILES IDX 72 78 78 79 80 80 77 81 73 82 74 83 75 84 76 85 55 86 56 87
REMARK SMILES IDX 64 88 57 89 63 90 65 91 62 92 58 93 59 94 60 95 61 96
REMARK H PARENT 19 7 5 13 26 30 85 49 53 60
REMARK Flexibility Score: inf
ROOT
ATOM      1  C   UNL A   1      32.591  26.932  25.232  1.00  0.00     0.002 C 
ENDROOT
BRANCH   1   2
ATOM      2  C   UNL A   1      33.751  26.054  24.747  1.00  0.00     0.021 C 
BRANCH   2   3
ATOM      3  C   UNL A   1      33.491  24.922  23.736  1.00  0.00     0.116 C 
BRANCH   3   4
ATOM      4  N   UNL A   1      34.647  24.201  23.217  1.00  0.00    -0.354 N 
ATOM      5  C   UNL A   1      35.558  23.301  23.684  1.00  0.00     0.241 C 
ATOM      6  O   UNL A   1      36.295  22.841  22.796  1.00  0.00    -0.273 OA
ATOM      7  H   UNL A   1      34.815  24.423  22.273  1.00  0.00     0.163 HD
BRANCH   5   8
ATOM      8  C   UNL A   1      35.792  22.883  25.157  1.00  0.00     0.108 C 
ATOM      9  C   UNL A   1      36.446  21.499  25.271  1.00  0.00     0.040 C 
BRANCH   8  10
ATOM     10  C   UNL A   1      36.762  23.923  25.850  1.00  0.00     0.030 C 
ATOM     11  C   UNL A   1      38.224  23.542  26.032  1.00  0.00     0.006 C 
ENDBRANCH   8  10
BRANCH   8  12
ATOM     12  N   UNL A   1      34.637  22.937  26.080  1.00  0.00    -0.196 NA
ATOM     13  H   UNL A   1      34.196  23.831  25.863  1.00  0.00     0.142 HD
BRANCH  12  14
ATOM     14  S   UNL A   1      33.357  21.914  26.299  1.00  0.00     0.241 S 
ATOM     15  O   UNL A   1      33.645  21.078  27.445  1.00  0.00    -0.207 OA
ATOM     16  O   UNL A   1      32.209  22.787  26.314  1.00  0.00    -0.207 OA
BRANCH  14  17
ATOM     17  C   UNL A   1      33.174  20.852  24.886  1.00  0.00     0.085 A 
ATOM     18  C   UNL A   1      33.450  19.491  25.041  1.00  0.00     0.025 A 
ATOM     19  C   UNL A   1      32.524  21.275  23.731  1.00  0.00     0.064 A 
ATOM     20  C   UNL A   1      33.143  18.547  24.069  1.00  0.00     0.044 A 
ATOM     21  C   UNL A   1      32.197  20.326  22.756  1.00  0.00     0.160 A 
ATOM     22  C   UNL A   1      32.506  18.975  22.921  1.00  0.00     0.158 A 
ATOM     23  F   UNL A   1      31.544  20.721  21.655  1.00  0.00    -0.204 F 
ATOM     24  F   UNL A   1      32.168  18.075  21.989  1.00  0.00    -0.204 F 
ENDBRANCH  14  17
ENDBRANCH  12  14
ENDBRANCH   8  12
ENDBRANCH   5   8
ENDBRANCH   3   4
ENDBRANCH   2   3
ENDBRANCH   1   2
BRANCH   1  25
ATOM     25  C   UNL A   1      32.584  28.385  24.767  1.00  0.00     0.002 C 
BRANCH  25  26
ATOM     26  C   UNL A   1      33.617  29.267  25.461  1.00  0.00     0.021 C 
BRANCH  26  27
ATOM     27  C   UNL A   1      33.392  29.465  26.957  1.00  0.00     0.116 C 
BRANCH  27  28
ATOM     28  N   UNL A   1      33.444  30.858  27.386  1.00  0.00    -0.352 N 
ATOM     29  C   UNL A   1      34.484  31.452  28.072  1.00  0.00     0.251 C 
ATOM     30  H   UNL A   1      32.669  31.424  27.168  1.00  0.00     0.163 HD
ATOM     31  O   UNL A   1      34.429  32.612  28.455  1.00  0.00    -0.269 OA
BRANCH  29  32
ATOM     32  C   UNL A   1      35.658  30.603  28.346  1.00  0.00     0.039 A 
ATOM     33  C   UNL A   1      36.837  30.823  27.634  1.00  0.00     0.014 A 
ATOM     34  C   UNL A   1      35.627  29.759  29.460  1.00  0.00     0.014 A 
ATOM     35  C   UNL A   1      38.020  30.231  28.081  1.00  0.00     0.010 A 
ATOM     36  C   UNL A   1      36.818  29.229  29.939  1.00  0.00     0.010 A 
ATOM     37  C   UNL A   1      38.025  29.460  29.256  1.00  0.00    -0.014 A 
BRANCH  37  38
ATOM     38  C   UNL A   1      39.276  28.848  29.770  1.00  0.00     0.031 A 
ATOM     39  C   UNL A   1      39.902  29.408  31.016  1.00  0.00     0.074 A 
ATOM     40  C   UNL A   1      39.875  27.850  29.090  1.00  0.00     0.049 A 
ATOM     41  N   UNL A   1      41.034  29.096  31.589  1.00  0.00    -0.248 NA
ATOM     42  C   UNL A   1      39.171  30.498  31.681  1.00  0.00     0.031 C 
ATOM     43  C   UNL A   1      39.384  27.261  27.841  1.00  0.00     0.029 A 
ATOM     44  N   UNL A   1      41.033  27.159  29.346  1.00  0.00    -0.354 N 
ATOM     45  C   UNL A   1      41.162  29.967  32.666  1.00  0.00     0.074 A 
ATOM     46  C   UNL A   1      40.027  30.862  32.622  1.00  0.00     0.031 C 
ATOM     47  C   UNL A   1      40.223  26.284  27.455  1.00  0.00     0.029 A 
ATOM     48  C   UNL A   1      41.327  26.197  28.406  1.00  0.00     0.049 A 
ATOM     49  H   UNL A   1      41.600  27.335  30.130  1.00  0.00     0.167 HD
ATOM     50  C   UNL A   1      42.123  29.998  33.622  1.00  0.00     0.034 A 
ATOM     51  C   UNL A   1      42.372  25.349  28.324  1.00  0.00     0.034 A 
ATOM     52  C   UNL A   1      43.228  29.075  33.665  1.00  0.00     0.049 A 
ATOM     53  C   UNL A   1      43.420  25.387  29.410  1.00  0.00     0.074 A 
ATOM     54  C   UNL A   1      44.232  28.973  34.612  1.00  0.00     0.029 A 
ATOM     55  N   UNL A   1      43.473  28.088  32.718  1.00  0.00    -0.354 N 
ATOM     56  N   UNL A   1      43.500  26.183  30.453  1.00  0.00    -0.248 NA
ATOM     57  C   UNL A   1      44.509  24.406  29.318  1.00  0.00     0.031 C 
ATOM     58  C   UNL A   1      45.110  27.959  34.212  1.00  0.00     0.029 A 
ATOM     59  C   UNL A   1      44.618  27.384  33.050  1.00  0.00     0.049 A 
ATOM     60  H   UNL A   1      42.913  27.915  31.926  1.00  0.00     0.167 HD
ATOM     61  C   UNL A   1      44.627  25.770  31.159  1.00  0.00     0.074 A 
ATOM     62  C   UNL A   1      45.186  24.650  30.430  1.00  0.00     0.031 C 
ATOM     63  C   UNL A   1      45.151  26.266  32.309  1.00  0.00     0.034 A 
BRANCH  50  64
ATOM     64  C   UNL A   1      42.016  31.074  34.674  1.00  0.00     0.023 A 
ATOM     65  C   UNL A   1      42.627  32.330  34.506  1.00  0.00     0.031 A 
ATOM     66  C   UNL A   1      41.339  30.829  35.881  1.00  0.00     0.131 A 
ATOM     67  C   UNL A   1      42.624  33.257  35.559  1.00  0.00     0.055 A 
ATOM     68  C   UNL A   1      41.266  31.789  36.892  1.00  0.00     0.041 A 
ATOM     69  F   UNL A   1      40.753  29.642  36.106  1.00  0.00    -0.206 F 
ATOM     70  C   UNL A   1      41.925  33.005  36.741  1.00  0.00     0.022 A 
BRANCH  67  71
ATOM     71  S   UNL A   1      43.673  34.730  35.416  1.00  0.00     0.124 S 
ATOM     72  O   UNL A   1      43.721  35.191  36.801  1.00  0.00    -0.237 OA
ATOM     73  O   UNL A   1      44.915  34.182  34.882  1.00  0.00    -0.237 OA
ATOM     74  O   UNL A   1      42.927  35.593  34.503  1.00  0.00    -0.744 OA
ENDBRANCH  67  71
ENDBRANCH  50  64
BRANCH  51  75
ATOM     75  C   UNL A   1      42.489  24.386  27.189  1.00  0.00     0.023 A 
ATOM     76  C   UNL A   1      41.906  23.110  27.258  1.00  0.00     0.031 A 
ATOM     77  C   UNL A   1      43.235  24.705  26.040  1.00  0.00     0.131 A 
ATOM     78  C   UNL A   1      42.123  22.181  26.228  1.00  0.00     0.055 A 
ATOM     79  C   UNL A   1      43.405  23.796  24.994  1.00  0.00     0.041 A 
ATOM     80  F   UNL A   1      43.809  25.913  25.916  1.00  0.00    -0.206 F 
ATOM     81  C   UNL A   1      42.859  22.519  25.091  1.00  0.00     0.022 A 
BRANCH  78  82
ATOM     82  S   UNL A   1      41.504  20.489  26.439  1.00  0.00     0.124 S 
ATOM     83  O   UNL A   1      42.263  19.766  25.425  1.00  0.00    -0.237 OA
ATOM     84  O   UNL A   1      41.858  20.210  27.827  1.00  0.00    -0.237 OA
ATOM     85  O   UNL A   1      40.072  20.615  26.176  1.00  0.00    -0.744 OA
ENDBRANCH  78  82
ENDBRANCH  51  75
BRANCH  63  86
ATOM     86  C   UNL A   1      46.356  25.559  32.874  1.00  0.00     0.023 A 
ATOM     87  C   UNL A   1      46.233  24.513  33.805  1.00  0.00     0.031 A 
ATOM     88  C   UNL A   1      47.647  25.939  32.467  1.00  0.00     0.131 A 
ATOM     89  C   UNL A   1      47.385  23.914  34.334  1.00  0.00     0.055 A 
ATOM     90  C   UNL A   1      48.788  25.301  32.956  1.00  0.00     0.041 A 
ATOM     91  F   UNL A   1      47.819  26.932  31.581  1.00  0.00    -0.206 F 
ATOM     92  C   UNL A   1      48.660  24.290  33.905  1.00  0.00     0.022 A 
BRANCH  89  93
ATOM     93  S   UNL A   1      47.197  22.684  35.654  1.00  0.00     0.124 S 
ATOM     94  O   UNL A   1      47.822  21.505  35.062  1.00  0.00    -0.237 OA
ATOM     95  O   UNL A   1      47.922  23.301  36.761  1.00  0.00    -0.237 OA
ATOM     96  O   UNL A   1      45.750  22.593  35.836  1.00  0.00    -0.744 OA
ENDBRANCH  89  93
ENDBRANCH  63  86
ENDBRANCH  37  38
ENDBRANCH  29  32
ENDBRANCH  27  28
ENDBRANCH  26  27
ENDBRANCH  25  26
ENDBRANCH   1  25
TORSDOF 20
ENDMDL
MODEL 3
REMARK VINA RESULT:     -11.1      6.007      9.145
REMARK SMILES CC[C@@](C)(NS(=O)(=O)c1ccc(F)c(F)c1)C(=O)NCCCCCCNC(=O)c1ccc(-c2c3nc(c(-c4cc(S(=O)(=O)[O-])ccc4F)c4ccc([nH]4)c(-c4cc(S(=O)(=O)[O-])ccc4F)c4nc(c(-c5cc(S(=O)(=O)[O-])ccc5F)c5ccc2[nH]5)C=C4)C=C3)cc1
REMARK SMILES IDX 22 1 21 2 20 3 19 4 17 5 18 6 3 8 4 9 2 10 1 11 5 12 6 14
REMARK SMILES IDX 7 15 8 16 9 17 10 18 16 19 11 20 14 21 12 22 15 23 13 24
REMARK SMILES IDX 23 25 24 26 25 27 26 28 27 29 28 31 29 32 30 33 91 34 31 35
REMARK SMILES IDX 90 36 32 37 33 38 34 39 84 40 35 41 89 42 83 43 85 44 36 45
REMARK SMILES IDX 88 46 82 47 81 48 37 50 69 51 49 52 68 53 50 54 53 55 67 56
REMARK SMILES IDX 86 57 51 58 52 59 66 61 87 62 54 63 38 64 39 65 47 66 40 67
REMARK SMILES IDX 46 68 48 69 45 70 41 71 42 72 43 73 44 74 70 75 71 76 79 77
REMARK SMILES IDX 72 78 78 79 80 80 77 81 73 82 74 83 75 84 76 85 55 86 56 87
REMARK SMILES IDX 64 88 57 89 63 90 65 91 62 92 58 93 59 94 60 95 61 96
REMARK H PARENT 19 7 5 13 26 30 85 49 53 60
REMARK Flexibility Score: inf
ROOT
ATOM      1  C   UNL A   1      37.044  23.405  24.611  1.00  0.00     0.002 C 
ENDROOT
BRANCH   1   2
ATOM      2  C   UNL A   1      36.327  22.939  23.338  1.00  0.00     0.021 C 
BRANCH   2   3
ATOM      3  C   UNL A   1      34.834  23.258  23.133  1.00  0.00     0.116 C 
BRANCH   3   4
ATOM      4  N   UNL A   1      33.862  22.303  23.650  1.00  0.00    -0.354 N 
ATOM      5  C   UNL A   1      32.790  22.321  24.493  1.00  0.00     0.241 C 
ATOM      6  O   UNL A   1      32.159  21.252  24.509  1.00  0.00    -0.273 OA
ATOM      7  H   UNL A   1      34.021  21.400  23.294  1.00  0.00     0.163 HD
BRANCH   5   8
ATOM      8  C   UNL A   1      32.361  23.472  25.437  1.00  0.00     0.108 C 
ATOM      9  C   UNL A   1      31.121  23.109  26.266  1.00  0.00     0.040 C 
BRANCH   8  10
ATOM     10  C   UNL A   1      33.534  23.784  26.451  1.00  0.00     0.030 C 
ATOM     11  C   UNL A   1      34.011  22.672  27.373  1.00  0.00     0.006 C 
ENDBRANCH   8  10
BRANCH   8  12
ATOM     12  N   UNL A   1      32.155  24.811  24.842  1.00  0.00    -0.196 NA
ATOM     13  H   UNL A   1      33.099  25.188  24.764  1.00  0.00     0.142 HD
BRANCH  12  14
ATOM     14  S   UNL A   1      31.426  25.289  23.438  1.00  0.00     0.241 S 
ATOM     15  O   UNL A   1      32.349  25.040  22.350  1.00  0.00    -0.207 OA
ATOM     16  O   UNL A   1      30.145  24.627  23.463  1.00  0.00    -0.207 OA
BRANCH  14  17
ATOM     17  C   UNL A   1      31.101  27.036  23.482  1.00  0.00     0.085 A 
ATOM     18  C   UNL A   1      30.216  27.568  22.542  1.00  0.00     0.025 A 
ATOM     19  C   UNL A   1      31.481  27.824  24.564  1.00  0.00     0.064 A 
ATOM     20  C   UNL A   1      29.735  28.869  22.615  1.00  0.00     0.044 A 
ATOM     21  C   UNL A   1      30.987  29.131  24.652  1.00  0.00     0.160 A 
ATOM     22  C   UNL A   1      30.124  29.649  23.686  1.00  0.00     0.158 A 
ATOM     23  F   UNL A   1      31.324  29.885  25.707  1.00  0.00    -0.204 F 
ATOM     24  F   UNL A   1      29.641  30.893  23.796  1.00  0.00    -0.204 F 
ENDBRANCH  14  17
ENDBRANCH  12  14
ENDBRANCH   8  12
ENDBRANCH   5   8
ENDBRANCH   3   4
ENDBRANCH   2   3
ENDBRANCH   1   2
BRANCH   1  25
ATOM     25  C   UNL A   1      37.305  22.350  25.681  1.00  0.00     0.002 C 
BRANCH  25  26
ATOM     26  C   UNL A   1      38.326  21.291  25.278  1.00  0.00     0.021 C 
BRANCH  26  27
ATOM     27  C   UNL A   1      39.472  21.094  26.265  1.00  0.00     0.116 C 
BRANCH  27  28
ATOM     28  N   UNL A   1      40.165  19.819  26.124  1.00  0.00    -0.352 N 
ATOM     29  C   UNL A   1      41.533  19.638  26.138  1.00  0.00     0.251 C 
ATOM     30  H   UNL A   1      39.607  19.015  26.009  1.00  0.00     0.163 HD
ATOM     31  O   UNL A   1      42.045  18.543  25.951  1.00  0.00    -0.269 OA
BRANCH  29  32
ATOM     32  C   UNL A   1      42.351  20.844  26.363  1.00  0.00     0.039 A 
ATOM     33  C   UNL A   1      42.647  21.675  25.281  1.00  0.00     0.014 A 
ATOM     34  C   UNL A   1      42.613  21.239  27.677  1.00  0.00     0.014 A 
ATOM     35  C   UNL A   1      43.162  22.949  25.526  1.00  0.00     0.010 A 
ATOM     36  C   UNL A   1      43.062  22.531  27.917  1.00  0.00     0.010 A 
ATOM     37  C   UNL A   1      43.340  23.398  26.846  1.00  0.00    -0.014 A 
BRANCH  37  38
ATOM     38  C   UNL A   1      43.856  24.761  27.133  1.00  0.00     0.031 A 
ATOM     39  C   UNL A   1      42.921  25.786  27.710  1.00  0.00     0.074 A 
ATOM     40  C   UNL A   1      45.124  25.089  26.816  1.00  0.00     0.049 A 
ATOM     41  N   UNL A   1      43.125  27.054  27.950  1.00  0.00    -0.248 NA
ATOM     42  C   UNL A   1      41.556  25.328  28.017  1.00  0.00     0.031 C 
ATOM     43  C   UNL A   1      46.106  24.189  26.205  1.00  0.00     0.029 A 
ATOM     44  N   UNL A   1      45.805  26.273  26.955  1.00  0.00    -0.354 N 
ATOM     45  C   UNL A   1      41.910  27.550  28.413  1.00  0.00     0.074 A 
ATOM     46  C   UNL A   1      40.960  26.460  28.351  1.00  0.00     0.031 C 
ATOM     47  C   UNL A   1      47.267  24.847  26.044  1.00  0.00     0.029 A 
ATOM     48  C   UNL A   1      47.107  26.222  26.507  1.00  0.00     0.049 A 
ATOM     49  H   UNL A   1      45.401  27.083  27.340  1.00  0.00     0.167 HD
ATOM     50  C   UNL A   1      41.621  28.791  28.875  1.00  0.00     0.034 A 
ATOM     51  C   UNL A   1      48.054  27.180  26.473  1.00  0.00     0.034 A 
ATOM     52  C   UNL A   1      42.592  29.852  28.958  1.00  0.00     0.049 A 
ATOM     53  C   UNL A   1      47.717  28.550  27.010  1.00  0.00     0.074 A 
ATOM     54  C   UNL A   1      42.432  31.132  29.458  1.00  0.00     0.029 A 
ATOM     55  N   UNL A   1      43.911  29.753  28.532  1.00  0.00    -0.354 N 
ATOM     56  N   UNL A   1      46.576  28.989  27.494  1.00  0.00    -0.248 NA
ATOM     57  C   UNL A   1      48.794  29.548  27.013  1.00  0.00     0.031 C 
ATOM     58  C   UNL A   1      43.638  31.822  29.288  1.00  0.00     0.029 A 
ATOM     59  C   UNL A   1      44.570  30.952  28.744  1.00  0.00     0.049 A 
ATOM     60  H   UNL A   1      44.318  28.948  28.137  1.00  0.00     0.167 HD
ATOM     61  C   UNL A   1      46.814  30.302  27.893  1.00  0.00     0.074 A 
ATOM     62  C   UNL A   1      48.206  30.578  27.603  1.00  0.00     0.031 C 
ATOM     63  C   UNL A   1      45.962  31.199  28.453  1.00  0.00     0.034 A 
BRANCH  50  64
ATOM     64  C   UNL A   1      40.198  29.055  29.303  1.00  0.00     0.023 A 
ATOM     65  C   UNL A   1      39.828  29.058  30.659  1.00  0.00     0.031 A 
ATOM     66  C   UNL A   1      39.190  29.258  28.345  1.00  0.00     0.131 A 
ATOM     67  C   UNL A   1      38.476  29.171  31.016  1.00  0.00     0.055 A 
ATOM     68  C   UNL A   1      37.858  29.456  28.711  1.00  0.00     0.041 A 
ATOM     69  F   UNL A   1      39.480  29.245  27.034  1.00  0.00    -0.206 F 
ATOM     70  C   UNL A   1      37.491  29.396  30.052  1.00  0.00     0.022 A 
BRANCH  67  71
ATOM     71  S   UNL A   1      38.010  28.868  32.742  1.00  0.00     0.124 S 
ATOM     72  O   UNL A   1      37.972  27.408  32.783  1.00  0.00    -0.237 OA
ATOM     73  O   UNL A   1      39.100  29.498  33.479  1.00  0.00    -0.237 OA
ATOM     74  O   UNL A   1      36.710  29.523  32.866  1.00  0.00    -0.744 OA
ENDBRANCH  67  71
ENDBRANCH  50  64
BRANCH  51  75
ATOM     75  C   UNL A   1      49.413  26.894  25.922  1.00  0.00     0.023 A 
ATOM     76  C   UNL A   1      49.759  27.275  24.616  1.00  0.00     0.031 A 
ATOM     77  C   UNL A   1      50.366  26.184  26.674  1.00  0.00     0.131 A 
ATOM     78  C   UNL A   1      51.000  26.899  24.080  1.00  0.00     0.055 A 
ATOM     79  C   UNL A   1      51.620  25.856  26.154  1.00  0.00     0.041 A 
ATOM     80  F   UNL A   1      50.093  25.801  27.931  1.00  0.00    -0.206 F 
ATOM     81  C   UNL A   1      51.938  26.201  24.844  1.00  0.00     0.022 A 
BRANCH  78  82
ATOM     82  S   UNL A   1      51.337  27.253  22.332  1.00  0.00     0.124 S 
ATOM     83  O   UNL A   1      51.406  28.710  22.332  1.00  0.00    -0.237 OA
ATOM     84  O   UNL A   1      52.596  26.550  22.120  1.00  0.00    -0.237 OA
ATOM     85  O   UNL A   1      50.181  26.682  21.641  1.00  0.00    -0.744 OA
ENDBRANCH  78  82
ENDBRANCH  51  75
BRANCH  63  86
ATOM     86  C   UNL A   1      46.535  32.538  28.839  1.00  0.00     0.023 A 
ATOM     87  C   UNL A   1      46.560  33.620  27.942  1.00  0.00     0.031 A 
ATOM     88  C   UNL A   1      47.059  32.732  30.129  1.00  0.00     0.131 A 
ATOM     89  C   UNL A   1      47.141  34.834  28.333  1.00  0.00     0.055 A 
ATOM     90  C   UNL A   1      47.586  33.959  30.531  1.00  0.00     0.041 A 
ATOM     91  F   UNL A   1      47.059  31.730  31.024  1.00  0.00    -0.206 F 
ATOM     92  C   UNL A   1      47.640  35.016  29.626  1.00  0.00     0.022 A 
BRANCH  89  93
ATOM     93  S   UNL A   1      47.309  36.155  27.102  1.00  0.00     0.124 S 
ATOM     94  O   UNL A   1      48.759  36.258  26.962  1.00  0.00    -0.237 OA
ATOM     95  O   UNL A   1      46.596  35.604  25.954  1.00  0.00    -0.237 OA
ATOM     96  O   UNL A   1      46.665  37.302  27.739  1.00  0.00    -0.744 OA
ENDBRANCH  89  93
ENDBRANCH  63  86
ENDBRANCH  37  38
ENDBRANCH  29  32
ENDBRANCH  27  28
ENDBRANCH  26  27
ENDBRANCH  25  26
ENDBRANCH   1  25
TORSDOF 20
ENDMDL
