MODEL 1
REMARK VINA RESULT:     -11.2      0.000      0.000
REMARK SMILES Cc1n[nH]c(C(F)(F)Cl)c1C(=O)NCCCCCCNC(=O)c1ccc(-c2c3nc(c(-c4cc(S(=O)(=O)[O-])ccc4F)c4ccc([nH]4)c(-c4cc(S(=O)(=O)[O-])ccc4F)c4nc(c(-c5cc(S(=O)(=O)[O-])ccc5F)c5ccc2[nH]5)C=C4)C=C3)cc1
REMARK SMILES IDX 17 1 16 2 15 3 14 4 13 5 11 6 12 7 10 9 1 10 2 11 3 12 4 13
REMARK SMILES IDX 5 14 6 16 7 17 8 18 9 19 18 20 19 21 20 22 21 23 22 25 23 26
REMARK SMILES IDX 24 27 85 28 25 29 84 30 26 31 27 32 28 33 78 34 29 35 83 36
REMARK SMILES IDX 77 37 79 38 30 39 82 40 76 41 75 42 31 44 63 45 43 46 62 47
REMARK SMILES IDX 44 48 47 49 61 50 80 51 45 52 46 53 60 55 81 56 48 57 32 58
REMARK SMILES IDX 33 59 41 60 34 61 40 62 42 63 39 64 35 65 36 66 37 67 38 68
REMARK SMILES IDX 64 69 65 70 73 71 66 72 72 73 74 74 71 75 67 76 68 77 69 78
REMARK SMILES IDX 70 79 49 80 50 81 58 82 51 83 57 84 59 85 56 86 52 87 53 88
REMARK SMILES IDX 54 89 55 90
REMARK H PARENT 13 8 4 15 20 24 79 43 47 54
REMARK Flexibility Score: inf
ROOT
ATOM      1  C   UNL A   1      31.729  30.509  26.188  1.00  0.00     0.002 C 
ENDROOT
BRANCH   1   2
ATOM      2  C   UNL A   1      32.190  29.523  27.264  1.00  0.00     0.002 C 
BRANCH   2   3
ATOM      3  C   UNL A   1      33.228  28.477  26.856  1.00  0.00     0.021 C 
BRANCH   3   4
ATOM      4  C   UNL A   1      32.725  27.215  26.164  1.00  0.00     0.116 C 
BRANCH   4   5
ATOM      5  N   UNL A   1      33.748  26.300  25.715  1.00  0.00    -0.352 N 
ATOM      6  C   UNL A   1      33.698  24.981  25.348  1.00  0.00     0.255 C 
ATOM      7  O   UNL A   1      34.737  24.545  24.820  1.00  0.00    -0.269 OA
ATOM      8  H   UNL A   1      34.648  26.696  25.663  1.00  0.00     0.163 HD
BRANCH   6   9
ATOM      9  C   UNL A   1      32.557  24.088  25.564  1.00  0.00     0.091 A 
ATOM     10  C   UNL A   1      33.039  22.561  27.720  1.00  0.00     0.069 C 
ATOM     11  C   UNL A   1      32.279  23.067  26.546  1.00  0.00     0.072 A 
ATOM     12  N   UNL A   1      31.074  22.514  26.372  1.00  0.00    -0.180 NA
ATOM     13  N   UNL A   1      30.535  23.199  25.377  1.00  0.00    -0.274 N 
ATOM     14  C   UNL A   1      31.353  24.152  24.841  1.00  0.00     0.133 A 
ATOM     15  H   UNL A   1      29.621  23.035  25.050  1.00  0.00     0.190 HD
BRANCH  14  16
ATOM     16  C   UNL A   1      30.722  24.951  23.757  1.00  0.00     0.365 C 
ATOM     17  F   UNL A   1      31.724  25.386  22.926  1.00  0.00    -0.181 F 
ATOM     18  F   UNL A   1      29.979  24.122  22.965  1.00  0.00    -0.181 F 
ATOM     19  Cl  UNL A   1      29.773  26.362  24.177  1.00  0.00    -0.040 Cl
ENDBRANCH  14  16
ENDBRANCH   6   9
ENDBRANCH   4   5
ENDBRANCH   3   4
ENDBRANCH   2   3
ENDBRANCH   1   2
BRANCH   1  20
ATOM     20  C   UNL A   1      31.545  31.965  26.622  1.00  0.00     0.021 C 
BRANCH  20  21
ATOM     21  C   UNL A   1      32.753  32.627  27.277  1.00  0.00     0.116 C 
BRANCH  21  22
ATOM     22  N   UNL A   1      32.513  34.016  27.626  1.00  0.00    -0.352 N 
ATOM     23  C   UNL A   1      33.094  34.782  28.604  1.00  0.00     0.251 C 
ATOM     24  H   UNL A   1      31.832  34.474  27.081  1.00  0.00     0.163 HD
ATOM     25  O   UNL A   1      32.628  35.893  28.861  1.00  0.00    -0.269 OA
BRANCH  23  26
ATOM     26  C   UNL A   1      34.257  34.272  29.363  1.00  0.00     0.039 A 
ATOM     27  C   UNL A   1      34.033  33.517  30.517  1.00  0.00     0.014 A 
ATOM     28  C   UNL A   1      35.565  34.543  28.949  1.00  0.00     0.014 A 
ATOM     29  C   UNL A   1      35.117  32.985  31.221  1.00  0.00     0.010 A 
ATOM     30  C   UNL A   1      36.641  33.952  29.609  1.00  0.00     0.010 A 
ATOM     31  C   UNL A   1      36.429  33.169  30.755  1.00  0.00    -0.014 A 
BRANCH  31  32
ATOM     32  C   UNL A   1      37.588  32.554  31.455  1.00  0.00     0.031 A 
ATOM     33  C   UNL A   1      38.329  31.405  30.823  1.00  0.00     0.074 A 
ATOM     34  C   UNL A   1      37.939  32.992  32.681  1.00  0.00     0.049 A 
ATOM     35  N   UNL A   1      39.313  30.689  31.304  1.00  0.00    -0.248 NA
ATOM     36  C   UNL A   1      37.884  30.991  29.484  1.00  0.00     0.031 C 
ATOM     37  C   UNL A   1      37.276  34.076  33.410  1.00  0.00     0.029 A 
ATOM     38  N   UNL A   1      38.931  32.578  33.536  1.00  0.00    -0.354 N 
ATOM     39  C   UNL A   1      39.597  29.734  30.334  1.00  0.00     0.074 A 
ATOM     40  C   UNL A   1      38.640  29.925  29.265  1.00  0.00     0.031 C 
ATOM     41  C   UNL A   1      37.895  34.256  34.588  1.00  0.00     0.029 A 
ATOM     42  C   UNL A   1      38.963  33.272  34.724  1.00  0.00     0.049 A 
ATOM     43  H   UNL A   1      39.560  31.853  33.318  1.00  0.00     0.167 HD
ATOM     44  C   UNL A   1      40.580  28.797  30.326  1.00  0.00     0.034 A 
ATOM     45  C   UNL A   1      39.753  33.122  35.807  1.00  0.00     0.034 A 
ATOM     46  C   UNL A   1      41.533  28.628  31.395  1.00  0.00     0.049 A 
ATOM     47  C   UNL A   1      40.818  32.053  35.787  1.00  0.00     0.074 A 
ATOM     48  C   UNL A   1      42.599  27.748  31.468  1.00  0.00     0.029 A 
ATOM     49  N   UNL A   1      41.533  29.346  32.585  1.00  0.00    -0.354 N 
ATOM     50  N   UNL A   1      41.104  31.189  34.840  1.00  0.00    -0.248 NA
ATOM     51  C   UNL A   1      41.673  31.948  36.976  1.00  0.00     0.031 C 
ATOM     52  C   UNL A   1      43.195  27.882  32.727  1.00  0.00     0.029 A 
ATOM     53  C   UNL A   1      42.558  28.907  33.409  1.00  0.00     0.049 A 
ATOM     54  H   UNL A   1      40.898  30.065  32.810  1.00  0.00     0.167 HD
ATOM     55  C   UNL A   1      42.197  30.463  35.308  1.00  0.00     0.074 A 
ATOM     56  C   UNL A   1      42.525  31.001  36.611  1.00  0.00     0.031 C 
ATOM     57  C   UNL A   1      42.871  29.448  34.711  1.00  0.00     0.034 A 
BRANCH  44  58
ATOM     58  C   UNL A   1      40.654  27.872  29.134  1.00  0.00     0.023 A 
ATOM     59  C   UNL A   1      41.588  28.068  28.100  1.00  0.00     0.031 A 
ATOM     60  C   UNL A   1      39.768  26.786  29.019  1.00  0.00     0.131 A 
ATOM     61  C   UNL A   1      41.566  27.239  26.969  1.00  0.00     0.055 A 
ATOM     62  C   UNL A   1      39.808  25.913  27.931  1.00  0.00     0.041 A 
ATOM     63  F   UNL A   1      38.839  26.559  29.962  1.00  0.00    -0.206 F 
ATOM     64  C   UNL A   1      40.702  26.145  26.889  1.00  0.00     0.022 A 
BRANCH  61  65
ATOM     65  S   UNL A   1      42.588  27.695  25.542  1.00  0.00     0.124 S 
ATOM     66  O   UNL A   1      43.879  27.952  26.176  1.00  0.00    -0.237 OA
ATOM     67  O   UNL A   1      42.514  26.502  24.706  1.00  0.00    -0.237 OA
ATOM     68  O   UNL A   1      41.919  28.878  25.006  1.00  0.00    -0.744 OA
ENDBRANCH  61  65
ENDBRANCH  44  58
BRANCH  45  69
ATOM     69  C   UNL A   1      39.568  33.989  37.007  1.00  0.00     0.023 A 
ATOM     70  C   UNL A   1      38.981  33.487  38.180  1.00  0.00     0.031 A 
ATOM     71  C   UNL A   1      39.928  35.349  36.983  1.00  0.00     0.131 A 
ATOM     72  C   UNL A   1      38.720  34.348  39.258  1.00  0.00     0.055 A 
ATOM     73  C   UNL A   1      39.721  36.187  38.080  1.00  0.00     0.041 A 
ATOM     74  F   UNL A   1      40.495  35.881  35.889  1.00  0.00    -0.206 F 
ATOM     75  C   UNL A   1      39.099  35.691  39.221  1.00  0.00     0.022 A 
BRANCH  72  76
ATOM     76  S   UNL A   1      37.782  33.708  40.672  1.00  0.00     0.124 S 
ATOM     77  O   UNL A   1      36.627  33.105  40.014  1.00  0.00    -0.237 OA
ATOM     78  O   UNL A   1      38.735  32.781  41.273  1.00  0.00    -0.237 OA
ATOM     79  O   UNL A   1      37.497  34.905  41.460  1.00  0.00    -0.744 OA
ENDBRANCH  72  76
ENDBRANCH  45  69
BRANCH  57  80
ATOM     80  C   UNL A   1      44.067  28.890  35.445  1.00  0.00     0.023 A 
ATOM     81  C   UNL A   1      43.953  27.822  36.351  1.00  0.00     0.031 A 
ATOM     82  C   UNL A   1      45.343  29.446  35.237  1.00  0.00     0.131 A 
ATOM     83  C   UNL A   1      45.081  27.382  37.059  1.00  0.00     0.055 A 
ATOM     84  C   UNL A   1      46.473  28.961  35.896  1.00  0.00     0.041 A 
ATOM     85  F   UNL A   1      45.511  30.470  34.386  1.00  0.00    -0.206 F 
ATOM     86  C   UNL A   1      46.344  27.932  36.822  1.00  0.00     0.022 A 
BRANCH  83  87
ATOM     87  S   UNL A   1      44.862  26.144  38.367  1.00  0.00     0.124 S 
ATOM     88  O   UNL A   1      45.008  24.893  37.628  1.00  0.00    -0.237 OA
ATOM     89  O   UNL A   1      45.946  26.469  39.289  1.00  0.00    -0.237 OA
ATOM     90  O   UNL A   1      43.517  26.414  38.873  1.00  0.00    -0.744 OA
ENDBRANCH  83  87
ENDBRANCH  57  80
ENDBRANCH  31  32
ENDBRANCH  23  26
ENDBRANCH  21  22
ENDBRANCH  20  21
ENDBRANCH   1  20
TORSDOF 17
ENDMDL
MODEL 2
REMARK VINA RESULT:     -11.1      1.349      1.936
REMARK SMILES Cc1n[nH]c(C(F)(F)Cl)c1C(=O)NCCCCCCNC(=O)c1ccc(-c2c3nc(c(-c4cc(S(=O)(=O)[O-])ccc4F)c4ccc([nH]4)c(-c4cc(S(=O)(=O)[O-])ccc4F)c4nc(c(-c5cc(S(=O)(=O)[O-])ccc5F)c5ccc2[nH]5)C=C4)C=C3)cc1
REMARK SMILES IDX 17 1 16 2 15 3 14 4 13 5 11 6 12 7 10 9 1 10 2 11 3 12 4 13
REMARK SMILES IDX 5 14 6 16 7 17 8 18 9 19 18 20 19 21 20 22 21 23 22 25 23 26
REMARK SMILES IDX 24 27 85 28 25 29 84 30 26 31 27 32 28 33 78 34 29 35 83 36
REMARK SMILES IDX 77 37 79 38 30 39 82 40 76 41 75 42 31 44 63 45 43 46 62 47
REMARK SMILES IDX 44 48 47 49 61 50 80 51 45 52 46 53 60 55 81 56 48 57 32 58
REMARK SMILES IDX 33 59 41 60 34 61 40 62 42 63 39 64 35 65 36 66 37 67 38 68
REMARK SMILES IDX 64 69 65 70 73 71 66 72 72 73 74 74 71 75 67 76 68 77 69 78
REMARK SMILES IDX 70 79 49 80 50 81 58 82 51 83 57 84 59 85 56 86 52 87 53 88
REMARK SMILES IDX 54 89 55 90
REMARK H PARENT 13 8 4 15 20 24 79 43 47 54
REMARK Flexibility Score: inf
ROOT
ATOM      1  C   UNL A   1      31.838  30.466  26.068  1.00  0.00     0.002 C 
ENDROOT
BRANCH   1   2
ATOM      2  C   UNL A   1      31.913  29.280  27.032  1.00  0.00     0.002 C 
BRANCH   2   3
ATOM      3  C   UNL A   1      33.123  28.353  26.906  1.00  0.00     0.021 C 
BRANCH   3   4
ATOM      4  C   UNL A   1      32.862  26.896  26.544  1.00  0.00     0.116 C 
BRANCH   4   5
ATOM      5  N   UNL A   1      31.474  26.498  26.516  1.00  0.00    -0.352 N 
ATOM      6  C   UNL A   1      30.627  26.205  25.480  1.00  0.00     0.255 C 
ATOM      7  O   UNL A   1      29.540  25.702  25.818  1.00  0.00    -0.269 OA
ATOM      8  H   UNL A   1      31.059  26.423  27.406  1.00  0.00     0.163 HD
BRANCH   6   9
ATOM      9  C   UNL A   1      30.901  26.471  24.066  1.00  0.00     0.091 A 
ATOM     10  C   UNL A   1      29.473  28.609  23.287  1.00  0.00     0.069 C 
ATOM     11  C   UNL A   1      30.414  27.467  23.140  1.00  0.00     0.072 A 
ATOM     12  N   UNL A   1      30.970  27.346  21.930  1.00  0.00    -0.180 NA
ATOM     13  N   UNL A   1      31.856  26.373  22.068  1.00  0.00    -0.274 N 
ATOM     14  C   UNL A   1      31.876  25.801  23.307  1.00  0.00     0.133 A 
ATOM     15  H   UNL A   1      32.451  26.085  21.338  1.00  0.00     0.190 HD
BRANCH  14  16
ATOM     16  C   UNL A   1      32.908  24.743  23.469  1.00  0.00     0.365 C 
ATOM     17  F   UNL A   1      34.098  25.364  23.753  1.00  0.00    -0.181 F 
ATOM     18  F   UNL A   1      32.638  24.024  24.599  1.00  0.00    -0.181 F 
ATOM     19  Cl  UNL A   1      33.222  23.644  22.140  1.00  0.00    -0.040 Cl
ENDBRANCH  14  16
ENDBRANCH   6   9
ENDBRANCH   4   5
ENDBRANCH   3   4
ENDBRANCH   2   3
ENDBRANCH   1   2
BRANCH   1  20
ATOM     20  C   UNL A   1      31.595  31.843  26.689  1.00  0.00     0.021 C 
BRANCH  20  21
ATOM     21  C   UNL A   1      32.816  32.535  27.284  1.00  0.00     0.116 C 
BRANCH  21  22
ATOM     22  N   UNL A   1      32.558  33.916  27.653  1.00  0.00    -0.352 N 
ATOM     23  C   UNL A   1      33.131  34.677  28.639  1.00  0.00     0.251 C 
ATOM     24  H   UNL A   1      31.868  34.372  27.117  1.00  0.00     0.163 HD
ATOM     25  O   UNL A   1      32.650  35.778  28.913  1.00  0.00    -0.269 OA
BRANCH  23  26
ATOM     26  C   UNL A   1      34.304  34.174  29.388  1.00  0.00     0.039 A 
ATOM     27  C   UNL A   1      34.098  33.507  30.598  1.00  0.00     0.014 A 
ATOM     28  C   UNL A   1      35.603  34.365  28.908  1.00  0.00     0.014 A 
ATOM     29  C   UNL A   1      35.189  32.981  31.296  1.00  0.00     0.010 A 
ATOM     30  C   UNL A   1      36.682  33.777  29.567  1.00  0.00     0.010 A 
ATOM     31  C   UNL A   1      36.487  33.082  30.770  1.00  0.00    -0.014 A 
BRANCH  31  32
ATOM     32  C   UNL A   1      37.650  32.470  31.467  1.00  0.00     0.031 A 
ATOM     33  C   UNL A   1      38.392  31.323  30.833  1.00  0.00     0.074 A 
ATOM     34  C   UNL A   1      38.003  32.910  32.692  1.00  0.00     0.049 A 
ATOM     35  N   UNL A   1      39.379  30.610  31.312  1.00  0.00    -0.248 NA
ATOM     36  C   UNL A   1      37.944  30.907  29.496  1.00  0.00     0.031 C 
ATOM     37  C   UNL A   1      37.339  33.992  33.423  1.00  0.00     0.029 A 
ATOM     38  N   UNL A   1      38.999  32.499  33.544  1.00  0.00    -0.354 N 
ATOM     39  C   UNL A   1      39.663  29.655  30.341  1.00  0.00     0.074 A 
ATOM     40  C   UNL A   1      38.702  29.844  29.275  1.00  0.00     0.031 C 
ATOM     41  C   UNL A   1      37.961  34.174  34.599  1.00  0.00     0.029 A 
ATOM     42  C   UNL A   1      39.033  33.193  34.732  1.00  0.00     0.049 A 
ATOM     43  H   UNL A   1      39.629  31.775  33.325  1.00  0.00     0.167 HD
ATOM     44  C   UNL A   1      40.648  28.721  30.330  1.00  0.00     0.034 A 
ATOM     45  C   UNL A   1      39.826  33.045  35.812  1.00  0.00     0.034 A 
ATOM     46  C   UNL A   1      41.605  28.554  31.397  1.00  0.00     0.049 A 
ATOM     47  C   UNL A   1      40.894  31.979  35.790  1.00  0.00     0.074 A 
ATOM     48  C   UNL A   1      42.673  27.677  31.467  1.00  0.00     0.029 A 
ATOM     49  N   UNL A   1      41.606  29.273  32.587  1.00  0.00    -0.354 N 
ATOM     50  N   UNL A   1      41.179  31.116  34.842  1.00  0.00    -0.248 NA
ATOM     51  C   UNL A   1      41.753  31.877  36.977  1.00  0.00     0.031 C 
ATOM     52  C   UNL A   1      43.272  27.813  32.724  1.00  0.00     0.029 A 
ATOM     53  C   UNL A   1      42.635  28.836  33.408  1.00  0.00     0.049 A 
ATOM     54  H   UNL A   1      40.970  29.990  32.813  1.00  0.00     0.167 HD
ATOM     55  C   UNL A   1      42.275  30.392  35.307  1.00  0.00     0.074 A 
ATOM     56  C   UNL A   1      42.606  30.931  36.610  1.00  0.00     0.031 C 
ATOM     57  C   UNL A   1      42.950  29.378  34.709  1.00  0.00     0.034 A 
BRANCH  44  58
ATOM     58  C   UNL A   1      40.721  27.796  29.138  1.00  0.00     0.023 A 
ATOM     59  C   UNL A   1      41.657  27.988  28.106  1.00  0.00     0.031 A 
ATOM     60  C   UNL A   1      39.832  26.712  29.023  1.00  0.00     0.131 A 
ATOM     61  C   UNL A   1      41.634  27.159  26.975  1.00  0.00     0.055 A 
ATOM     62  C   UNL A   1      39.871  25.839  27.934  1.00  0.00     0.041 A 
ATOM     63  F   UNL A   1      38.900  26.488  29.964  1.00  0.00    -0.206 F 
ATOM     64  C   UNL A   1      40.767  26.068  26.894  1.00  0.00     0.022 A 
BRANCH  61  65
ATOM     65  S   UNL A   1      42.660  27.612  25.550  1.00  0.00     0.124 S 
ATOM     66  O   UNL A   1      42.496  26.444  24.687  1.00  0.00    -0.237 OA
ATOM     67  O   UNL A   1      42.031  28.843  25.085  1.00  0.00    -0.237 OA
ATOM     68  O   UNL A   1      43.994  27.769  26.124  1.00  0.00    -0.744 OA
ENDBRANCH  61  65
ENDBRANCH  44  58
BRANCH  45  69
ATOM     69  C   UNL A   1      39.642  33.912  37.013  1.00  0.00     0.023 A 
ATOM     70  C   UNL A   1      39.062  33.408  38.189  1.00  0.00     0.031 A 
ATOM     71  C   UNL A   1      39.997  35.273  36.987  1.00  0.00     0.131 A 
ATOM     72  C   UNL A   1      38.801  34.269  39.267  1.00  0.00     0.055 A 
ATOM     73  C   UNL A   1      39.791  36.111  38.084  1.00  0.00     0.041 A 
ATOM     74  F   UNL A   1      40.558  35.807  35.890  1.00  0.00    -0.206 F 
ATOM     75  C   UNL A   1      39.175  35.613  39.228  1.00  0.00     0.022 A 
BRANCH  72  76
ATOM     76  S   UNL A   1      37.871  33.626  40.684  1.00  0.00     0.124 S 
ATOM     77  O   UNL A   1      38.941  33.128  41.541  1.00  0.00    -0.237 OA
ATOM     78  O   UNL A   1      37.174  34.818  41.154  1.00  0.00    -0.237 OA
ATOM     79  O   UNL A   1      37.017  32.598  40.092  1.00  0.00    -0.744 OA
ENDBRANCH  72  76
ENDBRANCH  45  69
BRANCH  57  80
ATOM     80  C   UNL A   1      44.150  28.824  35.440  1.00  0.00     0.023 A 
ATOM     81  C   UNL A   1      44.037  27.774  36.366  1.00  0.00     0.031 A 
ATOM     82  C   UNL A   1      45.427  29.366  35.207  1.00  0.00     0.131 A 
ATOM     83  C   UNL A   1      45.170  27.337  37.069  1.00  0.00     0.055 A 
ATOM     84  C   UNL A   1      46.561  28.883  35.863  1.00  0.00     0.041 A 
ATOM     85  F   UNL A   1      45.595  30.373  34.336  1.00  0.00    -0.206 F 
ATOM     86  C   UNL A   1      46.434  27.872  36.809  1.00  0.00     0.022 A 
BRANCH  83  87
ATOM     87  S   UNL A   1      44.954  26.124  38.401  1.00  0.00     0.124 S 
ATOM     88  O   UNL A   1      44.653  24.905  37.656  1.00  0.00    -0.237 OA
ATOM     89  O   UNL A   1      46.253  26.158  39.067  1.00  0.00    -0.237 OA
ATOM     90  O   UNL A   1      43.845  26.666  39.182  1.00  0.00    -0.744 OA
ENDBRANCH  83  87
ENDBRANCH  57  80
ENDBRANCH  31  32
ENDBRANCH  23  26
ENDBRANCH  21  22
ENDBRANCH  20  21
ENDBRANCH   1  20
TORSDOF 17
ENDMDL
MODEL 3
REMARK VINA RESULT:     -11.0      4.115      8.882
REMARK SMILES Cc1n[nH]c(C(F)(F)Cl)c1C(=O)NCCCCCCNC(=O)c1ccc(-c2c3nc(c(-c4cc(S(=O)(=O)[O-])ccc4F)c4ccc([nH]4)c(-c4cc(S(=O)(=O)[O-])ccc4F)c4nc(c(-c5cc(S(=O)(=O)[O-])ccc5F)c5ccc2[nH]5)C=C4)C=C3)cc1
REMARK SMILES IDX 17 1 16 2 15 3 14 4 13 5 11 6 12 7 10 9 1 10 2 11 3 12 4 13
REMARK SMILES IDX 5 14 6 16 7 17 8 18 9 19 18 20 19 21 20 22 21 23 22 25 23 26
REMARK SMILES IDX 24 27 85 28 25 29 84 30 26 31 27 32 28 33 78 34 29 35 83 36
REMARK SMILES IDX 77 37 79 38 30 39 82 40 76 41 75 42 31 44 63 45 43 46 62 47
REMARK SMILES IDX 44 48 47 49 61 50 80 51 45 52 46 53 60 55 81 56 48 57 32 58
REMARK SMILES IDX 33 59 41 60 34 61 40 62 42 63 39 64 35 65 36 66 37 67 38 68
REMARK SMILES IDX 64 69 65 70 73 71 66 72 72 73 74 74 71 75 67 76 68 77 69 78
REMARK SMILES IDX 70 79 49 80 50 81 58 82 51 83 57 84 59 85 56 86 52 87 53 88
REMARK SMILES IDX 54 89 55 90
REMARK H PARENT 13 8 4 15 20 24 79 43 47 54
REMARK Flexibility Score: inf
ROOT
ATOM      1  C   UNL A   1      32.786  26.677  26.075  1.00  0.00     0.002 C 
ENDROOT
BRANCH   1   2
ATOM      2  C   UNL A   1      33.942  26.130  25.236  1.00  0.00     0.002 C 
BRANCH   2   3
ATOM      3  C   UNL A   1      33.635  25.746  23.788  1.00  0.00     0.021 C 
BRANCH   3   4
ATOM      4  C   UNL A   1      33.650  24.264  23.432  1.00  0.00     0.116 C 
BRANCH   4   5
ATOM      5  N   UNL A   1      32.839  23.412  24.270  1.00  0.00    -0.352 N 
ATOM      6  C   UNL A   1      33.160  22.365  25.093  1.00  0.00     0.255 C 
ATOM      7  O   UNL A   1      32.235  21.974  25.828  1.00  0.00    -0.269 OA
ATOM      8  H   UNL A   1      31.877  23.622  24.246  1.00  0.00     0.163 HD
BRANCH   6   9
ATOM      9  C   UNL A   1      34.459  21.688  25.130  1.00  0.00     0.091 A 
ATOM     10  C   UNL A   1      36.326  23.425  25.973  1.00  0.00     0.069 C 
ATOM     11  C   UNL A   1      35.787  22.127  25.486  1.00  0.00     0.072 A 
ATOM     12  N   UNL A   1      36.686  21.141  25.398  1.00  0.00    -0.180 NA
ATOM     13  N   UNL A   1      35.973  20.070  25.087  1.00  0.00    -0.274 N 
ATOM     14  C   UNL A   1      34.642  20.312  24.910  1.00  0.00     0.133 A 
ATOM     15  H   UNL A   1      36.370  19.175  24.991  1.00  0.00     0.190 HD
BRANCH  14  16
ATOM     16  C   UNL A   1      33.840  19.096  24.610  1.00  0.00     0.365 C 
ATOM     17  F   UNL A   1      33.070  18.824  25.713  1.00  0.00    -0.181 F 
ATOM     18  F   UNL A   1      32.926  19.390  23.639  1.00  0.00    -0.181 F 
ATOM     19  Cl  UNL A   1      34.667  17.606  24.199  1.00  0.00    -0.040 Cl
ENDBRANCH  14  16
ENDBRANCH   6   9
ENDBRANCH   4   5
ENDBRANCH   3   4
ENDBRANCH   2   3
ENDBRANCH   1   2
BRANCH   1  20
ATOM     20  C   UNL A   1      33.065  27.942  26.890  1.00  0.00     0.021 C 
BRANCH  20  21
ATOM     21  C   UNL A   1      34.005  28.958  26.249  1.00  0.00     0.116 C 
BRANCH  21  22
ATOM     22  N   UNL A   1      33.753  30.318  26.694  1.00  0.00    -0.352 N 
ATOM     23  C   UNL A   1      34.417  31.065  27.634  1.00  0.00     0.251 C 
ATOM     24  H   UNL A   1      32.992  30.767  26.259  1.00  0.00     0.163 HD
ATOM     25  O   UNL A   1      33.940  32.140  28.000  1.00  0.00    -0.269 OA
BRANCH  23  26
ATOM     26  C   UNL A   1      35.683  30.576  28.222  1.00  0.00     0.039 A 
ATOM     27  C   UNL A   1      35.635  29.817  29.394  1.00  0.00     0.014 A 
ATOM     28  C   UNL A   1      36.915  30.870  27.630  1.00  0.00     0.014 A 
ATOM     29  C   UNL A   1      36.817  29.304  29.938  1.00  0.00     0.010 A 
ATOM     30  C   UNL A   1      38.083  30.299  28.133  1.00  0.00     0.010 A 
ATOM     31  C   UNL A   1      38.047  29.512  29.295  1.00  0.00    -0.014 A 
BRANCH  31  32
ATOM     32  C   UNL A   1      39.304  28.918  29.824  1.00  0.00     0.031 A 
ATOM     33  C   UNL A   1      39.981  29.528  31.022  1.00  0.00     0.074 A 
ATOM     34  C   UNL A   1      39.863  27.864  29.195  1.00  0.00     0.049 A 
ATOM     35  N   UNL A   1      41.116  29.205  31.586  1.00  0.00    -0.248 NA
ATOM     36  C   UNL A   1      39.304  30.673  31.650  1.00  0.00     0.031 C 
ATOM     37  C   UNL A   1      39.317  27.206  28.005  1.00  0.00     0.029 A 
ATOM     38  N   UNL A   1      41.015  27.165  29.459  1.00  0.00    -0.354 N 
ATOM     39  C   UNL A   1      41.295  30.110  32.627  1.00  0.00     0.074 A 
ATOM     40  C   UNL A   1      40.181  31.033  32.575  1.00  0.00     0.031 C 
ATOM     41  C   UNL A   1      40.120  26.187  27.659  1.00  0.00     0.029 A 
ATOM     42  C   UNL A   1      41.262  26.147  28.566  1.00  0.00     0.049 A 
ATOM     43  H   UNL A   1      41.608  27.373  30.216  1.00  0.00     0.167 HD
ATOM     44  C   UNL A   1      42.286  30.154  33.553  1.00  0.00     0.034 A 
ATOM     45  C   UNL A   1      42.299  25.290  28.478  1.00  0.00     0.034 A 
ATOM     46  C   UNL A   1      43.384  29.219  33.598  1.00  0.00     0.049 A 
ATOM     47  C   UNL A   1      43.405  25.379  29.501  1.00  0.00     0.074 A 
ATOM     48  C   UNL A   1      44.412  29.140  34.521  1.00  0.00     0.029 A 
ATOM     49  N   UNL A   1      43.603  28.203  32.675  1.00  0.00    -0.354 N 
ATOM     50  N   UNL A   1      43.534  26.212  30.508  1.00  0.00    -0.248 NA
ATOM     51  C   UNL A   1      44.497  24.404  29.382  1.00  0.00     0.031 C 
ATOM     52  C   UNL A   1      45.290  28.129  34.116  1.00  0.00     0.029 A 
ATOM     53  C   UNL A   1      44.766  27.516  32.988  1.00  0.00     0.049 A 
ATOM     54  H   UNL A   1      43.018  28.000  31.910  1.00  0.00     0.167 HD
ATOM     55  C   UNL A   1      44.704  25.836  31.163  1.00  0.00     0.074 A 
ATOM     56  C   UNL A   1      45.233  24.695  30.445  1.00  0.00     0.031 C 
ATOM     57  C   UNL A   1      45.286  26.382  32.261  1.00  0.00     0.034 A 
BRANCH  44  58
ATOM     58  C   UNL A   1      42.237  31.265  34.577  1.00  0.00     0.023 A 
ATOM     59  C   UNL A   1      42.887  32.495  34.368  1.00  0.00     0.031 A 
ATOM     60  C   UNL A   1      41.544  31.087  35.787  1.00  0.00     0.131 A 
ATOM     61  C   UNL A   1      42.890  33.467  35.380  1.00  0.00     0.055 A 
ATOM     62  C   UNL A   1      41.480  32.092  36.755  1.00  0.00     0.041 A 
ATOM     63  F   UNL A   1      40.922  29.927  36.056  1.00  0.00    -0.206 F 
ATOM     64  C   UNL A   1      42.168  33.286  36.561  1.00  0.00     0.022 A 
BRANCH  61  65
ATOM     65  S   UNL A   1      43.968  34.913  35.187  1.00  0.00     0.124 S 
ATOM     66  O   UNL A   1      45.068  34.581  36.090  1.00  0.00    -0.237 OA
ATOM     67  O   UNL A   1      44.281  34.886  33.763  1.00  0.00    -0.237 OA
ATOM     68  O   UNL A   1      43.128  36.026  35.623  1.00  0.00    -0.744 OA
ENDBRANCH  61  65
ENDBRANCH  44  58
BRANCH  45  69
ATOM     69  C   UNL A   1      42.358  24.280  27.380  1.00  0.00     0.023 A 
ATOM     70  C   UNL A   1      41.733  23.030  27.512  1.00  0.00     0.031 A 
ATOM     71  C   UNL A   1      43.086  24.531  26.202  1.00  0.00     0.131 A 
ATOM     72  C   UNL A   1      41.893  22.057  26.512  1.00  0.00     0.055 A 
ATOM     73  C   UNL A   1      43.191  23.582  25.184  1.00  0.00     0.041 A 
ATOM     74  F   UNL A   1      43.701  25.710  26.022  1.00  0.00    -0.206 F 
ATOM     75  C   UNL A   1      42.605  22.330  25.343  1.00  0.00     0.022 A 
BRANCH  72  76
ATOM     76  S   UNL A   1      41.240  20.392  26.810  1.00  0.00     0.124 S 
ATOM     77  O   UNL A   1      42.399  19.560  26.508  1.00  0.00    -0.237 OA
ATOM     78  O   UNL A   1      40.851  20.466  28.215  1.00  0.00    -0.237 OA
ATOM     79  O   UNL A   1      40.132  20.287  25.863  1.00  0.00    -0.744 OA
ENDBRANCH  72  76
ENDBRANCH  45  69
BRANCH  57  80
ATOM     80  C   UNL A   1      46.535  25.712  32.783  1.00  0.00     0.023 A 
ATOM     81  C   UNL A   1      46.483  24.687  33.744  1.00  0.00     0.031 A 
ATOM     82  C   UNL A   1      47.798  26.115  32.313  1.00  0.00     0.131 A 
ATOM     83  C   UNL A   1      47.673  24.141  34.247  1.00  0.00     0.055 A 
ATOM     84  C   UNL A   1      48.976  25.521  32.770  1.00  0.00     0.041 A 
ATOM     85  F   UNL A   1      47.908  27.090  31.399  1.00  0.00    -0.206 F 
ATOM     86  C   UNL A   1      48.918  24.538  33.752  1.00  0.00     0.022 A 
BRANCH  83  87
ATOM     87  S   UNL A   1      47.578  22.969  35.630  1.00  0.00     0.124 S 
ATOM     88  O   UNL A   1      47.502  23.864  36.781  1.00  0.00    -0.237 OA
ATOM     89  O   UNL A   1      46.362  22.223  35.322  1.00  0.00    -0.237 OA
ATOM     90  O   UNL A   1      48.819  22.205  35.517  1.00  0.00    -0.744 OA
ENDBRANCH  83  87
ENDBRANCH  57  80
ENDBRANCH  31  32
ENDBRANCH  23  26
ENDBRANCH  21  22
ENDBRANCH  20  21
ENDBRANCH   1  20
TORSDOF 17
ENDMDL
