MODEL 1
REMARK VINA RESULT:     -13.0      0.000      0.000
REMARK SMILES Cc1ccc(C(=O)NC2(CC(=O)NCCCCCCNC(=O)c3ccc(-c4c5nc(c(-c6cc(S(=O)(=O)[O-])ccc6F)c6ccc([nH]6)c(-c6cc(S(=O)(=O)[O-])ccc6F)c6nc(c(-c7cc(S(=O)(=O)[O-])ccc7F)c7ccc4[nH]7)C=C6)C=C5)cc3)CCC2)cc1
REMARK SMILES IDX 16 1 15 2 14 3 13 4 11 5 12 6 10 8 9 9 86 10 88 11 87 12
REMARK SMILES IDX 8 13 6 14 7 15 5 17 1 18 2 19 3 20 90 21 4 22 89 23 17 24
REMARK SMILES IDX 18 25 19 26 20 27 21 28 22 30 23 31 24 32 85 33 25 34 84 35
REMARK SMILES IDX 26 36 27 37 28 38 78 39 29 40 83 41 77 42 79 43 30 44 82 45
REMARK SMILES IDX 76 46 75 47 31 49 63 50 43 51 62 52 44 53 47 54 61 55 80 56
REMARK SMILES IDX 45 57 46 58 60 60 81 61 48 62 32 63 33 64 41 65 34 66 40 67
REMARK SMILES IDX 42 68 39 69 35 70 36 71 37 72 38 73 64 74 65 75 73 76 66 77
REMARK SMILES IDX 72 78 74 79 71 80 67 81 68 82 69 83 70 84 49 85 50 86 58 87
REMARK SMILES IDX 51 88 57 89 59 90 56 91 52 92 53 93 54 94 55 95
REMARK H PARENT 13 7 8 16 20 29 79 48 47 59
REMARK Flexibility Score: inf
ROOT
ATOM      1  C   UNL A   1      40.604  19.907  26.200  1.00  0.00     0.002 C 
ENDROOT
BRANCH   1   2
ATOM      2  C   UNL A   1      40.021  21.271  26.504  1.00  0.00     0.021 C 
BRANCH   2   3
ATOM      3  C   UNL A   1      38.841  21.608  25.632  1.00  0.00     0.116 C 
BRANCH   3   4
ATOM      4  N   UNL A   1      37.625  22.424  26.403  1.00  0.00    -0.356 N 
ATOM      5  C   UNL A   1      35.752  22.954  26.067  1.00  0.00     0.222 C 
ATOM      6  O   UNL A   1      34.825  23.271  26.861  1.00  0.00    -0.275 OA
ATOM      7  H   UNL A   1      37.922  22.737  27.288  1.00  0.00     0.163 HD
BRANCH   5   8
ATOM      8  C   UNL A   1      35.014  23.098  24.323  1.00  0.00     0.128 C 
BRANCH   8   9
ATOM      9  C   UNL A   1      33.535  22.443  23.832  1.00  0.00     0.049 C 
ATOM     10  C   UNL A   1      32.329  22.554  24.828  1.00  0.00     0.029 C 
ATOM     11  C   UNL A   1      32.877  20.892  23.624  1.00  0.00     0.029 C 
ATOM     12  C   UNL A   1      32.340  21.007  25.032  1.00  0.00     0.005 C 
BRANCH   9  13
ATOM     13  N   UNL A   1      33.384  22.920  22.470  1.00  0.00    -0.346 N 
ATOM     14  C   UNL A   1      33.083  24.249  22.381  1.00  0.00     0.251 C 
ATOM     15  O   UNL A   1      33.043  24.853  21.322  1.00  0.00    -0.269 OA
ATOM     16  H   UNL A   1      33.487  22.339  21.682  1.00  0.00     0.164 HD
BRANCH  14  17
ATOM     17  C   UNL A   1      32.592  24.819  23.684  1.00  0.00     0.039 A 
ATOM     18  C   UNL A   1      31.690  28.049  27.463  1.00  0.00     0.044 C 
ATOM     19  C   UNL A   1      31.789  27.438  26.083  1.00  0.00    -0.051 A 
ATOM     20  C   UNL A   1      33.459  27.297  25.410  1.00  0.00     0.004 A 
ATOM     21  C   UNL A   1      30.454  26.363  25.538  1.00  0.00     0.004 A 
ATOM     22  C   UNL A   1      33.854  26.008  24.228  1.00  0.00     0.014 A 
ATOM     23  C   UNL A   1      30.823  25.010  24.358  1.00  0.00     0.014 A 
ENDBRANCH  14  17
ENDBRANCH   9  13
ENDBRANCH   8   9
ENDBRANCH   5   8
ENDBRANCH   3   4
ENDBRANCH   2   3
ENDBRANCH   1   2
BRANCH   1  24
ATOM     24  C   UNL A   1      41.913  19.570  26.937  1.00  0.00     0.002 C 
BRANCH  24  25
ATOM     25  C   UNL A   1      42.978  18.784  26.166  1.00  0.00     0.021 C 
BRANCH  25  26
ATOM     26  C   UNL A   1      43.634  19.586  25.081  1.00  0.00     0.116 C 
BRANCH  26  27
ATOM     27  N   UNL A   1      44.856  20.200  25.533  1.00  0.00    -0.352 N 
ATOM     28  C   UNL A   1      45.230  21.523  25.462  1.00  0.00     0.251 C 
ATOM     29  H   UNL A   1      45.513  19.593  25.947  1.00  0.00     0.163 HD
ATOM     30  O   UNL A   1      46.413  21.844  25.522  1.00  0.00    -0.269 OA
BRANCH  28  31
ATOM     31  C   UNL A   1      44.178  22.573  25.581  1.00  0.00     0.039 A 
ATOM     32  C   UNL A   1      44.471  23.715  24.821  1.00  0.00     0.014 A 
ATOM     33  C   UNL A   1      43.448  22.689  26.757  1.00  0.00     0.014 A 
ATOM     34  C   UNL A   1      44.394  24.954  25.423  1.00  0.00     0.010 A 
ATOM     35  C   UNL A   1      43.574  23.862  27.442  1.00  0.00     0.010 A 
ATOM     36  C   UNL A   1      44.086  24.974  26.775  1.00  0.00    -0.014 A 
BRANCH  36  37
ATOM     37  C   UNL A   1      44.004  26.167  27.573  1.00  0.00     0.031 A 
ATOM     38  C   UNL A   1      42.704  26.848  27.437  1.00  0.00     0.074 A 
ATOM     39  C   UNL A   1      44.997  26.371  28.466  1.00  0.00     0.049 A 
ATOM     40  N   UNL A   1      42.497  28.085  27.667  1.00  0.00    -0.248 NA
ATOM     41  C   UNL A   1      41.499  26.180  26.915  1.00  0.00     0.031 C 
ATOM     42  C   UNL A   1      45.062  27.270  29.609  1.00  0.00     0.029 A 
ATOM     43  N   UNL A   1      46.304  25.882  28.355  1.00  0.00    -0.354 N 
ATOM     44  C   UNL A   1      41.128  28.256  27.739  1.00  0.00     0.074 A 
ATOM     45  C   UNL A   1      40.560  27.110  27.093  1.00  0.00     0.031 C 
ATOM     46  C   UNL A   1      46.358  27.527  29.886  1.00  0.00     0.029 A 
ATOM     47  C   UNL A   1      47.160  26.884  28.853  1.00  0.00     0.049 A 
ATOM     48  H   UNL A   1      46.573  25.006  27.996  1.00  0.00     0.167 HD
ATOM     49  C   UNL A   1      40.665  29.258  28.531  1.00  0.00     0.034 A 
ATOM     50  C   UNL A   1      47.981  27.542  27.975  1.00  0.00     0.034 A 
ATOM     51  C   UNL A   1      41.813  29.965  29.094  1.00  0.00     0.049 A 
ATOM     52  C   UNL A   1      47.477  28.959  27.764  1.00  0.00     0.074 A 
ATOM     53  C   UNL A   1      42.488  29.824  30.295  1.00  0.00     0.029 A 
ATOM     54  N   UNL A   1      42.670  30.620  28.226  1.00  0.00    -0.354 N 
ATOM     55  N   UNL A   1      46.223  29.319  27.887  1.00  0.00    -0.248 NA
ATOM     56  C   UNL A   1      48.367  30.095  27.537  1.00  0.00     0.031 C 
ATOM     57  C   UNL A   1      43.810  30.311  30.096  1.00  0.00     0.029 A 
ATOM     58  C   UNL A   1      43.923  30.749  28.786  1.00  0.00     0.049 A 
ATOM     59  H   UNL A   1      42.418  30.949  27.332  1.00  0.00     0.167 HD
ATOM     60  C   UNL A   1      46.136  30.686  27.835  1.00  0.00     0.074 A 
ATOM     61  C   UNL A   1      47.502  31.123  27.596  1.00  0.00     0.031 C 
ATOM     62  C   UNL A   1      44.976  31.388  28.024  1.00  0.00     0.034 A 
BRANCH  49  63
ATOM     63  C   UNL A   1      39.268  29.463  29.051  1.00  0.00     0.023 A 
ATOM     64  C   UNL A   1      39.116  29.504  30.452  1.00  0.00     0.031 A 
ATOM     65  C   UNL A   1      38.079  29.595  28.312  1.00  0.00     0.131 A 
ATOM     66  C   UNL A   1      37.861  29.625  31.063  1.00  0.00     0.055 A 
ATOM     67  C   UNL A   1      36.818  29.715  28.921  1.00  0.00     0.041 A 
ATOM     68  F   UNL A   1      38.064  29.639  26.976  1.00  0.00    -0.206 F 
ATOM     69  C   UNL A   1      36.702  29.727  30.305  1.00  0.00     0.022 A 
BRANCH  66  70
ATOM     70  S   UNL A   1      37.791  29.633  32.871  1.00  0.00     0.124 S 
ATOM     71  O   UNL A   1      36.825  30.695  33.135  1.00  0.00    -0.237 OA
ATOM     72  O   UNL A   1      37.357  28.274  33.171  1.00  0.00    -0.237 OA
ATOM     73  O   UNL A   1      39.167  29.942  33.259  1.00  0.00    -0.744 OA
ENDBRANCH  66  70
ENDBRANCH  49  63
BRANCH  50  74
ATOM     74  C   UNL A   1      48.522  26.592  26.941  1.00  0.00     0.023 A 
ATOM     75  C   UNL A   1      48.111  26.821  25.602  1.00  0.00     0.031 A 
ATOM     76  C   UNL A   1      49.742  25.927  27.134  1.00  0.00     0.131 A 
ATOM     77  C   UNL A   1      49.011  26.626  24.540  1.00  0.00     0.055 A 
ATOM     78  C   UNL A   1      50.607  25.674  26.058  1.00  0.00     0.041 A 
ATOM     79  F   UNL A   1      50.189  25.663  28.371  1.00  0.00    -0.206 F 
ATOM     80  C   UNL A   1      50.276  26.088  24.768  1.00  0.00     0.022 A 
BRANCH  77  81
ATOM     81  S   UNL A   1      48.605  27.329  22.911  1.00  0.00     0.124 S 
ATOM     82  O   UNL A   1      47.315  27.961  23.161  1.00  0.00    -0.237 OA
ATOM     83  O   UNL A   1      49.725  28.237  22.676  1.00  0.00    -0.237 OA
ATOM     84  O   UNL A   1      48.577  26.168  22.022  1.00  0.00    -0.744 OA
ENDBRANCH  77  81
ENDBRANCH  50  74
BRANCH  62  85
ATOM     85  C   UNL A   1      44.754  32.803  27.550  1.00  0.00     0.023 A 
ATOM     86  C   UNL A   1      44.818  33.886  28.428  1.00  0.00     0.031 A 
ATOM     87  C   UNL A   1      44.589  33.129  26.180  1.00  0.00     0.131 A 
ATOM     88  C   UNL A   1      44.572  35.188  27.982  1.00  0.00     0.055 A 
ATOM     89  C   UNL A   1      44.494  34.443  25.719  1.00  0.00     0.041 A 
ATOM     90  F   UNL A   1      44.522  32.193  25.222  1.00  0.00    -0.206 F 
ATOM     91  C   UNL A   1      44.448  35.485  26.629  1.00  0.00     0.022 A 
BRANCH  88  92
ATOM     92  S   UNL A   1      44.270  36.441  29.245  1.00  0.00     0.124 S 
ATOM     93  O   UNL A   1      45.201  36.030  30.294  1.00  0.00    -0.237 OA
ATOM     94  O   UNL A   1      44.608  37.679  28.550  1.00  0.00    -0.237 OA
ATOM     95  O   UNL A   1      42.856  36.268  29.566  1.00  0.00    -0.744 OA
ENDBRANCH  88  92
ENDBRANCH  62  85
ENDBRANCH  36  37
ENDBRANCH  28  31
ENDBRANCH  26  27
ENDBRANCH  25  26
ENDBRANCH  24  25
ENDBRANCH   1  24
TORSDOF 19
ENDMDL
MODEL 2
REMARK VINA RESULT:     -12.9      3.344      4.385
REMARK SMILES Cc1ccc(C(=O)NC2(CC(=O)NCCCCCCNC(=O)c3ccc(-c4c5nc(c(-c6cc(S(=O)(=O)[O-])ccc6F)c6ccc([nH]6)c(-c6cc(S(=O)(=O)[O-])ccc6F)c6nc(c(-c7cc(S(=O)(=O)[O-])ccc7F)c7ccc4[nH]7)C=C6)C=C5)cc3)CCC2)cc1
REMARK SMILES IDX 16 1 15 2 14 3 13 4 11 5 12 6 10 8 9 9 86 10 88 11 87 12
REMARK SMILES IDX 8 13 6 14 7 15 5 17 1 18 2 19 3 20 90 21 4 22 89 23 17 24
REMARK SMILES IDX 18 25 19 26 20 27 21 28 22 30 23 31 24 32 85 33 25 34 84 35
REMARK SMILES IDX 26 36 27 37 28 38 78 39 29 40 83 41 77 42 79 43 30 44 82 45
REMARK SMILES IDX 76 46 75 47 31 49 63 50 43 51 62 52 44 53 47 54 61 55 80 56
REMARK SMILES IDX 45 57 46 58 60 60 81 61 48 62 32 63 33 64 41 65 34 66 40 67
REMARK SMILES IDX 42 68 39 69 35 70 36 71 37 72 38 73 64 74 65 75 73 76 66 77
REMARK SMILES IDX 72 78 74 79 71 80 67 81 68 82 69 83 70 84 49 85 50 86 58 87
REMARK SMILES IDX 51 88 57 89 59 90 56 91 52 92 53 93 54 94 55 95
REMARK H PARENT 13 7 8 16 20 29 79 48 47 59
REMARK Flexibility Score: inf
ROOT
ATOM      1  C   UNL A   1      35.747  21.490  25.267  1.00  0.00     0.002 C 
ENDROOT
BRANCH   1   2
ATOM      2  C   UNL A   1      34.473  21.001  25.924  1.00  0.00     0.021 C 
BRANCH   2   3
ATOM      3  C   UNL A   1      34.050  21.860  27.086  1.00  0.00     0.116 C 
BRANCH   3   4
ATOM      4  N   UNL A   1      34.400  23.469  26.919  1.00  0.00    -0.356 N 
ATOM      5  C   UNL A   1      34.196  24.896  25.569  1.00  0.00     0.222 C 
ATOM      6  O   UNL A   1      34.189  26.152  25.684  1.00  0.00    -0.275 OA
ATOM      7  H   UNL A   1      34.839  23.816  27.729  1.00  0.00     0.163 HD
BRANCH   5   8
ATOM      8  C   UNL A   1      33.983  24.544  23.714  1.00  0.00     0.128 C 
BRANCH   8   9
ATOM      9  C   UNL A   1      32.747  23.614  23.033  1.00  0.00     0.049 C 
ATOM     10  C   UNL A   1      31.344  23.653  23.733  1.00  0.00     0.029 C 
ATOM     11  C   UNL A   1      32.354  21.966  22.927  1.00  0.00     0.029 C 
ATOM     12  C   UNL A   1      31.504  22.162  24.162  1.00  0.00     0.005 C 
BRANCH   9  13
ATOM     13  N   UNL A   1      32.847  23.898  21.614  1.00  0.00    -0.346 N 
ATOM     14  C   UNL A   1      32.866  25.232  21.318  1.00  0.00     0.251 C 
ATOM     15  O   UNL A   1      33.071  25.662  20.195  1.00  0.00    -0.269 OA
ATOM     16  H   UNL A   1      32.894  23.196  20.926  1.00  0.00     0.164 HD
BRANCH  14  17
ATOM     17  C   UNL A   1      32.389  26.084  22.462  1.00  0.00     0.039 A 
ATOM     18  C   UNL A   1      31.504  30.096  25.403  1.00  0.00     0.044 C 
ATOM     19  C   UNL A   1      31.589  29.182  24.201  1.00  0.00    -0.051 A 
ATOM     20  C   UNL A   1      33.250  28.905  23.547  1.00  0.00     0.004 A 
ATOM     21  C   UNL A   1      30.261  27.997  23.946  1.00  0.00     0.004 A 
ATOM     22  C   UNL A   1      33.643  27.380  22.690  1.00  0.00     0.014 A 
ATOM     23  C   UNL A   1      30.628  26.410  23.107  1.00  0.00     0.014 A 
ENDBRANCH  14  17
ENDBRANCH   9  13
ENDBRANCH   8   9
ENDBRANCH   5   8
ENDBRANCH   3   4
ENDBRANCH   2   3
ENDBRANCH   1   2
BRANCH   1  24
ATOM     24  C   UNL A   1      36.777  20.397  24.931  1.00  0.00     0.002 C 
BRANCH  24  25
ATOM     25  C   UNL A   1      38.259  20.736  25.120  1.00  0.00     0.021 C 
BRANCH  25  26
ATOM     26  C   UNL A   1      38.485  22.132  25.620  1.00  0.00     0.116 C 
BRANCH  26  27
ATOM     27  N   UNL A   1      39.657  22.219  26.454  1.00  0.00    -0.352 N 
ATOM     28  C   UNL A   1      40.416  23.327  26.757  1.00  0.00     0.251 C 
ATOM     29  H   UNL A   1      39.956  21.374  26.862  1.00  0.00     0.163 HD
ATOM     30  O   UNL A   1      41.573  23.206  27.146  1.00  0.00    -0.269 OA
BRANCH  28  31
ATOM     31  C   UNL A   1      39.739  24.652  26.865  1.00  0.00     0.039 A 
ATOM     32  C   UNL A   1      40.489  25.685  26.284  1.00  0.00     0.014 A 
ATOM     33  C   UNL A   1      38.909  24.917  27.945  1.00  0.00     0.014 A 
ATOM     34  C   UNL A   1      40.710  26.837  27.012  1.00  0.00     0.010 A 
ATOM     35  C   UNL A   1      39.287  25.934  28.772  1.00  0.00     0.010 A 
ATOM     36  C   UNL A   1      40.218  26.862  28.308  1.00  0.00    -0.014 A 
BRANCH  36  37
ATOM     37  C   UNL A   1      40.389  27.958  29.222  1.00  0.00     0.031 A 
ATOM     38  C   UNL A   1      39.392  29.024  29.019  1.00  0.00     0.074 A 
ATOM     39  C   UNL A   1      41.259  27.771  30.240  1.00  0.00     0.049 A 
ATOM     40  N   UNL A   1      39.541  30.242  29.364  1.00  0.00    -0.248 NA
ATOM     41  C   UNL A   1      38.129  28.812  28.291  1.00  0.00     0.031 C 
ATOM     42  C   UNL A   1      41.431  28.517  31.477  1.00  0.00     0.029 A 
ATOM     43  N   UNL A   1      42.357  26.903  30.221  1.00  0.00    -0.354 N 
ATOM     44  C   UNL A   1      38.294  30.833  29.299  1.00  0.00     0.074 A 
ATOM     45  C   UNL A   1      37.502  29.976  28.466  1.00  0.00     0.031 C 
ATOM     46  C   UNL A   1      42.690  28.329  31.926  1.00  0.00     0.029 A 
ATOM     47  C   UNL A   1      43.397  27.543  30.925  1.00  0.00     0.049 A 
ATOM     48  H   UNL A   1      42.395  26.015  29.798  1.00  0.00     0.167 HD
ATOM     49  C   UNL A   1      38.050  31.869  30.143  1.00  0.00     0.034 A 
ATOM     50  C   UNL A   1      44.495  27.968  30.226  1.00  0.00     0.034 A 
ATOM     51  C   UNL A   1      39.265  32.133  30.909  1.00  0.00     0.049 A 
ATOM     52  C   UNL A   1      44.483  29.484  30.122  1.00  0.00     0.074 A 
ATOM     53  C   UNL A   1      39.686  31.698  32.154  1.00  0.00     0.029 A 
ATOM     54  N   UNL A   1      40.396  32.544  30.224  1.00  0.00    -0.354 N 
ATOM     55  N   UNL A   1      43.394  30.213  30.142  1.00  0.00    -0.248 NA
ATOM     56  C   UNL A   1      45.700  30.293  30.128  1.00  0.00     0.031 C 
ATOM     57  C   UNL A   1      41.108  31.754  32.163  1.00  0.00     0.029 A 
ATOM     58  C   UNL A   1      41.535  32.228  30.933  1.00  0.00     0.049 A 
ATOM     59  H   UNL A   1      40.386  33.001  29.351  1.00  0.00     0.167 HD
ATOM     60  C   UNL A   1      43.736  31.537  30.237  1.00  0.00     0.074 A 
ATOM     61  C   UNL A   1      45.190  31.534  30.206  1.00  0.00     0.031 C 
ATOM     62  C   UNL A   1      42.830  32.554  30.373  1.00  0.00     0.034 A 
BRANCH  49  63
ATOM     63  C   UNL A   1      36.722  32.467  30.521  1.00  0.00     0.023 A 
ATOM     64  C   UNL A   1      36.026  33.154  29.504  1.00  0.00     0.031 A 
ATOM     65  C   UNL A   1      36.090  32.451  31.777  1.00  0.00     0.131 A 
ATOM     66  C   UNL A   1      34.812  33.810  29.744  1.00  0.00     0.055 A 
ATOM     67  C   UNL A   1      34.873  33.110  32.022  1.00  0.00     0.041 A 
ATOM     68  F   UNL A   1      36.591  31.789  32.825  1.00  0.00    -0.206 F 
ATOM     69  C   UNL A   1      34.227  33.798  31.003  1.00  0.00     0.022 A 
BRANCH  66  70
ATOM     70  S   UNL A   1      34.031  34.686  28.366  1.00  0.00     0.124 S 
ATOM     71  O   UNL A   1      33.871  36.030  28.910  1.00  0.00    -0.237 OA
ATOM     72  O   UNL A   1      35.016  34.531  27.302  1.00  0.00    -0.237 OA
ATOM     73  O   UNL A   1      32.783  33.950  28.164  1.00  0.00    -0.744 OA
ENDBRANCH  66  70
ENDBRANCH  49  63
BRANCH  50  74
ATOM     74  C   UNL A   1      44.864  26.974  29.158  1.00  0.00     0.023 A 
ATOM     75  C   UNL A   1      44.637  27.380  27.817  1.00  0.00     0.031 A 
ATOM     76  C   UNL A   1      45.857  26.008  29.378  1.00  0.00     0.131 A 
ATOM     77  C   UNL A   1      45.544  27.023  26.804  1.00  0.00     0.055 A 
ATOM     78  C   UNL A   1      46.716  25.605  28.344  1.00  0.00     0.041 A 
ATOM     79  F   UNL A   1      46.119  25.565  30.616  1.00  0.00    -0.206 F 
ATOM     80  C   UNL A   1      46.609  26.165  27.071  1.00  0.00     0.022 A 
BRANCH  77  81
ATOM     81  S   UNL A   1      45.465  27.902  25.213  1.00  0.00     0.124 S 
ATOM     82  O   UNL A   1      46.005  29.213  25.557  1.00  0.00    -0.237 OA
ATOM     83  O   UNL A   1      46.308  27.072  24.355  1.00  0.00    -0.237 OA
ATOM     84  O   UNL A   1      44.045  27.876  24.864  1.00  0.00    -0.744 OA
ENDBRANCH  77  81
ENDBRANCH  50  74
BRANCH  62  85
ATOM     85  C   UNL A   1      43.120  33.997  30.041  1.00  0.00     0.023 A 
ATOM     86  C   UNL A   1      42.975  34.492  28.744  1.00  0.00     0.031 A 
ATOM     87  C   UNL A   1      43.438  34.957  31.035  1.00  0.00     0.131 A 
ATOM     88  C   UNL A   1      43.285  35.822  28.443  1.00  0.00     0.055 A 
ATOM     89  C   UNL A   1      43.600  36.314  30.754  1.00  0.00     0.041 A 
ATOM     90  F   UNL A   1      43.597  34.629  32.326  1.00  0.00    -0.206 F 
ATOM     91  C   UNL A   1      43.560  36.751  29.441  1.00  0.00     0.022 A 
BRANCH  88  92
ATOM     92  S   UNL A   1      43.464  36.244  26.698  1.00  0.00     0.124 S 
ATOM     93  O   UNL A   1      42.691  37.482  26.616  1.00  0.00    -0.237 OA
ATOM     94  O   UNL A   1      44.908  36.391  26.555  1.00  0.00    -0.237 OA
ATOM     95  O   UNL A   1      42.878  35.099  26.007  1.00  0.00    -0.744 OA
ENDBRANCH  88  92
ENDBRANCH  62  85
ENDBRANCH  36  37
ENDBRANCH  28  31
ENDBRANCH  26  27
ENDBRANCH  25  26
ENDBRANCH  24  25
ENDBRANCH   1  24
TORSDOF 19
ENDMDL
MODEL 3
REMARK VINA RESULT:     -12.6      2.307      3.135
REMARK SMILES Cc1ccc(C(=O)NC2(CC(=O)NCCCCCCNC(=O)c3ccc(-c4c5nc(c(-c6cc(S(=O)(=O)[O-])ccc6F)c6ccc([nH]6)c(-c6cc(S(=O)(=O)[O-])ccc6F)c6nc(c(-c7cc(S(=O)(=O)[O-])ccc7F)c7ccc4[nH]7)C=C6)C=C5)cc3)CCC2)cc1
REMARK SMILES IDX 16 1 15 2 14 3 13 4 11 5 12 6 10 8 9 9 86 10 88 11 87 12
REMARK SMILES IDX 8 13 6 14 7 15 5 17 1 18 2 19 3 20 90 21 4 22 89 23 17 24
REMARK SMILES IDX 18 25 19 26 20 27 21 28 22 30 23 31 24 32 85 33 25 34 84 35
REMARK SMILES IDX 26 36 27 37 28 38 78 39 29 40 83 41 77 42 79 43 30 44 82 45
REMARK SMILES IDX 76 46 75 47 31 49 63 50 43 51 62 52 44 53 47 54 61 55 80 56
REMARK SMILES IDX 45 57 46 58 60 60 81 61 48 62 32 63 33 64 41 65 34 66 40 67
REMARK SMILES IDX 42 68 39 69 35 70 36 71 37 72 38 73 64 74 65 75 73 76 66 77
REMARK SMILES IDX 72 78 74 79 71 80 67 81 68 82 69 83 70 84 49 85 50 86 58 87
REMARK SMILES IDX 51 88 57 89 59 90 56 91 52 92 53 93 54 94 55 95
REMARK H PARENT 13 7 8 16 20 29 79 48 47 59
REMARK Flexibility Score: inf
ROOT
ATOM      1  C   UNL A   1      37.037  22.918  24.797  1.00  0.00     0.002 C 
ENDROOT
BRANCH   1   2
ATOM      2  C   UNL A   1      36.107  21.841  24.280  1.00  0.00     0.021 C 
BRANCH   2   3
ATOM      3  C   UNL A   1      36.307  20.517  24.969  1.00  0.00     0.116 C 
BRANCH   3   4
ATOM      4  N   UNL A   1      34.956  19.563  25.033  1.00  0.00    -0.356 N 
ATOM      5  C   UNL A   1      32.993  19.766  24.951  1.00  0.00     0.222 C 
ATOM      6  O   UNL A   1      32.085  18.939  24.667  1.00  0.00    -0.275 OA
ATOM      7  H   UNL A   1      35.204  18.617  25.146  1.00  0.00     0.163 HD
BRANCH   5   8
ATOM      8  C   UNL A   1      32.104  21.396  25.349  1.00  0.00     0.128 C 
BRANCH   8   9
ATOM      9  C   UNL A   1      32.468  22.415  26.648  1.00  0.00     0.049 C 
ATOM     10  C   UNL A   1      33.545  23.530  26.412  1.00  0.00     0.029 C 
ATOM     11  C   UNL A   1      33.303  22.291  28.121  1.00  0.00     0.029 C 
ATOM     12  C   UNL A   1      34.522  22.811  27.393  1.00  0.00     0.005 C 
BRANCH   9  13
ATOM     13  N   UNL A   1      31.166  22.778  27.175  1.00  0.00    -0.346 N 
ATOM     14  C   UNL A   1      30.603  23.858  26.556  1.00  0.00     0.251 C 
ATOM     15  O   UNL A   1      29.462  24.231  26.777  1.00  0.00    -0.269 OA
ATOM     16  H   UNL A   1      30.729  22.293  27.911  1.00  0.00     0.164 HD
BRANCH  14  17
ATOM     17  C   UNL A   1      31.601  24.655  25.762  1.00  0.00     0.039 A 
ATOM     18  C   UNL A   1      33.646  27.533  22.148  1.00  0.00     0.044 C 
ATOM     19  C   UNL A   1      32.717  27.014  23.222  1.00  0.00    -0.051 A 
ATOM     20  C   UNL A   1      31.712  25.586  22.763  1.00  0.00     0.004 A 
ATOM     21  C   UNL A   1      33.127  27.372  24.937  1.00  0.00     0.004 A 
ATOM     22  C   UNL A   1      31.161  24.424  24.014  1.00  0.00     0.014 A 
ATOM     23  C   UNL A   1      32.614  26.192  26.242  1.00  0.00     0.014 A 
ENDBRANCH  14  17
ENDBRANCH   9  13
ENDBRANCH   8   9
ENDBRANCH   5   8
ENDBRANCH   3   4
ENDBRANCH   2   3
ENDBRANCH   1   2
BRANCH   1  24
ATOM     24  C   UNL A   1      38.141  22.432  25.754  1.00  0.00     0.002 C 
BRANCH  24  25
ATOM     25  C   UNL A   1      39.007  23.496  26.437  1.00  0.00     0.021 C 
BRANCH  25  26
ATOM     26  C   UNL A   1      40.054  22.914  27.339  1.00  0.00     0.116 C 
BRANCH  26  27
ATOM     27  N   UNL A   1      40.764  21.831  26.708  1.00  0.00    -0.352 N 
ATOM     28  C   UNL A   1      42.077  21.789  26.295  1.00  0.00     0.251 C 
ATOM     29  H   UNL A   1      40.242  21.011  26.550  1.00  0.00     0.163 HD
ATOM     30  O   UNL A   1      42.441  20.980  25.448  1.00  0.00    -0.269 OA
BRANCH  28  31
ATOM     31  C   UNL A   1      43.098  22.547  27.073  1.00  0.00     0.039 A 
ATOM     32  C   UNL A   1      42.880  22.476  28.457  1.00  0.00     0.014 A 
ATOM     33  C   UNL A   1      43.690  23.674  26.520  1.00  0.00     0.014 A 
ATOM     34  C   UNL A   1      42.877  23.644  29.192  1.00  0.00     0.010 A 
ATOM     35  C   UNL A   1      43.477  24.857  27.166  1.00  0.00     0.010 A 
ATOM     36  C   UNL A   1      43.031  24.827  28.486  1.00  0.00    -0.014 A 
BRANCH  36  37
ATOM     37  C   UNL A   1      43.012  26.137  29.079  1.00  0.00     0.031 A 
ATOM     38  C   UNL A   1      41.783  26.883  28.757  1.00  0.00     0.074 A 
ATOM     39  C   UNL A   1      43.974  26.407  29.988  1.00  0.00     0.049 A 
ATOM     40  N   UNL A   1      41.670  28.153  28.776  1.00  0.00    -0.248 NA
ATOM     41  C   UNL A   1      40.552  26.232  28.274  1.00  0.00     0.031 C 
ATOM     42  C   UNL A   1      44.060  27.472  30.976  1.00  0.00     0.029 A 
ATOM     43  N   UNL A   1      45.239  25.809  30.036  1.00  0.00    -0.354 N 
ATOM     44  C   UNL A   1      40.318  28.437  28.735  1.00  0.00     0.074 A 
ATOM     45  C   UNL A   1      39.688  27.248  28.245  1.00  0.00     0.031 C 
ATOM     46  C   UNL A   1      45.358  27.672  31.288  1.00  0.00     0.029 A 
ATOM     47  C   UNL A   1      46.152  26.811  30.422  1.00  0.00     0.049 A 
ATOM     48  H   UNL A   1      45.450  24.869  29.838  1.00  0.00     0.167 HD
ATOM     49  C   UNL A   1      39.904  29.586  29.329  1.00  0.00     0.034 A 
ATOM     50  C   UNL A   1      47.067  27.253  29.503  1.00  0.00     0.034 A 
ATOM     51  C   UNL A   1      41.079  30.286  29.842  1.00  0.00     0.049 A 
ATOM     52  C   UNL A   1      46.696  28.651  29.039  1.00  0.00     0.074 A 
ATOM     53  C   UNL A   1      41.680  30.292  31.090  1.00  0.00     0.029 A 
ATOM     54  N   UNL A   1      42.030  30.725  28.936  1.00  0.00    -0.354 N 
ATOM     55  N   UNL A   1      45.472  29.121  29.026  1.00  0.00    -0.248 NA
ATOM     56  C   UNL A   1      47.689  29.664  28.691  1.00  0.00     0.031 C 
ATOM     57  C   UNL A   1      43.047  30.638  30.898  1.00  0.00     0.029 A 
ATOM     58  C   UNL A   1      43.260  30.847  29.545  1.00  0.00     0.049 A 
ATOM     59  H   UNL A   1      41.850  30.922  27.988  1.00  0.00     0.167 HD
ATOM     60  C   UNL A   1      45.504  30.463  28.754  1.00  0.00     0.074 A 
ATOM     61  C   UNL A   1      46.912  30.751  28.534  1.00  0.00     0.031 C 
ATOM     62  C   UNL A   1      44.400  31.273  28.758  1.00  0.00     0.034 A 
BRANCH  49  63
ATOM     63  C   UNL A   1      38.506  29.978  29.723  1.00  0.00     0.023 A 
ATOM     64  C   UNL A   1      38.053  31.236  29.273  1.00  0.00     0.031 A 
ATOM     65  C   UNL A   1      37.592  29.255  30.509  1.00  0.00     0.131 A 
ATOM     66  C   UNL A   1      36.796  31.745  29.625  1.00  0.00     0.055 A 
ATOM     67  C   UNL A   1      36.331  29.764  30.866  1.00  0.00     0.041 A 
ATOM     68  F   UNL A   1      37.848  28.022  30.958  1.00  0.00    -0.206 F 
ATOM     69  C   UNL A   1      35.927  31.017  30.426  1.00  0.00     0.022 A 
BRANCH  66  70
ATOM     70  S   UNL A   1      36.341  33.386  29.013  1.00  0.00     0.124 S 
ATOM     71  O   UNL A   1      37.616  34.093  29.057  1.00  0.00    -0.237 OA
ATOM     72  O   UNL A   1      35.811  33.087  27.688  1.00  0.00    -0.237 OA
ATOM     73  O   UNL A   1      35.349  33.844  29.985  1.00  0.00    -0.744 OA
ENDBRANCH  66  70
ENDBRANCH  49  63
BRANCH  50  74
ATOM     74  C   UNL A   1      47.575  26.109  28.667  1.00  0.00     0.023 A 
ATOM     75  C   UNL A   1      47.165  26.094  27.309  1.00  0.00     0.031 A 
ATOM     76  C   UNL A   1      48.776  25.458  28.984  1.00  0.00     0.131 A 
ATOM     77  C   UNL A   1      48.054  25.675  26.303  1.00  0.00     0.055 A 
ATOM     78  C   UNL A   1      49.628  24.980  27.976  1.00  0.00     0.041 A 
ATOM     79  F   UNL A   1      49.221  25.419  30.248  1.00  0.00    -0.206 F 
ATOM     80  C   UNL A   1      49.303  25.152  26.630  1.00  0.00     0.022 A 
BRANCH  77  81
ATOM     81  S   UNL A   1      47.662  26.069  24.571  1.00  0.00     0.124 S 
ATOM     82  O   UNL A   1      48.824  26.850  24.161  1.00  0.00    -0.237 OA
ATOM     83  O   UNL A   1      47.540  24.744  23.968  1.00  0.00    -0.237 OA
ATOM     84  O   UNL A   1      46.402  26.809  24.654  1.00  0.00    -0.744 OA
ENDBRANCH  77  81
ENDBRANCH  50  74
BRANCH  62  85
ATOM     85  C   UNL A   1      44.322  32.604  28.053  1.00  0.00     0.023 A 
ATOM     86  C   UNL A   1      44.333  33.807  28.761  1.00  0.00     0.031 A 
ATOM     87  C   UNL A   1      44.354  32.720  26.640  1.00  0.00     0.131 A 
ATOM     88  C   UNL A   1      44.222  35.033  28.097  1.00  0.00     0.055 A 
ATOM     89  C   UNL A   1      44.394  33.949  25.981  1.00  0.00     0.041 A 
ATOM     90  F   UNL A   1      44.358  31.650  25.832  1.00  0.00    -0.206 F 
ATOM     91  C   UNL A   1      44.290  35.121  26.711  1.00  0.00     0.022 A 
BRANCH  88  92
ATOM     92  S   UNL A   1      43.831  36.476  29.107  1.00  0.00     0.124 S 
ATOM     93  O   UNL A   1      44.979  37.340  28.840  1.00  0.00    -0.237 OA
ATOM     94  O   UNL A   1      42.561  36.921  28.544  1.00  0.00    -0.237 OA
ATOM     95  O   UNL A   1      43.761  35.937  30.462  1.00  0.00    -0.744 OA
ENDBRANCH  88  92
ENDBRANCH  62  85
ENDBRANCH  36  37
ENDBRANCH  28  31
ENDBRANCH  26  27
ENDBRANCH  25  26
ENDBRANCH  24  25
ENDBRANCH   1  24
TORSDOF 19
ENDMDL
