MODEL 1
REMARK VINA RESULT:     -12.7      0.000      0.000
REMARK SMILES O=C(NCCCCCCNC(=O)c1ccc(-c2c3nc(c(-c4cc(S(=O)(=O)[O-])ccc4F)c4ccc([nH]4)c(-c4cc(S(=O)(=O)[O-])ccc4F)c4nc(c(-c5cc(S(=O)(=O)[O-])ccc5F)c5ccc2[nH]5)C=C4)C=C3)cc1)C1=Cc2cc(S(F)(F)(F)(F)F)ccc2O[C@@H]1C(F)(F)F
REMARK SMILES IDX 7 1 6 2 5 3 4 4 3 5 1 6 2 7 76 9 77 10 91 11 78 12 90 13
REMARK SMILES IDX 79 14 89 15 80 16 88 17 87 18 92 19 93 20 94 21 95 22 81 23
REMARK SMILES IDX 82 24 83 25 84 26 85 27 86 28 8 29 9 30 10 31 11 32 12 34
REMARK SMILES IDX 13 35 14 36 75 37 15 38 74 39 16 40 17 41 18 42 68 43 19 44
REMARK SMILES IDX 73 45 67 46 69 47 20 48 72 49 66 50 65 51 21 53 53 54 33 55
REMARK SMILES IDX 52 56 34 57 37 58 51 59 70 60 35 61 36 62 50 64 71 65 38 66
REMARK SMILES IDX 22 67 23 68 31 69 24 70 30 71 32 72 29 73 25 74 26 75 27 76
REMARK SMILES IDX 28 77 54 78 55 79 63 80 56 81 62 82 64 83 61 84 57 85 58 86
REMARK SMILES IDX 59 87 60 88 39 89 40 90 48 91 41 92 47 93 49 94 46 95 42 96
REMARK SMILES IDX 43 97 44 98 45 99
REMARK H PARENT 3 8 10 33 69 52 37 63
REMARK Flexibility Score: inf
ROOT
ATOM      1  C   UNL A   1      31.773  30.732  26.182  1.00  0.00     0.002 C 
ENDROOT
BRANCH   1   2
ATOM      2  C   UNL A   1      32.722  30.094  27.184  1.00  0.00     0.002 C 
BRANCH   2   3
ATOM      3  C   UNL A   1      33.955  29.581  26.457  1.00  0.00     0.021 C 
BRANCH   3   4
ATOM      4  C   UNL A   1      33.923  28.061  26.418  1.00  0.00     0.116 C 
BRANCH   4   5
ATOM      5  N   UNL A   1      32.730  27.578  27.128  1.00  0.00    -0.352 N 
ATOM      6  O   UNL A   1      30.548  26.648  26.982  1.00  0.00    -0.270 OA
ATOM      7  C   UNL A   1      31.580  27.067  26.368  1.00  0.00     0.251 C 
ATOM      8  H   UNL A   1      32.701  27.597  28.112  1.00  0.00     0.163 HD
BRANCH   7   9
ATOM      9  C   UNL A   1      31.625  27.038  24.849  1.00  0.00     0.067 C 
ATOM     10  C   UNL A   1      32.340  26.073  24.208  1.00  0.00     0.025 C 
ATOM     11  C   UNL A   1      30.871  28.086  24.046  1.00  0.00     0.314 C 
ATOM     12  C   UNL A   1      33.093  25.025  25.010  1.00  0.00     0.019 A 
ATOM     13  O   UNL A   1      31.211  24.953  26.460  1.00  0.00    -0.475 OA
ATOM     14  C   UNL A   1      34.385  24.667  24.665  1.00  0.00     0.036 A 
ATOM     15  C   UNL A   1      32.469  24.452  26.034  1.00  0.00     0.128 A 
ATOM     16  C   UNL A   1      34.837  23.479  25.287  1.00  0.00     0.107 A 
ATOM     17  C   UNL A   1      33.031  23.381  26.683  1.00  0.00     0.048 A 
ATOM     18  C   UNL A   1      34.282  22.936  26.355  1.00  0.00     0.028 A 
BRANCH  11  19
ATOM     19  C   UNL A   1      29.847  27.402  23.155  1.00  0.00     0.429 C 
ATOM     20  F   UNL A   1      30.424  27.044  22.012  1.00  0.00    -0.167 F 
ATOM     21  F   UNL A   1      29.373  26.324  23.771  1.00  0.00    -0.167 F 
ATOM     22  F   UNL A   1      28.848  28.243  22.902  1.00  0.00    -0.167 F 
ENDBRANCH  11  19
BRANCH  16  23
ATOM     23  S   UNL A   1      36.275  22.647  24.569  1.00  0.00     0.310 S 
ATOM     24  F   UNL A   1      35.931  23.167  23.110  1.00  0.00    -0.094 F 
ATOM     25  F   UNL A   1      35.363  21.399  24.265  1.00  0.00    -0.094 F 
ATOM     26  F   UNL A   1      37.510  21.929  23.955  1.00  0.00    -0.094 F 
ATOM     27  F   UNL A   1      37.137  23.957  24.753  1.00  0.00    -0.094 F 
ATOM     28  F   UNL A   1      35.003  23.428  25.091  1.00  0.00    -0.094 F 
ENDBRANCH  16  23
ENDBRANCH   7   9
ENDBRANCH   4   5
ENDBRANCH   3   4
ENDBRANCH   2   3
ENDBRANCH   1   2
BRANCH   1  29
ATOM     29  C   UNL A   1      31.415  32.135  26.646  1.00  0.00     0.021 C 
BRANCH  29  30
ATOM     30  C   UNL A   1      32.670  32.848  27.119  1.00  0.00     0.116 C 
BRANCH  30  31
ATOM     31  N   UNL A   1      32.320  34.196  27.590  1.00  0.00    -0.352 N 
ATOM     32  C   UNL A   1      33.120  34.839  28.643  1.00  0.00     0.251 C 
ATOM     33  H   UNL A   1      31.549  34.669  27.201  1.00  0.00     0.163 HD
ATOM     34  O   UNL A   1      32.817  36.004  29.050  1.00  0.00    -0.269 OA
BRANCH  32  35
ATOM     35  C   UNL A   1      34.311  34.109  29.243  1.00  0.00     0.039 A 
ATOM     36  C   UNL A   1      35.593  34.481  28.872  1.00  0.00     0.014 A 
ATOM     37  C   UNL A   1      34.103  33.128  30.112  1.00  0.00     0.014 A 
ATOM     38  C   UNL A   1      36.593  33.556  29.259  1.00  0.00     0.010 A 
ATOM     39  C   UNL A   1      35.146  32.350  30.553  1.00  0.00     0.010 A 
ATOM     40  C   UNL A   1      36.433  32.623  30.179  1.00  0.00    -0.014 A 
BRANCH  40  41
ATOM     41  C   UNL A   1      37.617  31.892  30.792  1.00  0.00     0.031 A 
ATOM     42  C   UNL A   1      37.986  32.222  32.097  1.00  0.00     0.074 A 
ATOM     43  C   UNL A   1      38.262  30.940  30.022  1.00  0.00     0.049 A 
ATOM     44  N   UNL A   1      38.965  31.681  32.826  1.00  0.00    -0.248 NA
ATOM     45  C   UNL A   1      37.324  33.256  32.904  1.00  0.00     0.031 C 
ATOM     46  C   UNL A   1      37.890  30.596  28.706  1.00  0.00     0.029 A 
ATOM     47  N   UNL A   1      39.351  30.171  30.366  1.00  0.00    -0.354 N 
ATOM     48  C   UNL A   1      39.002  32.244  34.036  1.00  0.00     0.074 A 
ATOM     49  C   UNL A   1      37.951  33.269  34.102  1.00  0.00     0.031 C 
ATOM     50  C   UNL A   1      38.749  29.641  28.261  1.00  0.00     0.029 A 
ATOM     51  C   UNL A   1      39.672  29.373  29.289  1.00  0.00     0.049 A 
ATOM     52  H   UNL A   1      39.820  30.188  31.231  1.00  0.00     0.167 HD
ATOM     53  C   UNL A   1      39.869  31.942  35.087  1.00  0.00     0.034 A 
ATOM     54  C   UNL A   1      40.708  28.458  29.190  1.00  0.00     0.034 A 
ATOM     55  C   UNL A   1      40.877  30.995  35.002  1.00  0.00     0.049 A 
ATOM     56  C   UNL A   1      41.613  28.196  30.222  1.00  0.00     0.074 A 
ATOM     57  C   UNL A   1      41.755  30.673  36.054  1.00  0.00     0.029 A 
ATOM     58  N   UNL A   1      41.214  30.215  33.918  1.00  0.00    -0.354 N 
ATOM     59  N   UNL A   1      41.625  28.730  31.445  1.00  0.00    -0.248 NA
ATOM     60  C   UNL A   1      42.733  27.253  30.118  1.00  0.00     0.031 C 
ATOM     61  C   UNL A   1      42.615  29.718  35.609  1.00  0.00     0.029 A 
ATOM     62  C   UNL A   1      42.289  29.430  34.270  1.00  0.00     0.049 A 
ATOM     63  H   UNL A   1      40.763  30.219  33.043  1.00  0.00     0.167 HD
ATOM     64  C   UNL A   1      42.629  28.220  32.159  1.00  0.00     0.074 A 
ATOM     65  C   UNL A   1      43.362  27.267  31.314  1.00  0.00     0.031 C 
ATOM     66  C   UNL A   1      42.963  28.508  33.484  1.00  0.00     0.034 A 
BRANCH  53  67
ATOM     67  C   UNL A   1      39.698  32.692  36.397  1.00  0.00     0.023 A 
ATOM     68  C   UNL A   1      38.983  32.145  37.451  1.00  0.00     0.031 A 
ATOM     69  C   UNL A   1      40.301  33.869  36.512  1.00  0.00     0.131 A 
ATOM     70  C   UNL A   1      38.719  33.057  38.499  1.00  0.00     0.055 A 
ATOM     71  C   UNL A   1      40.106  34.650  37.626  1.00  0.00     0.041 A 
ATOM     72  F   UNL A   1      41.102  34.297  35.541  1.00  0.00    -0.206 F 
ATOM     73  C   UNL A   1      39.362  34.197  38.680  1.00  0.00     0.022 A 
BRANCH  70  74
ATOM     74  S   UNL A   1      37.409  32.633  39.674  1.00  0.00     0.124 S 
ATOM     75  O   UNL A   1      37.472  33.583  40.873  1.00  0.00    -0.237 OA
ATOM     76  O   UNL A   1      36.047  32.765  38.990  1.00  0.00    -0.237 OA
ATOM     77  O   UNL A   1      37.624  31.023  40.211  1.00  0.00    -0.744 OA
ENDBRANCH  70  74
ENDBRANCH  53  67
BRANCH  54  78
ATOM     78  C   UNL A   1      40.869  27.695  27.885  1.00  0.00     0.023 A 
ATOM     79  C   UNL A   1      40.445  26.377  27.851  1.00  0.00     0.031 A 
ATOM     80  C   UNL A   1      41.448  28.261  26.833  1.00  0.00     0.131 A 
ATOM     81  C   UNL A   1      40.939  25.644  26.746  1.00  0.00     0.055 A 
ATOM     82  C   UNL A   1      41.781  27.510  25.731  1.00  0.00     0.041 A 
ATOM     83  F   UNL A   1      41.707  29.565  26.844  1.00  0.00    -0.206 F 
ATOM     84  C   UNL A   1      41.446  26.187  25.654  1.00  0.00     0.022 A 
BRANCH  81  85
ATOM     85  S   UNL A   1      40.876  23.838  26.837  1.00  0.00     0.124 S 
ATOM     86  O   UNL A   1      41.259  23.384  28.247  1.00  0.00    -0.237 OA
ATOM     87  O   UNL A   1      39.457  23.360  26.515  1.00  0.00    -0.237 OA
ATOM     88  O   UNL A   1      41.972  23.171  25.706  1.00  0.00    -0.744 OA
ENDBRANCH  81  85
ENDBRANCH  54  78
BRANCH  66  89
ATOM     89  C   UNL A   1      44.136  27.765  34.103  1.00  0.00     0.023 A 
ATOM     90  C   UNL A   1      43.929  26.519  34.672  1.00  0.00     0.031 A 
ATOM     91  C   UNL A   1      45.340  28.324  34.089  1.00  0.00     0.131 A 
ATOM     92  C   UNL A   1      45.010  26.064  35.464  1.00  0.00     0.055 A 
ATOM     93  C   UNL A   1      46.386  27.752  34.773  1.00  0.00     0.041 A 
ATOM     94  F   UNL A   1      45.537  29.448  33.405  1.00  0.00    -0.206 F 
ATOM     95  C   UNL A   1      46.236  26.550  35.408  1.00  0.00     0.022 A 
BRANCH  92  96
ATOM     96  S   UNL A   1      44.689  24.720  36.633  1.00  0.00     0.124 S 
ATOM     97  O   UNL A   1      44.249  23.471  35.867  1.00  0.00    -0.237 OA
ATOM     98  O   UNL A   1      45.965  24.412  37.420  1.00  0.00    -0.237 OA
ATOM     99  O   UNL A   1      43.451  25.190  37.715  1.00  0.00    -0.744 OA
ENDBRANCH  92  96
ENDBRANCH  66  89
ENDBRANCH  40  41
ENDBRANCH  32  35
ENDBRANCH  30  31
ENDBRANCH  29  30
ENDBRANCH   1  29
TORSDOF 18
ENDMDL
MODEL 2
REMARK VINA RESULT:     -12.7      1.630      3.518
REMARK SMILES O=C(NCCCCCCNC(=O)c1ccc(-c2c3nc(c(-c4cc(S(=O)(=O)[O-])ccc4F)c4ccc([nH]4)c(-c4cc(S(=O)(=O)[O-])ccc4F)c4nc(c(-c5cc(S(=O)(=O)[O-])ccc5F)c5ccc2[nH]5)C=C4)C=C3)cc1)C1=Cc2cc(S(F)(F)(F)(F)F)ccc2O[C@@H]1C(F)(F)F
REMARK SMILES IDX 7 1 6 2 5 3 4 4 3 5 1 6 2 7 76 9 77 10 91 11 78 12 90 13
REMARK SMILES IDX 79 14 89 15 80 16 88 17 87 18 92 19 93 20 94 21 95 22 81 23
REMARK SMILES IDX 82 24 83 25 84 26 85 27 86 28 8 29 9 30 10 31 11 32 12 34
REMARK SMILES IDX 13 35 14 36 75 37 15 38 74 39 16 40 17 41 18 42 68 43 19 44
REMARK SMILES IDX 73 45 67 46 69 47 20 48 72 49 66 50 65 51 21 53 53 54 33 55
REMARK SMILES IDX 52 56 34 57 37 58 51 59 70 60 35 61 36 62 50 64 71 65 38 66
REMARK SMILES IDX 22 67 23 68 31 69 24 70 30 71 32 72 29 73 25 74 26 75 27 76
REMARK SMILES IDX 28 77 54 78 55 79 63 80 56 81 62 82 64 83 61 84 57 85 58 86
REMARK SMILES IDX 59 87 60 88 39 89 40 90 48 91 41 92 47 93 49 94 46 95 42 96
REMARK SMILES IDX 43 97 44 98 45 99
REMARK H PARENT 3 8 10 33 69 52 37 63
REMARK Flexibility Score: inf
ROOT
ATOM      1  C   UNL A   1      31.705  30.228  26.395  1.00  0.00     0.002 C 
ENDROOT
BRANCH   1   2
ATOM      2  C   UNL A   1      33.213  30.046  26.386  1.00  0.00     0.002 C 
BRANCH   2   3
ATOM      3  C   UNL A   1      33.593  28.915  27.328  1.00  0.00     0.021 C 
BRANCH   3   4
ATOM      4  C   UNL A   1      32.946  27.623  26.854  1.00  0.00     0.116 C 
BRANCH   4   5
ATOM      5  N   UNL A   1      33.833  26.955  25.891  1.00  0.00    -0.352 N 
ATOM      6  O   UNL A   1      34.189  25.111  24.436  1.00  0.00    -0.270 OA
ATOM      7  C   UNL A   1      33.422  25.688  25.269  1.00  0.00     0.251 C 
ATOM      8  H   UNL A   1      34.703  27.356  25.663  1.00  0.00     0.163 HD
BRANCH   7   9
ATOM      9  C   UNL A   1      32.079  25.069  25.622  1.00  0.00     0.067 C 
ATOM     10  C   UNL A   1      30.931  25.607  25.127  1.00  0.00     0.025 C 
ATOM     11  C   UNL A   1      32.019  23.849  26.528  1.00  0.00     0.314 C 
ATOM     12  C   UNL A   1      30.991  26.826  24.222  1.00  0.00     0.019 A 
ATOM     13  O   UNL A   1      32.885  25.823  23.195  1.00  0.00    -0.475 OA
ATOM     14  C   UNL A   1      30.110  27.880  24.399  1.00  0.00     0.036 A 
ATOM     15  C   UNL A   1      31.895  26.840  23.249  1.00  0.00     0.128 A 
ATOM     16  C   UNL A   1      30.071  28.783  23.310  1.00  0.00     0.107 A 
ATOM     17  C   UNL A   1      31.882  27.828  22.296  1.00  0.00     0.048 A 
ATOM     18  C   UNL A   1      31.000  28.870  22.376  1.00  0.00     0.028 A 
BRANCH  11  19
ATOM     19  C   UNL A   1      31.365  22.697  25.783  1.00  0.00     0.429 C 
ATOM     20  F   UNL A   1      31.440  22.916  24.474  1.00  0.00    -0.167 F 
ATOM     21  F   UNL A   1      31.994  21.564  26.081  1.00  0.00    -0.167 F 
ATOM     22  F   UNL A   1      30.088  22.603  26.146  1.00  0.00    -0.167 F 
ENDBRANCH  11  19
BRANCH  16  23
ATOM     23  S   UNL A   1      28.648  29.896  23.191  1.00  0.00     0.310 S 
ATOM     24  F   UNL A   1      29.118  30.455  21.783  1.00  0.00    -0.094 F 
ATOM     25  F   UNL A   1      29.518  31.029  23.855  1.00  0.00    -0.094 F 
ATOM     26  F   UNL A   1      27.426  30.852  23.094  1.00  0.00    -0.094 F 
ATOM     27  F   UNL A   1      27.839  28.794  22.402  1.00  0.00    -0.094 F 
ATOM     28  F   UNL A   1      29.916  28.951  23.181  1.00  0.00    -0.094 F 
ENDBRANCH  16  23
ENDBRANCH   7   9
ENDBRANCH   4   5
ENDBRANCH   3   4
ENDBRANCH   2   3
ENDBRANCH   1   2
BRANCH   1  29
ATOM     29  C   UNL A   1      31.373  31.704  26.541  1.00  0.00     0.021 C 
BRANCH  29  30
ATOM     30  C   UNL A   1      32.631  32.472  26.908  1.00  0.00     0.116 C 
BRANCH  30  31
ATOM     31  N   UNL A   1      32.268  33.831  27.338  1.00  0.00    -0.352 N 
ATOM     32  C   UNL A   1      33.053  34.507  28.381  1.00  0.00     0.251 C 
ATOM     33  H   UNL A   1      31.498  34.288  26.928  1.00  0.00     0.163 HD
ATOM     34  O   UNL A   1      32.739  35.681  28.752  1.00  0.00    -0.269 OA
BRANCH  32  35
ATOM     35  C   UNL A   1      34.241  33.802  29.014  1.00  0.00     0.039 A 
ATOM     36  C   UNL A   1      35.522  34.260  28.753  1.00  0.00     0.014 A 
ATOM     37  C   UNL A   1      34.032  32.757  29.806  1.00  0.00     0.014 A 
ATOM     38  C   UNL A   1      36.544  33.364  29.149  1.00  0.00     0.010 A 
ATOM     39  C   UNL A   1      35.085  32.006  30.268  1.00  0.00     0.010 A 
ATOM     40  C   UNL A   1      36.377  32.367  29.998  1.00  0.00    -0.014 A 
BRANCH  40  41
ATOM     41  C   UNL A   1      37.558  31.659  30.643  1.00  0.00     0.031 A 
ATOM     42  C   UNL A   1      37.896  32.008  31.952  1.00  0.00     0.074 A 
ATOM     43  C   UNL A   1      38.232  30.708  29.897  1.00  0.00     0.049 A 
ATOM     44  N   UNL A   1      38.866  31.489  32.706  1.00  0.00    -0.248 NA
ATOM     45  C   UNL A   1      37.203  33.042  32.734  1.00  0.00     0.031 C 
ATOM     46  C   UNL A   1      37.891  30.344  28.578  1.00  0.00     0.029 A 
ATOM     47  N   UNL A   1      39.323  29.957  30.272  1.00  0.00    -0.354 N 
ATOM     48  C   UNL A   1      38.870  32.065  33.911  1.00  0.00     0.074 A 
ATOM     49  C   UNL A   1      37.805  33.077  33.943  1.00  0.00     0.031 C 
ATOM     50  C   UNL A   1      38.772  29.397  28.161  1.00  0.00     0.029 A 
ATOM     51  C   UNL A   1      39.677  29.152  29.211  1.00  0.00     0.049 A 
ATOM     52  H   UNL A   1      39.774  29.990  31.146  1.00  0.00     0.167 HD
ATOM     53  C   UNL A   1      39.720  31.786  34.982  1.00  0.00     0.034 A 
ATOM     54  C   UNL A   1      40.727  28.250  29.143  1.00  0.00     0.034 A 
ATOM     55  C   UNL A   1      40.742  30.852  34.929  1.00  0.00     0.049 A 
ATOM     56  C   UNL A   1      41.614  28.012  30.197  1.00  0.00     0.074 A 
ATOM     57  C   UNL A   1      41.603  30.553  36.002  1.00  0.00     0.029 A 
ATOM     58  N   UNL A   1      41.112  30.065  33.861  1.00  0.00    -0.354 N 
ATOM     59  N   UNL A   1      41.594  28.559  31.413  1.00  0.00    -0.248 NA
ATOM     60  C   UNL A   1      42.749  27.083  30.126  1.00  0.00     0.031 C 
ATOM     61  C   UNL A   1      42.484  29.606  35.586  1.00  0.00     0.029 A 
ATOM     62  C   UNL A   1      42.189  29.298  34.244  1.00  0.00     0.049 A 
ATOM     63  H   UNL A   1      40.679  30.053  32.977  1.00  0.00     0.167 HD
ATOM     64  C   UNL A   1      42.590  28.071  32.154  1.00  0.00     0.074 A 
ATOM     65  C   UNL A   1      43.352  27.119  31.334  1.00  0.00     0.031 C 
ATOM     66  C   UNL A   1      42.891  28.377  33.482  1.00  0.00     0.034 A 
BRANCH  53  67
ATOM     67  C   UNL A   1      39.511  32.548  36.280  1.00  0.00     0.023 A 
ATOM     68  C   UNL A   1      38.866  31.967  37.360  1.00  0.00     0.031 A 
ATOM     69  C   UNL A   1      40.015  33.774  36.358  1.00  0.00     0.131 A 
ATOM     70  C   UNL A   1      38.547  32.876  38.395  1.00  0.00     0.055 A 
ATOM     71  C   UNL A   1      39.776  34.560  37.461  1.00  0.00     0.041 A 
ATOM     72  F   UNL A   1      40.758  34.246  35.362  1.00  0.00    -0.206 F 
ATOM     73  C   UNL A   1      39.095  34.070  38.539  1.00  0.00     0.022 A 
BRANCH  70  74
ATOM     74  S   UNL A   1      37.301  32.370  39.607  1.00  0.00     0.124 S 
ATOM     75  O   UNL A   1      36.004  32.002  38.881  1.00  0.00    -0.237 OA
ATOM     76  O   UNL A   1      37.811  31.156  40.387  1.00  0.00    -0.237 OA
ATOM     77  O   UNL A   1      37.002  33.659  40.690  1.00  0.00    -0.744 OA
ENDBRANCH  70  74
ENDBRANCH  53  67
BRANCH  54  78
ATOM     78  C   UNL A   1      40.925  27.475  27.851  1.00  0.00     0.023 A 
ATOM     79  C   UNL A   1      40.504  26.157  27.817  1.00  0.00     0.031 A 
ATOM     80  C   UNL A   1      41.532  28.032  26.809  1.00  0.00     0.131 A 
ATOM     81  C   UNL A   1      41.030  25.414  26.733  1.00  0.00     0.055 A 
ATOM     82  C   UNL A   1      41.896  27.272  25.724  1.00  0.00     0.041 A 
ATOM     83  F   UNL A   1      41.788  29.337  26.816  1.00  0.00    -0.206 F 
ATOM     84  C   UNL A   1      41.565  25.948  25.650  1.00  0.00     0.022 A 
BRANCH  81  85
ATOM     85  S   UNL A   1      40.968  23.609  26.839  1.00  0.00     0.124 S 
ATOM     86  O   UNL A   1      39.534  23.132  26.599  1.00  0.00    -0.237 OA
ATOM     87  O   UNL A   1      41.890  23.003  25.778  1.00  0.00    -0.237 OA
ATOM     88  O   UNL A   1      41.482  23.111  28.392  1.00  0.00    -0.744 OA
ENDBRANCH  81  85
ENDBRANCH  54  78
BRANCH  66  89
ATOM     89  C   UNL A   1      44.062  27.657  34.133  1.00  0.00     0.023 A 
ATOM     90  C   UNL A   1      43.904  26.349  34.559  1.00  0.00     0.031 A 
ATOM     91  C   UNL A   1      45.216  28.296  34.284  1.00  0.00     0.131 A 
ATOM     92  C   UNL A   1      44.945  25.890  35.400  1.00  0.00     0.055 A 
ATOM     93  C   UNL A   1      46.240  27.730  35.004  1.00  0.00     0.041 A 
ATOM     94  F   UNL A   1      45.382  29.494  33.732  1.00  0.00    -0.206 F 
ATOM     95  C   UNL A   1      46.130  26.462  35.505  1.00  0.00     0.022 A 
BRANCH  92  96
ATOM     96  S   UNL A   1      44.630  24.415  36.401  1.00  0.00     0.124 S 
ATOM     97  O   UNL A   1      43.377  23.706  35.884  1.00  0.00    -0.237 OA
ATOM     98  O   UNL A   1      45.828  23.468  36.305  1.00  0.00    -0.237 OA
ATOM     99  O   UNL A   1      44.394  24.873  38.031  1.00  0.00    -0.744 OA
ENDBRANCH  92  96
ENDBRANCH  66  89
ENDBRANCH  40  41
ENDBRANCH  32  35
ENDBRANCH  30  31
ENDBRANCH  29  30
ENDBRANCH   1  29
TORSDOF 18
ENDMDL
MODEL 3
REMARK VINA RESULT:     -12.6      5.595     10.638
REMARK SMILES O=C(NCCCCCCNC(=O)c1ccc(-c2c3nc(c(-c4cc(S(=O)(=O)[O-])ccc4F)c4ccc([nH]4)c(-c4cc(S(=O)(=O)[O-])ccc4F)c4nc(c(-c5cc(S(=O)(=O)[O-])ccc5F)c5ccc2[nH]5)C=C4)C=C3)cc1)C1=Cc2cc(S(F)(F)(F)(F)F)ccc2O[C@@H]1C(F)(F)F
REMARK SMILES IDX 7 1 6 2 5 3 4 4 3 5 1 6 2 7 76 9 77 10 91 11 78 12 90 13
REMARK SMILES IDX 79 14 89 15 80 16 88 17 87 18 92 19 93 20 94 21 95 22 81 23
REMARK SMILES IDX 82 24 83 25 84 26 85 27 86 28 8 29 9 30 10 31 11 32 12 34
REMARK SMILES IDX 13 35 14 36 75 37 15 38 74 39 16 40 17 41 18 42 68 43 19 44
REMARK SMILES IDX 73 45 67 46 69 47 20 48 72 49 66 50 65 51 21 53 53 54 33 55
REMARK SMILES IDX 52 56 34 57 37 58 51 59 70 60 35 61 36 62 50 64 71 65 38 66
REMARK SMILES IDX 22 67 23 68 31 69 24 70 30 71 32 72 29 73 25 74 26 75 27 76
REMARK SMILES IDX 28 77 54 78 55 79 63 80 56 81 62 82 64 83 61 84 57 85 58 86
REMARK SMILES IDX 59 87 60 88 39 89 40 90 48 91 41 92 47 93 49 94 46 95 42 96
REMARK SMILES IDX 43 97 44 98 45 99
REMARK H PARENT 3 8 10 33 69 52 37 63
REMARK Flexibility Score: inf
ROOT
ATOM      1  C   UNL A   1      36.621  20.651  25.001  1.00  0.00     0.002 C 
ENDROOT
BRANCH   1   2
ATOM      2  C   UNL A   1      37.014  21.938  24.296  1.00  0.00     0.002 C 
BRANCH   2   3
ATOM      3  C   UNL A   1      36.745  23.121  25.212  1.00  0.00     0.021 C 
BRANCH   3   4
ATOM      4  C   UNL A   1      35.776  24.076  24.534  1.00  0.00     0.116 C 
BRANCH   4   5
ATOM      5  N   UNL A   1      34.890  24.674  25.543  1.00  0.00    -0.352 N 
ATOM      6  O   UNL A   1      32.817  25.733  26.017  1.00  0.00    -0.270 OA
ATOM      7  C   UNL A   1      33.583  25.216  25.145  1.00  0.00     0.251 C 
ATOM      8  H   UNL A   1      35.173  24.713  26.485  1.00  0.00     0.163 HD
BRANCH   7   9
ATOM      9  C   UNL A   1      33.146  25.156  23.690  1.00  0.00     0.067 C 
ATOM     10  C   UNL A   1      32.768  23.969  23.142  1.00  0.00     0.025 C 
ATOM     11  C   UNL A   1      33.131  26.421  22.848  1.00  0.00     0.314 C 
ATOM     12  C   UNL A   1      32.783  22.703  23.983  1.00  0.00     0.019 A 
ATOM     13  O   UNL A   1      31.911  24.018  25.762  1.00  0.00    -0.475 OA
ATOM     14  C   UNL A   1      33.293  21.522  23.472  1.00  0.00     0.036 A 
ATOM     15  C   UNL A   1      32.276  22.761  25.210  1.00  0.00     0.128 A 
ATOM     16  C   UNL A   1      32.958  20.376  24.232  1.00  0.00     0.107 A 
ATOM     17  C   UNL A   1      32.102  21.617  25.949  1.00  0.00     0.048 A 
ATOM     18  C   UNL A   1      32.530  20.405  25.480  1.00  0.00     0.028 A 
BRANCH  11  19
ATOM     19  C   UNL A   1      31.720  26.681  22.348  1.00  0.00     0.429 C 
ATOM     20  F   UNL A   1      31.478  25.917  21.287  1.00  0.00    -0.167 F 
ATOM     21  F   UNL A   1      30.848  26.394  23.310  1.00  0.00    -0.167 F 
ATOM     22  F   UNL A   1      31.598  27.962  22.009  1.00  0.00    -0.167 F 
ENDBRANCH  11  19
BRANCH  16  23
ATOM     23  S   UNL A   1      33.130  18.759  23.436  1.00  0.00     0.310 S 
ATOM     24  F   UNL A   1      32.250  18.045  24.546  1.00  0.00    -0.094 F 
ATOM     25  F   UNL A   1      34.384  18.478  24.347  1.00  0.00    -0.094 F 
ATOM     26  F   UNL A   1      33.281  17.371  22.751  1.00  0.00    -0.094 F 
ATOM     27  F   UNL A   1      31.791  19.000  22.634  1.00  0.00    -0.094 F 
ATOM     28  F   UNL A   1      32.899  20.122  24.204  1.00  0.00    -0.094 F 
ENDBRANCH  16  23
ENDBRANCH   7   9
ENDBRANCH   4   5
ENDBRANCH   3   4
ENDBRANCH   2   3
ENDBRANCH   1   2
BRANCH   1  29
ATOM     29  C   UNL A   1      37.750  19.641  24.881  1.00  0.00     0.021 C 
BRANCH  29  30
ATOM     30  C   UNL A   1      38.928  20.093  25.728  1.00  0.00     0.116 C 
BRANCH  30  31
ATOM     31  N   UNL A   1      39.935  19.023  25.779  1.00  0.00    -0.352 N 
ATOM     32  C   UNL A   1      41.324  19.337  26.145  1.00  0.00     0.251 C 
ATOM     33  H   UNL A   1      39.679  18.096  25.569  1.00  0.00     0.163 HD
ATOM     34  O   UNL A   1      42.194  18.412  26.189  1.00  0.00    -0.269 OA
BRANCH  32  35
ATOM     35  C   UNL A   1      41.718  20.768  26.470  1.00  0.00     0.039 A 
ATOM     36  C   UNL A   1      41.848  21.153  27.794  1.00  0.00     0.014 A 
ATOM     37  C   UNL A   1      41.932  21.626  25.480  1.00  0.00     0.014 A 
ATOM     38  C   UNL A   1      41.927  22.555  27.979  1.00  0.00     0.010 A 
ATOM     39  C   UNL A   1      42.138  22.959  25.740  1.00  0.00     0.010 A 
ATOM     40  C   UNL A   1      42.217  23.420  27.025  1.00  0.00    -0.014 A 
BRANCH  40  41
ATOM     41  C   UNL A   1      42.620  24.852  27.339  1.00  0.00     0.031 A 
ATOM     42  C   UNL A   1      43.911  25.259  26.997  1.00  0.00     0.074 A 
ATOM     43  C   UNL A   1      41.685  25.672  27.946  1.00  0.00     0.049 A 
ATOM     44  N   UNL A   1      44.449  26.470  27.152  1.00  0.00    -0.248 NA
ATOM     45  C   UNL A   1      44.916  24.380  26.384  1.00  0.00     0.031 C 
ATOM     46  C   UNL A   1      40.377  25.271  28.286  1.00  0.00     0.029 A 
ATOM     47  N   UNL A   1      41.834  26.987  28.325  1.00  0.00    -0.354 N 
ATOM     48  C   UNL A   1      45.701  26.481  26.688  1.00  0.00     0.074 A 
ATOM     49  C   UNL A   1      46.022  25.135  26.193  1.00  0.00     0.031 C 
ATOM     50  C   UNL A   1      39.752  26.325  28.872  1.00  0.00     0.029 A 
ATOM     51  C   UNL A   1      40.657  27.403  28.908  1.00  0.00     0.049 A 
ATOM     52  H   UNL A   1      42.641  27.536  28.201  1.00  0.00     0.167 HD
ATOM     53  C   UNL A   1      46.586  27.559  26.658  1.00  0.00     0.034 A 
ATOM     54  C   UNL A   1      40.369  28.647  29.448  1.00  0.00     0.034 A 
ATOM     55  C   UNL A   1      46.283  28.816  27.158  1.00  0.00     0.049 A 
ATOM     56  C   UNL A   1      41.276  29.710  29.470  1.00  0.00     0.074 A 
ATOM     57  C   UNL A   1      47.161  29.916  27.128  1.00  0.00     0.029 A 
ATOM     58  N   UNL A   1      45.116  29.225  27.763  1.00  0.00    -0.354 N 
ATOM     59  N   UNL A   1      42.512  29.732  28.971  1.00  0.00    -0.248 NA
ATOM     60  C   UNL A   1      40.994  31.022  30.067  1.00  0.00     0.031 C 
ATOM     61  C   UNL A   1      46.536  30.971  27.715  1.00  0.00     0.029 A 
ATOM     62  C   UNL A   1      45.257  30.546  28.122  1.00  0.00     0.049 A 
ATOM     63  H   UNL A   1      44.318  28.667  27.913  1.00  0.00     0.167 HD
ATOM     64  C   UNL A   1      43.065  30.931  29.164  1.00  0.00     0.074 A 
ATOM     65  C   UNL A   1      42.099  31.776  29.879  1.00  0.00     0.031 C 
ATOM     66  C   UNL A   1      44.335  31.355  28.769  1.00  0.00     0.034 A 
BRANCH  53  67
ATOM     67  C   UNL A   1      47.958  27.344  26.042  1.00  0.00     0.023 A 
ATOM     68  C   UNL A   1      48.222  27.706  24.730  1.00  0.00     0.031 A 
ATOM     69  C   UNL A   1      48.908  26.842  26.822  1.00  0.00     0.131 A 
ATOM     70  C   UNL A   1      49.461  27.228  24.242  1.00  0.00     0.055 A 
ATOM     71  C   UNL A   1      50.142  26.524  26.306  1.00  0.00     0.041 A 
ATOM     72  F   UNL A   1      48.665  26.646  28.114  1.00  0.00    -0.206 F 
ATOM     73  C   UNL A   1      50.452  26.800  25.004  1.00  0.00     0.022 A 
BRANCH  70  74
ATOM     74  S   UNL A   1      49.705  27.202  22.449  1.00  0.00     0.124 S 
ATOM     75  O   UNL A   1      51.129  26.738  22.134  1.00  0.00    -0.237 OA
ATOM     76  O   UNL A   1      48.702  26.238  21.811  1.00  0.00    -0.237 OA
ATOM     77  O   UNL A   1      49.466  28.773  21.818  1.00  0.00    -0.744 OA
ENDBRANCH  70  74
ENDBRANCH  53  67
BRANCH  54  78
ATOM     78  C   UNL A   1      38.991  28.867  30.049  1.00  0.00     0.023 A 
ATOM     79  C   UNL A   1      38.036  29.492  29.265  1.00  0.00     0.031 A 
ATOM     80  C   UNL A   1      38.732  28.519  31.304  1.00  0.00     0.131 A 
ATOM     81  C   UNL A   1      36.921  29.972  29.991  1.00  0.00     0.055 A 
ATOM     82  C   UNL A   1      37.560  28.908  31.909  1.00  0.00     0.041 A 
ATOM     83  F   UNL A   1      39.613  27.789  31.981  1.00  0.00    -0.206 F 
ATOM     84  C   UNL A   1      36.598  29.580  31.210  1.00  0.00     0.022 A 
BRANCH  81  85
ATOM     85  S   UNL A   1      35.866  31.209  29.197  1.00  0.00     0.124 S 
ATOM     86  O   UNL A   1      35.027  31.922  30.258  1.00  0.00    -0.237 OA
ATOM     87  O   UNL A   1      36.741  32.232  28.467  1.00  0.00    -0.237 OA
ATOM     88  O   UNL A   1      34.832  30.440  28.073  1.00  0.00    -0.744 OA
ENDBRANCH  81  85
ENDBRANCH  54  78
BRANCH  66  89
ATOM     89  C   UNL A   1      44.733  32.792  29.068  1.00  0.00     0.023 A 
ATOM     90  C   UNL A   1      44.329  33.802  28.210  1.00  0.00     0.031 A 
ATOM     91  C   UNL A   1      45.463  33.054  30.145  1.00  0.00     0.131 A 
ATOM     92  C   UNL A   1      44.994  35.033  28.421  1.00  0.00     0.055 A 
ATOM     93  C   UNL A   1      45.967  34.315  30.359  1.00  0.00     0.041 A 
ATOM     94  F   UNL A   1      45.707  32.089  31.027  1.00  0.00    -0.206 F 
ATOM     95  C   UNL A   1      45.657  35.348  29.518  1.00  0.00     0.022 A 
BRANCH  92  96
ATOM     96  S   UNL A   1      44.929  36.263  27.094  1.00  0.00     0.124 S 
ATOM     97  O   UNL A   1      43.567  36.193  26.401  1.00  0.00    -0.237 OA
ATOM     98  O   UNL A   1      45.130  37.660  27.684  1.00  0.00    -0.237 OA
ATOM     99  O   UNL A   1      46.164  35.940  25.957  1.00  0.00    -0.744 OA
ENDBRANCH  92  96
ENDBRANCH  66  89
ENDBRANCH  40  41
ENDBRANCH  32  35
ENDBRANCH  30  31
ENDBRANCH  29  30
ENDBRANCH   1  29
TORSDOF 18
ENDMDL
