MODEL 1
REMARK VINA RESULT:     -11.7      0.000      0.000
REMARK SMILES Cc1cc(C[N@@H+]2C[C@H](C)[C@H](C(=O)NCCCCCCNC(=O)c3ccc(-c4c5nc(c(-c6cc(S(=O)(=O)[O-])ccc6F)c6ccc([nH]6)c(-c6cc(S(=O)(=O)[O-])ccc6F)c6nc(c(-c7cc(S(=O)(=O)[O-])ccc7F)c7ccc4[nH]7)C=C6)C=C5)cc3)C2)ccc1Br
REMARK SMILES IDX 17 1 16 2 15 3 14 4 13 5 11 6 12 7 10 9 6 10 7 11 86 12 8 14
REMARK SMILES IDX 9 15 5 16 4 17 1 18 2 19 3 20 89 21 88 22 90 23 87 24 18 25
REMARK SMILES IDX 19 26 20 27 21 28 22 30 23 31 24 32 85 33 25 34 84 35 26 36
REMARK SMILES IDX 27 37 28 38 78 39 29 40 83 41 77 42 79 43 30 44 82 45 76 46
REMARK SMILES IDX 75 47 31 49 63 50 43 51 62 52 44 53 47 54 61 55 80 56 45 57
REMARK SMILES IDX 46 58 60 60 81 61 48 62 32 63 33 64 41 65 34 66 40 67 42 68
REMARK SMILES IDX 39 69 35 70 36 71 37 72 38 73 64 74 65 75 73 76 66 77 72 78
REMARK SMILES IDX 74 79 71 80 67 81 68 82 69 83 70 84 49 85 50 86 58 87 51 88
REMARK SMILES IDX 57 89 59 90 56 91 52 92 53 93 54 94 55 95
REMARK H PARENT 13 8 6 13 20 29 79 48 47 59
REMARK Flexibility Score: inf
ROOT
ATOM      1  C   UNL A   1      35.399  22.945  23.379  1.00  0.00     0.002 C 
ENDROOT
BRANCH   1   2
ATOM      2  C   UNL A   1      34.100  22.458  24.033  1.00  0.00     0.002 C 
BRANCH   2   3
ATOM      3  C   UNL A   1      32.869  22.408  23.124  1.00  0.00     0.021 C 
BRANCH   3   4
ATOM      4  C   UNL A   1      32.172  23.748  22.891  1.00  0.00     0.116 C 
BRANCH   4   5
ATOM      5  N   UNL A   1      32.454  24.288  21.574  1.00  0.00    -0.356 N 
ATOM      6  C   UNL A   1      32.921  25.494  21.160  1.00  0.00     0.229 C 
ATOM      7  O   UNL A   1      33.005  25.654  19.936  1.00  0.00    -0.275 OA
ATOM      8  H   UNL A   1      32.271  23.660  20.839  1.00  0.00     0.163 HD
BRANCH   6   9
ATOM      9  C   UNL A   1      33.306  26.641  22.085  1.00  0.00     0.142 C 
ATOM     10  N   UNL A   1      33.595  27.447  24.297  1.00  0.00    -0.330 N 
ATOM     11  C   UNL A   1      32.798  28.436  23.585  1.00  0.00     0.266 C 
ATOM     12  C   UNL A   1      33.870  26.290  23.455  1.00  0.00     0.276 C 
ATOM     13  H   UNL A   1      34.497  27.897  24.458  1.00  0.00     0.348 HD
ATOM     14  C   UNL A   1      32.292  27.768  22.303  1.00  0.00     0.059 C 
ATOM     15  C   UNL A   1      30.823  27.384  22.407  1.00  0.00     0.015 C 
BRANCH  10  16
ATOM     16  C   UNL A   1      33.307  27.210  25.706  1.00  0.00     0.299 C 
BRANCH  16  17
ATOM     17  C   UNL A   1      32.368  26.064  26.033  1.00  0.00     0.007 A 
ATOM     18  C   UNL A   1      32.656  22.548  27.464  1.00  0.00     0.045 C 
ATOM     19  C   UNL A   1      32.019  23.778  26.878  1.00  0.00    -0.036 A 
ATOM     20  C   UNL A   1      32.869  24.848  26.531  1.00  0.00     0.014 A 
ATOM     21  C   UNL A   1      30.637  23.947  26.713  1.00  0.00     0.020 A 
ATOM     22  C   UNL A   1      30.127  25.151  26.219  1.00  0.00     0.016 A 
ATOM     23  Br  UNL A   1      29.369  22.605  27.147  1.00  0.00    -0.051 Br
ATOM     24  C   UNL A   1      30.983  26.204  25.899  1.00  0.00     0.011 A 
ENDBRANCH  16  17
ENDBRANCH  10  16
ENDBRANCH   6   9
ENDBRANCH   4   5
ENDBRANCH   3   4
ENDBRANCH   2   3
ENDBRANCH   1   2
BRANCH   1  25
ATOM     25  C   UNL A   1      36.686  22.277  23.871  1.00  0.00     0.021 C 
BRANCH  25  26
ATOM     26  C   UNL A   1      36.769  22.012  25.372  1.00  0.00     0.116 C 
BRANCH  26  27
ATOM     27  N   UNL A   1      37.691  20.939  25.695  1.00  0.00    -0.352 N 
ATOM     28  C   UNL A   1      39.000  21.000  26.112  1.00  0.00     0.251 C 
ATOM     29  H   UNL A   1      37.324  20.031  25.602  1.00  0.00     0.163 HD
ATOM     30  O   UNL A   1      39.660  19.963  26.149  1.00  0.00    -0.269 OA
BRANCH  28  31
ATOM     31  C   UNL A   1      39.634  22.290  26.489  1.00  0.00     0.039 A 
ATOM     32  C   UNL A   1      39.199  23.458  25.853  1.00  0.00     0.014 A 
ATOM     33  C   UNL A   1      40.679  22.361  27.413  1.00  0.00     0.014 A 
ATOM     34  C   UNL A   1      39.777  24.692  26.174  1.00  0.00     0.010 A 
ATOM     35  C   UNL A   1      41.212  23.602  27.780  1.00  0.00     0.010 A 
ATOM     36  C   UNL A   1      40.774  24.781  27.158  1.00  0.00    -0.014 A 
BRANCH  36  37
ATOM     37  C   UNL A   1      41.372  26.097  27.523  1.00  0.00     0.031 A 
ATOM     38  C   UNL A   1      42.763  26.458  27.065  1.00  0.00     0.074 A 
ATOM     39  C   UNL A   1      40.678  26.962  28.289  1.00  0.00     0.049 A 
ATOM     40  N   UNL A   1      43.457  27.544  27.296  1.00  0.00    -0.248 NA
ATOM     41  C   UNL A   1      43.474  25.453  26.263  1.00  0.00     0.031 C 
ATOM     42  C   UNL A   1      39.339  26.721  28.832  1.00  0.00     0.029 A 
ATOM     43  N   UNL A   1      40.999  28.217  28.748  1.00  0.00    -0.354 N 
ATOM     44  C   UNL A   1      44.688  27.351  26.678  1.00  0.00     0.074 A 
ATOM     45  C   UNL A   1      44.663  26.018  26.113  1.00  0.00     0.031 C 
ATOM     46  C   UNL A   1      38.946  27.801  29.527  1.00  0.00     0.029 A 
ATOM     47  C   UNL A   1      40.014  28.797  29.513  1.00  0.00     0.049 A 
ATOM     48  H   UNL A   1      41.856  28.659  28.547  1.00  0.00     0.167 HD
ATOM     49  C   UNL A   1      45.733  28.209  26.569  1.00  0.00     0.034 A 
ATOM     50  C   UNL A   1      39.975  29.991  30.138  1.00  0.00     0.034 A 
ATOM     51  C   UNL A   1      45.744  29.543  27.124  1.00  0.00     0.049 A 
ATOM     52  C   UNL A   1      41.152  30.926  30.015  1.00  0.00     0.074 A 
ATOM     53  C   UNL A   1      46.728  30.511  27.021  1.00  0.00     0.029 A 
ATOM     54  N   UNL A   1      44.728  30.094  27.894  1.00  0.00    -0.354 N 
ATOM     55  N   UNL A   1      42.286  30.747  29.378  1.00  0.00    -0.248 NA
ATOM     56  C   UNL A   1      41.035  32.230  30.682  1.00  0.00     0.031 C 
ATOM     57  C   UNL A   1      46.337  31.621  27.780  1.00  0.00     0.029 A 
ATOM     58  C   UNL A   1      45.075  31.376  28.296  1.00  0.00     0.049 A 
ATOM     59  H   UNL A   1      43.884  29.641  28.121  1.00  0.00     0.167 HD
ATOM     60  C   UNL A   1      43.005  31.928  29.545  1.00  0.00     0.074 A 
ATOM     61  C   UNL A   1      42.170  32.815  30.327  1.00  0.00     0.031 C 
ATOM     62  C   UNL A   1      44.242  32.250  29.089  1.00  0.00     0.034 A 
BRANCH  49  63
ATOM     63  C   UNL A   1      46.963  27.718  25.840  1.00  0.00     0.023 A 
ATOM     64  C   UNL A   1      47.197  28.035  24.490  1.00  0.00     0.031 A 
ATOM     65  C   UNL A   1      47.901  26.902  26.495  1.00  0.00     0.131 A 
ATOM     66  C   UNL A   1      48.296  27.478  23.819  1.00  0.00     0.055 A 
ATOM     67  C   UNL A   1      49.037  26.416  25.844  1.00  0.00     0.041 A 
ATOM     68  F   UNL A   1      47.723  26.549  27.778  1.00  0.00    -0.206 F 
ATOM     69  C   UNL A   1      49.232  26.690  24.494  1.00  0.00     0.022 A 
BRANCH  66  70
ATOM     70  S   UNL A   1      48.407  27.680  22.020  1.00  0.00     0.124 S 
ATOM     71  O   UNL A   1      47.090  28.228  21.704  1.00  0.00    -0.237 OA
ATOM     72  O   UNL A   1      49.533  28.595  21.874  1.00  0.00    -0.237 OA
ATOM     73  O   UNL A   1      48.640  26.320  21.537  1.00  0.00    -0.744 OA
ENDBRANCH  66  70
ENDBRANCH  49  63
BRANCH  50  74
ATOM     74  C   UNL A   1      38.785  30.379  30.949  1.00  0.00     0.023 A 
ATOM     75  C   UNL A   1      37.704  31.061  30.370  1.00  0.00     0.031 A 
ATOM     76  C   UNL A   1      38.735  30.111  32.329  1.00  0.00     0.131 A 
ATOM     77  C   UNL A   1      36.637  31.493  31.176  1.00  0.00     0.055 A 
ATOM     78  C   UNL A   1      37.649  30.498  33.116  1.00  0.00     0.041 A 
ATOM     79  F   UNL A   1      39.741  29.456  32.931  1.00  0.00    -0.206 F 
ATOM     80  C   UNL A   1      36.598  31.206  32.542  1.00  0.00     0.022 A 
BRANCH  77  81
ATOM     81  S   UNL A   1      35.336  32.508  30.423  1.00  0.00     0.124 S 
ATOM     82  O   UNL A   1      34.978  31.716  29.253  1.00  0.00    -0.237 OA
ATOM     83  O   UNL A   1      34.341  32.563  31.490  1.00  0.00    -0.237 OA
ATOM     84  O   UNL A   1      36.013  33.772  30.140  1.00  0.00    -0.744 OA
ENDBRANCH  77  81
ENDBRANCH  50  74
BRANCH  62  85
ATOM     85  C   UNL A   1      44.743  33.641  29.394  1.00  0.00     0.023 A 
ATOM     86  C   UNL A   1      44.609  34.697  28.475  1.00  0.00     0.031 A 
ATOM     87  C   UNL A   1      45.385  33.908  30.616  1.00  0.00     0.131 A 
ATOM     88  C   UNL A   1      45.159  35.954  28.766  1.00  0.00     0.055 A 
ATOM     89  C   UNL A   1      45.879  35.176  30.926  1.00  0.00     0.041 A 
ATOM     90  F   UNL A   1      45.544  32.939  31.532  1.00  0.00    -0.206 F 
ATOM     91  C   UNL A   1      45.780  36.205  29.993  1.00  0.00     0.022 A 
BRANCH  88  92
ATOM     92  S   UNL A   1      45.137  37.236  27.483  1.00  0.00     0.124 S 
ATOM     93  O   UNL A   1      45.970  36.641  26.444  1.00  0.00    -0.237 OA
ATOM     94  O   UNL A   1      43.715  37.345  27.176  1.00  0.00    -0.237 OA
ATOM     95  O   UNL A   1      45.717  38.400  28.150  1.00  0.00    -0.744 OA
ENDBRANCH  88  92
ENDBRANCH  62  85
ENDBRANCH  36  37
ENDBRANCH  28  31
ENDBRANCH  26  27
ENDBRANCH  25  26
ENDBRANCH   1  25
TORSDOF 18
ENDMDL
MODEL 2
REMARK VINA RESULT:     -11.5      1.404      2.133
REMARK SMILES Cc1cc(C[N@@H+]2C[C@H](C)[C@H](C(=O)NCCCCCCNC(=O)c3ccc(-c4c5nc(c(-c6cc(S(=O)(=O)[O-])ccc6F)c6ccc([nH]6)c(-c6cc(S(=O)(=O)[O-])ccc6F)c6nc(c(-c7cc(S(=O)(=O)[O-])ccc7F)c7ccc4[nH]7)C=C6)C=C5)cc3)C2)ccc1Br
REMARK SMILES IDX 17 1 16 2 15 3 14 4 13 5 11 6 12 7 10 9 6 10 7 11 86 12 8 14
REMARK SMILES IDX 9 15 5 16 4 17 1 18 2 19 3 20 89 21 88 22 90 23 87 24 18 25
REMARK SMILES IDX 19 26 20 27 21 28 22 30 23 31 24 32 85 33 25 34 84 35 26 36
REMARK SMILES IDX 27 37 28 38 78 39 29 40 83 41 77 42 79 43 30 44 82 45 76 46
REMARK SMILES IDX 75 47 31 49 63 50 43 51 62 52 44 53 47 54 61 55 80 56 45 57
REMARK SMILES IDX 46 58 60 60 81 61 48 62 32 63 33 64 41 65 34 66 40 67 42 68
REMARK SMILES IDX 39 69 35 70 36 71 37 72 38 73 64 74 65 75 73 76 66 77 72 78
REMARK SMILES IDX 74 79 71 80 67 81 68 82 69 83 70 84 49 85 50 86 58 87 51 88
REMARK SMILES IDX 57 89 59 90 56 91 52 92 53 93 54 94 55 95
REMARK H PARENT 13 8 6 13 20 29 79 48 47 59
REMARK Flexibility Score: inf
ROOT
ATOM      1  C   UNL A   1      34.855  23.340  26.363  1.00  0.00     0.002 C 
ENDROOT
BRANCH   1   2
ATOM      2  C   UNL A   1      35.365  24.415  25.397  1.00  0.00     0.002 C 
BRANCH   2   3
ATOM      3  C   UNL A   1      34.335  25.455  24.945  1.00  0.00     0.021 C 
BRANCH   3   4
ATOM      4  C   UNL A   1      33.539  26.119  26.067  1.00  0.00     0.116 C 
BRANCH   4   5
ATOM      5  N   UNL A   1      34.029  27.451  26.371  1.00  0.00    -0.356 N 
ATOM      6  C   UNL A   1      33.628  28.686  25.976  1.00  0.00     0.229 C 
ATOM      7  O   UNL A   1      34.305  29.636  26.388  1.00  0.00    -0.275 OA
ATOM      8  H   UNL A   1      34.800  27.460  26.982  1.00  0.00     0.163 HD
BRANCH   6   9
ATOM      9  C   UNL A   1      32.448  28.963  25.053  1.00  0.00     0.142 C 
ATOM     10  N   UNL A   1      30.526  28.150  23.926  1.00  0.00    -0.330 N 
ATOM     11  C   UNL A   1      31.321  28.872  22.943  1.00  0.00     0.266 C 
ATOM     12  C   UNL A   1      31.202  28.104  25.216  1.00  0.00     0.276 C 
ATOM     13  H   UNL A   1      29.693  28.721  24.067  1.00  0.00     0.348 HD
ATOM     14  C   UNL A   1      32.714  29.070  23.548  1.00  0.00     0.059 C 
ATOM     15  C   UNL A   1      33.734  28.116  22.944  1.00  0.00     0.015 C 
BRANCH  10  16
ATOM     16  C   UNL A   1      29.805  26.959  23.493  1.00  0.00     0.299 C 
BRANCH  16  17
ATOM     17  C   UNL A   1      30.544  25.638  23.579  1.00  0.00     0.007 A 
ATOM     18  C   UNL A   1      30.746  22.711  26.005  1.00  0.00     0.045 C 
ATOM     19  C   UNL A   1      31.034  23.553  24.793  1.00  0.00    -0.036 A 
ATOM     20  C   UNL A   1      30.390  24.803  24.700  1.00  0.00     0.014 A 
ATOM     21  C   UNL A   1      31.853  23.147  23.729  1.00  0.00     0.020 A 
ATOM     22  C   UNL A   1      32.014  23.967  22.610  1.00  0.00     0.016 A 
ATOM     23  Br  UNL A   1      32.774  21.489  23.704  1.00  0.00    -0.051 Br
ATOM     24  C   UNL A   1      31.352  25.192  22.528  1.00  0.00     0.011 A 
ENDBRANCH  16  17
ENDBRANCH  10  16
ENDBRANCH   6   9
ENDBRANCH   4   5
ENDBRANCH   3   4
ENDBRANCH   2   3
ENDBRANCH   1   2
BRANCH   1  25
ATOM     25  C   UNL A   1      35.457  21.943  26.186  1.00  0.00     0.021 C 
BRANCH  25  26
ATOM     26  C   UNL A   1      36.576  21.824  25.155  1.00  0.00     0.116 C 
BRANCH  26  27
ATOM     27  N   UNL A   1      37.526  20.779  25.487  1.00  0.00    -0.352 N 
ATOM     28  C   UNL A   1      38.829  20.878  25.917  1.00  0.00     0.251 C 
ATOM     29  H   UNL A   1      37.188  19.861  25.389  1.00  0.00     0.163 HD
ATOM     30  O   UNL A   1      39.518  19.861  25.960  1.00  0.00    -0.269 OA
BRANCH  28  31
ATOM     31  C   UNL A   1      39.419  22.186  26.302  1.00  0.00     0.039 A 
ATOM     32  C   UNL A   1      40.530  22.193  27.153  1.00  0.00     0.014 A 
ATOM     33  C   UNL A   1      38.867  23.401  25.887  1.00  0.00     0.014 A 
ATOM     34  C   UNL A   1      41.110  23.404  27.546  1.00  0.00     0.010 A 
ATOM     35  C   UNL A   1      39.485  24.609  26.228  1.00  0.00     0.010 A 
ATOM     36  C   UNL A   1      40.608  24.625  27.069  1.00  0.00    -0.014 A 
BRANCH  36  37
ATOM     37  C   UNL A   1      41.240  25.918  27.463  1.00  0.00     0.031 A 
ATOM     38  C   UNL A   1      42.631  26.262  26.995  1.00  0.00     0.074 A 
ATOM     39  C   UNL A   1      40.576  26.774  28.264  1.00  0.00     0.049 A 
ATOM     40  N   UNL A   1      43.352  27.326  27.247  1.00  0.00    -0.248 NA
ATOM     41  C   UNL A   1      43.310  25.265  26.154  1.00  0.00     0.031 C 
ATOM     42  C   UNL A   1      39.240  26.547  28.819  1.00  0.00     0.029 A 
ATOM     43  N   UNL A   1      40.930  28.008  28.753  1.00  0.00    -0.354 N 
ATOM     44  C   UNL A   1      44.569  27.125  26.605  1.00  0.00     0.074 A 
ATOM     45  C   UNL A   1      44.508  25.809  26.003  1.00  0.00     0.031 C 
ATOM     46  C   UNL A   1      38.880  27.614  29.550  1.00  0.00     0.029 A 
ATOM     47  C   UNL A   1      39.969  28.587  29.549  1.00  0.00     0.049 A 
ATOM     48  H   UNL A   1      41.793  28.438  28.552  1.00  0.00     0.167 HD
ATOM     49  C   UNL A   1      45.631  27.964  26.505  1.00  0.00     0.034 A 
ATOM     50  C   UNL A   1      39.964  29.763  30.209  1.00  0.00     0.034 A 
ATOM     51  C   UNL A   1      45.679  29.280  27.098  1.00  0.00     0.049 A 
ATOM     52  C   UNL A   1      41.159  30.676  30.095  1.00  0.00     0.074 A 
ATOM     53  C   UNL A   1      46.682  30.230  27.008  1.00  0.00     0.029 A 
ATOM     54  N   UNL A   1      44.686  29.830  27.898  1.00  0.00    -0.354 N 
ATOM     55  N   UNL A   1      42.280  30.491  29.436  1.00  0.00    -0.248 NA
ATOM     56  C   UNL A   1      41.080  31.962  30.800  1.00  0.00     0.031 C 
ATOM     57  C   UNL A   1      46.326  31.326  27.804  1.00  0.00     0.029 A 
ATOM     58  C   UNL A   1      45.066  31.092  28.332  1.00  0.00     0.049 A 
ATOM     59  H   UNL A   1      43.836  29.389  28.124  1.00  0.00     0.167 HD
ATOM     60  C   UNL A   1      43.027  31.652  29.627  1.00  0.00     0.074 A 
ATOM     61  C   UNL A   1      42.222  32.533  30.445  1.00  0.00     0.031 C 
ATOM     62  C   UNL A   1      44.264  31.961  29.161  1.00  0.00     0.034 A 
BRANCH  49  63
ATOM     63  C   UNL A   1      46.840  27.468  25.744  1.00  0.00     0.023 A 
ATOM     64  C   UNL A   1      47.107  27.886  24.428  1.00  0.00     0.031 A 
ATOM     65  C   UNL A   1      47.724  26.547  26.333  1.00  0.00     0.131 A 
ATOM     66  C   UNL A   1      48.180  27.327  23.719  1.00  0.00     0.055 A 
ATOM     67  C   UNL A   1      48.838  26.055  25.650  1.00  0.00     0.041 A 
ATOM     68  F   UNL A   1      47.512  26.096  27.580  1.00  0.00    -0.206 F 
ATOM     69  C   UNL A   1      49.063  26.432  24.329  1.00  0.00     0.022 A 
BRANCH  66  70
ATOM     70  S   UNL A   1      48.322  27.675  21.945  1.00  0.00     0.124 S 
ATOM     71  O   UNL A   1      49.462  28.588  21.914  1.00  0.00    -0.237 OA
ATOM     72  O   UNL A   1      48.549  26.350  21.380  1.00  0.00    -0.237 OA
ATOM     73  O   UNL A   1      47.036  28.284  21.611  1.00  0.00    -0.744 OA
ENDBRANCH  66  70
ENDBRANCH  49  63
BRANCH  50  74
ATOM     74  C   UNL A   1      38.795  30.152  31.048  1.00  0.00     0.023 A 
ATOM     75  C   UNL A   1      37.722  30.878  30.506  1.00  0.00     0.031 A 
ATOM     76  C   UNL A   1      38.755  29.841  32.419  1.00  0.00     0.131 A 
ATOM     77  C   UNL A   1      36.677  31.308  31.339  1.00  0.00     0.055 A 
ATOM     78  C   UNL A   1      37.690  30.228  33.232  1.00  0.00     0.041 A 
ATOM     79  F   UNL A   1      39.753  29.144  32.986  1.00  0.00    -0.206 F 
ATOM     80  C   UNL A   1      36.648  30.978  32.696  1.00  0.00     0.022 A 
BRANCH  77  81
ATOM     81  S   UNL A   1      35.391  32.378  30.638  1.00  0.00     0.124 S 
ATOM     82  O   UNL A   1      35.077  31.690  29.391  1.00  0.00    -0.237 OA
ATOM     83  O   UNL A   1      34.363  32.334  31.673  1.00  0.00    -0.237 OA
ATOM     84  O   UNL A   1      36.066  33.666  30.488  1.00  0.00    -0.744 OA
ENDBRANCH  77  81
ENDBRANCH  50  74
BRANCH  62  85
ATOM     85  C   UNL A   1      44.799  33.332  29.498  1.00  0.00     0.023 A 
ATOM     86  C   UNL A   1      44.506  34.457  28.709  1.00  0.00     0.031 A 
ATOM     87  C   UNL A   1      45.633  33.508  30.617  1.00  0.00     0.131 A 
ATOM     88  C   UNL A   1      45.089  35.698  29.013  1.00  0.00     0.055 A 
ATOM     89  C   UNL A   1      46.163  34.756  30.949  1.00  0.00     0.041 A 
ATOM     90  F   UNL A   1      45.948  32.469  31.406  1.00  0.00    -0.206 F 
ATOM     91  C   UNL A   1      45.903  35.857  30.138  1.00  0.00     0.022 A 
BRANCH  88  92
ATOM     92  S   UNL A   1      44.845  37.082  27.867  1.00  0.00     0.124 S 
ATOM     93  O   UNL A   1      46.140  37.752  27.919  1.00  0.00    -0.237 OA
ATOM     94  O   UNL A   1      44.531  36.399  26.616  1.00  0.00    -0.237 OA
ATOM     95  O   UNL A   1      43.737  37.828  28.459  1.00  0.00    -0.744 OA
ENDBRANCH  88  92
ENDBRANCH  62  85
ENDBRANCH  36  37
ENDBRANCH  28  31
ENDBRANCH  26  27
ENDBRANCH  25  26
ENDBRANCH   1  25
TORSDOF 18
ENDMDL
MODEL 3
REMARK VINA RESULT:     -11.4      5.745     10.882
REMARK SMILES Cc1cc(C[N@@H+]2C[C@H](C)[C@H](C(=O)NCCCCCCNC(=O)c3ccc(-c4c5nc(c(-c6cc(S(=O)(=O)[O-])ccc6F)c6ccc([nH]6)c(-c6cc(S(=O)(=O)[O-])ccc6F)c6nc(c(-c7cc(S(=O)(=O)[O-])ccc7F)c7ccc4[nH]7)C=C6)C=C5)cc3)C2)ccc1Br
REMARK SMILES IDX 17 1 16 2 15 3 14 4 13 5 11 6 12 7 10 9 6 10 7 11 86 12 8 14
REMARK SMILES IDX 9 15 5 16 4 17 1 18 2 19 3 20 89 21 88 22 90 23 87 24 18 25
REMARK SMILES IDX 19 26 20 27 21 28 22 30 23 31 24 32 85 33 25 34 84 35 26 36
REMARK SMILES IDX 27 37 28 38 78 39 29 40 83 41 77 42 79 43 30 44 82 45 76 46
REMARK SMILES IDX 75 47 31 49 63 50 43 51 62 52 44 53 47 54 61 55 80 56 45 57
REMARK SMILES IDX 46 58 60 60 81 61 48 62 32 63 33 64 41 65 34 66 40 67 42 68
REMARK SMILES IDX 39 69 35 70 36 71 37 72 38 73 64 74 65 75 73 76 66 77 72 78
REMARK SMILES IDX 74 79 71 80 67 81 68 82 69 83 70 84 49 85 50 86 58 87 51 88
REMARK SMILES IDX 57 89 59 90 56 91 52 92 53 93 54 94 55 95
REMARK H PARENT 13 8 6 13 20 29 79 48 47 59
REMARK Flexibility Score: inf
ROOT
ATOM      1  C   UNL A   1      35.071  33.024  28.004  1.00  0.00     0.002 C 
ENDROOT
BRANCH   1   2
ATOM      2  C   UNL A   1      35.011  31.630  28.638  1.00  0.00     0.002 C 
BRANCH   2   3
ATOM      3  C   UNL A   1      35.003  30.448  27.663  1.00  0.00     0.021 C 
BRANCH   3   4
ATOM      4  C   UNL A   1      33.701  30.247  26.890  1.00  0.00     0.116 C 
BRANCH   4   5
ATOM      5  N   UNL A   1      32.787  29.354  27.579  1.00  0.00    -0.356 N 
ATOM      6  C   UNL A   1      31.952  28.380  27.137  1.00  0.00     0.229 C 
ATOM      7  O   UNL A   1      31.258  27.826  27.999  1.00  0.00    -0.275 OA
ATOM      8  H   UNL A   1      32.770  29.480  28.555  1.00  0.00     0.163 HD
BRANCH   6   9
ATOM      9  C   UNL A   1      31.797  27.963  25.680  1.00  0.00     0.142 C 
ATOM     10  N   UNL A   1      31.015  26.372  24.103  1.00  0.00    -0.330 N 
ATOM     11  C   UNL A   1      32.396  26.675  23.754  1.00  0.00     0.266 C 
ATOM     12  C   UNL A   1      30.617  27.070  25.320  1.00  0.00     0.276 C 
ATOM     13  H   UNL A   1      30.455  26.776  23.353  1.00  0.00     0.348 HD
ATOM     14  C   UNL A   1      33.018  27.391  24.955  1.00  0.00     0.059 C 
ATOM     15  C   UNL A   1      33.940  26.472  25.745  1.00  0.00     0.015 C 
BRANCH  10  16
ATOM     16  C   UNL A   1      30.537  25.009  23.913  1.00  0.00     0.299 C 
BRANCH  16  17
ATOM     17  C   UNL A   1      31.519  23.889  24.198  1.00  0.00     0.007 A 
ATOM     18  C   UNL A   1      33.074  22.259  27.267  1.00  0.00     0.045 C 
ATOM     19  C   UNL A   1      32.784  22.532  25.817  1.00  0.00    -0.036 A 
ATOM     20  C   UNL A   1      31.902  23.591  25.518  1.00  0.00     0.014 A 
ATOM     21  C   UNL A   1      33.288  21.767  24.755  1.00  0.00     0.020 A 
ATOM     22  C   UNL A   1      32.915  22.053  23.440  1.00  0.00     0.016 A 
ATOM     23  Br  UNL A   1      34.473  20.307  25.001  1.00  0.00    -0.051 Br
ATOM     24  C   UNL A   1      32.026  23.092  23.165  1.00  0.00     0.011 A 
ENDBRANCH  16  17
ENDBRANCH  10  16
ENDBRANCH   6   9
ENDBRANCH   4   5
ENDBRANCH   3   4
ENDBRANCH   2   3
ENDBRANCH   1   2
BRANCH   1  25
ATOM     25  C   UNL A   1      33.776  33.839  28.056  1.00  0.00     0.021 C 
BRANCH  25  26
ATOM     26  C   UNL A   1      33.910  35.274  28.559  1.00  0.00     0.116 C 
BRANCH  26  27
ATOM     27  N   UNL A   1      33.145  35.512  29.768  1.00  0.00    -0.352 N 
ATOM     28  C   UNL A   1      33.342  35.033  31.042  1.00  0.00     0.251 C 
ATOM     29  H   UNL A   1      32.368  36.106  29.661  1.00  0.00     0.163 HD
ATOM     30  O   UNL A   1      32.463  35.208  31.884  1.00  0.00    -0.269 OA
BRANCH  28  31
ATOM     31  C   UNL A   1      34.576  34.291  31.408  1.00  0.00     0.039 A 
ATOM     32  C   UNL A   1      34.445  33.038  32.018  1.00  0.00     0.014 A 
ATOM     33  C   UNL A   1      35.850  34.828  31.214  1.00  0.00     0.014 A 
ATOM     34  C   UNL A   1      35.583  32.311  32.386  1.00  0.00     0.010 A 
ATOM     35  C   UNL A   1      36.988  34.074  31.523  1.00  0.00     0.010 A 
ATOM     36  C   UNL A   1      36.867  32.811  32.121  1.00  0.00    -0.014 A 
BRANCH  36  37
ATOM     37  C   UNL A   1      38.083  32.027  32.486  1.00  0.00     0.031 A 
ATOM     38  C   UNL A   1      38.809  32.301  33.779  1.00  0.00     0.074 A 
ATOM     39  C   UNL A   1      38.553  31.085  31.645  1.00  0.00     0.049 A 
ATOM     40  N   UNL A   1      39.889  31.738  34.260  1.00  0.00    -0.248 NA
ATOM     41  C   UNL A   1      38.260  33.366  34.631  1.00  0.00     0.031 C 
ATOM     42  C   UNL A   1      37.969  30.748  30.345  1.00  0.00     0.029 A 
ATOM     43  N   UNL A   1      39.630  30.238  31.753  1.00  0.00    -0.354 N 
ATOM     44  C   UNL A   1      40.155  32.384  35.462  1.00  0.00     0.074 A 
ATOM     45  C   UNL A   1      39.155  33.421  35.606  1.00  0.00     0.031 C 
ATOM     46  C   UNL A   1      38.679  29.752  29.790  1.00  0.00     0.029 A 
ATOM     47  C   UNL A   1      39.789  29.402  30.672  1.00  0.00     0.049 A 
ATOM     48  H   UNL A   1      40.232  30.232  32.532  1.00  0.00     0.167 HD
ATOM     49  C   UNL A   1      41.126  32.125  36.374  1.00  0.00     0.034 A 
ATOM     50  C   UNL A   1      40.723  28.464  30.415  1.00  0.00     0.034 A 
ATOM     51  C   UNL A   1      42.113  31.079  36.230  1.00  0.00     0.049 A 
ATOM     52  C   UNL A   1      41.801  28.201  31.437  1.00  0.00     0.074 A 
ATOM     53  C   UNL A   1      43.101  30.698  37.120  1.00  0.00     0.029 A 
ATOM     54  N   UNL A   1      42.241  30.254  35.120  1.00  0.00    -0.354 N 
ATOM     55  N   UNL A   1      42.004  28.785  32.595  1.00  0.00    -0.248 NA
ATOM     56  C   UNL A   1      42.766  27.139  31.121  1.00  0.00     0.031 C 
ATOM     57  C   UNL A   1      43.867  29.688  36.524  1.00  0.00     0.029 A 
ATOM     58  C   UNL A   1      43.311  29.387  35.292  1.00  0.00     0.049 A 
ATOM     59  H   UNL A   1      41.659  30.280  34.327  1.00  0.00     0.167 HD
ATOM     60  C   UNL A   1      43.103  28.141  33.157  1.00  0.00     0.074 A 
ATOM     61  C   UNL A   1      43.507  27.115  32.220  1.00  0.00     0.031 C 
ATOM     62  C   UNL A   1      43.718  28.374  34.345  1.00  0.00     0.034 A 
BRANCH  49  63
ATOM     63  C   UNL A   1      41.182  33.008  37.600  1.00  0.00     0.023 A 
ATOM     64  C   UNL A   1      40.523  32.659  38.793  1.00  0.00     0.031 A 
ATOM     65  C   UNL A   1      41.882  34.227  37.569  1.00  0.00     0.131 A 
ATOM     66  C   UNL A   1      40.513  33.551  39.875  1.00  0.00     0.055 A 
ATOM     67  C   UNL A   1      41.936  35.074  38.678  1.00  0.00     0.041 A 
ATOM     68  F   UNL A   1      42.515  34.624  36.454  1.00  0.00    -0.206 F 
ATOM     69  C   UNL A   1      41.236  34.745  39.835  1.00  0.00     0.022 A 
BRANCH  66  70
ATOM     70  S   UNL A   1      39.425  33.193  41.282  1.00  0.00     0.124 S 
ATOM     71  O   UNL A   1      38.774  31.961  40.845  1.00  0.00    -0.237 OA
ATOM     72  O   UNL A   1      40.368  33.062  42.386  1.00  0.00    -0.237 OA
ATOM     73  O   UNL A   1      38.551  34.363  41.345  1.00  0.00    -0.744 OA
ENDBRANCH  66  70
ENDBRANCH  49  63
BRANCH  50  74
ATOM     74  C   UNL A   1      40.696  27.704  29.133  1.00  0.00     0.023 A 
ATOM     75  C   UNL A   1      41.606  27.987  28.103  1.00  0.00     0.031 A 
ATOM     76  C   UNL A   1      39.726  26.712  28.904  1.00  0.00     0.131 A 
ATOM     77  C   UNL A   1      41.500  27.317  26.872  1.00  0.00     0.055 A 
ATOM     78  C   UNL A   1      39.657  26.014  27.697  1.00  0.00     0.041 A 
ATOM     79  F   UNL A   1      38.835  26.399  29.858  1.00  0.00    -0.206 F 
ATOM     80  C   UNL A   1      40.539  26.325  26.667  1.00  0.00     0.022 A 
BRANCH  77  81
ATOM     81  S   UNL A   1      42.590  27.821  25.512  1.00  0.00     0.124 S 
ATOM     82  O   UNL A   1      41.902  29.000  25.000  1.00  0.00    -0.237 OA
ATOM     83  O   UNL A   1      43.849  28.064  26.209  1.00  0.00    -0.237 OA
ATOM     84  O   UNL A   1      42.585  26.659  24.626  1.00  0.00    -0.744 OA
ENDBRANCH  77  81
ENDBRANCH  50  74
BRANCH  62  85
ATOM     85  C   UNL A   1      44.870  27.470  34.708  1.00  0.00     0.023 A 
ATOM     86  C   UNL A   1      44.665  26.172  35.208  1.00  0.00     0.031 A 
ATOM     87  C   UNL A   1      46.195  27.923  34.572  1.00  0.00     0.131 A 
ATOM     88  C   UNL A   1      45.763  25.393  35.607  1.00  0.00     0.055 A 
ATOM     89  C   UNL A   1      47.285  27.123  34.916  1.00  0.00     0.041 A 
ATOM     90  F   UNL A   1      46.451  29.155  34.102  1.00  0.00    -0.206 F 
ATOM     91  C   UNL A   1      47.073  25.856  35.450  1.00  0.00     0.022 A 
BRANCH  88  92
ATOM     92  S   UNL A   1      45.455  23.803  36.424  1.00  0.00     0.124 S 
ATOM     93  O   UNL A   1      45.481  24.176  37.835  1.00  0.00    -0.237 OA
ATOM     94  O   UNL A   1      44.151  23.425  35.888  1.00  0.00    -0.237 OA
ATOM     95  O   UNL A   1      46.570  22.969  35.983  1.00  0.00    -0.744 OA
ENDBRANCH  88  92
ENDBRANCH  62  85
ENDBRANCH  36  37
ENDBRANCH  28  31
ENDBRANCH  26  27
ENDBRANCH  25  26
ENDBRANCH   1  25
TORSDOF 18
ENDMDL
