MODEL 1
REMARK VINA RESULT:      -9.5      0.000      0.000
REMARK SMILES CC[C@@H](Oc1ccc(Cl)c(Cl)c1)C(=O)NCCCCCCNC(=O)c1ccc(-c2c3nc(c(-c4cc(S(=O)(=O)[O-])ccc4F)c4ccc([nH]4)c(-c4cc(S(=O)(=O)[O-])ccc4F)c4nc(c(-c5cc(S(=O)(=O)[O-])ccc5F)c5ccc2[nH]5)C=C4)C=C3)cc1
REMARK SMILES IDX 19 1 18 2 17 3 16 4 15 5 13 6 14 7 3 9 2 10 1 11 4 12 5 13
REMARK SMILES IDX 6 14 12 15 7 16 10 17 8 18 11 19 9 20 20 21 21 22 22 23
REMARK SMILES IDX 23 24 24 26 25 27 26 28 87 29 27 30 86 31 28 32 29 33 30 34
REMARK SMILES IDX 80 35 31 36 85 37 79 38 81 39 32 40 84 41 78 42 77 43 33 45
REMARK SMILES IDX 65 46 45 47 64 48 46 49 49 50 63 51 82 52 47 53 48 54 62 56
REMARK SMILES IDX 83 57 50 58 34 59 35 60 43 61 36 62 42 63 44 64 41 65 37 66
REMARK SMILES IDX 38 67 39 68 40 69 66 70 67 71 75 72 68 73 74 74 76 75 73 76
REMARK SMILES IDX 69 77 70 78 71 79 72 80 51 81 52 82 60 83 53 84 59 85 61 86
REMARK SMILES IDX 58 87 54 88 55 89 56 90 57 91
REMARK H PARENT 15 8 22 25 81 44 49 55
REMARK Flexibility Score: inf
ROOT
ATOM      1  C   UNL A   1      34.197  34.793  30.750  1.00  0.00     0.002 C 
ENDROOT
BRANCH   1   2
ATOM      2  C   UNL A   1      34.611  33.639  31.669  1.00  0.00     0.002 C 
BRANCH   2   3
ATOM      3  C   UNL A   1      34.104  33.729  33.109  1.00  0.00     0.021 C 
BRANCH   3   4
ATOM      4  C   UNL A   1      34.787  34.792  33.962  1.00  0.00     0.116 C 
BRANCH   4   5
ATOM      5  N   UNL A   1      35.090  34.316  35.303  1.00  0.00    -0.353 N 
ATOM      6  C   UNL A   1      36.265  33.814  35.795  1.00  0.00     0.261 C 
ATOM      7  O   UNL A   1      36.319  33.520  36.993  1.00  0.00    -0.271 OA
ATOM      8  H   UNL A   1      34.345  34.361  35.946  1.00  0.00     0.163 HD
BRANCH   6   9
ATOM      9  C   UNL A   1      37.461  33.557  34.860  1.00  0.00     0.261 C 
BRANCH   9  10
ATOM     10  C   UNL A   1      37.309  32.144  34.262  1.00  0.00     0.052 C 
ATOM     11  C   UNL A   1      38.028  31.077  35.080  1.00  0.00     0.008 C 
ENDBRANCH   9  10
BRANCH   9  12
ATOM     12  O   UNL A   1      37.434  34.622  33.896  1.00  0.00    -0.481 OA
BRANCH  12  13
ATOM     13  C   UNL A   1      38.423  34.606  32.963  1.00  0.00     0.122 A 
ATOM     14  C   UNL A   1      39.751  34.487  33.366  1.00  0.00     0.048 A 
ATOM     15  C   UNL A   1      38.081  34.502  31.618  1.00  0.00     0.068 A 
ATOM     16  C   UNL A   1      40.757  34.337  32.412  1.00  0.00     0.026 A 
ATOM     17  C   UNL A   1      39.085  34.328  30.660  1.00  0.00     0.063 A 
ATOM     18  C   UNL A   1      40.427  34.258  31.057  1.00  0.00     0.059 A 
ATOM     19  Cl  UNL A   1      38.603  34.180  29.007  1.00  0.00    -0.083 Cl
ATOM     20  Cl  UNL A   1      41.720  34.051  29.929  1.00  0.00    -0.083 Cl
ENDBRANCH  12  13
ENDBRANCH   9  12
ENDBRANCH   6   9
ENDBRANCH   4   5
ENDBRANCH   3   4
ENDBRANCH   2   3
ENDBRANCH   1   2
BRANCH   1  21
ATOM     21  C   UNL A   1      34.165  34.477  29.250  1.00  0.00     0.021 C 
BRANCH  21  22
ATOM     22  C   UNL A   1      35.053  33.318  28.802  1.00  0.00     0.116 C 
BRANCH  22  23
ATOM     23  N   UNL A   1      34.318  32.323  28.041  1.00  0.00    -0.352 N 
ATOM     24  C   UNL A   1      34.670  31.047  27.678  1.00  0.00     0.251 C 
ATOM     25  H   UNL A   1      33.426  32.609  27.738  1.00  0.00     0.163 HD
ATOM     26  O   UNL A   1      33.964  30.440  26.877  1.00  0.00    -0.269 OA
BRANCH  24  27
ATOM     27  C   UNL A   1      35.895  30.410  28.217  1.00  0.00     0.039 A 
ATOM     28  C   UNL A   1      37.071  30.489  27.463  1.00  0.00     0.014 A 
ATOM     29  C   UNL A   1      35.891  29.701  29.422  1.00  0.00     0.014 A 
ATOM     30  C   UNL A   1      38.248  29.908  27.942  1.00  0.00     0.010 A 
ATOM     31  C   UNL A   1      37.082  29.172  29.927  1.00  0.00     0.010 A 
ATOM     32  C   UNL A   1      38.272  29.270  29.192  1.00  0.00    -0.014 A 
BRANCH  32  33
ATOM     33  C   UNL A   1      39.543  28.718  29.736  1.00  0.00     0.031 A 
ATOM     34  C   UNL A   1      40.195  29.339  30.941  1.00  0.00     0.074 A 
ATOM     35  C   UNL A   1      40.125  27.669  29.119  1.00  0.00     0.049 A 
ATOM     36  N   UNL A   1      41.311  29.008  31.540  1.00  0.00    -0.248 NA
ATOM     37  C   UNL A   1      39.514  30.496  31.539  1.00  0.00     0.031 C 
ATOM     38  C   UNL A   1      39.613  27.009  27.915  1.00  0.00     0.029 A 
ATOM     39  N   UNL A   1      41.272  26.976  29.412  1.00  0.00    -0.354 N 
ATOM     40  C   UNL A   1      41.466  29.912  32.586  1.00  0.00     0.074 A 
ATOM     41  C   UNL A   1      40.359  30.842  32.500  1.00  0.00     0.031 C 
ATOM     42  C   UNL A   1      40.431  25.997  27.587  1.00  0.00     0.029 A 
ATOM     43  C   UNL A   1      41.542  25.955  28.531  1.00  0.00     0.049 A 
ATOM     44  H   UNL A   1      41.848  27.190  30.182  1.00  0.00     0.167 HD
ATOM     45  C   UNL A   1      42.427  29.949  33.543  1.00  0.00     0.034 A 
ATOM     46  C   UNL A   1      42.573  25.087  28.483  1.00  0.00     0.034 A 
ATOM     47  C   UNL A   1      43.526  29.015  33.621  1.00  0.00     0.049 A 
ATOM     48  C   UNL A   1      43.631  25.153  29.555  1.00  0.00     0.074 A 
ATOM     49  C   UNL A   1      44.537  28.948  34.564  1.00  0.00     0.029 A 
ATOM     50  N   UNL A   1      43.760  27.986  32.718  1.00  0.00    -0.354 N 
ATOM     51  N   UNL A   1      43.735  25.989  30.562  1.00  0.00    -0.248 NA
ATOM     52  C   UNL A   1      44.699  24.147  29.494  1.00  0.00     0.031 C 
ATOM     53  C   UNL A   1      45.410  27.915  34.204  1.00  0.00     0.029 A 
ATOM     54  C   UNL A   1      44.909  27.293  33.072  1.00  0.00     0.049 A 
ATOM     55  H   UNL A   1      43.193  27.777  31.941  1.00  0.00     0.167 HD
ATOM     56  C   UNL A   1      44.869  25.593  31.266  1.00  0.00     0.074 A 
ATOM     57  C   UNL A   1      45.394  24.427  30.585  1.00  0.00     0.031 C 
ATOM     58  C   UNL A   1      45.430  26.143  32.373  1.00  0.00     0.034 A 
BRANCH  45  59
ATOM     59  C   UNL A   1      42.338  31.048  34.575  1.00  0.00     0.023 A 
ATOM     60  C   UNL A   1      43.002  32.275  34.398  1.00  0.00     0.031 A 
ATOM     61  C   UNL A   1      41.588  30.869  35.750  1.00  0.00     0.131 A 
ATOM     62  C   UNL A   1      42.954  33.250  35.405  1.00  0.00     0.055 A 
ATOM     63  C   UNL A   1      41.483  31.873  36.716  1.00  0.00     0.041 A 
ATOM     64  F   UNL A   1      40.948  29.713  35.982  1.00  0.00    -0.206 F 
ATOM     65  C   UNL A   1      42.178  33.067  36.553  1.00  0.00     0.022 A 
BRANCH  62  66
ATOM     66  S   UNL A   1      44.012  34.713  35.248  1.00  0.00     0.124 S 
ATOM     67  O   UNL A   1      43.982  34.944  33.806  1.00  0.00    -0.237 OA
ATOM     68  O   UNL A   1      43.317  35.697  36.069  1.00  0.00    -0.237 OA
ATOM     69  O   UNL A   1      45.300  34.263  35.774  1.00  0.00    -0.744 OA
ENDBRANCH  62  66
ENDBRANCH  45  59
BRANCH  46  70
ATOM     70  C   UNL A   1      42.671  24.085  27.383  1.00  0.00     0.023 A 
ATOM     71  C   UNL A   1      41.995  22.858  27.455  1.00  0.00     0.031 A 
ATOM     72  C   UNL A   1      43.495  24.320  26.267  1.00  0.00     0.131 A 
ATOM     73  C   UNL A   1      42.199  21.887  26.462  1.00  0.00     0.055 A 
ATOM     74  C   UNL A   1      43.651  23.373  25.254  1.00  0.00     0.041 A 
ATOM     75  F   UNL A   1      44.159  25.480  26.145  1.00  0.00    -0.206 F 
ATOM     76  C   UNL A   1      43.014  22.141  25.357  1.00  0.00     0.022 A 
BRANCH  73  77
ATOM     77  S   UNL A   1      41.466  20.244  26.692  1.00  0.00     0.124 S 
ATOM     78  O   UNL A   1      40.065  20.572  26.930  1.00  0.00    -0.237 OA
ATOM     79  O   UNL A   1      41.765  19.601  25.416  1.00  0.00    -0.237 OA
ATOM     80  O   UNL A   1      42.187  19.707  27.843  1.00  0.00    -0.744 OA
ENDBRANCH  73  77
ENDBRANCH  46  70
BRANCH  58  81
ATOM     81  C   UNL A   1      46.660  25.459  32.920  1.00  0.00     0.023 A 
ATOM     82  C   UNL A   1      47.935  25.690  32.376  1.00  0.00     0.031 A 
ATOM     83  C   UNL A   1      46.548  24.533  33.972  1.00  0.00     0.131 A 
ATOM     84  C   UNL A   1      49.036  24.954  32.835  1.00  0.00     0.055 A 
ATOM     85  C   UNL A   1      47.658  23.848  34.469  1.00  0.00     0.041 A 
ATOM     86  F   UNL A   1      45.354  24.273  34.530  1.00  0.00    -0.206 F 
ATOM     87  C   UNL A   1      48.908  24.044  33.888  1.00  0.00     0.022 A 
BRANCH  84  88
ATOM     88  S   UNL A   1      50.619  25.122  31.966  1.00  0.00     0.124 S 
ATOM     89  O   UNL A   1      51.405  25.904  32.915  1.00  0.00    -0.237 OA
ATOM     90  O   UNL A   1      51.028  23.732  31.794  1.00  0.00    -0.237 OA
ATOM     91  O   UNL A   1      50.262  25.819  30.732  1.00  0.00    -0.744 OA
ENDBRANCH  84  88
ENDBRANCH  58  81
ENDBRANCH  32  33
ENDBRANCH  24  27
ENDBRANCH  22  23
ENDBRANCH  21  22
ENDBRANCH   1  21
TORSDOF 19
ENDMDL
MODEL 2
REMARK VINA RESULT:      -9.2      5.209     11.080
REMARK SMILES CC[C@@H](Oc1ccc(Cl)c(Cl)c1)C(=O)NCCCCCCNC(=O)c1ccc(-c2c3nc(c(-c4cc(S(=O)(=O)[O-])ccc4F)c4ccc([nH]4)c(-c4cc(S(=O)(=O)[O-])ccc4F)c4nc(c(-c5cc(S(=O)(=O)[O-])ccc5F)c5ccc2[nH]5)C=C4)C=C3)cc1
REMARK SMILES IDX 19 1 18 2 17 3 16 4 15 5 13 6 14 7 3 9 2 10 1 11 4 12 5 13
REMARK SMILES IDX 6 14 12 15 7 16 10 17 8 18 11 19 9 20 20 21 21 22 22 23
REMARK SMILES IDX 23 24 24 26 25 27 26 28 87 29 27 30 86 31 28 32 29 33 30 34
REMARK SMILES IDX 80 35 31 36 85 37 79 38 81 39 32 40 84 41 78 42 77 43 33 45
REMARK SMILES IDX 65 46 45 47 64 48 46 49 49 50 63 51 82 52 47 53 48 54 62 56
REMARK SMILES IDX 83 57 50 58 34 59 35 60 43 61 36 62 42 63 44 64 41 65 37 66
REMARK SMILES IDX 38 67 39 68 40 69 66 70 67 71 75 72 68 73 74 74 76 75 73 76
REMARK SMILES IDX 69 77 70 78 71 79 72 80 51 81 52 82 60 83 53 84 59 85 61 86
REMARK SMILES IDX 58 87 54 88 55 89 56 90 57 91
REMARK H PARENT 15 8 22 25 81 44 49 55
REMARK Flexibility Score: inf
ROOT
ATOM      1  C   UNL A   1      31.148  31.002  25.505  1.00  0.00     0.002 C 
ENDROOT
BRANCH   1   2
ATOM      2  C   UNL A   1      31.529  29.541  25.245  1.00  0.00     0.002 C 
BRANCH   2   3
ATOM      3  C   UNL A   1      32.998  29.296  24.898  1.00  0.00     0.021 C 
BRANCH   3   4
ATOM      4  C   UNL A   1      33.367  27.833  24.678  1.00  0.00     0.116 C 
BRANCH   4   5
ATOM      5  N   UNL A   1      33.736  27.556  23.298  1.00  0.00    -0.353 N 
ATOM      6  C   UNL A   1      33.415  26.476  22.519  1.00  0.00     0.261 C 
ATOM      7  O   UNL A   1      33.790  26.471  21.343  1.00  0.00    -0.271 OA
ATOM      8  H   UNL A   1      34.296  28.240  22.864  1.00  0.00     0.163 HD
BRANCH   6   9
ATOM      9  C   UNL A   1      32.668  25.270  23.120  1.00  0.00     0.261 C 
BRANCH   9  10
ATOM     10  C   UNL A   1      31.155  25.503  22.939  1.00  0.00     0.052 C 
ATOM     11  C   UNL A   1      30.363  25.254  24.217  1.00  0.00     0.008 C 
ENDBRANCH   9  10
BRANCH   9  12
ATOM     12  O   UNL A   1      33.184  24.117  22.437  1.00  0.00    -0.481 OA
BRANCH  12  13
ATOM     13  C   UNL A   1      33.165  22.951  23.138  1.00  0.00     0.122 A 
ATOM     14  C   UNL A   1      32.237  21.965  22.812  1.00  0.00     0.048 A 
ATOM     15  C   UNL A   1      34.200  22.682  24.029  1.00  0.00     0.068 A 
ATOM     16  C   UNL A   1      32.298  20.719  23.436  1.00  0.00     0.026 A 
ATOM     17  C   UNL A   1      34.277  21.426  24.639  1.00  0.00     0.063 A 
ATOM     18  C   UNL A   1      33.317  20.446  24.352  1.00  0.00     0.059 A 
ATOM     19  Cl  UNL A   1      35.596  21.136  25.717  1.00  0.00    -0.083 Cl
ATOM     20  Cl  UNL A   1      33.346  18.876  25.073  1.00  0.00    -0.083 Cl
ENDBRANCH  12  13
ENDBRANCH   9  12
ENDBRANCH   6   9
ENDBRANCH   4   5
ENDBRANCH   3   4
ENDBRANCH   2   3
ENDBRANCH   1   2
BRANCH   1  21
ATOM     21  C   UNL A   1      31.444  31.531  26.913  1.00  0.00     0.021 C 
BRANCH  21  22
ATOM     22  C   UNL A   1      32.782  32.249  27.080  1.00  0.00     0.116 C 
BRANCH  22  23
ATOM     23  N   UNL A   1      32.617  33.634  27.485  1.00  0.00    -0.352 N 
ATOM     24  C   UNL A   1      33.243  34.347  28.478  1.00  0.00     0.251 C 
ATOM     25  H   UNL A   1      31.953  34.141  26.965  1.00  0.00     0.163 HD
ATOM     26  O   UNL A   1      32.820  35.463  28.764  1.00  0.00    -0.269 OA
BRANCH  24  27
ATOM     27  C   UNL A   1      34.395  33.778  29.217  1.00  0.00     0.039 A 
ATOM     28  C   UNL A   1      34.140  32.853  30.234  1.00  0.00     0.014 A 
ATOM     29  C   UNL A   1      35.710  34.176  28.956  1.00  0.00     0.014 A 
ATOM     30  C   UNL A   1      35.201  32.288  30.947  1.00  0.00     0.010 A 
ATOM     31  C   UNL A   1      36.772  33.568  29.630  1.00  0.00     0.010 A 
ATOM     32  C   UNL A   1      36.529  32.618  30.632  1.00  0.00    -0.014 A 
BRANCH  32  33
ATOM     33  C   UNL A   1      37.660  31.960  31.340  1.00  0.00     0.031 A 
ATOM     34  C   UNL A   1      38.425  30.839  30.689  1.00  0.00     0.074 A 
ATOM     35  C   UNL A   1      37.978  32.357  32.589  1.00  0.00     0.049 A 
ATOM     36  N   UNL A   1      39.422  30.136  31.160  1.00  0.00    -0.248 NA
ATOM     37  C   UNL A   1      37.998  30.445  29.339  1.00  0.00     0.031 C 
ATOM     38  C   UNL A   1      37.282  33.402  33.344  1.00  0.00     0.029 A 
ATOM     39  N   UNL A   1      38.962  31.932  33.446  1.00  0.00    -0.354 N 
ATOM     40  C   UNL A   1      39.747  29.217  30.167  1.00  0.00     0.074 A 
ATOM     41  C   UNL A   1      38.797  29.416  29.092  1.00  0.00     0.031 C 
ATOM     42  C   UNL A   1      37.873  33.549  34.540  1.00  0.00     0.029 A 
ATOM     43  C   UNL A   1      38.965  32.589  34.655  1.00  0.00     0.049 A 
ATOM     44  H   UNL A   1      39.606  31.223  33.217  1.00  0.00     0.167 HD
ATOM     45  C   UNL A   1      40.756  28.311  30.143  1.00  0.00     0.034 A 
ATOM     46  C   UNL A   1      39.753  32.430  35.737  1.00  0.00     0.034 A 
ATOM     47  C   UNL A   1      41.698  28.122  31.221  1.00  0.00     0.049 A 
ATOM     48  C   UNL A   1      40.864  31.411  35.686  1.00  0.00     0.074 A 
ATOM     49  C   UNL A   1      42.772  27.251  31.286  1.00  0.00     0.029 A 
ATOM     50  N   UNL A   1      41.678  28.814  32.425  1.00  0.00    -0.354 N 
ATOM     51  N   UNL A   1      41.181  30.583  34.718  1.00  0.00    -0.248 NA
ATOM     52  C   UNL A   1      41.732  31.320  36.866  1.00  0.00     0.031 C 
ATOM     53  C   UNL A   1      43.369  27.378  32.546  1.00  0.00     0.029 A 
ATOM     54  C   UNL A   1      42.708  28.375  33.244  1.00  0.00     0.049 A 
ATOM     55  H   UNL A   1      41.029  29.515  32.662  1.00  0.00     0.167 HD
ATOM     56  C   UNL A   1      42.301  29.889  35.167  1.00  0.00     0.074 A 
ATOM     57  C   UNL A   1      42.619  30.418  36.478  1.00  0.00     0.031 C 
ATOM     58  C   UNL A   1      43.002  28.900  34.556  1.00  0.00     0.034 A 
BRANCH  45  59
ATOM     59  C   UNL A   1      40.880  27.443  28.914  1.00  0.00     0.023 A 
ATOM     60  C   UNL A   1      41.872  27.681  27.945  1.00  0.00     0.031 A 
ATOM     61  C   UNL A   1      39.997  26.370  28.701  1.00  0.00     0.131 A 
ATOM     62  C   UNL A   1      41.917  26.898  26.782  1.00  0.00     0.055 A 
ATOM     63  C   UNL A   1      40.094  25.548  27.576  1.00  0.00     0.041 A 
ATOM     64  F   UNL A   1      39.019  26.106  29.582  1.00  0.00    -0.206 F 
ATOM     65  C   UNL A   1      41.050  25.817  26.602  1.00  0.00     0.022 A 
BRANCH  62  66
ATOM     66  S   UNL A   1      43.050  27.385  25.452  1.00  0.00     0.124 S 
ATOM     67  O   UNL A   1      43.287  26.107  24.786  1.00  0.00    -0.237 OA
ATOM     68  O   UNL A   1      42.262  28.359  24.706  1.00  0.00    -0.237 OA
ATOM     69  O   UNL A   1      44.203  27.931  26.166  1.00  0.00    -0.744 OA
ENDBRANCH  62  66
ENDBRANCH  45  59
BRANCH  46  70
ATOM     70  C   UNL A   1      39.525  33.241  36.967  1.00  0.00     0.023 A 
ATOM     71  C   UNL A   1      40.351  34.330  37.283  1.00  0.00     0.031 A 
ATOM     72  C   UNL A   1      38.509  32.897  37.877  1.00  0.00     0.131 A 
ATOM     73  C   UNL A   1      40.187  35.001  38.505  1.00  0.00     0.055 A 
ATOM     74  C   UNL A   1      38.314  33.603  39.066  1.00  0.00     0.041 A 
ATOM     75  F   UNL A   1      37.686  31.869  37.620  1.00  0.00    -0.206 F 
ATOM     76  C   UNL A   1      39.167  34.652  39.393  1.00  0.00     0.022 A 
BRANCH  73  77
ATOM     77  S   UNL A   1      41.397  36.271  38.966  1.00  0.00     0.124 S 
ATOM     78  O   UNL A   1      41.494  37.052  37.738  1.00  0.00    -0.237 OA
ATOM     79  O   UNL A   1      40.732  36.925  40.089  1.00  0.00    -0.237 OA
ATOM     80  O   UNL A   1      42.587  35.498  39.313  1.00  0.00    -0.744 OA
ENDBRANCH  73  77
ENDBRANCH  46  70
BRANCH  58  81
ATOM     81  C   UNL A   1      44.200  28.359  35.301  1.00  0.00     0.023 A 
ATOM     82  C   UNL A   1      44.070  27.342  36.261  1.00  0.00     0.031 A 
ATOM     83  C   UNL A   1      45.478  28.898  35.075  1.00  0.00     0.131 A 
ATOM     84  C   UNL A   1      45.185  26.943  37.012  1.00  0.00     0.055 A 
ATOM     85  C   UNL A   1      46.597  28.453  35.781  1.00  0.00     0.041 A 
ATOM     86  F   UNL A   1      45.661  29.871  34.168  1.00  0.00    -0.206 F 
ATOM     87  C   UNL A   1      46.451  27.482  36.769  1.00  0.00     0.022 A 
BRANCH  84  88
ATOM     88  S   UNL A   1      44.939  25.786  38.388  1.00  0.00     0.124 S 
ATOM     89  O   UNL A   1      46.229  25.848  39.070  1.00  0.00    -0.237 OA
ATOM     90  O   UNL A   1      43.814  26.383  39.099  1.00  0.00    -0.237 OA
ATOM     91  O   UNL A   1      44.650  24.517  37.723  1.00  0.00    -0.744 OA
ENDBRANCH  84  88
ENDBRANCH  58  81
ENDBRANCH  32  33
ENDBRANCH  24  27
ENDBRANCH  22  23
ENDBRANCH  21  22
ENDBRANCH   1  21
TORSDOF 19
ENDMDL
MODEL 3
REMARK VINA RESULT:      -9.0      6.003     10.397
REMARK SMILES CC[C@@H](Oc1ccc(Cl)c(Cl)c1)C(=O)NCCCCCCNC(=O)c1ccc(-c2c3nc(c(-c4cc(S(=O)(=O)[O-])ccc4F)c4ccc([nH]4)c(-c4cc(S(=O)(=O)[O-])ccc4F)c4nc(c(-c5cc(S(=O)(=O)[O-])ccc5F)c5ccc2[nH]5)C=C4)C=C3)cc1
REMARK SMILES IDX 19 1 18 2 17 3 16 4 15 5 13 6 14 7 3 9 2 10 1 11 4 12 5 13
REMARK SMILES IDX 6 14 12 15 7 16 10 17 8 18 11 19 9 20 20 21 21 22 22 23
REMARK SMILES IDX 23 24 24 26 25 27 26 28 87 29 27 30 86 31 28 32 29 33 30 34
REMARK SMILES IDX 80 35 31 36 85 37 79 38 81 39 32 40 84 41 78 42 77 43 33 45
REMARK SMILES IDX 65 46 45 47 64 48 46 49 49 50 63 51 82 52 47 53 48 54 62 56
REMARK SMILES IDX 83 57 50 58 34 59 35 60 43 61 36 62 42 63 44 64 41 65 37 66
REMARK SMILES IDX 38 67 39 68 40 69 66 70 67 71 75 72 68 73 74 74 76 75 73 76
REMARK SMILES IDX 69 77 70 78 71 79 72 80 51 81 52 82 60 83 53 84 59 85 61 86
REMARK SMILES IDX 58 87 54 88 55 89 56 90 57 91
REMARK H PARENT 15 8 22 25 81 44 49 55
REMARK Flexibility Score: inf
ROOT
ATOM      1  C   UNL A   1      37.381  20.683  24.549  1.00  0.00     0.002 C 
ENDROOT
BRANCH   1   2
ATOM      2  C   UNL A   1      37.739  22.133  24.890  1.00  0.00     0.002 C 
BRANCH   2   3
ATOM      3  C   UNL A   1      36.982  22.736  26.075  1.00  0.00     0.021 C 
BRANCH   3   4
ATOM      4  C   UNL A   1      35.477  22.868  25.871  1.00  0.00     0.116 C 
BRANCH   4   5
ATOM      5  N   UNL A   1      34.726  22.587  27.085  1.00  0.00    -0.353 N 
ATOM      6  C   UNL A   1      33.387  22.739  27.327  1.00  0.00     0.261 C 
ATOM      7  O   UNL A   1      32.946  22.381  28.422  1.00  0.00    -0.271 OA
ATOM      8  H   UNL A   1      35.256  22.240  27.839  1.00  0.00     0.163 HD
BRANCH   6   9
ATOM      9  C   UNL A   1      32.473  23.408  26.282  1.00  0.00     0.261 C 
BRANCH   9  10
ATOM     10  C   UNL A   1      31.658  22.304  25.580  1.00  0.00     0.052 C 
ATOM     11  C   UNL A   1      31.796  22.345  24.062  1.00  0.00     0.008 C 
ENDBRANCH   9  10
BRANCH   9  12
ATOM     12  O   UNL A   1      31.687  24.363  27.012  1.00  0.00    -0.481 OA
BRANCH  12  13
ATOM     13  C   UNL A   1      31.425  25.534  26.371  1.00  0.00     0.122 A 
ATOM     14  C   UNL A   1      32.358  26.567  26.411  1.00  0.00     0.048 A 
ATOM     15  C   UNL A   1      30.327  25.606  25.518  1.00  0.00     0.068 A 
ATOM     16  C   UNL A   1      32.157  27.716  25.648  1.00  0.00     0.026 A 
ATOM     17  C   UNL A   1      30.134  26.747  24.734  1.00  0.00     0.063 A 
ATOM     18  C   UNL A   1      31.044  27.811  24.808  1.00  0.00     0.059 A 
ATOM     19  Cl  UNL A   1      28.769  26.774  23.675  1.00  0.00    -0.083 Cl
ATOM     20  Cl  UNL A   1      30.865  29.254  23.875  1.00  0.00    -0.083 Cl
ENDBRANCH  12  13
ENDBRANCH   9  12
ENDBRANCH   6   9
ENDBRANCH   4   5
ENDBRANCH   3   4
ENDBRANCH   2   3
ENDBRANCH   1   2
BRANCH   1  21
ATOM     21  C   UNL A   1      38.267  19.607  25.188  1.00  0.00     0.021 C 
BRANCH  21  22
ATOM     22  C   UNL A   1      39.332  20.119  26.156  1.00  0.00     0.116 C 
BRANCH  22  23
ATOM     23  N   UNL A   1      40.523  19.288  26.154  1.00  0.00    -0.352 N 
ATOM     24  C   UNL A   1      41.849  19.641  26.180  1.00  0.00     0.251 C 
ATOM     25  H   UNL A   1      40.352  18.319  26.132  1.00  0.00     0.163 HD
ATOM     26  O   UNL A   1      42.699  18.775  25.992  1.00  0.00    -0.269 OA
BRANCH  24  27
ATOM     27  C   UNL A   1      42.262  21.047  26.406  1.00  0.00     0.039 A 
ATOM     28  C   UNL A   1      42.429  21.486  27.723  1.00  0.00     0.014 A 
ATOM     29  C   UNL A   1      42.439  21.945  25.348  1.00  0.00     0.014 A 
ATOM     30  C   UNL A   1      42.826  22.802  27.976  1.00  0.00     0.010 A 
ATOM     31  C   UNL A   1      42.892  23.242  25.600  1.00  0.00     0.010 A 
ATOM     32  C   UNL A   1      43.090  23.684  26.916  1.00  0.00    -0.014 A 
BRANCH  32  33
ATOM     33  C   UNL A   1      43.585  25.062  27.183  1.00  0.00     0.031 A 
ATOM     34  C   UNL A   1      42.670  26.108  27.759  1.00  0.00     0.074 A 
ATOM     35  C   UNL A   1      44.861  25.377  26.877  1.00  0.00     0.049 A 
ATOM     36  N   UNL A   1      42.918  27.362  28.038  1.00  0.00    -0.248 NA
ATOM     37  C   UNL A   1      41.286  25.695  28.038  1.00  0.00     0.031 C 
ATOM     38  C   UNL A   1      45.832  24.461  26.273  1.00  0.00     0.029 A 
ATOM     39  N   UNL A   1      45.559  26.548  27.026  1.00  0.00    -0.354 N 
ATOM     40  C   UNL A   1      41.728  27.890  28.528  1.00  0.00     0.074 A 
ATOM     41  C   UNL A   1      40.742  26.831  28.450  1.00  0.00     0.031 C 
ATOM     42  C   UNL A   1      47.003  25.100  26.122  1.00  0.00     0.029 A 
ATOM     43  C   UNL A   1      46.860  26.476  26.584  1.00  0.00     0.049 A 
ATOM     44  H   UNL A   1      45.166  27.363  27.413  1.00  0.00     0.167 HD
ATOM     45  C   UNL A   1      41.486  29.130  29.019  1.00  0.00     0.034 A 
ATOM     46  C   UNL A   1      47.827  27.415  26.548  1.00  0.00     0.034 A 
ATOM     47  C   UNL A   1      42.477  30.178  29.094  1.00  0.00     0.049 A 
ATOM     48  C   UNL A   1      47.530  28.788  27.095  1.00  0.00     0.074 A 
ATOM     49  C   UNL A   1      42.343  31.460  29.598  1.00  0.00     0.029 A 
ATOM     50  N   UNL A   1      43.788  30.065  28.649  1.00  0.00    -0.354 N 
ATOM     51  N   UNL A   1      46.408  29.253  27.595  1.00  0.00    -0.248 NA
ATOM     52  C   UNL A   1      48.634  29.756  27.089  1.00  0.00     0.031 C 
ATOM     53  C   UNL A   1      43.553  32.138  29.411  1.00  0.00     0.029 A 
ATOM     54  C   UNL A   1      44.464  31.260  28.849  1.00  0.00     0.049 A 
ATOM     55  H   UNL A   1      44.180  29.255  28.250  1.00  0.00     0.167 HD
ATOM     56  C   UNL A   1      46.682  30.561  27.984  1.00  0.00     0.074 A 
ATOM     57  C   UNL A   1      48.080  30.799  27.687  1.00  0.00     0.031 C 
ATOM     58  C   UNL A   1      45.854  31.487  28.532  1.00  0.00     0.034 A 
BRANCH  45  59
ATOM     59  C   UNL A   1      40.085  29.425  29.500  1.00  0.00     0.023 A 
ATOM     60  C   UNL A   1      39.778  29.484  30.872  1.00  0.00     0.031 A 
ATOM     61  C   UNL A   1      39.043  29.644  28.584  1.00  0.00     0.131 A 
ATOM     62  C   UNL A   1      38.454  29.693  31.286  1.00  0.00     0.055 A 
ATOM     63  C   UNL A   1      37.740  29.925  29.002  1.00  0.00     0.041 A 
ATOM     64  F   UNL A   1      39.272  29.582  27.262  1.00  0.00    -0.206 F 
ATOM     65  C   UNL A   1      37.437  29.939  30.360  1.00  0.00     0.022 A 
BRANCH  62  66
ATOM     66  S   UNL A   1      38.058  29.524  33.047  1.00  0.00     0.124 S 
ATOM     67  O   UNL A   1      37.360  28.241  33.069  1.00  0.00    -0.237 OA
ATOM     68  O   UNL A   1      39.376  29.546  33.672  1.00  0.00    -0.237 OA
ATOM     69  O   UNL A   1      37.218  30.688  33.323  1.00  0.00    -0.744 OA
ENDBRANCH  62  66
ENDBRANCH  45  59
BRANCH  46  70
ATOM     70  C   UNL A   1      49.164  27.104  25.967  1.00  0.00     0.023 A 
ATOM     71  C   UNL A   1      49.511  27.529  24.675  1.00  0.00     0.031 A 
ATOM     72  C   UNL A   1      50.095  26.324  26.677  1.00  0.00     0.131 A 
ATOM     73  C   UNL A   1      50.729  27.122  24.108  1.00  0.00     0.055 A 
ATOM     74  C   UNL A   1      51.329  25.969  26.130  1.00  0.00     0.041 A 
ATOM     75  F   UNL A   1      49.817  25.898  27.919  1.00  0.00    -0.206 F 
ATOM     76  C   UNL A   1      51.645  26.355  24.832  1.00  0.00     0.022 A 
BRANCH  73  77
ATOM     77  S   UNL A   1      51.054  27.523  22.369  1.00  0.00     0.124 S 
ATOM     78  O   UNL A   1      50.917  28.975  22.367  1.00  0.00    -0.237 OA
ATOM     79  O   UNL A   1      52.408  27.008  22.190  1.00  0.00    -0.237 OA
ATOM     80  O   UNL A   1      50.011  26.795  21.651  1.00  0.00    -0.744 OA
ENDBRANCH  73  77
ENDBRANCH  46  70
BRANCH  58  81
ATOM     81  C   UNL A   1      46.464  32.827  28.869  1.00  0.00     0.023 A 
ATOM     82  C   UNL A   1      46.494  33.877  27.935  1.00  0.00     0.031 A 
ATOM     83  C   UNL A   1      47.058  33.040  30.124  1.00  0.00     0.131 A 
ATOM     84  C   UNL A   1      47.167  35.067  28.243  1.00  0.00     0.055 A 
ATOM     85  C   UNL A   1      47.672  34.251  30.450  1.00  0.00     0.041 A 
ATOM     86  F   UNL A   1      47.058  32.072  31.055  1.00  0.00    -0.206 F 
ATOM     87  C   UNL A   1      47.744  35.267  29.500  1.00  0.00     0.022 A 
BRANCH  84  88
ATOM     88  S   UNL A   1      47.372  36.314  26.941  1.00  0.00     0.124 S 
ATOM     89  O   UNL A   1      47.889  35.514  25.834  1.00  0.00    -0.237 OA
ATOM     90  O   UNL A   1      46.013  36.820  26.779  1.00  0.00    -0.237 OA
ATOM     91  O   UNL A   1      48.322  37.261  27.519  1.00  0.00    -0.744 OA
ENDBRANCH  84  88
ENDBRANCH  58  81
ENDBRANCH  32  33
ENDBRANCH  24  27
ENDBRANCH  22  23
ENDBRANCH  21  22
ENDBRANCH   1  21
TORSDOF 19
ENDMDL
