MODEL 1
REMARK VINA RESULT:     -13.0      0.000      0.000
REMARK SMILES Cc1cc(C(=O)NCCCCCCNC(=O)c2ccc(-c3c4nc(c(-c5cc(S(=O)(=O)[O-])ccc5F)c5ccc([nH]5)c(-c5cc(S(=O)(=O)[O-])ccc5F)c5nc(c(-c6cc(S(=O)(=O)[O-])ccc6F)c6ccc3[nH]6)C=C5)C=C4)cc2)ccc1NC(=O)N1C[C@@H](C)[C@H](C)C1
REMARK SMILES IDX 11 1 10 2 9 3 8 4 7 5 5 6 6 7 4 9 1 10 2 11 3 12 82 13 81 14
REMARK SMILES IDX 80 15 83 16 84 17 85 19 86 20 87 21 92 22 88 23 90 24 89 25
REMARK SMILES IDX 91 26 12 27 13 28 14 29 15 30 16 32 17 33 18 34 79 35 19 36
REMARK SMILES IDX 78 37 20 38 21 39 22 40 72 41 23 42 77 43 71 44 73 45 24 46
REMARK SMILES IDX 76 47 70 48 69 49 25 51 57 52 37 53 56 54 38 55 41 56 55 57
REMARK SMILES IDX 74 58 39 59 40 60 54 62 75 63 42 64 26 65 27 66 35 67 28 68
REMARK SMILES IDX 34 69 36 70 33 71 29 72 30 73 31 74 32 75 58 76 59 77 67 78
REMARK SMILES IDX 60 79 66 80 68 81 65 82 61 83 62 84 63 85 64 86 43 87 44 88
REMARK SMILES IDX 52 89 45 90 51 91 53 92 50 93 46 94 47 95 48 96 49 97
REMARK H PARENT 7 8 83 18 14 31 73 50 41 61
REMARK Flexibility Score: inf
ROOT
ATOM      1  C   UNL A   1      33.681  28.726  27.227  1.00  0.00     0.002 C 
ENDROOT
BRANCH   1   2
ATOM      2  C   UNL A   1      33.462  28.191  25.803  1.00  0.00     0.002 C 
BRANCH   2   3
ATOM      3  C   UNL A   1      33.236  29.242  24.709  1.00  0.00     0.021 C 
BRANCH   3   4
ATOM      4  C   UNL A   1      33.338  28.707  23.280  1.00  0.00     0.116 C 
BRANCH   4   5
ATOM      5  N   UNL A   1      32.139  28.988  22.505  1.00  0.00    -0.352 N 
ATOM      6  C   UNL A   1      30.963  28.286  22.378  1.00  0.00     0.251 C 
ATOM      7  O   UNL A   1      30.000  28.803  21.816  1.00  0.00    -0.269 OA
ATOM      8  H   UNL A   1      32.175  29.821  21.983  1.00  0.00     0.163 HD
BRANCH   6   9
ATOM      9  C   UNL A   1      30.807  26.935  22.974  1.00  0.00     0.040 A 
ATOM     10  C   UNL A   1      29.518  25.555  26.264  1.00  0.00     0.046 C 
ATOM     11  C   UNL A   1      30.209  25.583  24.930  1.00  0.00    -0.027 A 
ATOM     12  C   UNL A   1      30.273  26.826  24.264  1.00  0.00     0.019 A 
ATOM     13  C   UNL A   1      30.747  24.450  24.293  1.00  0.00     0.045 A 
ATOM     14  C   UNL A   1      31.121  24.548  22.945  1.00  0.00     0.027 A 
ATOM     15  C   UNL A   1      31.130  25.774  22.283  1.00  0.00     0.016 A 
BRANCH  13  16
ATOM     16  N   UNL A   1      30.868  23.225  24.981  1.00  0.00    -0.308 N 
ATOM     17  C   UNL A   1      31.883  22.311  24.953  1.00  0.00     0.321 C 
ATOM     18  H   UNL A   1      30.111  22.995  25.566  1.00  0.00     0.171 HD
ATOM     19  O   UNL A   1      31.617  21.124  25.145  1.00  0.00    -0.248 OA
ATOM     20  N   UNL A   1      33.167  22.748  24.763  1.00  0.00    -0.324 N 
ATOM     21  C   UNL A   1      34.177  21.888  24.173  1.00  0.00     0.125 C 
ATOM     22  C   UNL A   1      33.776  23.873  25.466  1.00  0.00     0.125 C 
ATOM     23  C   UNL A   1      35.514  22.418  24.690  1.00  0.00     0.010 C 
ATOM     24  C   UNL A   1      35.223  23.904  24.968  1.00  0.00     0.010 C 
ATOM     25  C   UNL A   1      36.655  22.202  23.707  1.00  0.00     0.010 C 
ATOM     26  C   UNL A   1      36.191  24.529  25.966  1.00  0.00     0.010 C 
ENDBRANCH  13  16
ENDBRANCH   6   9
ENDBRANCH   4   5
ENDBRANCH   3   4
ENDBRANCH   2   3
ENDBRANCH   1   2
BRANCH   1  27
ATOM     27  C   UNL A   1      33.404  30.217  27.428  1.00  0.00     0.021 C 
BRANCH  27  28
ATOM     28  C   UNL A   1      34.665  31.077  27.493  1.00  0.00     0.116 C 
BRANCH  28  29
ATOM     29  N   UNL A   1      34.960  31.595  28.816  1.00  0.00    -0.352 N 
ATOM     30  C   UNL A   1      35.855  31.104  29.769  1.00  0.00     0.251 C 
ATOM     31  H   UNL A   1      34.462  32.403  29.077  1.00  0.00     0.163 HD
ATOM     32  O   UNL A   1      35.959  31.610  30.861  1.00  0.00    -0.269 OA
BRANCH  30  33
ATOM     33  C   UNL A   1      36.769  30.007  29.363  1.00  0.00     0.039 A 
ATOM     34  C   UNL A   1      37.044  29.018  30.314  1.00  0.00     0.014 A 
ATOM     35  C   UNL A   1      37.490  30.060  28.174  1.00  0.00     0.014 A 
ATOM     36  C   UNL A   1      38.185  28.230  30.173  1.00  0.00     0.010 A 
ATOM     37  C   UNL A   1      38.667  29.339  28.072  1.00  0.00     0.010 A 
ATOM     38  C   UNL A   1      39.047  28.470  29.101  1.00  0.00    -0.014 A 
BRANCH  38  39
ATOM     39  C   UNL A   1      40.421  27.971  29.063  1.00  0.00     0.031 A 
ATOM     40  C   UNL A   1      40.733  26.616  28.565  1.00  0.00     0.074 A 
ATOM     41  C   UNL A   1      41.432  28.765  29.477  1.00  0.00     0.049 A 
ATOM     42  N   UNL A   1      41.786  25.946  28.897  1.00  0.00    -0.248 NA
ATOM     43  C   UNL A   1      39.847  25.886  27.666  1.00  0.00     0.031 C 
ATOM     44  C   UNL A   1      42.866  28.535  29.320  1.00  0.00     0.029 A 
ATOM     45  N   UNL A   1      41.345  29.817  30.385  1.00  0.00    -0.354 N 
ATOM     46  C   UNL A   1      41.853  24.836  28.093  1.00  0.00     0.074 A 
ATOM     47  C   UNL A   1      40.599  24.821  27.372  1.00  0.00     0.031 C 
ATOM     48  C   UNL A   1      43.515  29.202  30.288  1.00  0.00     0.029 A 
ATOM     49  C   UNL A   1      42.515  29.777  31.168  1.00  0.00     0.049 A 
ATOM     50  H   UNL A   1      40.609  30.465  30.463  1.00  0.00     0.167 HD
ATOM     51  C   UNL A   1      43.002  24.104  28.037  1.00  0.00     0.034 A 
ATOM     52  C   UNL A   1      42.439  29.601  32.520  1.00  0.00     0.034 A 
ATOM     53  C   UNL A   1      44.026  24.603  28.950  1.00  0.00     0.049 A 
ATOM     54  C   UNL A   1      43.125  28.347  33.023  1.00  0.00     0.074 A 
ATOM     55  C   UNL A   1      45.150  25.399  28.806  1.00  0.00     0.029 A 
ATOM     56  N   UNL A   1      43.817  24.481  30.311  1.00  0.00    -0.354 N 
ATOM     57  N   UNL A   1      43.701  27.460  32.257  1.00  0.00    -0.248 NA
ATOM     58  C   UNL A   1      43.130  27.949  34.432  1.00  0.00     0.031 C 
ATOM     59  C   UNL A   1      45.589  25.784  30.107  1.00  0.00     0.029 A 
ATOM     60  C   UNL A   1      44.744  25.203  31.035  1.00  0.00     0.049 A 
ATOM     61  H   UNL A   1      43.095  23.945  30.714  1.00  0.00     0.167 HD
ATOM     62  C   UNL A   1      44.075  26.381  33.016  1.00  0.00     0.074 A 
ATOM     63  C   UNL A   1      43.702  26.735  34.373  1.00  0.00     0.031 C 
ATOM     64  C   UNL A   1      44.619  25.249  32.482  1.00  0.00     0.034 A 
BRANCH  51  65
ATOM     65  C   UNL A   1      43.273  23.068  26.977  1.00  0.00     0.023 A 
ATOM     66  C   UNL A   1      42.704  21.784  27.104  1.00  0.00     0.031 A 
ATOM     67  C   UNL A   1      44.089  23.264  25.847  1.00  0.00     0.131 A 
ATOM     68  C   UNL A   1      43.029  20.749  26.210  1.00  0.00     0.055 A 
ATOM     69  C   UNL A   1      44.469  22.218  24.996  1.00  0.00     0.041 A 
ATOM     70  F   UNL A   1      44.515  24.486  25.495  1.00  0.00    -0.206 F 
ATOM     71  C   UNL A   1      43.949  20.946  25.183  1.00  0.00     0.022 A 
BRANCH  68  72
ATOM     72  S   UNL A   1      42.218  19.138  26.398  1.00  0.00     0.124 S 
ATOM     73  O   UNL A   1      40.901  19.383  25.820  1.00  0.00    -0.237 OA
ATOM     74  O   UNL A   1      43.103  18.260  25.640  1.00  0.00    -0.237 OA
ATOM     75  O   UNL A   1      42.227  18.921  27.844  1.00  0.00    -0.744 OA
ENDBRANCH  68  72
ENDBRANCH  51  65
BRANCH  52  76
ATOM     76  C   UNL A   1      41.219  30.229  33.114  1.00  0.00     0.023 A 
ATOM     77  C   UNL A   1      41.205  31.640  33.201  1.00  0.00     0.031 A 
ATOM     78  C   UNL A   1      39.995  29.557  33.213  1.00  0.00     0.131 A 
ATOM     79  C   UNL A   1      39.990  32.336  33.177  1.00  0.00     0.055 A 
ATOM     80  C   UNL A   1      38.786  30.258  33.293  1.00  0.00     0.041 A 
ATOM     81  F   UNL A   1      39.931  28.222  33.103  1.00  0.00    -0.206 F 
ATOM     82  C   UNL A   1      38.775  31.652  33.223  1.00  0.00     0.022 A 
BRANCH  79  83
ATOM     83  S   UNL A   1      40.021  34.105  32.756  1.00  0.00     0.124 S 
ATOM     84  O   UNL A   1      41.116  34.599  33.582  1.00  0.00    -0.237 OA
ATOM     85  O   UNL A   1      40.266  34.087  31.315  1.00  0.00    -0.237 OA
ATOM     86  O   UNL A   1      38.688  34.571  33.131  1.00  0.00    -0.744 OA
ENDBRANCH  79  83
ENDBRANCH  52  76
BRANCH  64  87
ATOM     87  C   UNL A   1      45.044  24.080  33.326  1.00  0.00     0.023 A 
ATOM     88  C   UNL A   1      46.366  23.945  33.779  1.00  0.00     0.031 A 
ATOM     89  C   UNL A   1      44.156  23.033  33.647  1.00  0.00     0.131 A 
ATOM     90  C   UNL A   1      46.741  22.853  34.579  1.00  0.00     0.055 A 
ATOM     91  C   UNL A   1      44.554  21.904  34.369  1.00  0.00     0.041 A 
ATOM     92  F   UNL A   1      42.857  23.084  33.313  1.00  0.00    -0.206 F 
ATOM     93  C   UNL A   1      45.852  21.815  34.852  1.00  0.00     0.022 A 
BRANCH  90  94
ATOM     94  S   UNL A   1      48.387  22.861  35.333  1.00  0.00     0.124 S 
ATOM     95  O   UNL A   1      48.503  21.508  35.864  1.00  0.00    -0.237 OA
ATOM     96  O   UNL A   1      49.236  23.166  34.183  1.00  0.00    -0.237 OA
ATOM     97  O   UNL A   1      48.302  23.921  36.335  1.00  0.00    -0.744 OA
ENDBRANCH  90  94
ENDBRANCH  64  87
ENDBRANCH  38  39
ENDBRANCH  30  33
ENDBRANCH  28  29
ENDBRANCH  27  28
ENDBRANCH   1  27
TORSDOF 17
ENDMDL
MODEL 2
REMARK VINA RESULT:     -12.5      1.438      1.860
REMARK SMILES Cc1cc(C(=O)NCCCCCCNC(=O)c2ccc(-c3c4nc(c(-c5cc(S(=O)(=O)[O-])ccc5F)c5ccc([nH]5)c(-c5cc(S(=O)(=O)[O-])ccc5F)c5nc(c(-c6cc(S(=O)(=O)[O-])ccc6F)c6ccc3[nH]6)C=C5)C=C4)cc2)ccc1NC(=O)N1C[C@@H](C)[C@H](C)C1
REMARK SMILES IDX 11 1 10 2 9 3 8 4 7 5 5 6 6 7 4 9 1 10 2 11 3 12 82 13 81 14
REMARK SMILES IDX 80 15 83 16 84 17 85 19 86 20 87 21 92 22 88 23 90 24 89 25
REMARK SMILES IDX 91 26 12 27 13 28 14 29 15 30 16 32 17 33 18 34 79 35 19 36
REMARK SMILES IDX 78 37 20 38 21 39 22 40 72 41 23 42 77 43 71 44 73 45 24 46
REMARK SMILES IDX 76 47 70 48 69 49 25 51 57 52 37 53 56 54 38 55 41 56 55 57
REMARK SMILES IDX 74 58 39 59 40 60 54 62 75 63 42 64 26 65 27 66 35 67 28 68
REMARK SMILES IDX 34 69 36 70 33 71 29 72 30 73 31 74 32 75 58 76 59 77 67 78
REMARK SMILES IDX 60 79 66 80 68 81 65 82 61 83 62 84 63 85 64 86 43 87 44 88
REMARK SMILES IDX 52 89 45 90 51 91 53 92 50 93 46 94 47 95 48 96 49 97
REMARK H PARENT 7 8 83 18 14 31 73 50 41 61
REMARK Flexibility Score: inf
ROOT
ATOM      1  C   UNL A   1      32.347  29.866  27.167  1.00  0.00     0.002 C 
ENDROOT
BRANCH   1   2
ATOM      2  C   UNL A   1      31.801  28.873  26.128  1.00  0.00     0.002 C 
BRANCH   2   3
ATOM      3  C   UNL A   1      31.653  29.402  24.695  1.00  0.00     0.021 C 
BRANCH   3   4
ATOM      4  C   UNL A   1      31.426  28.322  23.637  1.00  0.00     0.116 C 
BRANCH   4   5
ATOM      5  N   UNL A   1      30.015  28.002  23.476  1.00  0.00    -0.352 N 
ATOM      6  C   UNL A   1      29.298  26.885  23.836  1.00  0.00     0.251 C 
ATOM      7  O   UNL A   1      28.071  26.903  23.776  1.00  0.00    -0.269 OA
ATOM      8  H   UNL A   1      29.485  28.704  23.036  1.00  0.00     0.163 HD
BRANCH   6   9
ATOM      9  C   UNL A   1      29.975  25.676  24.368  1.00  0.00     0.040 A 
ATOM     10  C   UNL A   1      31.546  22.564  22.869  1.00  0.00     0.046 C 
ATOM     11  C   UNL A   1      30.978  23.486  23.913  1.00  0.00    -0.027 A 
ATOM     12  C   UNL A   1      30.435  24.709  23.465  1.00  0.00     0.019 A 
ATOM     13  C   UNL A   1      31.000  23.225  25.295  1.00  0.00     0.045 A 
ATOM     14  C   UNL A   1      30.692  24.266  26.183  1.00  0.00     0.027 A 
ATOM     15  C   UNL A   1      30.206  25.488  25.725  1.00  0.00     0.016 A 
BRANCH  13  16
ATOM     16  N   UNL A   1      31.368  21.954  25.784  1.00  0.00    -0.308 N 
ATOM     17  C   UNL A   1      32.489  21.216  25.525  1.00  0.00     0.321 C 
ATOM     18  H   UNL A   1      30.724  21.539  26.402  1.00  0.00     0.171 HD
ATOM     19  O   UNL A   1      32.412  19.988  25.569  1.00  0.00    -0.248 OA
ATOM     20  N   UNL A   1      33.669  21.865  25.273  1.00  0.00    -0.324 N 
ATOM     21  C   UNL A   1      34.710  21.251  24.469  1.00  0.00     0.125 C 
ATOM     22  C   UNL A   1      34.197  22.969  26.068  1.00  0.00     0.125 C 
ATOM     23  C   UNL A   1      36.014  21.908  24.923  1.00  0.00     0.010 C 
ATOM     24  C   UNL A   1      35.556  23.284  25.440  1.00  0.00     0.010 C 
ATOM     25  C   UNL A   1      37.048  21.995  23.811  1.00  0.00     0.010 C 
ATOM     26  C   UNL A   1      36.542  23.916  26.416  1.00  0.00     0.010 C 
ENDBRANCH  13  16
ENDBRANCH   6   9
ENDBRANCH   4   5
ENDBRANCH   3   4
ENDBRANCH   2   3
ENDBRANCH   1   2
BRANCH   1  27
ATOM     27  C   UNL A   1      33.799  29.650  27.595  1.00  0.00     0.021 C 
BRANCH  27  28
ATOM     28  C   UNL A   1      34.711  30.844  27.314  1.00  0.00     0.116 C 
BRANCH  28  29
ATOM     29  N   UNL A   1      35.166  31.534  28.507  1.00  0.00    -0.352 N 
ATOM     30  C   UNL A   1      36.121  31.131  29.442  1.00  0.00     0.251 C 
ATOM     31  H   UNL A   1      34.744  32.407  28.679  1.00  0.00     0.163 HD
ATOM     32  O   UNL A   1      36.362  31.789  30.425  1.00  0.00    -0.269 OA
BRANCH  30  33
ATOM     33  C   UNL A   1      36.924  29.921  29.135  1.00  0.00     0.039 A 
ATOM     34  C   UNL A   1      37.183  29.040  30.191  1.00  0.00     0.014 A 
ATOM     35  C   UNL A   1      37.574  29.766  27.914  1.00  0.00     0.014 A 
ATOM     36  C   UNL A   1      38.252  28.150  30.096  1.00  0.00     0.010 A 
ATOM     37  C   UNL A   1      38.686  28.944  27.847  1.00  0.00     0.010 A 
ATOM     38  C   UNL A   1      39.062  28.183  28.960  1.00  0.00    -0.014 A 
BRANCH  38  39
ATOM     39  C   UNL A   1      40.390  27.573  28.916  1.00  0.00     0.031 A 
ATOM     40  C   UNL A   1      40.568  26.139  28.612  1.00  0.00     0.074 A 
ATOM     41  C   UNL A   1      41.482  28.334  29.145  1.00  0.00     0.049 A 
ATOM     42  N   UNL A   1      41.591  25.441  28.980  1.00  0.00    -0.248 NA
ATOM     43  C   UNL A   1      39.570  25.361  27.888  1.00  0.00     0.031 C 
ATOM     44  C   UNL A   1      42.882  27.967  28.941  1.00  0.00     0.029 A 
ATOM     45  N   UNL A   1      41.536  29.511  29.887  1.00  0.00    -0.354 N 
ATOM     46  C   UNL A   1      41.521  24.223  28.351  1.00  0.00     0.074 A 
ATOM     47  C   UNL A   1      40.221  24.206  27.715  1.00  0.00     0.031 C 
ATOM     48  C   UNL A   1      43.644  28.713  29.757  1.00  0.00     0.029 A 
ATOM     49  C   UNL A   1      42.752  29.491  30.597  1.00  0.00     0.049 A 
ATOM     50  H   UNL A   1      40.856  30.222  29.909  1.00  0.00     0.167 HD
ATOM     51  C   UNL A   1      42.607  23.399  28.339  1.00  0.00     0.034 A 
ATOM     52  C   UNL A   1      42.759  29.522  31.962  1.00  0.00     0.034 A 
ATOM     53  C   UNL A   1      43.727  23.941  29.104  1.00  0.00     0.049 A 
ATOM     54  C   UNL A   1      43.387  28.303  32.608  1.00  0.00     0.074 A 
ATOM     55  C   UNL A   1      44.892  24.614  28.774  1.00  0.00     0.029 A 
ATOM     56  N   UNL A   1      43.605  24.037  30.477  1.00  0.00    -0.354 N 
ATOM     57  N   UNL A   1      43.842  27.269  31.953  1.00  0.00    -0.248 NA
ATOM     58  C   UNL A   1      43.462  28.116  34.058  1.00  0.00     0.031 C 
ATOM     59  C   UNL A   1      45.448  25.147  29.975  1.00  0.00     0.029 A 
ATOM     60  C   UNL A   1      44.631  24.780  31.028  1.00  0.00     0.049 A 
ATOM     61  H   UNL A   1      42.877  23.628  30.998  1.00  0.00     0.167 HD
ATOM     62  C   UNL A   1      44.190  26.286  32.843  1.00  0.00     0.074 A 
ATOM     63  C   UNL A   1      43.940  26.865  34.150  1.00  0.00     0.031 C 
ATOM     64  C   UNL A   1      44.611  25.047  32.456  1.00  0.00     0.034 A 
BRANCH  51  65
ATOM     65  C   UNL A   1      42.728  22.201  27.434  1.00  0.00     0.023 A 
ATOM     66  C   UNL A   1      43.741  22.175  26.454  1.00  0.00     0.031 A 
ATOM     67  C   UNL A   1      41.879  21.078  27.463  1.00  0.00     0.131 A 
ATOM     68  C   UNL A   1      43.816  21.138  25.507  1.00  0.00     0.055 A 
ATOM     69  C   UNL A   1      41.908  20.081  26.480  1.00  0.00     0.041 A 
ATOM     70  F   UNL A   1      41.018  20.878  28.472  1.00  0.00    -0.206 F 
ATOM     71  C   UNL A   1      42.872  20.115  25.484  1.00  0.00     0.022 A 
BRANCH  68  72
ATOM     72  S   UNL A   1      45.177  21.138  24.309  1.00  0.00     0.124 S 
ATOM     73  O   UNL A   1      46.306  21.582  25.120  1.00  0.00    -0.237 OA
ATOM     74  O   UNL A   1      45.201  19.746  23.874  1.00  0.00    -0.237 OA
ATOM     75  O   UNL A   1      44.735  22.093  23.293  1.00  0.00    -0.744 OA
ENDBRANCH  68  72
ENDBRANCH  51  65
BRANCH  52  76
ATOM     76  C   UNL A   1      41.633  30.327  32.525  1.00  0.00     0.023 A 
ATOM     77  C   UNL A   1      41.741  31.733  32.427  1.00  0.00     0.031 A 
ATOM     78  C   UNL A   1      40.364  29.787  32.768  1.00  0.00     0.131 A 
ATOM     79  C   UNL A   1      40.591  32.528  32.369  1.00  0.00     0.055 A 
ATOM     80  C   UNL A   1      39.224  30.599  32.812  1.00  0.00     0.041 A 
ATOM     81  F   UNL A   1      40.183  28.460  32.837  1.00  0.00    -0.206 F 
ATOM     82  C   UNL A   1      39.327  31.968  32.560  1.00  0.00     0.022 A 
BRANCH  79  83
ATOM     83  S   UNL A   1      40.745  34.220  31.719  1.00  0.00     0.124 S 
ATOM     84  O   UNL A   1      41.452  34.003  30.462  1.00  0.00    -0.237 OA
ATOM     85  O   UNL A   1      39.352  34.647  31.602  1.00  0.00    -0.237 OA
ATOM     86  O   UNL A   1      41.501  34.919  32.756  1.00  0.00    -0.744 OA
ENDBRANCH  79  83
ENDBRANCH  52  76
BRANCH  64  87
ATOM     87  C   UNL A   1      45.009  23.984  33.441  1.00  0.00     0.023 A 
ATOM     88  C   UNL A   1      46.332  23.863  33.895  1.00  0.00     0.031 A 
ATOM     89  C   UNL A   1      44.092  23.017  33.903  1.00  0.00     0.131 A 
ATOM     90  C   UNL A   1      46.682  22.872  34.827  1.00  0.00     0.055 A 
ATOM     91  C   UNL A   1      44.463  21.978  34.761  1.00  0.00     0.041 A 
ATOM     92  F   UNL A   1      42.792  23.069  33.577  1.00  0.00    -0.206 F 
ATOM     93  C   UNL A   1      45.764  21.909  35.240  1.00  0.00     0.022 A 
BRANCH  90  94
ATOM     94  S   UNL A   1      48.337  22.923  35.559  1.00  0.00     0.124 S 
ATOM     95  O   UNL A   1      48.766  21.531  35.478  1.00  0.00    -0.237 OA
ATOM     96  O   UNL A   1      49.026  23.852  34.666  1.00  0.00    -0.237 OA
ATOM     97  O   UNL A   1      48.102  23.426  36.910  1.00  0.00    -0.744 OA
ENDBRANCH  90  94
ENDBRANCH  64  87
ENDBRANCH  38  39
ENDBRANCH  30  33
ENDBRANCH  28  29
ENDBRANCH  27  28
ENDBRANCH   1  27
TORSDOF 17
ENDMDL
MODEL 3
REMARK VINA RESULT:     -11.9      2.728      3.894
REMARK SMILES Cc1cc(C(=O)NCCCCCCNC(=O)c2ccc(-c3c4nc(c(-c5cc(S(=O)(=O)[O-])ccc5F)c5ccc([nH]5)c(-c5cc(S(=O)(=O)[O-])ccc5F)c5nc(c(-c6cc(S(=O)(=O)[O-])ccc6F)c6ccc3[nH]6)C=C5)C=C4)cc2)ccc1NC(=O)N1C[C@@H](C)[C@H](C)C1
REMARK SMILES IDX 11 1 10 2 9 3 8 4 7 5 5 6 6 7 4 9 1 10 2 11 3 12 82 13 81 14
REMARK SMILES IDX 80 15 83 16 84 17 85 19 86 20 87 21 92 22 88 23 90 24 89 25
REMARK SMILES IDX 91 26 12 27 13 28 14 29 15 30 16 32 17 33 18 34 79 35 19 36
REMARK SMILES IDX 78 37 20 38 21 39 22 40 72 41 23 42 77 43 71 44 73 45 24 46
REMARK SMILES IDX 76 47 70 48 69 49 25 51 57 52 37 53 56 54 38 55 41 56 55 57
REMARK SMILES IDX 74 58 39 59 40 60 54 62 75 63 42 64 26 65 27 66 35 67 28 68
REMARK SMILES IDX 34 69 36 70 33 71 29 72 30 73 31 74 32 75 58 76 59 77 67 78
REMARK SMILES IDX 60 79 66 80 68 81 65 82 61 83 62 84 63 85 64 86 43 87 44 88
REMARK SMILES IDX 52 89 45 90 51 91 53 92 50 93 46 94 47 95 48 96 49 97
REMARK H PARENT 7 8 83 18 14 31 73 50 41 61
REMARK Flexibility Score: inf
ROOT
ATOM      1  C   UNL A   1      35.354  30.443  27.558  1.00  0.00     0.002 C 
ENDROOT
BRANCH   1   2
ATOM      2  C   UNL A   1      34.946  28.970  27.399  1.00  0.00     0.002 C 
BRANCH   2   3
ATOM      3  C   UNL A   1      33.605  28.707  26.701  1.00  0.00     0.021 C 
BRANCH   3   4
ATOM      4  C   UNL A   1      33.614  28.955  25.192  1.00  0.00     0.116 C 
BRANCH   4   5
ATOM      5  N   UNL A   1      32.444  29.703  24.755  1.00  0.00    -0.352 N 
ATOM      6  C   UNL A   1      31.209  29.274  24.326  1.00  0.00     0.251 C 
ATOM      7  O   UNL A   1      30.297  30.085  24.184  1.00  0.00    -0.269 OA
ATOM      8  H   UNL A   1      32.554  30.680  24.768  1.00  0.00     0.163 HD
BRANCH   6   9
ATOM      9  C   UNL A   1      30.932  27.833  24.101  1.00  0.00     0.040 A 
ATOM     10  C   UNL A   1      29.920  24.893  26.275  1.00  0.00     0.046 C 
ATOM     11  C   UNL A   1      30.413  25.641  25.068  1.00  0.00    -0.027 A 
ATOM     12  C   UNL A   1      30.574  27.037  25.196  1.00  0.00     0.019 A 
ATOM     13  C   UNL A   1      30.676  25.045  23.821  1.00  0.00     0.045 A 
ATOM     14  C   UNL A   1      30.868  25.872  22.705  1.00  0.00     0.027 A 
ATOM     15  C   UNL A   1      30.972  27.255  22.839  1.00  0.00     0.016 A 
BRANCH  13  16
ATOM     16  N   UNL A   1      30.701  23.641  23.683  1.00  0.00    -0.308 N 
ATOM     17  C   UNL A   1      31.734  22.824  23.318  1.00  0.00     0.321 C 
ATOM     18  H   UNL A   1      29.852  23.185  23.878  1.00  0.00     0.171 HD
ATOM     19  O   UNL A   1      31.477  21.769  22.736  1.00  0.00    -0.248 OA
ATOM     20  N   UNL A   1      33.014  23.180  23.653  1.00  0.00    -0.324 N 
ATOM     21  C   UNL A   1      34.151  22.728  22.870  1.00  0.00     0.125 C 
ATOM     22  C   UNL A   1      33.430  23.642  24.972  1.00  0.00     0.125 C 
ATOM     23  C   UNL A   1      35.339  22.750  23.831  1.00  0.00     0.010 C 
ATOM     24  C   UNL A   1      34.945  23.828  24.858  1.00  0.00     0.010 C 
ATOM     25  C   UNL A   1      36.658  23.037  23.131  1.00  0.00     0.010 C 
ATOM     26  C   UNL A   1      35.674  23.684  26.189  1.00  0.00     0.010 C 
ENDBRANCH  13  16
ENDBRANCH   6   9
ENDBRANCH   4   5
ENDBRANCH   3   4
ENDBRANCH   2   3
ENDBRANCH   1   2
BRANCH   1  27
ATOM     27  C   UNL A   1      34.235  31.404  27.964  1.00  0.00     0.021 C 
BRANCH  27  28
ATOM     28  C   UNL A   1      34.700  32.845  28.166  1.00  0.00     0.116 C 
BRANCH  28  29
ATOM     29  N   UNL A   1      33.908  33.593  29.125  1.00  0.00    -0.352 N 
ATOM     30  C   UNL A   1      34.259  34.022  30.407  1.00  0.00     0.251 C 
ATOM     31  H   UNL A   1      32.999  33.832  28.831  1.00  0.00     0.163 HD
ATOM     32  O   UNL A   1      33.472  34.595  31.121  1.00  0.00    -0.269 OA
BRANCH  30  33
ATOM     33  C   UNL A   1      35.673  33.860  30.830  1.00  0.00     0.039 A 
ATOM     34  C   UNL A   1      36.653  34.448  30.023  1.00  0.00     0.014 A 
ATOM     35  C   UNL A   1      36.034  32.990  31.855  1.00  0.00     0.014 A 
ATOM     36  C   UNL A   1      37.968  33.992  30.099  1.00  0.00     0.010 A 
ATOM     37  C   UNL A   1      37.319  32.476  31.875  1.00  0.00     0.010 A 
ATOM     38  C   UNL A   1      38.270  32.932  30.955  1.00  0.00    -0.014 A 
BRANCH  38  39
ATOM     39  C   UNL A   1      39.500  32.149  30.844  1.00  0.00     0.031 A 
ATOM     40  C   UNL A   1      39.529  30.863  30.120  1.00  0.00     0.074 A 
ATOM     41  C   UNL A   1      40.639  32.612  31.401  1.00  0.00     0.049 A 
ATOM     42  N   UNL A   1      40.391  29.926  30.341  1.00  0.00    -0.248 NA
ATOM     43  C   UNL A   1      38.549  30.514  29.098  1.00  0.00     0.031 C 
ATOM     44  C   UNL A   1      41.993  32.094  31.222  1.00  0.00     0.029 A 
ATOM     45  N   UNL A   1      40.743  33.489  32.478  1.00  0.00    -0.354 N 
ATOM     46  C   UNL A   1      40.250  28.980  29.355  1.00  0.00     0.074 A 
ATOM     47  C   UNL A   1      39.061  29.371  28.630  1.00  0.00     0.031 C 
ATOM     48  C   UNL A   1      42.725  32.424  32.298  1.00  0.00     0.029 A 
ATOM     49  C   UNL A   1      41.834  33.054  33.255  1.00  0.00     0.049 A 
ATOM     50  H   UNL A   1      40.165  34.264  32.661  1.00  0.00     0.167 HD
ATOM     51  C   UNL A   1      41.210  28.028  29.184  1.00  0.00     0.034 A 
ATOM     52  C   UNL A   1      41.654  32.675  34.554  1.00  0.00     0.034 A 
ATOM     53  C   UNL A   1      42.273  28.121  30.181  1.00  0.00     0.049 A 
ATOM     54  C   UNL A   1      42.021  31.231  34.837  1.00  0.00     0.074 A 
ATOM     55  C   UNL A   1      43.551  28.656  30.190  1.00  0.00     0.029 A 
ATOM     56  N   UNL A   1      41.975  27.822  31.496  1.00  0.00    -0.354 N 
ATOM     57  N   UNL A   1      42.424  30.379  33.934  1.00  0.00    -0.248 NA
ATOM     58  C   UNL A   1      41.868  30.612  36.154  1.00  0.00     0.031 C 
ATOM     59  C   UNL A   1      43.999  28.706  31.543  1.00  0.00     0.029 A 
ATOM     60  C   UNL A   1      43.002  28.183  32.346  1.00  0.00     0.049 A 
ATOM     61  H   UNL A   1      41.134  27.404  31.792  1.00  0.00     0.167 HD
ATOM     62  C   UNL A   1      42.513  29.132  34.495  1.00  0.00     0.074 A 
ATOM     63  C   UNL A   1      42.160  29.328  35.890  1.00  0.00     0.031 C 
ATOM     64  C   UNL A   1      42.818  28.013  33.777  1.00  0.00     0.034 A 
BRANCH  51  65
ATOM     65  C   UNL A   1      41.298  27.151  27.961  1.00  0.00     0.023 A 
ATOM     66  C   UNL A   1      41.200  25.752  28.107  1.00  0.00     0.031 A 
ATOM     67  C   UNL A   1      41.500  27.615  26.648  1.00  0.00     0.131 A 
ATOM     68  C   UNL A   1      41.401  24.888  27.016  1.00  0.00     0.055 A 
ATOM     69  C   UNL A   1      41.769  26.757  25.575  1.00  0.00     0.041 A 
ATOM     70  F   UNL A   1      41.398  28.917  26.343  1.00  0.00    -0.206 F 
ATOM     71  C   UNL A   1      41.736  25.382  25.758  1.00  0.00     0.022 A 
BRANCH  68  72
ATOM     72  S   UNL A   1      41.206  23.102  27.261  1.00  0.00     0.124 S 
ATOM     73  O   UNL A   1      39.757  22.955  27.341  1.00  0.00    -0.237 OA
ATOM     74  O   UNL A   1      41.846  22.558  26.069  1.00  0.00    -0.237 OA
ATOM     75  O   UNL A   1      41.921  22.851  28.512  1.00  0.00    -0.744 OA
ENDBRANCH  68  72
ENDBRANCH  51  65
BRANCH  52  76
ATOM     76  C   UNL A   1      40.576  33.453  35.237  1.00  0.00     0.023 A 
ATOM     77  C   UNL A   1      39.492  32.715  35.764  1.00  0.00     0.031 A 
ATOM     78  C   UNL A   1      40.767  34.757  35.709  1.00  0.00     0.131 A 
ATOM     79  C   UNL A   1      38.773  33.202  36.861  1.00  0.00     0.055 A 
ATOM     80  C   UNL A   1      39.977  35.280  36.740  1.00  0.00     0.041 A 
ATOM     81  F   UNL A   1      41.797  35.501  35.279  1.00  0.00    -0.206 F 
ATOM     82  C   UNL A   1      39.010  34.485  37.357  1.00  0.00     0.022 A 
BRANCH  79  83
ATOM     83  S   UNL A   1      37.773  32.027  37.826  1.00  0.00     0.124 S 
ATOM     84  O   UNL A   1      38.520  31.940  39.074  1.00  0.00    -0.237 OA
ATOM     85  O   UNL A   1      36.477  32.698  37.903  1.00  0.00    -0.237 OA
ATOM     86  O   UNL A   1      37.774  30.820  37.003  1.00  0.00    -0.744 OA
ENDBRANCH  79  83
ENDBRANCH  52  76
BRANCH  64  87
ATOM     87  C   UNL A   1      42.932  26.653  34.408  1.00  0.00     0.023 A 
ATOM     88  C   UNL A   1      44.168  25.995  34.514  1.00  0.00     0.031 A 
ATOM     89  C   UNL A   1      41.799  25.946  34.860  1.00  0.00     0.131 A 
ATOM     90  C   UNL A   1      44.256  24.731  35.120  1.00  0.00     0.055 A 
ATOM     91  C   UNL A   1      41.879  24.651  35.382  1.00  0.00     0.041 A 
ATOM     92  F   UNL A   1      40.577  26.499  34.857  1.00  0.00    -0.206 F 
ATOM     93  C   UNL A   1      43.117  24.041  35.527  1.00  0.00     0.022 A 
BRANCH  90  94
ATOM     94  S   UNL A   1      45.900  24.046  35.449  1.00  0.00     0.124 S 
ATOM     95  O   UNL A   1      45.664  22.608  35.398  1.00  0.00    -0.237 OA
ATOM     96  O   UNL A   1      46.678  24.601  34.343  1.00  0.00    -0.237 OA
ATOM     97  O   UNL A   1      46.237  24.577  36.768  1.00  0.00    -0.744 OA
ENDBRANCH  90  94
ENDBRANCH  64  87
ENDBRANCH  38  39
ENDBRANCH  30  33
ENDBRANCH  28  29
ENDBRANCH  27  28
ENDBRANCH   1  27
TORSDOF 17
ENDMDL
