MODEL 1
REMARK VINA RESULT:     -11.9      0.000      0.000
REMARK SMILES CC[C@@H](C)[C@@H](NC(=O)Cn1ncc2ccccc2c1=O)C(=O)NCCCCCCNC(=O)c1ccc(-c2c3nc(c(-c4cc(S(=O)(=O)[O-])ccc4F)c4ccc([nH]4)c(-c4cc(S(=O)(=O)[O-])ccc4F)c4nc(c(-c5cc(S(=O)(=O)[O-])ccc5F)c5ccc2[nH]5)C=C4)C=C3)cc1
REMARK SMILES IDX 26 1 25 2 24 3 23 4 21 5 22 6 5 8 3 9 4 10 2 11 1 12 6 13
REMARK SMILES IDX 7 14 8 16 9 17 10 18 11 19 19 20 12 21 18 22 20 23 13 24
REMARK SMILES IDX 17 25 14 26 16 27 15 28 27 29 28 30 29 31 30 32 31 33 32 35
REMARK SMILES IDX 33 36 34 37 95 38 35 39 94 40 36 41 37 42 38 43 88 44 39 45
REMARK SMILES IDX 93 46 87 47 89 48 40 49 92 50 86 51 85 52 41 54 73 55 53 56
REMARK SMILES IDX 72 57 54 58 57 59 71 60 90 61 55 62 56 63 70 65 91 66 58 67
REMARK SMILES IDX 42 68 43 69 51 70 44 71 50 72 52 73 49 74 45 75 46 76 47 77
REMARK SMILES IDX 48 78 74 79 75 80 83 81 76 82 82 83 84 84 81 85 77 86 78 87
REMARK SMILES IDX 79 88 80 89 59 90 60 91 68 92 61 93 67 94 69 95 66 96 62 97
REMARK SMILES IDX 63 98 64 99 65 100
REMARK H PARENT 23 7 6 15 30 34 89 53 57 64
REMARK Flexibility Score: inf
ROOT
ATOM      1  C   UNL A   1      29.536  31.855  24.408  1.00  0.00     0.002 C 
ENDROOT
BRANCH   1   2
ATOM      2  C   UNL A   1      28.635  31.099  23.445  1.00  0.00     0.021 C 
BRANCH   2   3
ATOM      3  C   UNL A   1      29.530  29.885  22.722  1.00  0.00     0.116 C 
BRANCH   3   4
ATOM      4  N   UNL A   1      29.601  27.841  23.075  1.00  0.00    -0.354 N 
ATOM      5  C   UNL A   1      30.393  26.759  23.582  1.00  0.00     0.242 C 
ATOM      6  O   UNL A   1      29.712  25.731  23.763  1.00  0.00    -0.273 OA
ATOM      7  H   UNL A   1      28.745  27.460  22.772  1.00  0.00     0.163 HD
BRANCH   5   8
ATOM      8  C   UNL A   1      31.983  26.662  23.826  1.00  0.00     0.174 C 
BRANCH   8   9
ATOM      9  C   UNL A   1      32.329  26.654  25.369  1.00  0.00     0.018 C 
ATOM     10  C   UNL A   1      31.228  27.349  26.186  1.00  0.00     0.010 C 
BRANCH   9  11
ATOM     11  C   UNL A   1      33.732  27.123  25.807  1.00  0.00     0.002 C 
ATOM     12  C   UNL A   1      33.622  28.230  26.865  1.00  0.00     0.004 C 
ENDBRANCH   9  11
ENDBRANCH   8   9
BRANCH   8  13
ATOM     13  N   UNL A   1      32.855  25.764  23.033  1.00  0.00    -0.342 N 
ATOM     14  C   UNL A   1      32.917  24.410  22.888  1.00  0.00     0.242 C 
ATOM     15  H   UNL A   1      33.530  26.243  22.502  1.00  0.00     0.164 HD
ATOM     16  O   UNL A   1      33.728  23.966  22.066  1.00  0.00    -0.273 OA
BRANCH  14  17
ATOM     17  C   UNL A   1      31.890  23.500  23.512  1.00  0.00     0.248 C 
BRANCH  17  18
ATOM     18  N   UNL A   1      32.451  22.241  23.896  1.00  0.00    -0.220 N 
ATOM     19  N   UNL A   1      33.040  21.983  25.646  1.00  0.00    -0.177 NA
ATOM     20  C   UNL A   1      32.178  20.850  22.805  1.00  0.00     0.275 A 
ATOM     21  C   UNL A   1      33.156  20.554  26.210  1.00  0.00     0.142 A 
ATOM     22  C   UNL A   1      32.579  19.107  23.519  1.00  0.00     0.050 A 
ATOM     23  O   UNL A   1      31.809  21.028  21.649  1.00  0.00    -0.267 OA
ATOM     24  C   UNL A   1      32.930  18.956  25.186  1.00  0.00     0.007 A 
ATOM     25  C   UNL A   1      32.777  18.024  22.700  1.00  0.00     0.014 A 
ATOM     26  C   UNL A   1      33.290  17.741  25.710  1.00  0.00     0.010 A 
ATOM     27  C   UNL A   1      33.245  16.855  23.342  1.00  0.00     0.001 A 
ATOM     28  C   UNL A   1      33.461  16.713  24.765  1.00  0.00     0.001 A 
ENDBRANCH  17  18
ENDBRANCH  14  17
ENDBRANCH   8  13
ENDBRANCH   5   8
ENDBRANCH   3   4
ENDBRANCH   2   3
ENDBRANCH   1   2
BRANCH   1  29
ATOM     29  C   UNL A   1      30.683  30.993  24.953  1.00  0.00     0.002 C 
BRANCH  29  30
ATOM     30  C   UNL A   1      30.999  31.307  26.398  1.00  0.00     0.021 C 
BRANCH  30  31
ATOM     31  C   UNL A   1      32.349  31.976  26.533  1.00  0.00     0.116 C 
BRANCH  31  32
ATOM     32  N   UNL A   1      32.264  33.289  27.195  1.00  0.00    -0.352 N 
ATOM     33  C   UNL A   1      33.166  33.847  28.060  1.00  0.00     0.251 C 
ATOM     34  H   UNL A   1      31.465  33.828  26.993  1.00  0.00     0.163 HD
ATOM     35  O   UNL A   1      32.961  34.904  28.635  1.00  0.00    -0.269 OA
BRANCH  33  36
ATOM     36  C   UNL A   1      34.389  33.067  28.227  1.00  0.00     0.039 A 
ATOM     37  C   UNL A   1      34.250  31.875  28.939  1.00  0.00     0.014 A 
ATOM     38  C   UNL A   1      35.614  33.710  28.069  1.00  0.00     0.014 A 
ATOM     39  C   UNL A   1      35.324  31.441  29.682  1.00  0.00     0.010 A 
ATOM     40  C   UNL A   1      36.732  33.155  28.677  1.00  0.00     0.010 A 
ATOM     41  C   UNL A   1      36.586  32.042  29.521  1.00  0.00    -0.014 A 
BRANCH  41  42
ATOM     42  C   UNL A   1      37.748  31.428  30.197  1.00  0.00     0.031 A 
ATOM     43  C   UNL A   1      38.647  30.453  29.500  1.00  0.00     0.074 A 
ATOM     44  C   UNL A   1      37.977  31.798  31.471  1.00  0.00     0.049 A 
ATOM     45  N   UNL A   1      39.666  29.795  29.988  1.00  0.00    -0.248 NA
ATOM     46  C   UNL A   1      38.366  30.159  28.085  1.00  0.00     0.031 C 
ATOM     47  C   UNL A   1      37.144  32.740  32.227  1.00  0.00     0.029 A 
ATOM     48  N   UNL A   1      38.972  31.464  32.347  1.00  0.00    -0.354 N 
ATOM     49  C   UNL A   1      40.133  28.992  28.955  1.00  0.00     0.074 A 
ATOM     50  C   UNL A   1      39.257  29.210  27.825  1.00  0.00     0.031 C 
ATOM     51  C   UNL A   1      37.706  32.972  33.414  1.00  0.00     0.029 A 
ATOM     52  C   UNL A   1      38.855  32.092  33.563  1.00  0.00     0.049 A 
ATOM     53  H   UNL A   1      39.700  30.839  32.127  1.00  0.00     0.167 HD
ATOM     54  C   UNL A   1      41.207  28.166  28.957  1.00  0.00     0.034 A 
ATOM     55  C   UNL A   1      39.559  31.946  34.699  1.00  0.00     0.034 A 
ATOM     56  C   UNL A   1      42.062  27.985  30.107  1.00  0.00     0.049 A 
ATOM     57  C   UNL A   1      40.719  30.999  34.686  1.00  0.00     0.074 A 
ATOM     58  C   UNL A   1      43.182  27.182  30.222  1.00  0.00     0.029 A 
ATOM     59  N   UNL A   1      41.901  28.617  31.336  1.00  0.00    -0.354 N 
ATOM     60  N   UNL A   1      41.164  30.261  33.697  1.00  0.00    -0.248 NA
ATOM     61  C   UNL A   1      41.478  30.866  35.932  1.00  0.00     0.031 C 
ATOM     62  C   UNL A   1      43.650  27.268  31.533  1.00  0.00     0.029 A 
ATOM     63  C   UNL A   1      42.885  28.199  32.219  1.00  0.00     0.049 A 
ATOM     64  H   UNL A   1      41.192  29.266  31.547  1.00  0.00     0.167 HD
ATOM     65  C   UNL A   1      42.266  29.579  34.195  1.00  0.00     0.074 A 
ATOM     66  C   UNL A   1      42.441  30.031  35.563  1.00  0.00     0.031 C 
ATOM     67  C   UNL A   1      43.050  28.657  33.582  1.00  0.00     0.034 A 
BRANCH  54  68
ATOM     68  C   UNL A   1      41.539  27.401  27.695  1.00  0.00     0.023 A 
ATOM     69  C   UNL A   1      41.402  26.000  27.660  1.00  0.00     0.031 A 
ATOM     70  C   UNL A   1      42.109  28.035  26.575  1.00  0.00     0.131 A 
ATOM     71  C   UNL A   1      41.864  25.278  26.551  1.00  0.00     0.055 A 
ATOM     72  C   UNL A   1      42.514  27.316  25.448  1.00  0.00     0.041 A 
ATOM     73  F   UNL A   1      42.270  29.368  26.553  1.00  0.00    -0.206 F 
ATOM     74  C   UNL A   1      42.407  25.929  25.441  1.00  0.00     0.022 A 
BRANCH  71  75
ATOM     75  S   UNL A   1      41.858  23.463  26.542  1.00  0.00     0.124 S 
ATOM     76  O   UNL A   1      40.437  23.168  26.709  1.00  0.00    -0.237 OA
ATOM     77  O   UNL A   1      42.406  23.166  25.222  1.00  0.00    -0.237 OA
ATOM     78  O   UNL A   1      42.704  23.104  27.674  1.00  0.00    -0.744 OA
ENDBRANCH  71  75
ENDBRANCH  54  68
BRANCH  55  79
ATOM     79  C   UNL A   1      39.164  32.755  35.888  1.00  0.00     0.023 A 
ATOM     80  C   UNL A   1      39.749  34.017  36.117  1.00  0.00     0.031 A 
ATOM     81  C   UNL A   1      38.358  32.206  36.894  1.00  0.00     0.131 A 
ATOM     82  C   UNL A   1      39.608  34.631  37.367  1.00  0.00     0.055 A 
ATOM     83  C   UNL A   1      38.142  32.868  38.103  1.00  0.00     0.041 A 
ATOM     84  F   UNL A   1      37.800  30.996  36.729  1.00  0.00    -0.206 F 
ATOM     85  C   UNL A   1      38.790  34.074  38.354  1.00  0.00     0.022 A 
BRANCH  82  86
ATOM     86  S   UNL A   1      40.627  36.065  37.814  1.00  0.00     0.124 S 
ATOM     87  O   UNL A   1      41.335  36.337  36.567  1.00  0.00    -0.237 OA
ATOM     88  O   UNL A   1      39.611  37.045  38.191  1.00  0.00    -0.237 OA
ATOM     89  O   UNL A   1      41.450  35.575  38.914  1.00  0.00    -0.744 OA
ENDBRANCH  82  86
ENDBRANCH  55  79
BRANCH  67  90
ATOM     90  C   UNL A   1      44.186  28.054  34.376  1.00  0.00     0.023 A 
ATOM     91  C   UNL A   1      43.966  26.896  35.147  1.00  0.00     0.031 A 
ATOM     92  C   UNL A   1      45.435  28.690  34.477  1.00  0.00     0.131 A 
ATOM     93  C   UNL A   1      44.962  26.439  36.017  1.00  0.00     0.055 A 
ATOM     94  C   UNL A   1      46.450  28.191  35.293  1.00  0.00     0.041 A 
ATOM     95  F   UNL A   1      45.692  29.806  33.773  1.00  0.00    -0.206 F 
ATOM     96  C   UNL A   1      46.210  27.070  36.081  1.00  0.00     0.022 A 
BRANCH  93  97
ATOM     97  S   UNL A   1      44.642  25.078  37.172  1.00  0.00     0.124 S 
ATOM     98  O   UNL A   1      43.261  25.340  37.570  1.00  0.00    -0.237 OA
ATOM     99  O   UNL A   1      44.836  23.906  36.323  1.00  0.00    -0.237 OA
ATOM    100  O   UNL A   1      45.638  25.265  38.222  1.00  0.00    -0.744 OA
ENDBRANCH  93  97
ENDBRANCH  67  90
ENDBRANCH  41  42
ENDBRANCH  33  36
ENDBRANCH  31  32
ENDBRANCH  30  31
ENDBRANCH  29  30
ENDBRANCH   1  29
TORSDOF 21
ENDMDL
MODEL 2
REMARK VINA RESULT:     -11.9      0.786      7.559
REMARK SMILES CC[C@@H](C)[C@@H](NC(=O)Cn1ncc2ccccc2c1=O)C(=O)NCCCCCCNC(=O)c1ccc(-c2c3nc(c(-c4cc(S(=O)(=O)[O-])ccc4F)c4ccc([nH]4)c(-c4cc(S(=O)(=O)[O-])ccc4F)c4nc(c(-c5cc(S(=O)(=O)[O-])ccc5F)c5ccc2[nH]5)C=C4)C=C3)cc1
REMARK SMILES IDX 26 1 25 2 24 3 23 4 21 5 22 6 5 8 3 9 4 10 2 11 1 12 6 13
REMARK SMILES IDX 7 14 8 16 9 17 10 18 11 19 19 20 12 21 18 22 20 23 13 24
REMARK SMILES IDX 17 25 14 26 16 27 15 28 27 29 28 30 29 31 30 32 31 33 32 35
REMARK SMILES IDX 33 36 34 37 95 38 35 39 94 40 36 41 37 42 38 43 88 44 39 45
REMARK SMILES IDX 93 46 87 47 89 48 40 49 92 50 86 51 85 52 41 54 73 55 53 56
REMARK SMILES IDX 72 57 54 58 57 59 71 60 90 61 55 62 56 63 70 65 91 66 58 67
REMARK SMILES IDX 42 68 43 69 51 70 44 71 50 72 52 73 49 74 45 75 46 76 47 77
REMARK SMILES IDX 48 78 74 79 75 80 83 81 76 82 82 83 84 84 81 85 77 86 78 87
REMARK SMILES IDX 79 88 80 89 59 90 60 91 68 92 61 93 67 94 69 95 66 96 62 97
REMARK SMILES IDX 63 98 64 99 65 100
REMARK H PARENT 23 7 6 15 30 34 89 53 57 64
REMARK Flexibility Score: inf
ROOT
ATOM      1  C   UNL A   1      29.367  31.566  24.232  1.00  0.00     0.002 C 
ENDROOT
BRANCH   1   2
ATOM      2  C   UNL A   1      28.840  30.519  23.265  1.00  0.00     0.021 C 
BRANCH   2   3
ATOM      3  C   UNL A   1      30.113  29.972  22.328  1.00  0.00     0.116 C 
BRANCH   3   4
ATOM      4  N   UNL A   1      30.847  28.058  22.002  1.00  0.00    -0.354 N 
ATOM      5  C   UNL A   1      31.618  26.982  22.552  1.00  0.00     0.242 C 
ATOM      6  O   UNL A   1      31.461  25.924  21.911  1.00  0.00    -0.273 OA
ATOM      7  H   UNL A   1      30.545  27.775  21.109  1.00  0.00     0.163 HD
BRANCH   5   8
ATOM      8  C   UNL A   1      32.692  26.983  23.754  1.00  0.00     0.174 C 
BRANCH   8   9
ATOM      9  C   UNL A   1      31.988  27.178  25.155  1.00  0.00     0.018 C 
ATOM     10  C   UNL A   1      30.463  27.036  25.033  1.00  0.00     0.010 C 
BRANCH   9  11
ATOM     11  C   UNL A   1      32.369  28.412  25.999  1.00  0.00     0.002 C 
ATOM     12  C   UNL A   1      33.889  28.631  25.975  1.00  0.00     0.004 C 
ENDBRANCH   9  11
ENDBRANCH   8   9
BRANCH   8  13
ATOM     13  N   UNL A   1      33.828  26.031  23.804  1.00  0.00    -0.342 N 
ATOM     14  C   UNL A   1      33.954  24.749  24.251  1.00  0.00     0.242 C 
ATOM     15  H   UNL A   1      34.664  26.401  23.440  1.00  0.00     0.164 HD
ATOM     16  O   UNL A   1      35.044  24.193  24.072  1.00  0.00    -0.273 OA
BRANCH  14  17
ATOM     17  C   UNL A   1      32.763  23.956  24.724  1.00  0.00     0.248 C 
BRANCH  17  18
ATOM     18  N   UNL A   1      33.053  22.557  24.818  1.00  0.00    -0.220 N 
ATOM     19  N   UNL A   1      33.547  21.820  26.458  1.00  0.00    -0.177 NA
ATOM     20  C   UNL A   1      32.524  21.514  23.465  1.00  0.00     0.275 A 
ATOM     21  C   UNL A   1      33.363  20.310  26.703  1.00  0.00     0.142 A 
ATOM     22  C   UNL A   1      32.553  19.615  23.782  1.00  0.00     0.050 A 
ATOM     23  O   UNL A   1      32.219  22.004  22.382  1.00  0.00    -0.267 OA
ATOM     24  C   UNL A   1      32.838  19.046  25.369  1.00  0.00     0.007 A 
ATOM     25  C   UNL A   1      32.544  18.714  22.747  1.00  0.00     0.014 A 
ATOM     26  C   UNL A   1      32.937  17.700  25.615  1.00  0.00     0.010 A 
ATOM     27  C   UNL A   1      32.756  17.366  23.114  1.00  0.00     0.001 A 
ATOM     28  C   UNL A   1      32.914  16.884  24.470  1.00  0.00     0.001 A 
ENDBRANCH  17  18
ENDBRANCH  14  17
ENDBRANCH   8  13
ENDBRANCH   5   8
ENDBRANCH   3   4
ENDBRANCH   2   3
ENDBRANCH   1   2
BRANCH   1  29
ATOM     29  C   UNL A   1      30.645  31.120  24.955  1.00  0.00     0.002 C 
BRANCH  29  30
ATOM     30  C   UNL A   1      30.766  31.728  26.334  1.00  0.00     0.021 C 
BRANCH  30  31
ATOM     31  C   UNL A   1      32.162  32.253  26.585  1.00  0.00     0.116 C 
BRANCH  31  32
ATOM     32  N   UNL A   1      32.160  33.609  27.161  1.00  0.00    -0.352 N 
ATOM     33  C   UNL A   1      33.088  34.157  28.005  1.00  0.00     0.251 C 
ATOM     34  H   UNL A   1      31.404  34.187  26.911  1.00  0.00     0.163 HD
ATOM     35  O   UNL A   1      32.950  35.260  28.509  1.00  0.00    -0.269 OA
BRANCH  33  36
ATOM     36  C   UNL A   1      34.251  33.307  28.241  1.00  0.00     0.039 A 
ATOM     37  C   UNL A   1      34.023  32.184  29.038  1.00  0.00     0.014 A 
ATOM     38  C   UNL A   1      35.519  33.849  28.049  1.00  0.00     0.014 A 
ATOM     39  C   UNL A   1      35.060  31.732  29.823  1.00  0.00     0.010 A 
ATOM     40  C   UNL A   1      36.592  33.262  28.707  1.00  0.00     0.010 A 
ATOM     41  C   UNL A   1      36.363  32.229  29.630  1.00  0.00    -0.014 A 
BRANCH  41  42
ATOM     42  C   UNL A   1      37.475  31.585  30.361  1.00  0.00     0.031 A 
ATOM     43  C   UNL A   1      37.794  31.929  31.784  1.00  0.00     0.074 A 
ATOM     44  C   UNL A   1      38.184  30.655  29.693  1.00  0.00     0.049 A 
ATOM     45  N   UNL A   1      38.774  31.486  32.527  1.00  0.00    -0.248 NA
ATOM     46  C   UNL A   1      36.923  32.904  32.460  1.00  0.00     0.031 C 
ATOM     47  C   UNL A   1      37.942  30.265  28.300  1.00  0.00     0.029 A 
ATOM     48  N   UNL A   1      39.221  29.854  30.084  1.00  0.00    -0.354 N 
ATOM     49  C   UNL A   1      38.656  32.142  33.746  1.00  0.00     0.074 A 
ATOM     50  C   UNL A   1      37.537  33.049  33.628  1.00  0.00     0.031 C 
ATOM     51  C   UNL A   1      38.742  29.247  27.982  1.00  0.00     0.029 A 
ATOM     52  C   UNL A   1      39.652  29.007  29.091  1.00  0.00     0.049 A 
ATOM     53  H   UNL A   1      39.617  29.880  30.984  1.00  0.00     0.167 HD
ATOM     54  C   UNL A   1      39.410  31.978  34.860  1.00  0.00     0.034 A 
ATOM     55  C   UNL A   1      40.696  28.160  29.050  1.00  0.00     0.034 A 
ATOM     56  C   UNL A   1      40.516  31.052  34.937  1.00  0.00     0.049 A 
ATOM     57  C   UNL A   1      41.535  28.026  30.283  1.00  0.00     0.074 A 
ATOM     58  C   UNL A   1      41.343  30.796  36.015  1.00  0.00     0.029 A 
ATOM     59  N   UNL A   1      40.945  30.225  33.904  1.00  0.00    -0.354 N 
ATOM     60  N   UNL A   1      41.402  28.635  31.437  1.00  0.00    -0.248 NA
ATOM     61  C   UNL A   1      42.659  27.089  30.218  1.00  0.00     0.031 C 
ATOM     62  C   UNL A   1      42.314  29.878  35.614  1.00  0.00     0.029 A 
ATOM     63  C   UNL A   1      42.041  29.480  34.313  1.00  0.00     0.049 A 
ATOM     64  H   UNL A   1      40.530  30.175  33.012  1.00  0.00     0.167 HD
ATOM     65  C   UNL A   1      42.421  28.149  32.246  1.00  0.00     0.074 A 
ATOM     66  C   UNL A   1      43.132  27.162  31.456  1.00  0.00     0.031 C 
ATOM     67  C   UNL A   1      42.743  28.498  33.517  1.00  0.00     0.034 A 
BRANCH  54  68
ATOM     68  C   UNL A   1      39.078  32.795  36.089  1.00  0.00     0.023 A 
ATOM     69  C   UNL A   1      39.628  34.081  36.255  1.00  0.00     0.031 A 
ATOM     70  C   UNL A   1      38.326  32.259  37.152  1.00  0.00     0.131 A 
ATOM     71  C   UNL A   1      39.454  34.767  37.464  1.00  0.00     0.055 A 
ATOM     72  C   UNL A   1      38.106  32.971  38.332  1.00  0.00     0.041 A 
ATOM     73  F   UNL A   1      37.781  31.035  37.054  1.00  0.00    -0.206 F 
ATOM     74  C   UNL A   1      38.686  34.225  38.498  1.00  0.00     0.022 A 
BRANCH  71  75
ATOM     75  S   UNL A   1      40.287  36.349  37.775  1.00  0.00     0.124 S 
ATOM     76  O   UNL A   1      40.478  36.859  36.419  1.00  0.00    -0.237 OA
ATOM     77  O   UNL A   1      39.294  37.061  38.575  1.00  0.00    -0.237 OA
ATOM     78  O   UNL A   1      41.509  35.970  38.474  1.00  0.00    -0.744 OA
ENDBRANCH  71  75
ENDBRANCH  54  68
BRANCH  55  79
ATOM     79  C   UNL A   1      40.934  27.388  27.798  1.00  0.00     0.023 A 
ATOM     80  C   UNL A   1      40.666  26.004  27.752  1.00  0.00     0.031 A 
ATOM     81  C   UNL A   1      41.603  27.969  26.712  1.00  0.00     0.131 A 
ATOM     82  C   UNL A   1      41.165  25.235  26.695  1.00  0.00     0.055 A 
ATOM     83  C   UNL A   1      42.013  27.213  25.614  1.00  0.00     0.041 A 
ATOM     84  F   UNL A   1      41.901  29.278  26.723  1.00  0.00    -0.206 F 
ATOM     85  C   UNL A   1      41.818  25.834  25.614  1.00  0.00     0.022 A 
BRANCH  82  86
ATOM     86  S   UNL A   1      41.148  23.422  26.781  1.00  0.00     0.124 S 
ATOM     87  O   UNL A   1      41.568  23.178  28.157  1.00  0.00    -0.237 OA
ATOM     88  O   UNL A   1      39.749  23.124  26.485  1.00  0.00    -0.237 OA
ATOM     89  O   UNL A   1      42.097  23.017  25.749  1.00  0.00    -0.744 OA
ENDBRANCH  82  86
ENDBRANCH  55  79
BRANCH  67  90
ATOM     90  C   UNL A   1      43.928  27.813  34.159  1.00  0.00     0.023 A 
ATOM     91  C   UNL A   1      43.747  26.604  34.859  1.00  0.00     0.031 A 
ATOM     92  C   UNL A   1      45.199  28.413  34.191  1.00  0.00     0.131 A 
ATOM     93  C   UNL A   1      44.803  26.062  35.598  1.00  0.00     0.055 A 
ATOM     94  C   UNL A   1      46.268  27.832  34.872  1.00  0.00     0.041 A 
ATOM     95  F   UNL A   1      45.422  29.573  33.551  1.00  0.00    -0.206 F 
ATOM     96  C   UNL A   1      46.068  26.660  35.595  1.00  0.00     0.022 A 
BRANCH  93  97
ATOM     97  S   UNL A   1      44.550  24.625  36.674  1.00  0.00     0.124 S 
ATOM     98  O   UNL A   1      45.767  23.853  36.436  1.00  0.00    -0.237 OA
ATOM     99  O   UNL A   1      44.452  25.245  37.993  1.00  0.00    -0.237 OA
ATOM    100  O   UNL A   1      43.321  24.020  36.172  1.00  0.00    -0.744 OA
ENDBRANCH  93  97
ENDBRANCH  67  90
ENDBRANCH  41  42
ENDBRANCH  33  36
ENDBRANCH  31  32
ENDBRANCH  30  31
ENDBRANCH  29  30
ENDBRANCH   1  29
TORSDOF 21
ENDMDL
MODEL 3
REMARK VINA RESULT:     -11.9      2.060      7.802
REMARK SMILES CC[C@@H](C)[C@@H](NC(=O)Cn1ncc2ccccc2c1=O)C(=O)NCCCCCCNC(=O)c1ccc(-c2c3nc(c(-c4cc(S(=O)(=O)[O-])ccc4F)c4ccc([nH]4)c(-c4cc(S(=O)(=O)[O-])ccc4F)c4nc(c(-c5cc(S(=O)(=O)[O-])ccc5F)c5ccc2[nH]5)C=C4)C=C3)cc1
REMARK SMILES IDX 26 1 25 2 24 3 23 4 21 5 22 6 5 8 3 9 4 10 2 11 1 12 6 13
REMARK SMILES IDX 7 14 8 16 9 17 10 18 11 19 19 20 12 21 18 22 20 23 13 24
REMARK SMILES IDX 17 25 14 26 16 27 15 28 27 29 28 30 29 31 30 32 31 33 32 35
REMARK SMILES IDX 33 36 34 37 95 38 35 39 94 40 36 41 37 42 38 43 88 44 39 45
REMARK SMILES IDX 93 46 87 47 89 48 40 49 92 50 86 51 85 52 41 54 73 55 53 56
REMARK SMILES IDX 72 57 54 58 57 59 71 60 90 61 55 62 56 63 70 65 91 66 58 67
REMARK SMILES IDX 42 68 43 69 51 70 44 71 50 72 52 73 49 74 45 75 46 76 47 77
REMARK SMILES IDX 48 78 74 79 75 80 83 81 76 82 82 83 84 84 81 85 77 86 78 87
REMARK SMILES IDX 79 88 80 89 59 90 60 91 68 92 61 93 67 94 69 95 66 96 62 97
REMARK SMILES IDX 63 98 64 99 65 100
REMARK H PARENT 23 7 6 15 30 34 89 53 57 64
REMARK Flexibility Score: inf
ROOT
ATOM      1  C   UNL A   1      33.183  28.719  26.932  1.00  0.00     0.002 C 
ENDROOT
BRANCH   1   2
ATOM      2  C   UNL A   1      31.793  29.314  27.086  1.00  0.00     0.021 C 
BRANCH   2   3
ATOM      3  C   UNL A   1      31.498  30.319  25.782  1.00  0.00     0.116 C 
BRANCH   3   4
ATOM      4  N   UNL A   1      30.808  29.909  23.868  1.00  0.00    -0.354 N 
ATOM      5  C   UNL A   1      30.541  28.880  22.906  1.00  0.00     0.242 C 
ATOM      6  O   UNL A   1      29.840  29.297  21.963  1.00  0.00    -0.273 OA
ATOM      7  H   UNL A   1      30.565  30.768  23.452  1.00  0.00     0.163 HD
BRANCH   5   8
ATOM      8  C   UNL A   1      31.093  27.368  22.824  1.00  0.00     0.174 C 
BRANCH   8   9
ATOM      9  C   UNL A   1      30.322  26.418  23.826  1.00  0.00     0.018 C 
ATOM     10  C   UNL A   1      28.811  26.694  23.797  1.00  0.00     0.010 C 
BRANCH   9  11
ATOM     11  C   UNL A   1      30.843  26.306  25.273  1.00  0.00     0.002 C 
ATOM     12  C   UNL A   1      30.291  25.042  25.947  1.00  0.00     0.004 C 
ENDBRANCH   9  11
ENDBRANCH   8   9
BRANCH   8  13
ATOM     13  N   UNL A   1      31.416  26.709  21.535  1.00  0.00    -0.342 N 
ATOM     14  C   UNL A   1      32.508  26.032  21.079  1.00  0.00     0.242 C 
ATOM     15  H   UNL A   1      30.693  26.775  20.871  1.00  0.00     0.164 HD
ATOM     16  O   UNL A   1      32.428  25.523  19.955  1.00  0.00    -0.273 OA
BRANCH  14  17
ATOM     17  C   UNL A   1      33.671  25.708  21.982  1.00  0.00     0.248 C 
BRANCH  17  18
ATOM     18  N   UNL A   1      33.362  24.647  22.894  1.00  0.00    -0.220 N 
ATOM     19  N   UNL A   1      32.724  23.021  22.243  1.00  0.00    -0.177 NA
ATOM     20  C   UNL A   1      33.995  24.784  24.561  1.00  0.00     0.275 A 
ATOM     21  C   UNL A   1      32.874  21.746  23.095  1.00  0.00     0.142 A 
ATOM     22  C   UNL A   1      33.924  23.192  25.640  1.00  0.00     0.050 A 
ATOM     23  O   UNL A   1      34.396  25.862  24.989  1.00  0.00    -0.267 OA
ATOM     24  C   UNL A   1      33.500  21.709  24.901  1.00  0.00     0.007 A 
ATOM     25  C   UNL A   1      34.014  23.247  27.009  1.00  0.00     0.014 A 
ATOM     26  C   UNL A   1      33.369  20.571  25.656  1.00  0.00     0.010 A 
ATOM     27  C   UNL A   1      33.760  22.031  27.683  1.00  0.00     0.001 A 
ATOM     28  C   UNL A   1      33.483  20.763  27.044  1.00  0.00     0.001 A 
ENDBRANCH  17  18
ENDBRANCH  14  17
ENDBRANCH   8  13
ENDBRANCH   5   8
ENDBRANCH   3   4
ENDBRANCH   2   3
ENDBRANCH   1   2
BRANCH   1  29
ATOM     29  C   UNL A   1      34.297  29.766  27.065  1.00  0.00     0.002 C 
BRANCH  29  30
ATOM     30  C   UNL A   1      33.976  30.816  28.105  1.00  0.00     0.021 C 
BRANCH  30  31
ATOM     31  C   UNL A   1      34.520  32.169  27.707  1.00  0.00     0.116 C 
BRANCH  31  32
ATOM     32  N   UNL A   1      33.629  33.274  28.102  1.00  0.00    -0.352 N 
ATOM     33  C   UNL A   1      33.667  34.002  29.261  1.00  0.00     0.251 C 
ATOM     34  H   UNL A   1      32.924  33.517  27.459  1.00  0.00     0.163 HD
ATOM     35  O   UNL A   1      32.823  34.838  29.542  1.00  0.00    -0.269 OA
BRANCH  33  36
ATOM     36  C   UNL A   1      34.805  33.690  30.121  1.00  0.00     0.039 A 
ATOM     37  C   UNL A   1      36.044  34.148  29.669  1.00  0.00     0.014 A 
ATOM     38  C   UNL A   1      34.676  32.656  31.044  1.00  0.00     0.014 A 
ATOM     39  C   UNL A   1      37.159  33.407  29.991  1.00  0.00     0.010 A 
ATOM     40  C   UNL A   1      35.830  32.036  31.503  1.00  0.00     0.010 A 
ATOM     41  C   UNL A   1      37.074  32.378  30.948  1.00  0.00    -0.014 A 
BRANCH  41  42
ATOM     42  C   UNL A   1      38.325  31.735  31.400  1.00  0.00     0.031 A 
ATOM     43  C   UNL A   1      38.987  32.105  32.692  1.00  0.00     0.074 A 
ATOM     44  C   UNL A   1      38.840  30.780  30.602  1.00  0.00     0.049 A 
ATOM     45  N   UNL A   1      40.115  31.664  33.183  1.00  0.00    -0.248 NA
ATOM     46  C   UNL A   1      38.317  33.107  33.537  1.00  0.00     0.031 C 
ATOM     47  C   UNL A   1      38.261  30.363  29.321  1.00  0.00     0.029 A 
ATOM     48  N   UNL A   1      39.934  29.972  30.746  1.00  0.00    -0.354 N 
ATOM     49  C   UNL A   1      40.306  32.348  34.377  1.00  0.00     0.074 A 
ATOM     50  C   UNL A   1      39.200  33.269  34.515  1.00  0.00     0.031 C 
ATOM     51  C   UNL A   1      38.949  29.326  28.841  1.00  0.00     0.029 A 
ATOM     52  C   UNL A   1      40.101  29.097  29.700  1.00  0.00     0.049 A 
ATOM     53  H   UNL A   1      40.539  30.013  31.521  1.00  0.00     0.167 HD
ATOM     54  C   UNL A   1      41.308  32.198  35.276  1.00  0.00     0.034 A 
ATOM     55  C   UNL A   1      41.096  28.235  29.425  1.00  0.00     0.034 A 
ATOM     56  C   UNL A   1      42.391  31.257  35.103  1.00  0.00     0.049 A 
ATOM     57  C   UNL A   1      42.210  28.115  30.417  1.00  0.00     0.074 A 
ATOM     58  C   UNL A   1      43.455  31.013  35.951  1.00  0.00     0.029 A 
ATOM     59  N   UNL A   1      42.546  30.401  34.017  1.00  0.00    -0.354 N 
ATOM     60  N   UNL A   1      42.370  28.751  31.553  1.00  0.00    -0.248 NA
ATOM     61  C   UNL A   1      43.276  27.160  30.102  1.00  0.00     0.031 C 
ATOM     62  C   UNL A   1      44.290  30.071  35.348  1.00  0.00     0.029 A 
ATOM     63  C   UNL A   1      43.703  29.650  34.164  1.00  0.00     0.049 A 
ATOM     64  H   UNL A   1      41.925  30.338  33.256  1.00  0.00     0.167 HD
ATOM     65  C   UNL A   1      43.552  28.268  32.100  1.00  0.00     0.074 A 
ATOM     66  C   UNL A   1      44.039  27.254  31.185  1.00  0.00     0.031 C 
ATOM     67  C   UNL A   1      44.179  28.640  33.244  1.00  0.00     0.034 A 
BRANCH  54  68
ATOM     68  C   UNL A   1      41.296  33.045  36.529  1.00  0.00     0.023 A 
ATOM     69  C   UNL A   1      40.492  32.676  37.625  1.00  0.00     0.031 A 
ATOM     70  C   UNL A   1      41.972  34.278  36.595  1.00  0.00     0.131 A 
ATOM     71  C   UNL A   1      40.354  33.544  38.717  1.00  0.00     0.055 A 
ATOM     72  C   UNL A   1      41.878  35.112  37.709  1.00  0.00     0.041 A 
ATOM     73  F   UNL A   1      42.748  34.686  35.577  1.00  0.00    -0.206 F 
ATOM     74  C   UNL A   1      41.052  34.753  38.770  1.00  0.00     0.022 A 
BRANCH  71  75
ATOM     75  S   UNL A   1      39.199  33.179  40.068  1.00  0.00     0.124 S 
ATOM     76  O   UNL A   1      38.434  32.064  39.515  1.00  0.00    -0.237 OA
ATOM     77  O   UNL A   1      40.108  32.833  41.157  1.00  0.00    -0.237 OA
ATOM     78  O   UNL A   1      38.453  34.420  40.236  1.00  0.00    -0.744 OA
ENDBRANCH  71  75
ENDBRANCH  54  68
BRANCH  55  79
ATOM     79  C   UNL A   1      41.012  27.432  28.172  1.00  0.00     0.023 A 
ATOM     80  C   UNL A   1      40.722  26.053  28.227  1.00  0.00     0.031 A 
ATOM     81  C   UNL A   1      41.405  27.977  26.942  1.00  0.00     0.131 A 
ATOM     82  C   UNL A   1      40.939  25.252  27.100  1.00  0.00     0.055 A 
ATOM     83  C   UNL A   1      41.526  27.190  25.797  1.00  0.00     0.041 A 
ATOM     84  F   UNL A   1      41.714  29.280  26.848  1.00  0.00    -0.206 F 
ATOM     85  C   UNL A   1      41.319  25.816  25.879  1.00  0.00     0.022 A 
BRANCH  82  86
ATOM     86  S   UNL A   1      40.920  23.442  27.233  1.00  0.00     0.124 S 
ATOM     87  O   UNL A   1      39.490  23.150  27.211  1.00  0.00    -0.237 OA
ATOM     88  O   UNL A   1      41.664  23.049  26.038  1.00  0.00    -0.237 OA
ATOM     89  O   UNL A   1      41.599  23.180  28.497  1.00  0.00    -0.744 OA
ENDBRANCH  82  86
ENDBRANCH  55  79
BRANCH  67  90
ATOM     90  C   UNL A   1      45.479  27.952  33.592  1.00  0.00     0.023 A 
ATOM     91  C   UNL A   1      45.467  26.787  34.384  1.00  0.00     0.031 A 
ATOM     92  C   UNL A   1      46.723  28.513  33.257  1.00  0.00     0.131 A 
ATOM     93  C   UNL A   1      46.672  26.251  34.852  1.00  0.00     0.055 A 
ATOM     94  C   UNL A   1      47.924  27.934  33.668  1.00  0.00     0.041 A 
ATOM     95  F   UNL A   1      46.791  29.631  32.515  1.00  0.00    -0.206 F 
ATOM     96  C   UNL A   1      47.901  26.807  34.484  1.00  0.00     0.022 A 
BRANCH  93  97
ATOM     97  S   UNL A   1      46.686  24.879  36.039  1.00  0.00     0.124 S 
ATOM     98  O   UNL A   1      46.023  23.820  35.281  1.00  0.00    -0.237 OA
ATOM     99  O   UNL A   1      48.115  24.685  36.263  1.00  0.00    -0.237 OA
ATOM    100  O   UNL A   1      45.935  25.392  37.179  1.00  0.00    -0.744 OA
ENDBRANCH  93  97
ENDBRANCH  67  90
ENDBRANCH  41  42
ENDBRANCH  33  36
ENDBRANCH  31  32
ENDBRANCH  30  31
ENDBRANCH  29  30
ENDBRANCH   1  29
TORSDOF 21
ENDMDL
