MODEL 1
REMARK VINA RESULT:     -10.2      0.000      0.000
REMARK SMILES C[C@@H](CCO)SCc1cccc(/C=C/C(=O)NCCCCCCNC(=O)c2ccc(-c3c4nc(c(-c5cc(S(=O)(=O)[O-])ccc5F)c5ccc([nH]5)c(-c5cc(S(=O)(=O)[O-])ccc5F)c5nc(c(-c6cc(S(=O)(=O)[O-])ccc6F)c6ccc3[nH]6)C=C5)C=C4)cc2)c1
REMARK SMILES IDX 18 1 17 2 15 3 16 4 14 6 13 7 12 8 8 9 9 10 90 11 10 12
REMARK SMILES IDX 11 13 7 14 6 15 2 16 1 17 3 18 4 19 5 20 19 22 20 23 21 24
REMARK SMILES IDX 22 25 23 26 24 27 25 28 26 30 27 31 28 32 89 33 29 34 88 35
REMARK SMILES IDX 30 36 31 37 32 38 82 39 33 40 87 41 81 42 83 43 34 44 86 45
REMARK SMILES IDX 80 46 79 47 35 49 67 50 47 51 66 52 48 53 51 54 65 55 84 56
REMARK SMILES IDX 49 57 50 58 64 60 85 61 52 62 36 63 37 64 45 65 38 66 44 67
REMARK SMILES IDX 46 68 43 69 39 70 40 71 41 72 42 73 68 74 69 75 77 76 70 77
REMARK SMILES IDX 76 78 78 79 75 80 71 81 72 82 73 83 74 84 53 85 54 86 62 87
REMARK SMILES IDX 55 88 61 89 63 90 60 91 56 92 57 93 58 94 59 95
REMARK H PARENT 17 5 5 21 24 29 83 48 51 59
REMARK Flexibility Score: inf
ROOT
ATOM      1  C   UNL A   1      33.709  23.314  26.274  1.00  0.00     0.116 C 
ENDROOT
BRANCH   1   2
ATOM      2  N   UNL A   1      32.347  22.947  26.616  1.00  0.00    -0.353 N 
ATOM      3  C   UNL A   1      31.223  23.705  26.693  1.00  0.00     0.243 C 
ATOM      4  O   UNL A   1      30.155  23.198  27.028  1.00  0.00    -0.270 OA
ATOM      5  H   UNL A   1      32.217  21.994  26.826  1.00  0.00     0.163 HD
BRANCH   3   6
ATOM      6  C   UNL A   1      31.253  25.100  26.210  1.00  0.00     0.072 C 
ATOM      7  C   UNL A   1      31.049  26.191  26.965  1.00  0.00     0.014 C 
BRANCH   7   8
ATOM      8  C   UNL A   1      31.267  27.558  26.465  1.00  0.00    -0.025 A 
ATOM      9  C   UNL A   1      31.027  29.186  24.651  1.00  0.00    -0.037 A 
ATOM     10  C   UNL A   1      31.565  30.174  25.480  1.00  0.00     0.004 A 
ATOM     11  C   UNL A   1      30.833  27.891  25.173  1.00  0.00     0.012 A 
ATOM     12  C   UNL A   1      32.023  29.848  26.754  1.00  0.00     0.001 A 
ATOM     13  C   UNL A   1      31.904  28.543  27.229  1.00  0.00     0.008 A 
BRANCH   9  14
ATOM     14  C   UNL A   1      30.737  29.474  23.198  1.00  0.00     0.105 C 
BRANCH  14  15
ATOM     15  S   UNL A   1      29.123  28.763  22.680  1.00  0.00    -0.154 SA
BRANCH  15  16
ATOM     16  C   UNL A   1      27.951  30.187  22.601  1.00  0.00     0.046 C 
ATOM     17  C   UNL A   1      28.009  31.174  23.762  1.00  0.00     0.019 C 
BRANCH  16  18
ATOM     18  C   UNL A   1      27.873  30.879  21.223  1.00  0.00     0.042 C 
BRANCH  18  19
ATOM     19  C   UNL A   1      28.558  32.228  21.078  1.00  0.00     0.157 C 
BRANCH  19  20
ATOM     20  O   UNL A   1      27.599  33.270  21.016  1.00  0.00    -0.396 OA
ATOM     21  H   UNL A   1      27.056  33.163  20.221  1.00  0.00     0.210 HD
ENDBRANCH  19  20
ENDBRANCH  18  19
ENDBRANCH  16  18
ENDBRANCH  15  16
ENDBRANCH  14  15
ENDBRANCH   9  14
ENDBRANCH   7   8
ENDBRANCH   3   6
ENDBRANCH   1   2
BRANCH   1  22
ATOM     22  C   UNL A   1      33.881  23.275  24.757  1.00  0.00     0.021 C 
BRANCH  22  23
ATOM     23  C   UNL A   1      35.127  24.037  24.285  1.00  0.00     0.002 C 
BRANCH  23  24
ATOM     24  C   UNL A   1      36.131  23.183  23.503  1.00  0.00     0.002 C 
BRANCH  24  25
ATOM     25  C   UNL A   1      36.869  22.138  24.344  1.00  0.00     0.021 C 
BRANCH  25  26
ATOM     26  C   UNL A   1      37.669  22.732  25.499  1.00  0.00     0.116 C 
BRANCH  26  27
ATOM     27  N   UNL A   1      38.780  21.869  25.868  1.00  0.00    -0.352 N 
ATOM     28  C   UNL A   1      40.029  22.217  26.312  1.00  0.00     0.251 C 
ATOM     29  H   UNL A   1      38.612  20.902  25.788  1.00  0.00     0.163 HD
ATOM     30  O   UNL A   1      40.936  21.384  26.303  1.00  0.00    -0.269 OA
BRANCH  28  31
ATOM     31  C   UNL A   1      40.278  23.593  26.785  1.00  0.00     0.039 A 
ATOM     32  C   UNL A   1      40.483  23.819  28.146  1.00  0.00     0.014 A 
ATOM     33  C   UNL A   1      40.306  24.658  25.880  1.00  0.00     0.014 A 
ATOM     34  C   UNL A   1      40.770  25.110  28.593  1.00  0.00     0.010 A 
ATOM     35  C   UNL A   1      40.669  25.927  26.316  1.00  0.00     0.010 A 
ATOM     36  C   UNL A   1      40.899  26.169  27.679  1.00  0.00    -0.014 A 
BRANCH  36  37
ATOM     37  C   UNL A   1      41.264  27.536  28.132  1.00  0.00     0.031 A 
ATOM     38  C   UNL A   1      42.710  27.944  28.205  1.00  0.00     0.074 A 
ATOM     39  C   UNL A   1      40.296  28.386  28.525  1.00  0.00     0.049 A 
ATOM     40  N   UNL A   1      43.233  29.066  28.628  1.00  0.00    -0.248 NA
ATOM     41  C   UNL A   1      43.700  26.946  27.769  1.00  0.00     0.031 C 
ATOM     42  C   UNL A   1      38.862  28.087  28.533  1.00  0.00     0.029 A 
ATOM     43  N   UNL A   1      40.367  29.673  28.998  1.00  0.00    -0.354 N 
ATOM     44  C   UNL A   1      44.610  28.907  28.519  1.00  0.00     0.074 A 
ATOM     45  C   UNL A   1      44.841  27.556  28.054  1.00  0.00     0.031 C 
ATOM     46  C   UNL A   1      38.189  29.168  28.958  1.00  0.00     0.029 A 
ATOM     47  C   UNL A   1      39.141  30.219  29.304  1.00  0.00     0.049 A 
ATOM     48  H   UNL A   1      41.215  30.159  29.108  1.00  0.00     0.167 HD
ATOM     49  C   UNL A   1      45.590  29.814  28.760  1.00  0.00     0.034 A 
ATOM     50  C   UNL A   1      38.822  31.423  29.819  1.00  0.00     0.034 A 
ATOM     51  C   UNL A   1      45.338  31.159  29.219  1.00  0.00     0.049 A 
ATOM     52  C   UNL A   1      39.932  32.398  30.121  1.00  0.00     0.074 A 
ATOM     53  C   UNL A   1      46.249  32.176  29.445  1.00  0.00     0.029 A 
ATOM     54  N   UNL A   1      44.085  31.672  29.536  1.00  0.00    -0.354 N 
ATOM     55  N   UNL A   1      41.228  32.252  29.959  1.00  0.00    -0.248 NA
ATOM     56  C   UNL A   1      39.537  33.702  30.667  1.00  0.00     0.031 C 
ATOM     57  C   UNL A   1      45.559  33.273  29.972  1.00  0.00     0.029 A 
ATOM     58  C   UNL A   1      44.206  32.975  29.994  1.00  0.00     0.049 A 
ATOM     59  H   UNL A   1      43.237  31.181  29.448  1.00  0.00     0.167 HD
ATOM     60  C   UNL A   1      41.798  33.459  30.357  1.00  0.00     0.074 A 
ATOM     61  C   UNL A   1      40.703  34.325  30.746  1.00  0.00     0.031 C 
ATOM     62  C   UNL A   1      43.106  33.821  30.396  1.00  0.00     0.034 A 
BRANCH  49  63
ATOM     63  C   UNL A   1      47.019  29.366  28.560  1.00  0.00     0.023 A 
ATOM     64  C   UNL A   1      47.548  29.138  27.277  1.00  0.00     0.031 A 
ATOM     65  C   UNL A   1      47.857  29.141  29.665  1.00  0.00     0.131 A 
ATOM     66  C   UNL A   1      48.846  28.623  27.134  1.00  0.00     0.055 A 
ATOM     67  C   UNL A   1      49.179  28.713  29.513  1.00  0.00     0.041 A 
ATOM     68  F   UNL A   1      47.404  29.320  30.915  1.00  0.00    -0.206 F 
ATOM     69  C   UNL A   1      49.675  28.436  28.243  1.00  0.00     0.022 A 
BRANCH  66  70
ATOM     70  S   UNL A   1      49.379  28.059  25.496  1.00  0.00     0.124 S 
ATOM     71  O   UNL A   1      49.748  26.671  25.768  1.00  0.00    -0.237 OA
ATOM     72  O   UNL A   1      48.180  28.254  24.689  1.00  0.00    -0.237 OA
ATOM     73  O   UNL A   1      50.498  28.942  25.176  1.00  0.00    -0.744 OA
ENDBRANCH  66  70
ENDBRANCH  49  63
BRANCH  50  74
ATOM     74  C   UNL A   1      37.400  31.773  30.098  1.00  0.00     0.023 A 
ATOM     75  C   UNL A   1      36.646  32.527  29.185  1.00  0.00     0.031 A 
ATOM     76  C   UNL A   1      36.785  31.399  31.308  1.00  0.00     0.131 A 
ATOM     77  C   UNL A   1      35.341  32.925  29.514  1.00  0.00     0.055 A 
ATOM     78  C   UNL A   1      35.466  31.747  31.604  1.00  0.00     0.041 A 
ATOM     79  F   UNL A   1      37.459  30.678  32.218  1.00  0.00    -0.206 F 
ATOM     80  C   UNL A   1      34.741  32.527  30.711  1.00  0.00     0.022 A 
BRANCH  77  81
ATOM     81  S   UNL A   1      34.470  34.057  28.395  1.00  0.00     0.124 S 
ATOM     82  O   UNL A   1      33.192  33.378  28.224  1.00  0.00    -0.237 OA
ATOM     83  O   UNL A   1      34.443  35.291  29.174  1.00  0.00    -0.237 OA
ATOM     84  O   UNL A   1      35.325  34.088  27.211  1.00  0.00    -0.744 OA
ENDBRANCH  77  81
ENDBRANCH  50  74
BRANCH  62  85
ATOM     85  C   UNL A   1      43.415  35.230  30.845  1.00  0.00     0.023 A 
ATOM     86  C   UNL A   1      43.506  35.570  32.205  1.00  0.00     0.031 A 
ATOM     87  C   UNL A   1      43.613  36.249  29.894  1.00  0.00     0.131 A 
ATOM     88  C   UNL A   1      43.726  36.904  32.579  1.00  0.00     0.055 A 
ATOM     89  C   UNL A   1      43.901  37.560  30.271  1.00  0.00     0.041 A 
ATOM     90  F   UNL A   1      43.533  35.983  28.581  1.00  0.00    -0.206 F 
ATOM     91  C   UNL A   1      43.945  37.897  31.621  1.00  0.00     0.022 A 
BRANCH  88  92
ATOM     92  S   UNL A   1      43.624  37.344  34.335  1.00  0.00     0.124 S 
ATOM     93  O   UNL A   1      42.695  38.469  34.312  1.00  0.00    -0.237 OA
ATOM     94  O   UNL A   1      43.120  36.114  34.938  1.00  0.00    -0.237 OA
ATOM     95  O   UNL A   1      45.002  37.685  34.685  1.00  0.00    -0.744 OA
ENDBRANCH  88  92
ENDBRANCH  62  85
ENDBRANCH  36  37
ENDBRANCH  28  31
ENDBRANCH  26  27
ENDBRANCH  25  26
ENDBRANCH  24  25
ENDBRANCH  23  24
ENDBRANCH  22  23
ENDBRANCH   1  22
TORSDOF 23
ENDMDL
MODEL 2
REMARK VINA RESULT:     -10.2      1.908      2.391
REMARK SMILES C[C@@H](CCO)SCc1cccc(/C=C/C(=O)NCCCCCCNC(=O)c2ccc(-c3c4nc(c(-c5cc(S(=O)(=O)[O-])ccc5F)c5ccc([nH]5)c(-c5cc(S(=O)(=O)[O-])ccc5F)c5nc(c(-c6cc(S(=O)(=O)[O-])ccc6F)c6ccc3[nH]6)C=C5)C=C4)cc2)c1
REMARK SMILES IDX 18 1 17 2 15 3 16 4 14 6 13 7 12 8 8 9 9 10 90 11 10 12
REMARK SMILES IDX 11 13 7 14 6 15 2 16 1 17 3 18 4 19 5 20 19 22 20 23 21 24
REMARK SMILES IDX 22 25 23 26 24 27 25 28 26 30 27 31 28 32 89 33 29 34 88 35
REMARK SMILES IDX 30 36 31 37 32 38 82 39 33 40 87 41 81 42 83 43 34 44 86 45
REMARK SMILES IDX 80 46 79 47 35 49 67 50 47 51 66 52 48 53 51 54 65 55 84 56
REMARK SMILES IDX 49 57 50 58 64 60 85 61 52 62 36 63 37 64 45 65 38 66 44 67
REMARK SMILES IDX 46 68 43 69 39 70 40 71 41 72 42 73 68 74 69 75 77 76 70 77
REMARK SMILES IDX 76 78 78 79 75 80 71 81 72 82 73 83 74 84 53 85 54 86 62 87
REMARK SMILES IDX 55 88 61 89 63 90 60 91 56 92 57 93 58 94 59 95
REMARK H PARENT 17 5 5 21 24 29 83 48 51 59
REMARK Flexibility Score: inf
ROOT
ATOM      1  C   UNL A   1      33.610  23.460  26.225  1.00  0.00     0.116 C 
ENDROOT
BRANCH   1   2
ATOM      2  N   UNL A   1      32.276  23.068  26.644  1.00  0.00    -0.353 N 
ATOM      3  C   UNL A   1      31.140  23.801  26.768  1.00  0.00     0.243 C 
ATOM      4  O   UNL A   1      30.104  23.275  27.166  1.00  0.00    -0.270 OA
ATOM      5  H   UNL A   1      32.180  22.116  26.876  1.00  0.00     0.163 HD
BRANCH   3   6
ATOM      6  C   UNL A   1      31.111  25.188  26.261  1.00  0.00     0.072 C 
ATOM      7  C   UNL A   1      31.291  26.292  27.003  1.00  0.00     0.014 C 
BRANCH   7   8
ATOM      8  C   UNL A   1      31.428  27.634  26.414  1.00  0.00    -0.025 A 
ATOM      9  C   UNL A   1      30.976  29.157  24.550  1.00  0.00    -0.037 A 
ATOM     10  C   UNL A   1      31.569  30.198  25.269  1.00  0.00     0.004 A 
ATOM     11  C   UNL A   1      30.864  27.889  25.155  1.00  0.00     0.012 A 
ATOM     12  C   UNL A   1      32.157  29.949  26.507  1.00  0.00     0.001 A 
ATOM     13  C   UNL A   1      32.114  28.670  27.059  1.00  0.00     0.008 A 
BRANCH   9  14
ATOM     14  C   UNL A   1      30.539  29.361  23.120  1.00  0.00     0.105 C 
BRANCH  14  15
ATOM     15  S   UNL A   1      28.839  28.722  22.837  1.00  0.00    -0.154 SA
BRANCH  15  16
ATOM     16  C   UNL A   1      27.785  30.211  22.560  1.00  0.00     0.046 C 
ATOM     17  C   UNL A   1      27.541  31.101  23.773  1.00  0.00     0.019 C 
BRANCH  16  18
ATOM     18  C   UNL A   1      28.125  31.011  21.283  1.00  0.00     0.042 C 
BRANCH  18  19
ATOM     19  C   UNL A   1      28.479  32.480  21.451  1.00  0.00     0.157 C 
BRANCH  19  20
ATOM     20  O   UNL A   1      27.532  33.299  20.785  1.00  0.00    -0.396 OA
ATOM     21  H   UNL A   1      27.160  32.817  20.031  1.00  0.00     0.210 HD
ENDBRANCH  19  20
ENDBRANCH  18  19
ENDBRANCH  16  18
ENDBRANCH  15  16
ENDBRANCH  14  15
ENDBRANCH   9  14
ENDBRANCH   7   8
ENDBRANCH   3   6
ENDBRANCH   1   2
BRANCH   1  22
ATOM     22  C   UNL A   1      33.694  23.432  24.701  1.00  0.00     0.021 C 
BRANCH  22  23
ATOM     23  C   UNL A   1      34.963  24.109  24.168  1.00  0.00     0.002 C 
BRANCH  23  24
ATOM     24  C   UNL A   1      35.932  23.161  23.451  1.00  0.00     0.002 C 
BRANCH  24  25
ATOM     25  C   UNL A   1      36.197  21.846  24.188  1.00  0.00     0.021 C 
BRANCH  25  26
ATOM     26  C   UNL A   1      36.861  22.027  25.549  1.00  0.00     0.116 C 
BRANCH  26  27
ATOM     27  N   UNL A   1      37.839  20.979  25.801  1.00  0.00    -0.352 N 
ATOM     28  C   UNL A   1      39.162  21.100  26.136  1.00  0.00     0.251 C 
ATOM     29  H   UNL A   1      37.504  20.057  25.719  1.00  0.00     0.163 HD
ATOM     30  O   UNL A   1      39.912  20.129  26.030  1.00  0.00    -0.269 OA
BRANCH  28  31
ATOM     31  C   UNL A   1      39.679  22.399  26.609  1.00  0.00     0.039 A 
ATOM     32  C   UNL A   1      40.658  22.423  27.603  1.00  0.00     0.014 A 
ATOM     33  C   UNL A   1      39.192  23.593  26.069  1.00  0.00     0.014 A 
ATOM     34  C   UNL A   1      41.188  23.646  28.018  1.00  0.00     0.010 A 
ATOM     35  C   UNL A   1      39.776  24.803  26.427  1.00  0.00     0.010 A 
ATOM     36  C   UNL A   1      40.776  24.844  27.410  1.00  0.00    -0.014 A 
BRANCH  36  37
ATOM     37  C   UNL A   1      41.374  26.147  27.797  1.00  0.00     0.031 A 
ATOM     38  C   UNL A   1      42.802  26.456  27.440  1.00  0.00     0.074 A 
ATOM     39  C   UNL A   1      40.646  27.026  28.514  1.00  0.00     0.049 A 
ATOM     40  N   UNL A   1      43.521  27.508  27.737  1.00  0.00    -0.248 NA
ATOM     41  C   UNL A   1      43.526  25.433  26.668  1.00  0.00     0.031 C 
ATOM     42  C   UNL A   1      39.263  26.818  28.950  1.00  0.00     0.029 A 
ATOM     43  N   UNL A   1      40.965  28.266  29.006  1.00  0.00    -0.354 N 
ATOM     44  C   UNL A   1      44.781  27.271  27.198  1.00  0.00     0.074 A 
ATOM     45  C   UNL A   1      44.746  25.947  26.617  1.00  0.00     0.031 C 
ATOM     46  C   UNL A   1      38.845  27.906  29.616  1.00  0.00     0.029 A 
ATOM     47  C   UNL A   1      39.941  28.865  29.704  1.00  0.00     0.049 A 
ATOM     48  H   UNL A   1      41.844  28.689  28.873  1.00  0.00     0.167 HD
ATOM     49  C   UNL A   1      45.859  28.094  27.171  1.00  0.00     0.034 A 
ATOM     50  C   UNL A   1      39.895  30.045  30.353  1.00  0.00     0.034 A 
ATOM     51  C   UNL A   1      45.872  29.414  27.753  1.00  0.00     0.049 A 
ATOM     52  C   UNL A   1      41.121  30.923  30.346  1.00  0.00     0.074 A 
ATOM     53  C   UNL A   1      46.890  30.352  27.738  1.00  0.00     0.029 A 
ATOM     54  N   UNL A   1      44.823  29.980  28.468  1.00  0.00    -0.354 N 
ATOM     55  N   UNL A   1      42.289  30.708  29.784  1.00  0.00    -0.248 NA
ATOM     56  C   UNL A   1      41.021  32.206  31.054  1.00  0.00     0.031 C 
ATOM     57  C   UNL A   1      46.488  31.447  28.508  1.00  0.00     0.029 A 
ATOM     58  C   UNL A   1      45.185  31.235  28.933  1.00  0.00     0.049 A 
ATOM     59  H   UNL A   1      43.951  29.552  28.622  1.00  0.00     0.167 HD
ATOM     60  C   UNL A   1      43.052  31.843  30.047  1.00  0.00     0.074 A 
ATOM     61  C   UNL A   1      42.203  32.745  30.800  1.00  0.00     0.031 C 
ATOM     62  C   UNL A   1      44.335  32.117  29.698  1.00  0.00     0.034 A 
BRANCH  49  63
ATOM     63  C   UNL A   1      47.117  27.572  26.515  1.00  0.00     0.023 A 
ATOM     64  C   UNL A   1      48.012  26.729  27.199  1.00  0.00     0.031 A 
ATOM     65  C   UNL A   1      47.438  27.938  25.197  1.00  0.00     0.131 A 
ATOM     66  C   UNL A   1      49.219  26.348  26.593  1.00  0.00     0.055 A 
ATOM     67  C   UNL A   1      48.600  27.484  24.568  1.00  0.00     0.041 A 
ATOM     68  F   UNL A   1      46.636  28.757  24.499  1.00  0.00    -0.206 F 
ATOM     69  C   UNL A   1      49.506  26.697  25.272  1.00  0.00     0.022 A 
BRANCH  66  70
ATOM     70  S   UNL A   1      50.474  25.522  27.608  1.00  0.00     0.124 S 
ATOM     71  O   UNL A   1      51.609  25.470  26.689  1.00  0.00    -0.237 OA
ATOM     72  O   UNL A   1      50.612  26.431  28.741  1.00  0.00    -0.237 OA
ATOM     73  O   UNL A   1      49.870  24.228  27.914  1.00  0.00    -0.744 OA
ENDBRANCH  66  70
ENDBRANCH  49  63
BRANCH  50  74
ATOM     74  C   UNL A   1      38.660  30.463  31.077  1.00  0.00     0.023 A 
ATOM     75  C   UNL A   1      37.626  31.142  30.414  1.00  0.00     0.031 A 
ATOM     76  C   UNL A   1      38.515  30.232  32.457  1.00  0.00     0.131 A 
ATOM     77  C   UNL A   1      36.518  31.610  31.137  1.00  0.00     0.055 A 
ATOM     78  C   UNL A   1      37.383  30.646  33.161  1.00  0.00     0.041 A 
ATOM     79  F   UNL A   1      39.473  29.587  33.143  1.00  0.00    -0.206 F 
ATOM     80  C   UNL A   1      36.382  31.353  32.503  1.00  0.00     0.022 A 
BRANCH  77  81
ATOM     81  S   UNL A   1      35.299  32.647  30.283  1.00  0.00     0.124 S 
ATOM     82  O   UNL A   1      34.829  31.750  29.235  1.00  0.00    -0.237 OA
ATOM     83  O   UNL A   1      34.349  32.940  31.352  1.00  0.00    -0.237 OA
ATOM     84  O   UNL A   1      36.087  33.788  29.823  1.00  0.00    -0.744 OA
ENDBRANCH  77  81
ENDBRANCH  50  74
BRANCH  62  85
ATOM     85  C   UNL A   1      44.882  33.466  30.100  1.00  0.00     0.023 A 
ATOM     86  C   UNL A   1      45.627  33.641  31.279  1.00  0.00     0.031 A 
ATOM     87  C   UNL A   1      44.646  34.596  29.294  1.00  0.00     0.131 A 
ATOM     88  C   UNL A   1      46.058  34.924  31.651  1.00  0.00     0.055 A 
ATOM     89  C   UNL A   1      45.137  35.857  29.633  1.00  0.00     0.041 A 
ATOM     90  F   UNL A   1      43.937  34.489  28.160  1.00  0.00    -0.206 F 
ATOM     91  C   UNL A   1      45.835  36.029  30.825  1.00  0.00     0.022 A 
BRANCH  88  92
ATOM     92  S   UNL A   1      46.827  35.146  33.278  1.00  0.00     0.124 S 
ATOM     93  O   UNL A   1      48.243  35.216  32.936  1.00  0.00    -0.237 OA
ATOM     94  O   UNL A   1      46.222  36.390  33.743  1.00  0.00    -0.237 OA
ATOM     95  O   UNL A   1      46.425  33.948  34.014  1.00  0.00    -0.744 OA
ENDBRANCH  88  92
ENDBRANCH  62  85
ENDBRANCH  36  37
ENDBRANCH  28  31
ENDBRANCH  26  27
ENDBRANCH  25  26
ENDBRANCH  24  25
ENDBRANCH  23  24
ENDBRANCH  22  23
ENDBRANCH   1  22
TORSDOF 23
ENDMDL
MODEL 3
REMARK VINA RESULT:      -9.4      1.951      2.469
REMARK SMILES C[C@@H](CCO)SCc1cccc(/C=C/C(=O)NCCCCCCNC(=O)c2ccc(-c3c4nc(c(-c5cc(S(=O)(=O)[O-])ccc5F)c5ccc([nH]5)c(-c5cc(S(=O)(=O)[O-])ccc5F)c5nc(c(-c6cc(S(=O)(=O)[O-])ccc6F)c6ccc3[nH]6)C=C5)C=C4)cc2)c1
REMARK SMILES IDX 18 1 17 2 15 3 16 4 14 6 13 7 12 8 8 9 9 10 90 11 10 12
REMARK SMILES IDX 11 13 7 14 6 15 2 16 1 17 3 18 4 19 5 20 19 22 20 23 21 24
REMARK SMILES IDX 22 25 23 26 24 27 25 28 26 30 27 31 28 32 89 33 29 34 88 35
REMARK SMILES IDX 30 36 31 37 32 38 82 39 33 40 87 41 81 42 83 43 34 44 86 45
REMARK SMILES IDX 80 46 79 47 35 49 67 50 47 51 66 52 48 53 51 54 65 55 84 56
REMARK SMILES IDX 49 57 50 58 64 60 85 61 52 62 36 63 37 64 45 65 38 66 44 67
REMARK SMILES IDX 46 68 43 69 39 70 40 71 41 72 42 73 68 74 69 75 77 76 70 77
REMARK SMILES IDX 76 78 78 79 75 80 71 81 72 82 73 83 74 84 53 85 54 86 62 87
REMARK SMILES IDX 55 88 61 89 63 90 60 91 56 92 57 93 58 94 59 95
REMARK H PARENT 17 5 5 21 24 29 83 48 51 59
REMARK Flexibility Score: inf
ROOT
ATOM      1  C   UNL A   1      33.769  22.324  26.268  1.00  0.00     0.116 C 
ENDROOT
BRANCH   1   2
ATOM      2  N   UNL A   1      32.417  21.798  26.235  1.00  0.00    -0.353 N 
ATOM      3  C   UNL A   1      31.229  22.430  26.056  1.00  0.00     0.243 C 
ATOM      4  O   UNL A   1      30.178  21.794  26.085  1.00  0.00    -0.270 OA
ATOM      5  H   UNL A   1      32.351  20.824  26.363  1.00  0.00     0.163 HD
BRANCH   3   6
ATOM      6  C   UNL A   1      31.215  23.852  25.658  1.00  0.00     0.072 C 
ATOM      7  C   UNL A   1      30.814  24.873  26.431  1.00  0.00     0.014 C 
BRANCH   7   8
ATOM      8  C   UNL A   1      30.990  26.282  26.043  1.00  0.00    -0.025 A 
ATOM      9  C   UNL A   1      30.685  28.048  24.373  1.00  0.00    -0.037 A 
ATOM     10  C   UNL A   1      31.209  28.978  25.274  1.00  0.00     0.004 A 
ATOM     11  C   UNL A   1      30.531  26.710  24.788  1.00  0.00     0.012 A 
ATOM     12  C   UNL A   1      31.693  28.560  26.512  1.00  0.00     0.001 A 
ATOM     13  C   UNL A   1      31.613  27.218  26.878  1.00  0.00     0.008 A 
BRANCH   9  14
ATOM     14  C   UNL A   1      30.368  28.447  22.953  1.00  0.00     0.105 C 
BRANCH  14  15
ATOM     15  S   UNL A   1      31.813  29.238  22.137  1.00  0.00    -0.154 SA
BRANCH  15  16
ATOM     16  C   UNL A   1      33.194  28.022  22.279  1.00  0.00     0.046 C 
ATOM     17  C   UNL A   1      34.247  28.317  23.342  1.00  0.00     0.019 C 
BRANCH  16  18
ATOM     18  C   UNL A   1      32.752  26.542  22.262  1.00  0.00     0.042 C 
BRANCH  18  19
ATOM     19  C   UNL A   1      32.779  25.820  20.925  1.00  0.00     0.157 C 
BRANCH  19  20
ATOM     20  O   UNL A   1      31.533  25.951  20.262  1.00  0.00    -0.396 OA
ATOM     21  H   UNL A   1      31.337  26.891  20.124  1.00  0.00     0.210 HD
ENDBRANCH  19  20
ENDBRANCH  18  19
ENDBRANCH  16  18
ENDBRANCH  15  16
ENDBRANCH  14  15
ENDBRANCH   9  14
ENDBRANCH   7   8
ENDBRANCH   3   6
ENDBRANCH   1   2
BRANCH   1  22
ATOM     22  C   UNL A   1      34.236  22.619  24.844  1.00  0.00     0.021 C 
BRANCH  22  23
ATOM     23  C   UNL A   1      35.647  23.219  24.799  1.00  0.00     0.002 C 
BRANCH  23  24
ATOM     24  C   UNL A   1      36.634  22.447  23.915  1.00  0.00     0.002 C 
BRANCH  24  25
ATOM     25  C   UNL A   1      37.515  21.448  24.670  1.00  0.00     0.021 C 
BRANCH  25  26
ATOM     26  C   UNL A   1      38.390  22.087  25.744  1.00  0.00     0.116 C 
BRANCH  26  27
ATOM     27  N   UNL A   1      39.572  21.282  26.009  1.00  0.00    -0.352 N 
ATOM     28  C   UNL A   1      40.839  21.693  26.330  1.00  0.00     0.251 C 
ATOM     29  H   UNL A   1      39.444  20.307  25.949  1.00  0.00     0.163 HD
ATOM     30  O   UNL A   1      41.780  20.905  26.238  1.00  0.00    -0.269 OA
BRANCH  28  31
ATOM     31  C   UNL A   1      41.064  23.084  26.771  1.00  0.00     0.039 A 
ATOM     32  C   UNL A   1      40.843  23.419  28.107  1.00  0.00     0.014 A 
ATOM     33  C   UNL A   1      41.493  24.054  25.861  1.00  0.00     0.014 A 
ATOM     34  C   UNL A   1      41.104  24.720  28.542  1.00  0.00     0.010 A 
ATOM     35  C   UNL A   1      41.827  25.327  26.312  1.00  0.00     0.010 A 
ATOM     36  C   UNL A   1      41.629  25.676  27.656  1.00  0.00    -0.014 A 
BRANCH  36  37
ATOM     37  C   UNL A   1      41.970  27.046  28.118  1.00  0.00     0.031 A 
ATOM     38  C   UNL A   1      43.403  27.503  28.128  1.00  0.00     0.074 A 
ATOM     39  C   UNL A   1      40.994  27.855  28.575  1.00  0.00     0.049 A 
ATOM     40  N   UNL A   1      43.907  28.635  28.547  1.00  0.00    -0.248 NA
ATOM     41  C   UNL A   1      44.404  26.549  27.624  1.00  0.00     0.031 C 
ATOM     42  C   UNL A   1      39.573  27.505  28.648  1.00  0.00     0.029 A 
ATOM     43  N   UNL A   1      41.045  29.134  29.069  1.00  0.00    -0.354 N 
ATOM     44  C   UNL A   1      45.283  28.527  28.367  1.00  0.00     0.074 A 
ATOM     45  C   UNL A   1      45.536  27.193  27.865  1.00  0.00     0.031 C 
ATOM     46  C   UNL A   1      38.886  28.554  29.126  1.00  0.00     0.029 A 
ATOM     47  C   UNL A   1      39.818  29.631  29.446  1.00  0.00     0.049 A 
ATOM     48  H   UNL A   1      41.880  29.648  29.147  1.00  0.00     0.167 HD
ATOM     49  C   UNL A   1      46.241  29.463  28.578  1.00  0.00     0.034 A 
ATOM     50  C   UNL A   1      39.484  30.814  30.000  1.00  0.00     0.034 A 
ATOM     51  C   UNL A   1      45.967  30.789  29.075  1.00  0.00     0.049 A 
ATOM     52  C   UNL A   1      40.574  31.822  30.266  1.00  0.00     0.074 A 
ATOM     53  C   UNL A   1      46.853  31.834  29.276  1.00  0.00     0.029 A 
ATOM     54  N   UNL A   1      44.715  31.252  29.463  1.00  0.00    -0.354 N 
ATOM     55  N   UNL A   1      41.864  31.724  30.038  1.00  0.00    -0.248 NA
ATOM     56  C   UNL A   1      40.161  33.101  30.857  1.00  0.00     0.031 C 
ATOM     57  C   UNL A   1      46.153  32.896  29.859  1.00  0.00     0.029 A 
ATOM     58  C   UNL A   1      44.813  32.550  29.941  1.00  0.00     0.049 A 
ATOM     59  H   UNL A   1      43.880  30.733  29.408  1.00  0.00     0.167 HD
ATOM     60  C   UNL A   1      42.411  32.943  30.431  1.00  0.00     0.074 A 
ATOM     61  C   UNL A   1      41.308  33.763  30.891  1.00  0.00     0.031 C 
ATOM     62  C   UNL A   1      43.707  33.350  30.413  1.00  0.00     0.034 A 
BRANCH  49  63
ATOM     63  C   UNL A   1      47.673  29.069  28.298  1.00  0.00     0.023 A 
ATOM     64  C   UNL A   1      48.153  28.910  26.986  1.00  0.00     0.031 A 
ATOM     65  C   UNL A   1      48.565  28.825  29.357  1.00  0.00     0.131 A 
ATOM     66  C   UNL A   1      49.458  28.443  26.767  1.00  0.00     0.055 A 
ATOM     67  C   UNL A   1      49.891  28.446  29.132  1.00  0.00     0.041 A 
ATOM     68  F   UNL A   1      48.162  28.938  30.632  1.00  0.00    -0.206 F 
ATOM     69  C   UNL A   1      50.340  28.238  27.831  1.00  0.00     0.022 A 
BRANCH  66  70
ATOM     70  S   UNL A   1      49.936  27.964  25.085  1.00  0.00     0.124 S 
ATOM     71  O   UNL A   1      48.662  28.067  24.377  1.00  0.00    -0.237 OA
ATOM     72  O   UNL A   1      50.940  28.965  24.744  1.00  0.00    -0.237 OA
ATOM     73  O   UNL A   1      50.441  26.602  25.247  1.00  0.00    -0.744 OA
ENDBRANCH  66  70
ENDBRANCH  49  63
BRANCH  50  74
ATOM     74  C   UNL A   1      38.066  31.109  30.356  1.00  0.00     0.023 A 
ATOM     75  C   UNL A   1      37.144  31.519  29.380  1.00  0.00     0.031 A 
ATOM     76  C   UNL A   1      37.622  31.031  31.689  1.00  0.00     0.131 A 
ATOM     77  C   UNL A   1      35.842  31.883  29.756  1.00  0.00     0.055 A 
ATOM     78  C   UNL A   1      36.308  31.337  32.049  1.00  0.00     0.041 A 
ATOM     79  F   UNL A   1      38.461  30.645  32.663  1.00  0.00    -0.206 F 
ATOM     80  C   UNL A   1      35.413  31.780  31.081  1.00  0.00     0.022 A 
BRANCH  77  81
ATOM     81  S   UNL A   1      34.741  32.589  28.499  1.00  0.00     0.124 S 
ATOM     82  O   UNL A   1      33.967  31.421  28.094  1.00  0.00    -0.237 OA
ATOM     83  O   UNL A   1      34.021  33.603  29.262  1.00  0.00    -0.237 OA
ATOM     84  O   UNL A   1      35.663  33.108  27.492  1.00  0.00    -0.744 OA
ENDBRANCH  77  81
ENDBRANCH  50  74
BRANCH  62  85
ATOM     85  C   UNL A   1      43.990  34.760  30.874  1.00  0.00     0.023 A 
ATOM     86  C   UNL A   1      43.898  35.857  30.000  1.00  0.00     0.031 A 
ATOM     87  C   UNL A   1      44.365  35.008  32.207  1.00  0.00     0.131 A 
ATOM     88  C   UNL A   1      44.237  37.141  30.451  1.00  0.00     0.055 A 
ATOM     89  C   UNL A   1      44.633  36.297  32.669  1.00  0.00     0.041 A 
ATOM     90  F   UNL A   1      44.473  33.999  33.086  1.00  0.00    -0.206 F 
ATOM     91  C   UNL A   1      44.583  37.371  31.785  1.00  0.00     0.022 A 
BRANCH  88  92
ATOM     92  S   UNL A   1      44.316  38.494  29.246  1.00  0.00     0.124 S 
ATOM     93  O   UNL A   1      45.716  38.454  28.837  1.00  0.00    -0.237 OA
ATOM     94  O   UNL A   1      43.346  38.075  28.239  1.00  0.00    -0.237 OA
ATOM     95  O   UNL A   1      43.930  39.671  30.024  1.00  0.00    -0.744 OA
ENDBRANCH  88  92
ENDBRANCH  62  85
ENDBRANCH  36  37
ENDBRANCH  28  31
ENDBRANCH  26  27
ENDBRANCH  25  26
ENDBRANCH  24  25
ENDBRANCH  23  24
ENDBRANCH  22  23
ENDBRANCH   1  22
TORSDOF 23
ENDMDL
