MODEL 1
REMARK VINA RESULT:     -11.2      0.000      0.000
REMARK SMILES O=C(NC[C@@H]1CCOC1)NC[C@@H]1CC[C@H](C(=O)NCCCCCCNC(=O)c2ccc(-c3c4nc(c(-c5cc(S(=O)(=O)[O-])ccc5F)c5ccc([nH]5)c(-c5cc(S(=O)(=O)[O-])ccc5F)c5nc(c(-c6cc(S(=O)(=O)[O-])ccc6F)c6ccc3[nH]6)C=C5)C=C4)cc2)O1
REMARK SMILES IDX 21 1 20 2 19 3 18 4 16 5 17 6 15 8 12 9 13 10 91 11 14 12
REMARK SMILES IDX 11 13 10 14 1 15 2 16 3 17 4 20 5 21 6 22 9 23 7 24 8 25
REMARK SMILES IDX 22 26 23 27 24 28 25 29 26 30 27 32 28 33 29 34 90 35 30 36
REMARK SMILES IDX 89 37 31 38 32 39 33 40 83 41 34 42 88 43 82 44 84 45 35 46
REMARK SMILES IDX 87 47 81 48 80 49 36 51 68 52 48 53 67 54 49 55 52 56 66 57
REMARK SMILES IDX 85 58 50 59 51 60 65 62 86 63 53 64 37 65 38 66 46 67 39 68
REMARK SMILES IDX 45 69 47 70 44 71 40 72 41 73 42 74 43 75 69 76 70 77 78 78
REMARK SMILES IDX 71 79 77 80 79 81 76 82 72 83 73 84 74 85 75 86 54 87 55 88
REMARK SMILES IDX 63 89 56 90 62 91 64 92 61 93 57 94 58 95 59 96 60 97
REMARK H PARENT 18 7 3 18 10 19 25 31 84 50 52 61
REMARK Flexibility Score: inf
ROOT
ATOM      1  C   UNL A   1      32.909  21.892  26.005  1.00  0.00     0.002 C 
ENDROOT
BRANCH   1   2
ATOM      2  C   UNL A   1      31.417  22.114  25.748  1.00  0.00     0.021 C 
BRANCH   2   3
ATOM      3  C   UNL A   1      30.874  23.380  26.403  1.00  0.00     0.116 C 
BRANCH   3   4
ATOM      4  N   UNL A   1      30.239  24.257  25.445  1.00  0.00    -0.354 N 
ATOM      5  C   UNL A   1      30.799  25.175  24.604  1.00  0.00     0.249 C 
ATOM      6  O   UNL A   1      30.038  25.821  23.876  1.00  0.00    -0.272 OA
ATOM      7  H   UNL A   1      29.258  24.182  25.392  1.00  0.00     0.163 HD
BRANCH   5   8
ATOM      8  C   UNL A   1      32.324  25.429  24.573  1.00  0.00     0.207 C 
ATOM      9  C   UNL A   1      33.700  27.274  24.117  1.00  0.00     0.138 C 
ATOM     10  C   UNL A   1      33.620  26.475  22.823  1.00  0.00     0.037 C 
ATOM     11  O   UNL A   1      32.704  26.734  25.004  1.00  0.00    -0.363 OA
ATOM     12  C   UNL A   1      32.976  25.165  23.225  1.00  0.00     0.045 C 
BRANCH   9  13
ATOM     13  C   UNL A   1      33.415  28.775  23.950  1.00  0.00     0.149 C 
BRANCH  13  14
ATOM     14  N   UNL A   1      32.147  29.073  23.325  1.00  0.00    -0.336 N 
ATOM     15  O   UNL A   1      31.137  29.728  25.259  1.00  0.00    -0.249 OA
ATOM     16  C   UNL A   1      31.119  29.603  24.034  1.00  0.00     0.314 C 
ATOM     17  N   UNL A   1      30.034  30.007  23.339  1.00  0.00    -0.338 N 
ATOM     18  H   UNL A   1      29.322  30.404  23.893  1.00  0.00     0.165 HD
ATOM     19  H   UNL A   1      32.027  28.888  22.365  1.00  0.00     0.165 HD
BRANCH  17  20
ATOM     20  C   UNL A   1      29.731  29.959  21.919  1.00  0.00     0.123 C 
BRANCH  20  21
ATOM     21  C   UNL A   1      28.280  30.376  21.649  1.00  0.00     0.036 C 
ATOM     22  C   UNL A   1      28.162  31.653  20.838  1.00  0.00     0.036 C 
ATOM     23  C   UNL A   1      27.590  30.789  22.936  1.00  0.00     0.165 C 
ATOM     24  C   UNL A   1      28.288  32.743  21.882  1.00  0.00     0.160 C 
ATOM     25  O   UNL A   1      27.907  32.174  23.142  1.00  0.00    -0.381 OA
ENDBRANCH  20  21
ENDBRANCH  17  20
ENDBRANCH  13  14
ENDBRANCH   9  13
ENDBRANCH   5   8
ENDBRANCH   3   4
ENDBRANCH   2   3
ENDBRANCH   1   2
BRANCH   1  26
ATOM     26  C   UNL A   1      33.728  21.518  24.763  1.00  0.00     0.002 C 
BRANCH  26  27
ATOM     27  C   UNL A   1      35.118  22.160  24.670  1.00  0.00     0.021 C 
BRANCH  27  28
ATOM     28  C   UNL A   1      35.949  22.071  25.946  1.00  0.00     0.116 C 
BRANCH  28  29
ATOM     29  N   UNL A   1      36.983  21.051  25.846  1.00  0.00    -0.352 N 
ATOM     30  C   UNL A   1      38.347  21.187  25.849  1.00  0.00     0.251 C 
ATOM     31  H   UNL A   1      36.653  20.127  25.765  1.00  0.00     0.163 HD
ATOM     32  O   UNL A   1      39.052  20.237  25.513  1.00  0.00    -0.269 OA
BRANCH  30  33
ATOM     33  C   UNL A   1      38.967  22.471  26.242  1.00  0.00     0.039 A 
ATOM     34  C   UNL A   1      40.023  22.462  27.158  1.00  0.00     0.014 A 
ATOM     35  C   UNL A   1      38.490  23.682  25.733  1.00  0.00     0.014 A 
ATOM     36  C   UNL A   1      40.635  23.664  27.522  1.00  0.00     0.010 A 
ATOM     37  C   UNL A   1      39.142  24.872  26.049  1.00  0.00     0.010 A 
ATOM     38  C   UNL A   1      40.217  24.877  26.950  1.00  0.00    -0.014 A 
BRANCH  38  39
ATOM     39  C   UNL A   1      40.888  26.161  27.284  1.00  0.00     0.031 A 
ATOM     40  C   UNL A   1      42.285  26.429  26.794  1.00  0.00     0.074 A 
ATOM     41  C   UNL A   1      40.268  27.047  28.090  1.00  0.00     0.049 A 
ATOM     42  N   UNL A   1      43.078  27.436  27.060  1.00  0.00    -0.248 NA
ATOM     43  C   UNL A   1      42.879  25.416  25.908  1.00  0.00     0.031 C 
ATOM     44  C   UNL A   1      38.928  26.876  28.659  1.00  0.00     0.029 A 
ATOM     45  N   UNL A   1      40.684  28.257  28.585  1.00  0.00    -0.354 N 
ATOM     46  C   UNL A   1      44.270  27.168  26.396  1.00  0.00     0.074 A 
ATOM     47  C   UNL A   1      44.110  25.881  25.751  1.00  0.00     0.031 C 
ATOM     48  C   UNL A   1      38.633  27.944  29.417  1.00  0.00     0.029 A 
ATOM     49  C   UNL A   1      39.774  28.853  29.429  1.00  0.00     0.049 A 
ATOM     50  H   UNL A   1      41.553  28.661  28.359  1.00  0.00     0.167 HD
ATOM     51  C   UNL A   1      45.388  27.932  26.322  1.00  0.00     0.034 A 
ATOM     52  C   UNL A   1      39.858  29.991  30.147  1.00  0.00     0.034 A 
ATOM     53  C   UNL A   1      45.519  29.222  26.953  1.00  0.00     0.049 A 
ATOM     54  C   UNL A   1      41.113  30.823  30.046  1.00  0.00     0.074 A 
ATOM     55  C   UNL A   1      46.579  30.111  26.882  1.00  0.00     0.029 A 
ATOM     56  N   UNL A   1      44.566  29.807  27.777  1.00  0.00    -0.354 N 
ATOM     57  N   UNL A   1      42.210  30.582  29.365  1.00  0.00    -0.248 NA
ATOM     58  C   UNL A   1      41.136  32.085  30.797  1.00  0.00     0.031 C 
ATOM     59  C   UNL A   1      46.295  31.198  27.716  1.00  0.00     0.029 A 
ATOM     60  C   UNL A   1      45.026  31.028  28.245  1.00  0.00     0.049 A 
ATOM     61  H   UNL A   1      43.692  29.412  27.997  1.00  0.00     0.167 HD
ATOM     62  C   UNL A   1      43.038  31.681  29.580  1.00  0.00     0.074 A 
ATOM     63  C   UNL A   1      42.309  32.588  30.442  1.00  0.00     0.031 C 
ATOM     64  C   UNL A   1      44.287  31.921  29.106  1.00  0.00     0.034 A 
BRANCH  51  65
ATOM     65  C   UNL A   1      46.567  27.378  25.557  1.00  0.00     0.023 A 
ATOM     66  C   UNL A   1      46.914  27.852  24.280  1.00  0.00     0.031 A 
ATOM     67  C   UNL A   1      47.357  26.358  26.117  1.00  0.00     0.131 A 
ATOM     68  C   UNL A   1      47.979  27.266  23.580  1.00  0.00     0.055 A 
ATOM     69  C   UNL A   1      48.464  25.831  25.447  1.00  0.00     0.041 A 
ATOM     70  F   UNL A   1      47.064  25.851  27.325  1.00  0.00    -0.206 F 
ATOM     71  C   UNL A   1      48.773  26.277  24.166  1.00  0.00     0.022 A 
BRANCH  68  72
ATOM     72  S   UNL A   1      48.241  27.730  21.847  1.00  0.00     0.124 S 
ATOM     73  O   UNL A   1      49.418  28.588  21.947  1.00  0.00    -0.237 OA
ATOM     74  O   UNL A   1      48.445  26.439  21.201  1.00  0.00    -0.237 OA
ATOM     75  O   UNL A   1      47.004  28.419  21.486  1.00  0.00    -0.744 OA
ENDBRANCH  68  72
ENDBRANCH  51  65
BRANCH  52  76
ATOM     76  C   UNL A   1      38.740  30.407  31.042  1.00  0.00     0.023 A 
ATOM     77  C   UNL A   1      37.664  31.166  30.557  1.00  0.00     0.031 A 
ATOM     78  C   UNL A   1      38.758  30.095  32.414  1.00  0.00     0.131 A 
ATOM     79  C   UNL A   1      36.682  31.637  31.442  1.00  0.00     0.055 A 
ATOM     80  C   UNL A   1      37.747  30.514  33.281  1.00  0.00     0.041 A 
ATOM     81  F   UNL A   1      39.761  29.370  32.933  1.00  0.00    -0.206 F 
ATOM     82  C   UNL A   1      36.709  31.304  32.798  1.00  0.00     0.022 A 
BRANCH  79  83
ATOM     83  S   UNL A   1      35.423  32.781  30.814  1.00  0.00     0.124 S 
ATOM     84  O   UNL A   1      35.238  32.301  29.450  1.00  0.00    -0.237 OA
ATOM     85  O   UNL A   1      34.314  32.545  31.734  1.00  0.00    -0.237 OA
ATOM     86  O   UNL A   1      36.063  34.090  30.935  1.00  0.00    -0.744 OA
ENDBRANCH  79  83
ENDBRANCH  52  76
BRANCH  64  87
ATOM     87  C   UNL A   1      44.917  33.244  29.467  1.00  0.00     0.023 A 
ATOM     88  C   UNL A   1      45.824  33.369  30.533  1.00  0.00     0.031 A 
ATOM     89  C   UNL A   1      44.596  34.399  28.732  1.00  0.00     0.131 A 
ATOM     90  C   UNL A   1      46.339  34.630  30.868  1.00  0.00     0.055 A 
ATOM     91  C   UNL A   1      45.157  35.641  29.031  1.00  0.00     0.041 A 
ATOM     92  F   UNL A   1      43.734  34.338  27.705  1.00  0.00    -0.206 F 
ATOM     93  C   UNL A   1      46.024  35.763  30.113  1.00  0.00     0.022 A 
BRANCH  90  94
ATOM     94  S   UNL A   1      47.359  34.788  32.359  1.00  0.00     0.124 S 
ATOM     95  O   UNL A   1      48.658  35.149  31.802  1.00  0.00    -0.237 OA
ATOM     96  O   UNL A   1      46.669  35.840  33.100  1.00  0.00    -0.237 OA
ATOM     97  O   UNL A   1      47.292  33.459  32.964  1.00  0.00    -0.744 OA
ENDBRANCH  90  94
ENDBRANCH  64  87
ENDBRANCH  38  39
ENDBRANCH  30  33
ENDBRANCH  28  29
ENDBRANCH  27  28
ENDBRANCH  26  27
ENDBRANCH   1  26
TORSDOF 20
ENDMDL
MODEL 2
REMARK VINA RESULT:     -11.0      2.167      2.752
REMARK SMILES O=C(NC[C@@H]1CCOC1)NC[C@@H]1CC[C@H](C(=O)NCCCCCCNC(=O)c2ccc(-c3c4nc(c(-c5cc(S(=O)(=O)[O-])ccc5F)c5ccc([nH]5)c(-c5cc(S(=O)(=O)[O-])ccc5F)c5nc(c(-c6cc(S(=O)(=O)[O-])ccc6F)c6ccc3[nH]6)C=C5)C=C4)cc2)O1
REMARK SMILES IDX 21 1 20 2 19 3 18 4 16 5 17 6 15 8 12 9 13 10 91 11 14 12
REMARK SMILES IDX 11 13 10 14 1 15 2 16 3 17 4 20 5 21 6 22 9 23 7 24 8 25
REMARK SMILES IDX 22 26 23 27 24 28 25 29 26 30 27 32 28 33 29 34 90 35 30 36
REMARK SMILES IDX 89 37 31 38 32 39 33 40 83 41 34 42 88 43 82 44 84 45 35 46
REMARK SMILES IDX 87 47 81 48 80 49 36 51 68 52 48 53 67 54 49 55 52 56 66 57
REMARK SMILES IDX 85 58 50 59 51 60 65 62 86 63 53 64 37 65 38 66 46 67 39 68
REMARK SMILES IDX 45 69 47 70 44 71 40 72 41 73 42 74 43 75 69 76 70 77 78 78
REMARK SMILES IDX 71 79 77 80 79 81 76 82 72 83 73 84 74 85 75 86 54 87 55 88
REMARK SMILES IDX 63 89 56 90 62 91 64 92 61 93 57 94 58 95 59 96 60 97
REMARK H PARENT 18 7 3 18 10 19 25 31 84 50 52 61
REMARK Flexibility Score: inf
ROOT
ATOM      1  C   UNL A   1      34.486  20.898  24.940  1.00  0.00     0.002 C 
ENDROOT
BRANCH   1   2
ATOM      2  C   UNL A   1      33.297  20.983  25.899  1.00  0.00     0.021 C 
BRANCH   2   3
ATOM      3  C   UNL A   1      33.464  22.052  26.975  1.00  0.00     0.116 C 
BRANCH   3   4
ATOM      4  N   UNL A   1      32.231  22.763  27.228  1.00  0.00    -0.354 N 
ATOM      5  C   UNL A   1      31.508  23.569  26.397  1.00  0.00     0.249 C 
ATOM      6  O   UNL A   1      30.479  24.081  26.851  1.00  0.00    -0.272 OA
ATOM      7  H   UNL A   1      31.860  22.652  28.133  1.00  0.00     0.163 HD
BRANCH   5   8
ATOM      8  C   UNL A   1      31.959  23.862  24.947  1.00  0.00     0.207 C 
ATOM      9  C   UNL A   1      32.340  25.797  23.676  1.00  0.00     0.138 C 
ATOM     10  C   UNL A   1      30.927  25.341  23.341  1.00  0.00     0.037 C 
ATOM     11  O   UNL A   1      32.768  25.029  24.815  1.00  0.00    -0.363 OA
ATOM     12  C   UNL A   1      30.821  23.956  23.944  1.00  0.00     0.045 C 
BRANCH   9  13
ATOM     13  C   UNL A   1      32.452  27.285  24.045  1.00  0.00     0.149 C 
BRANCH  13  14
ATOM     14  N   UNL A   1      31.457  28.128  23.422  1.00  0.00    -0.336 N 
ATOM     15  O   UNL A   1      31.151  29.442  25.257  1.00  0.00    -0.249 OA
ATOM     16  C   UNL A   1      30.935  29.200  24.070  1.00  0.00     0.314 C 
ATOM     17  N   UNL A   1      30.144  30.028  23.354  1.00  0.00    -0.338 N 
ATOM     18  H   UNL A   1      29.805  30.802  23.859  1.00  0.00     0.165 HD
ATOM     19  H   UNL A   1      31.153  27.920  22.508  1.00  0.00     0.165 HD
BRANCH  17  20
ATOM     20  C   UNL A   1      29.703  29.977  21.970  1.00  0.00     0.123 C 
BRANCH  20  21
ATOM     21  C   UNL A   1      28.211  30.305  21.853  1.00  0.00     0.036 C 
ATOM     22  C   UNL A   1      27.905  31.353  20.799  1.00  0.00     0.036 C 
ATOM     23  C   UNL A   1      27.712  31.004  23.105  1.00  0.00     0.165 C 
ATOM     24  C   UNL A   1      28.143  32.660  21.528  1.00  0.00     0.160 C 
ATOM     25  O   UNL A   1      27.992  32.401  22.930  1.00  0.00    -0.381 OA
ENDBRANCH  20  21
ENDBRANCH  17  20
ENDBRANCH  13  14
ENDBRANCH   9  13
ENDBRANCH   5   8
ENDBRANCH   3   4
ENDBRANCH   2   3
ENDBRANCH   1   2
BRANCH   1  26
ATOM     26  C   UNL A   1      34.992  22.250  24.419  1.00  0.00     0.002 C 
BRANCH  26  27
ATOM     27  C   UNL A   1      36.514  22.436  24.431  1.00  0.00     0.021 C 
BRANCH  27  28
ATOM     28  C   UNL A   1      37.115  22.693  25.810  1.00  0.00     0.116 C 
BRANCH  28  29
ATOM     29  N   UNL A   1      38.256  21.828  26.071  1.00  0.00    -0.352 N 
ATOM     30  C   UNL A   1      39.542  22.158  26.414  1.00  0.00     0.251 C 
ATOM     31  H   UNL A   1      38.077  20.863  25.990  1.00  0.00     0.163 HD
ATOM     32  O   UNL A   1      40.422  21.301  26.357  1.00  0.00    -0.269 OA
BRANCH  30  33
ATOM     33  C   UNL A   1      39.870  23.536  26.837  1.00  0.00     0.039 A 
ATOM     34  C   UNL A   1      40.224  23.770  28.169  1.00  0.00     0.014 A 
ATOM     35  C   UNL A   1      39.801  24.599  25.933  1.00  0.00     0.014 A 
ATOM     36  C   UNL A   1      40.559  25.063  28.580  1.00  0.00     0.010 A 
ATOM     37  C   UNL A   1      40.196  25.875  26.330  1.00  0.00     0.010 A 
ATOM     38  C   UNL A   1      40.575  26.121  27.658  1.00  0.00    -0.014 A 
BRANCH  38  39
ATOM     39  C   UNL A   1      40.978  27.493  28.062  1.00  0.00     0.031 A 
ATOM     40  C   UNL A   1      42.436  27.863  28.119  1.00  0.00     0.074 A 
ATOM     41  C   UNL A   1      40.037  28.378  28.450  1.00  0.00     0.049 A 
ATOM     42  N   UNL A   1      42.995  28.967  28.542  1.00  0.00    -0.248 NA
ATOM     43  C   UNL A   1      43.393  26.842  27.663  1.00  0.00     0.031 C 
ATOM     44  C   UNL A   1      38.595  28.118  28.475  1.00  0.00     0.029 A 
ATOM     45  N   UNL A   1      40.148  29.665  28.913  1.00  0.00    -0.354 N 
ATOM     46  C   UNL A   1      44.367  28.768  28.429  1.00  0.00     0.074 A 
ATOM     47  C   UNL A   1      44.554  27.419  27.937  1.00  0.00     0.031 C 
ATOM     48  C   UNL A   1      37.959  29.213  28.922  1.00  0.00     0.029 A 
ATOM     49  C   UNL A   1      38.944  30.235  29.259  1.00  0.00     0.049 A 
ATOM     50  H   UNL A   1      41.009  30.137  28.990  1.00  0.00     0.167 HD
ATOM     51  C   UNL A   1      45.374  29.636  28.697  1.00  0.00     0.034 A 
ATOM     52  C   UNL A   1      38.667  31.435  29.807  1.00  0.00     0.034 A 
ATOM     53  C   UNL A   1      45.165  30.984  29.164  1.00  0.00     0.049 A 
ATOM     54  C   UNL A   1      39.806  32.383  30.095  1.00  0.00     0.074 A 
ATOM     55  C   UNL A   1      46.109  31.970  29.397  1.00  0.00     0.029 A 
ATOM     56  N   UNL A   1      43.929  31.537  29.477  1.00  0.00    -0.354 N 
ATOM     57  N   UNL A   1      41.095  32.199  29.925  1.00  0.00    -0.248 NA
ATOM     58  C   UNL A   1      39.452  33.702  30.634  1.00  0.00     0.031 C 
ATOM     59  C   UNL A   1      45.453  33.092  29.915  1.00  0.00     0.029 A 
ATOM     60  C   UNL A   1      44.091  32.837  29.931  1.00  0.00     0.049 A 
ATOM     61  H   UNL A   1      43.066  31.073  29.390  1.00  0.00     0.167 HD
ATOM     62  C   UNL A   1      41.701  33.394  30.305  1.00  0.00     0.074 A 
ATOM     63  C   UNL A   1      40.637  34.293  30.698  1.00  0.00     0.031 C 
ATOM     64  C   UNL A   1      43.019  33.721  30.323  1.00  0.00     0.034 A 
BRANCH  51  65
ATOM     65  C   UNL A   1      46.791  29.143  28.521  1.00  0.00     0.023 A 
ATOM     66  C   UNL A   1      47.340  28.898  27.250  1.00  0.00     0.031 A 
ATOM     67  C   UNL A   1      47.605  28.915  29.644  1.00  0.00     0.131 A 
ATOM     68  C   UNL A   1      48.640  28.382  27.136  1.00  0.00     0.055 A 
ATOM     69  C   UNL A   1      48.924  28.474  29.522  1.00  0.00     0.041 A 
ATOM     70  F   UNL A   1      47.129  29.111  30.884  1.00  0.00    -0.206 F 
ATOM     71  C   UNL A   1      49.444  28.193  28.262  1.00  0.00     0.022 A 
BRANCH  68  72
ATOM     72  S   UNL A   1      49.223  27.848  25.505  1.00  0.00     0.124 S 
ATOM     73  O   UNL A   1      48.136  28.302  24.641  1.00  0.00    -0.237 OA
ATOM     74  O   UNL A   1      50.487  28.563  25.370  1.00  0.00    -0.237 OA
ATOM     75  O   UNL A   1      49.337  26.397  25.640  1.00  0.00    -0.744 OA
ENDBRANCH  68  72
ENDBRANCH  51  65
BRANCH  52  76
ATOM     76  C   UNL A   1      37.263  31.810  30.143  1.00  0.00     0.023 A 
ATOM     77  C   UNL A   1      36.427  32.421  29.195  1.00  0.00     0.031 A 
ATOM     78  C   UNL A   1      36.752  31.610  31.439  1.00  0.00     0.131 A 
ATOM     79  C   UNL A   1      35.147  32.861  29.570  1.00  0.00     0.055 A 
ATOM     80  C   UNL A   1      35.457  31.996  31.790  1.00  0.00     0.041 A 
ATOM     81  F   UNL A   1      37.506  31.029  32.385  1.00  0.00    -0.206 F 
ATOM     82  C   UNL A   1      34.652  32.641  30.857  1.00  0.00     0.022 A 
BRANCH  79  83
ATOM     83  S   UNL A   1      34.178  33.825  28.378  1.00  0.00     0.124 S 
ATOM     84  O   UNL A   1      35.194  34.197  27.400  1.00  0.00    -0.237 OA
ATOM     85  O   UNL A   1      33.188  32.849  27.935  1.00  0.00    -0.237 OA
ATOM     86  O   UNL A   1      33.650  34.927  29.180  1.00  0.00    -0.744 OA
ENDBRANCH  79  83
ENDBRANCH  52  76
BRANCH  64  87
ATOM     87  C   UNL A   1      43.371  35.130  30.731  1.00  0.00     0.023 A 
ATOM     88  C   UNL A   1      43.409  35.526  32.079  1.00  0.00     0.031 A 
ATOM     89  C   UNL A   1      43.669  36.093  29.750  1.00  0.00     0.131 A 
ATOM     90  C   UNL A   1      43.685  36.862  32.407  1.00  0.00     0.055 A 
ATOM     91  C   UNL A   1      44.002  37.406  30.085  1.00  0.00     0.041 A 
ATOM     92  F   UNL A   1      43.645  35.771  28.447  1.00  0.00    -0.206 F 
ATOM     93  C   UNL A   1      43.998  37.799  31.420  1.00  0.00     0.022 A 
BRANCH  90  94
ATOM     94  S   UNL A   1      43.545  37.381  34.140  1.00  0.00     0.124 S 
ATOM     95  O   UNL A   1      44.943  37.452  34.550  1.00  0.00    -0.237 OA
ATOM     96  O   UNL A   1      42.848  38.658  34.027  1.00  0.00    -0.237 OA
ATOM     97  O   UNL A   1      42.771  36.306  34.758  1.00  0.00    -0.744 OA
ENDBRANCH  90  94
ENDBRANCH  64  87
ENDBRANCH  38  39
ENDBRANCH  30  33
ENDBRANCH  28  29
ENDBRANCH  27  28
ENDBRANCH  26  27
ENDBRANCH   1  26
TORSDOF 20
ENDMDL
MODEL 3
REMARK VINA RESULT:     -10.7      1.849      7.639
REMARK SMILES O=C(NC[C@@H]1CCOC1)NC[C@@H]1CC[C@H](C(=O)NCCCCCCNC(=O)c2ccc(-c3c4nc(c(-c5cc(S(=O)(=O)[O-])ccc5F)c5ccc([nH]5)c(-c5cc(S(=O)(=O)[O-])ccc5F)c5nc(c(-c6cc(S(=O)(=O)[O-])ccc6F)c6ccc3[nH]6)C=C5)C=C4)cc2)O1
REMARK SMILES IDX 21 1 20 2 19 3 18 4 16 5 17 6 15 8 12 9 13 10 91 11 14 12
REMARK SMILES IDX 11 13 10 14 1 15 2 16 3 17 4 20 5 21 6 22 9 23 7 24 8 25
REMARK SMILES IDX 22 26 23 27 24 28 25 29 26 30 27 32 28 33 29 34 90 35 30 36
REMARK SMILES IDX 89 37 31 38 32 39 33 40 83 41 34 42 88 43 82 44 84 45 35 46
REMARK SMILES IDX 87 47 81 48 80 49 36 51 68 52 48 53 67 54 49 55 52 56 66 57
REMARK SMILES IDX 85 58 50 59 51 60 65 62 86 63 53 64 37 65 38 66 46 67 39 68
REMARK SMILES IDX 45 69 47 70 44 71 40 72 41 73 42 74 43 75 69 76 70 77 78 78
REMARK SMILES IDX 71 79 77 80 79 81 76 82 72 83 73 84 74 85 75 86 54 87 55 88
REMARK SMILES IDX 63 89 56 90 62 91 64 92 61 93 57 94 58 95 59 96 60 97
REMARK H PARENT 18 7 3 18 10 19 25 31 84 50 52 61
REMARK Flexibility Score: inf
ROOT
ATOM      1  C   UNL A   1      34.791  20.599  25.024  1.00  0.00     0.002 C 
ENDROOT
BRANCH   1   2
ATOM      2  C   UNL A   1      33.539  20.702  25.900  1.00  0.00     0.021 C 
BRANCH   2   3
ATOM      3  C   UNL A   1      33.557  21.902  26.841  1.00  0.00     0.116 C 
BRANCH   3   4
ATOM      4  N   UNL A   1      32.226  22.294  27.246  1.00  0.00    -0.354 N 
ATOM      5  C   UNL A   1      31.436  23.300  26.771  1.00  0.00     0.249 C 
ATOM      6  O   UNL A   1      30.325  23.448  27.292  1.00  0.00    -0.272 OA
ATOM      7  H   UNL A   1      31.833  21.757  27.971  1.00  0.00     0.163 HD
BRANCH   5   8
ATOM      8  C   UNL A   1      31.908  24.247  25.644  1.00  0.00     0.207 C 
ATOM      9  C   UNL A   1      30.865  25.771  24.195  1.00  0.00     0.138 C 
ATOM     10  C   UNL A   1      31.005  24.471  23.415  1.00  0.00     0.037 C 
ATOM     11  O   UNL A   1      31.178  25.470  25.568  1.00  0.00    -0.363 OA
ATOM     12  C   UNL A   1      31.925  23.616  24.261  1.00  0.00     0.045 C 
BRANCH   9  13
ATOM     13  C   UNL A   1      29.455  26.380  24.158  1.00  0.00     0.149 C 
BRANCH  13  14
ATOM     14  N   UNL A   1      29.363  27.620  23.423  1.00  0.00    -0.336 N 
ATOM     15  O   UNL A   1      30.899  28.711  24.702  1.00  0.00    -0.249 OA
ATOM     16  C   UNL A   1      30.161  28.676  23.717  1.00  0.00     0.314 C 
ATOM     17  N   UNL A   1      30.127  29.730  22.873  1.00  0.00    -0.338 N 
ATOM     18  H   UNL A   1      30.738  30.464  23.116  1.00  0.00     0.165 HD
ATOM     19  H   UNL A   1      28.707  27.699  22.691  1.00  0.00     0.165 HD
BRANCH  17  20
ATOM     20  C   UNL A   1      29.349  29.972  21.671  1.00  0.00     0.123 C 
BRANCH  20  21
ATOM     21  C   UNL A   1      28.069  30.754  21.988  1.00  0.00     0.036 C 
ATOM     22  C   UNL A   1      28.026  32.127  21.343  1.00  0.00     0.036 C 
ATOM     23  C   UNL A   1      28.017  31.127  23.460  1.00  0.00     0.165 C 
ATOM     24  C   UNL A   1      28.805  32.993  22.312  1.00  0.00     0.160 C 
ATOM     25  O   UNL A   1      28.752  32.353  23.595  1.00  0.00    -0.381 OA
ENDBRANCH  20  21
ENDBRANCH  17  20
ENDBRANCH  13  14
ENDBRANCH   9  13
ENDBRANCH   5   8
ENDBRANCH   3   4
ENDBRANCH   2   3
ENDBRANCH   1   2
BRANCH   1  26
ATOM     26  C   UNL A   1      35.139  21.876  24.247  1.00  0.00     0.002 C 
BRANCH  26  27
ATOM     27  C   UNL A   1      36.607  22.312  24.317  1.00  0.00     0.021 C 
BRANCH  27  28
ATOM     28  C   UNL A   1      37.178  22.410  25.730  1.00  0.00     0.116 C 
BRANCH  28  29
ATOM     29  N   UNL A   1      38.142  21.353  25.996  1.00  0.00    -0.352 N 
ATOM     30  C   UNL A   1      39.457  21.445  26.373  1.00  0.00     0.251 C 
ATOM     31  H   UNL A   1      37.800  20.436  25.889  1.00  0.00     0.163 HD
ATOM     32  O   UNL A   1      40.175  20.449  26.316  1.00  0.00    -0.269 OA
BRANCH  30  33
ATOM     33  C   UNL A   1      40.011  22.736  26.834  1.00  0.00     0.039 A 
ATOM     34  C   UNL A   1      40.867  22.751  27.940  1.00  0.00     0.014 A 
ATOM     35  C   UNL A   1      39.665  23.932  26.199  1.00  0.00     0.014 A 
ATOM     36  C   UNL A   1      41.416  23.960  28.375  1.00  0.00     0.010 A 
ATOM     37  C   UNL A   1      40.263  25.126  26.595  1.00  0.00     0.010 A 
ATOM     38  C   UNL A   1      41.141  25.154  27.689  1.00  0.00    -0.014 A 
BRANCH  38  39
ATOM     39  C   UNL A   1      41.756  26.442  28.103  1.00  0.00     0.031 A 
ATOM     40  C   UNL A   1      40.909  27.508  28.744  1.00  0.00     0.074 A 
ATOM     41  C   UNL A   1      43.056  26.678  27.831  1.00  0.00     0.049 A 
ATOM     42  N   UNL A   1      41.231  28.731  29.081  1.00  0.00    -0.248 NA
ATOM     43  C   UNL A   1      39.506  27.160  29.018  1.00  0.00     0.031 C 
ATOM     44  C   UNL A   1      43.966  25.735  27.176  1.00  0.00     0.029 A 
ATOM     45  N   UNL A   1      43.835  27.786  28.054  1.00  0.00    -0.354 N 
ATOM     46  C   UNL A   1      40.068  29.306  29.583  1.00  0.00     0.074 A 
ATOM     47  C   UNL A   1      39.024  28.310  29.464  1.00  0.00     0.031 C 
ATOM     48  C   UNL A   1      45.177  26.302  27.058  1.00  0.00     0.029 A 
ATOM     49  C   UNL A   1      45.122  27.662  27.584  1.00  0.00     0.049 A 
ATOM     50  H   UNL A   1      43.504  28.595  28.508  1.00  0.00     0.167 HD
ATOM     51  C   UNL A   1      39.894  30.545  30.106  1.00  0.00     0.034 A 
ATOM     52  C   UNL A   1      46.137  28.549  27.559  1.00  0.00     0.034 A 
ATOM     53  C   UNL A   1      40.953  31.515  30.236  1.00  0.00     0.049 A 
ATOM     54  C   UNL A   1      45.917  29.921  28.148  1.00  0.00     0.074 A 
ATOM     55  C   UNL A   1      40.903  32.771  30.817  1.00  0.00     0.029 A 
ATOM     56  N   UNL A   1      42.252  31.344  29.775  1.00  0.00    -0.354 N 
ATOM     57  N   UNL A   1      44.825  30.429  28.673  1.00  0.00    -0.248 NA
ATOM     58  C   UNL A   1      47.067  30.834  28.155  1.00  0.00     0.031 C 
ATOM     59  C   UNL A   1      42.148  33.383  30.646  1.00  0.00     0.029 A 
ATOM     60  C   UNL A   1      43.002  32.482  30.029  1.00  0.00     0.049 A 
ATOM     61  H   UNL A   1      42.590  30.533  29.332  1.00  0.00     0.167 HD
ATOM     62  C   UNL A   1      45.170  31.707  29.103  1.00  0.00     0.074 A 
ATOM     63  C   UNL A   1      46.572  31.887  28.788  1.00  0.00     0.031 C 
ATOM     64  C   UNL A   1      44.399  32.648  29.707  1.00  0.00     0.034 A 
BRANCH  51  65
ATOM     65  C   UNL A   1      38.501  30.931  30.546  1.00  0.00     0.023 A 
ATOM     66  C   UNL A   1      37.608  31.598  29.689  1.00  0.00     0.031 A 
ATOM     67  C   UNL A   1      38.062  30.627  31.847  1.00  0.00     0.131 A 
ATOM     68  C   UNL A   1      36.347  31.993  30.161  1.00  0.00     0.055 A 
ATOM     69  C   UNL A   1      36.777  30.955  32.286  1.00  0.00     0.041 A 
ATOM     70  F   UNL A   1      38.876  30.010  32.717  1.00  0.00    -0.206 F 
ATOM     71  C   UNL A   1      35.916  31.652  31.445  1.00  0.00     0.022 A 
BRANCH  68  72
ATOM     72  S   UNL A   1      35.323  33.062  29.114  1.00  0.00     0.124 S 
ATOM     73  O   UNL A   1      34.121  33.209  29.930  1.00  0.00    -0.237 OA
ATOM     74  O   UNL A   1      36.151  34.255  28.974  1.00  0.00    -0.237 OA
ATOM     75  O   UNL A   1      35.147  32.279  27.893  1.00  0.00    -0.744 OA
ENDBRANCH  68  72
ENDBRANCH  51  65
BRANCH  52  76
ATOM     76  C   UNL A   1      47.445  28.189  26.939  1.00  0.00     0.023 A 
ATOM     77  C   UNL A   1      47.576  28.047  25.549  1.00  0.00     0.031 A 
ATOM     78  C   UNL A   1      48.575  27.927  27.736  1.00  0.00     0.131 A 
ATOM     79  C   UNL A   1      48.790  27.602  25.001  1.00  0.00     0.055 A 
ATOM     80  C   UNL A   1      49.797  27.543  27.182  1.00  0.00     0.041 A 
ATOM     81  F   UNL A   1      48.508  28.049  29.071  1.00  0.00    -0.206 F 
ATOM     82  C   UNL A   1      49.904  27.362  25.807  1.00  0.00     0.022 A 
BRANCH  79  83
ATOM     83  S   UNL A   1      48.859  27.236  23.226  1.00  0.00     0.124 S 
ATOM     84  O   UNL A   1      50.296  27.203  22.985  1.00  0.00    -0.237 OA
ATOM     85  O   UNL A   1      48.165  25.954  23.155  1.00  0.00    -0.237 OA
ATOM     86  O   UNL A   1      48.150  28.361  22.620  1.00  0.00    -0.744 OA
ENDBRANCH  79  83
ENDBRANCH  52  76
BRANCH  64  87
ATOM     87  C   UNL A   1      45.076  33.932  30.115  1.00  0.00     0.023 A 
ATOM     88  C   UNL A   1      45.119  35.052  29.268  1.00  0.00     0.031 A 
ATOM     89  C   UNL A   1      45.694  34.032  31.375  1.00  0.00     0.131 A 
ATOM     90  C   UNL A   1      45.810  36.205  29.667  1.00  0.00     0.055 A 
ATOM     91  C   UNL A   1      46.329  35.202  31.792  1.00  0.00     0.041 A 
ATOM     92  F   UNL A   1      45.686  32.992  32.224  1.00  0.00    -0.206 F 
ATOM     93  C   UNL A   1      46.401  36.293  30.931  1.00  0.00     0.022 A 
BRANCH  90  94
ATOM     94  S   UNL A   1      46.004  37.562  28.479  1.00  0.00     0.124 S 
ATOM     95  O   UNL A   1      47.407  37.437  28.101  1.00  0.00    -0.237 OA
ATOM     96  O   UNL A   1      45.032  37.214  27.447  1.00  0.00    -0.237 OA
ATOM     97  O   UNL A   1      45.676  38.753  29.261  1.00  0.00    -0.744 OA
ENDBRANCH  90  94
ENDBRANCH  64  87
ENDBRANCH  38  39
ENDBRANCH  30  33
ENDBRANCH  28  29
ENDBRANCH  27  28
ENDBRANCH  26  27
ENDBRANCH   1  26
TORSDOF 20
ENDMDL
