MODEL 1
REMARK VINA RESULT:     -10.6      0.000      0.000
REMARK SMILES CCCC[C@@H](C(=O)NCCCCCCNC(=O)c1ccc(-c2c3nc(c(-c4cc(S(=O)(=O)[O-])ccc4F)c4ccc([nH]4)c(-c4cc(S(=O)(=O)[O-])ccc4F)c4nc(c(-c5cc(S(=O)(=O)[O-])ccc5F)c5ccc2[nH]5)C=C4)C=C3)cc1)[C@](C)(O)c1cccc(Br)c1
REMARK SMILES IDX 11 1 10 2 9 3 8 4 6 5 7 6 5 8 4 9 3 10 2 11 1 12 81 13 82 14
REMARK SMILES IDX 83 15 84 17 85 18 90 19 86 20 88 21 87 22 89 23 12 24 13 25
REMARK SMILES IDX 14 26 15 27 16 28 17 30 18 31 19 32 80 33 20 34 79 35 21 36
REMARK SMILES IDX 22 37 23 38 73 39 24 40 78 41 72 42 74 43 25 44 77 45 71 46
REMARK SMILES IDX 70 47 26 49 58 50 38 51 57 52 39 53 42 54 56 55 75 56 40 57
REMARK SMILES IDX 41 58 55 60 76 61 43 62 27 63 28 64 36 65 29 66 35 67 37 68
REMARK SMILES IDX 34 69 30 70 31 71 32 72 33 73 59 74 60 75 68 76 61 77 67 78
REMARK SMILES IDX 69 79 66 80 62 81 63 82 64 83 65 84 44 85 45 86 53 87 46 88
REMARK SMILES IDX 52 89 54 90 51 91 47 92 48 93 49 94 50 95
REMARK H PARENT 8 7 83 16 15 29 74 48 42 59
REMARK Flexibility Score: inf
ROOT
ATOM      1  C   UNL A   1      32.241  29.881  26.124  1.00  0.00     0.002 C 
ENDROOT
BRANCH   1   2
ATOM      2  C   UNL A   1      31.888  28.995  27.318  1.00  0.00     0.021 C 
BRANCH   2   3
ATOM      3  C   UNL A   1      31.537  27.554  26.936  1.00  0.00     0.116 C 
BRANCH   3   4
ATOM      4  N   UNL A   1      32.594  27.001  26.121  1.00  0.00    -0.356 N 
ATOM      5  C   UNL A   1      32.566  26.213  25.015  1.00  0.00     0.226 C 
ATOM      6  O   UNL A   1      33.660  25.745  24.696  1.00  0.00    -0.275 OA
ATOM      7  H   UNL A   1      33.500  27.241  26.421  1.00  0.00     0.163 HD
BRANCH   5   8
ATOM      8  C   UNL A   1      31.282  25.990  24.191  1.00  0.00     0.114 C 
BRANCH   8   9
ATOM      9  C   UNL A   1      31.156  24.561  23.589  1.00  0.00     0.017 C 
BRANCH   9  10
ATOM     10  C   UNL A   1      31.718  23.351  24.335  1.00  0.00     0.001 C 
BRANCH  10  11
ATOM     11  C   UNL A   1      30.871  22.797  25.482  1.00  0.00    -0.003 C 
ATOM     12  C   UNL A   1      31.497  23.013  26.850  1.00  0.00     0.004 C 
ENDBRANCH  10  11
ENDBRANCH   9  10
ENDBRANCH   8   9
BRANCH   8  13
ATOM     13  C   UNL A   1      31.184  27.088  23.038  1.00  0.00     0.098 C 
ATOM     14  C   UNL A   1      31.452  26.463  21.649  1.00  0.00     0.048 C 
BRANCH  13  15
ATOM     15  O   UNL A   1      32.289  28.008  23.224  1.00  0.00    -0.385 OA
ATOM     16  H   UNL A   1      33.118  27.575  22.966  1.00  0.00     0.211 HD
ENDBRANCH  13  15
BRANCH  13  17
ATOM     17  C   UNL A   1      29.904  27.949  23.079  1.00  0.00    -0.015 A 
ATOM     18  C   UNL A   1      28.676  27.395  23.494  1.00  0.00     0.007 A 
ATOM     19  C   UNL A   1      29.880  29.288  22.648  1.00  0.00     0.022 A 
ATOM     20  C   UNL A   1      27.473  28.099  23.386  1.00  0.00     0.002 A 
ATOM     21  C   UNL A   1      28.678  30.000  22.563  1.00  0.00     0.018 A 
ATOM     22  C   UNL A   1      27.471  29.403  22.908  1.00  0.00     0.016 A 
ATOM     23  Br  UNL A   1      28.689  31.789  21.943  1.00  0.00    -0.051 Br
ENDBRANCH  13  17
ENDBRANCH   8  13
ENDBRANCH   5   8
ENDBRANCH   3   4
ENDBRANCH   2   3
ENDBRANCH   1   2
BRANCH   1  24
ATOM     24  C   UNL A   1      31.141  30.874  25.734  1.00  0.00     0.002 C 
BRANCH  24  25
ATOM     25  C   UNL A   1      31.200  32.231  26.446  1.00  0.00     0.021 C 
BRANCH  25  26
ATOM     26  C   UNL A   1      32.537  32.557  27.108  1.00  0.00     0.116 C 
BRANCH  26  27
ATOM     27  N   UNL A   1      32.591  33.936  27.557  1.00  0.00    -0.352 N 
ATOM     28  C   UNL A   1      33.369  34.511  28.529  1.00  0.00     0.251 C 
ATOM     29  H   UNL A   1      31.976  34.551  27.096  1.00  0.00     0.163 HD
ATOM     30  O   UNL A   1      33.088  35.632  28.941  1.00  0.00    -0.269 OA
BRANCH  28  31
ATOM     31  C   UNL A   1      34.533  33.783  29.084  1.00  0.00     0.039 A 
ATOM     32  C   UNL A   1      34.305  32.704  29.942  1.00  0.00     0.014 A 
ATOM     33  C   UNL A   1      35.841  34.194  28.809  1.00  0.00     0.014 A 
ATOM     34  C   UNL A   1      35.388  32.016  30.498  1.00  0.00     0.010 A 
ATOM     35  C   UNL A   1      36.919  33.467  29.310  1.00  0.00     0.010 A 
ATOM     36  C   UNL A   1      36.704  32.382  30.175  1.00  0.00    -0.014 A 
BRANCH  36  37
ATOM     37  C   UNL A   1      37.864  31.668  30.768  1.00  0.00     0.031 A 
ATOM     38  C   UNL A   1      38.317  32.005  32.165  1.00  0.00     0.074 A 
ATOM     39  C   UNL A   1      38.530  30.750  30.042  1.00  0.00     0.049 A 
ATOM     40  N   UNL A   1      39.337  31.542  32.840  1.00  0.00    -0.248 NA
ATOM     41  C   UNL A   1      37.533  33.022  32.883  1.00  0.00     0.031 C 
ATOM     42  C   UNL A   1      38.204  30.364  28.667  1.00  0.00     0.029 A 
ATOM     43  N   UNL A   1      39.620  29.978  30.353  1.00  0.00    -0.354 N 
ATOM     44  C   UNL A   1      39.327  32.219  34.056  1.00  0.00     0.074 A 
ATOM     45  C   UNL A   1      38.235  33.168  33.996  1.00  0.00     0.031 C 
ATOM     46  C   UNL A   1      39.064  29.413  28.263  1.00  0.00     0.029 A 
ATOM     47  C   UNL A   1      40.021  29.149  29.332  1.00  0.00     0.049 A 
ATOM     48  H   UNL A   1      40.074  30.015  31.227  1.00  0.00     0.167 HD
ATOM     49  C   UNL A   1      40.136  32.048  35.131  1.00  0.00     0.034 A 
ATOM     50  C   UNL A   1      41.048  28.278  29.264  1.00  0.00     0.034 A 
ATOM     51  C   UNL A   1      41.210  31.086  35.180  1.00  0.00     0.049 A 
ATOM     52  C   UNL A   1      41.936  28.105  30.472  1.00  0.00     0.074 A 
ATOM     53  C   UNL A   1      42.069  30.801  36.228  1.00  0.00     0.029 A 
ATOM     54  N   UNL A   1      41.574  30.247  34.133  1.00  0.00    -0.354 N 
ATOM     55  N   UNL A   1      41.888  28.726  31.628  1.00  0.00    -0.248 NA
ATOM     56  C   UNL A   1      43.001  27.101  30.370  1.00  0.00     0.031 C 
ATOM     57  C   UNL A   1      42.985  29.835  35.796  1.00  0.00     0.029 A 
ATOM     58  C   UNL A   1      42.654  29.460  34.504  1.00  0.00     0.049 A 
ATOM     59  H   UNL A   1      41.128  30.216  33.255  1.00  0.00     0.167 HD
ATOM     60  C   UNL A   1      42.896  28.158  32.403  1.00  0.00     0.074 A 
ATOM     61  C   UNL A   1      43.522  27.138  31.587  1.00  0.00     0.031 C 
ATOM     62  C   UNL A   1      43.268  28.448  33.677  1.00  0.00     0.034 A 
BRANCH  49  63
ATOM     63  C   UNL A   1      39.899  32.942  36.327  1.00  0.00     0.023 A 
ATOM     64  C   UNL A   1      39.180  32.497  37.451  1.00  0.00     0.031 A 
ATOM     65  C   UNL A   1      40.368  34.267  36.333  1.00  0.00     0.131 A 
ATOM     66  C   UNL A   1      38.881  33.388  38.492  1.00  0.00     0.055 A 
ATOM     67  C   UNL A   1      40.141  35.125  37.411  1.00  0.00     0.041 A 
ATOM     68  F   UNL A   1      41.043  34.758  35.281  1.00  0.00    -0.206 F 
ATOM     69  C   UNL A   1      39.378  34.692  38.492  1.00  0.00     0.022 A 
BRANCH  66  70
ATOM     70  S   UNL A   1      37.710  32.861  39.773  1.00  0.00     0.124 S 
ATOM     71  O   UNL A   1      37.919  33.881  40.798  1.00  0.00    -0.237 OA
ATOM     72  O   UNL A   1      36.432  32.911  39.072  1.00  0.00    -0.237 OA
ATOM     73  O   UNL A   1      38.174  31.522  40.132  1.00  0.00    -0.744 OA
ENDBRANCH  66  70
ENDBRANCH  49  63
BRANCH  50  74
ATOM     74  C   UNL A   1      41.297  27.495  28.019  1.00  0.00     0.023 A 
ATOM     75  C   UNL A   1      41.007  26.123  27.958  1.00  0.00     0.031 A 
ATOM     76  C   UNL A   1      41.870  28.100  26.887  1.00  0.00     0.131 A 
ATOM     77  C   UNL A   1      41.341  25.389  26.809  1.00  0.00     0.055 A 
ATOM     78  C   UNL A   1      42.151  27.376  25.727  1.00  0.00     0.041 A 
ATOM     79  F   UNL A   1      42.159  29.412  26.890  1.00  0.00    -0.206 F 
ATOM     80  C   UNL A   1      41.900  26.008  25.690  1.00  0.00     0.022 A 
BRANCH  77  81
ATOM     81  S   UNL A   1      41.113  23.589  26.835  1.00  0.00     0.124 S 
ATOM     82  O   UNL A   1      42.045  23.157  25.800  1.00  0.00    -0.237 OA
ATOM     83  O   UNL A   1      41.477  23.258  28.208  1.00  0.00    -0.237 OA
ATOM     84  O   UNL A   1      39.697  23.423  26.510  1.00  0.00    -0.744 OA
ENDBRANCH  77  81
ENDBRANCH  50  74
BRANCH  62  85
ATOM     85  C   UNL A   1      44.366  27.605  34.277  1.00  0.00     0.023 A 
ATOM     86  C   UNL A   1      44.099  26.381  34.913  1.00  0.00     0.031 A 
ATOM     87  C   UNL A   1      45.700  28.049  34.229  1.00  0.00     0.131 A 
ATOM     88  C   UNL A   1      45.140  25.673  35.532  1.00  0.00     0.055 A 
ATOM     89  C   UNL A   1      46.741  27.311  34.794  1.00  0.00     0.041 A 
ATOM     90  F   UNL A   1      46.012  29.212  33.635  1.00  0.00    -0.206 F 
ATOM     91  C   UNL A   1      46.462  26.123  35.463  1.00  0.00     0.022 A 
BRANCH  88  92
ATOM     92  S   UNL A   1      44.730  24.207  36.518  1.00  0.00     0.124 S 
ATOM     93  O   UNL A   1      43.619  23.635  35.765  1.00  0.00    -0.237 OA
ATOM     94  O   UNL A   1      45.978  23.451  36.486  1.00  0.00    -0.237 OA
ATOM     95  O   UNL A   1      44.374  24.761  37.824  1.00  0.00    -0.744 OA
ENDBRANCH  88  92
ENDBRANCH  62  85
ENDBRANCH  36  37
ENDBRANCH  28  31
ENDBRANCH  26  27
ENDBRANCH  25  26
ENDBRANCH  24  25
ENDBRANCH   1  24
TORSDOF 22
ENDMDL
MODEL 2
REMARK VINA RESULT:     -10.5      0.752      7.491
REMARK SMILES CCCC[C@@H](C(=O)NCCCCCCNC(=O)c1ccc(-c2c3nc(c(-c4cc(S(=O)(=O)[O-])ccc4F)c4ccc([nH]4)c(-c4cc(S(=O)(=O)[O-])ccc4F)c4nc(c(-c5cc(S(=O)(=O)[O-])ccc5F)c5ccc2[nH]5)C=C4)C=C3)cc1)[C@](C)(O)c1cccc(Br)c1
REMARK SMILES IDX 11 1 10 2 9 3 8 4 6 5 7 6 5 8 4 9 3 10 2 11 1 12 81 13 82 14
REMARK SMILES IDX 83 15 84 17 85 18 90 19 86 20 88 21 87 22 89 23 12 24 13 25
REMARK SMILES IDX 14 26 15 27 16 28 17 30 18 31 19 32 80 33 20 34 79 35 21 36
REMARK SMILES IDX 22 37 23 38 73 39 24 40 78 41 72 42 74 43 25 44 77 45 71 46
REMARK SMILES IDX 70 47 26 49 58 50 38 51 57 52 39 53 42 54 56 55 75 56 40 57
REMARK SMILES IDX 41 58 55 60 76 61 43 62 27 63 28 64 36 65 29 66 35 67 37 68
REMARK SMILES IDX 34 69 30 70 31 71 32 72 33 73 59 74 60 75 68 76 61 77 67 78
REMARK SMILES IDX 69 79 66 80 62 81 63 82 64 83 65 84 44 85 45 86 53 87 46 88
REMARK SMILES IDX 52 89 54 90 51 91 47 92 48 93 49 94 50 95
REMARK H PARENT 8 7 83 16 15 29 74 48 42 59
REMARK Flexibility Score: inf
ROOT
ATOM      1  C   UNL A   1      32.137  29.503  25.937  1.00  0.00     0.002 C 
ENDROOT
BRANCH   1   2
ATOM      2  C   UNL A   1      31.545  28.598  27.016  1.00  0.00     0.021 C 
BRANCH   2   3
ATOM      3  C   UNL A   1      31.585  27.108  26.663  1.00  0.00     0.116 C 
BRANCH   3   4
ATOM      4  N   UNL A   1      32.803  26.817  25.941  1.00  0.00    -0.356 N 
ATOM      5  C   UNL A   1      33.039  26.087  24.821  1.00  0.00     0.226 C 
ATOM      6  O   UNL A   1      34.230  25.867  24.598  1.00  0.00    -0.275 OA
ATOM      7  H   UNL A   1      33.609  27.225  26.334  1.00  0.00     0.163 HD
BRANCH   5   8
ATOM      8  C   UNL A   1      31.908  25.642  23.872  1.00  0.00     0.114 C 
BRANCH   8   9
ATOM      9  C   UNL A   1      32.159  24.267  23.189  1.00  0.00     0.017 C 
BRANCH   9  10
ATOM     10  C   UNL A   1      32.000  22.966  23.978  1.00  0.00     0.001 C 
BRANCH  10  11
ATOM     11  C   UNL A   1      33.288  22.285  24.446  1.00  0.00    -0.003 C 
ATOM     12  C   UNL A   1      34.487  22.598  23.567  1.00  0.00     0.004 C 
ENDBRANCH  10  11
ENDBRANCH   9  10
ENDBRANCH   8   9
BRANCH   8  13
ATOM     13  C   UNL A   1      31.653  26.768  22.771  1.00  0.00     0.098 C 
ATOM     14  C   UNL A   1      31.854  26.208  21.344  1.00  0.00     0.048 C 
BRANCH  13  15
ATOM     15  O   UNL A   1      32.708  27.753  22.910  1.00  0.00    -0.385 OA
ATOM     16  H   UNL A   1      32.716  28.331  22.131  1.00  0.00     0.211 HD
ENDBRANCH  13  15
BRANCH  13  17
ATOM     17  C   UNL A   1      30.328  27.540  22.938  1.00  0.00    -0.015 A 
ATOM     18  C   UNL A   1      29.224  26.946  23.583  1.00  0.00     0.007 A 
ATOM     19  C   UNL A   1      30.131  28.828  22.407  1.00  0.00     0.022 A 
ATOM     20  C   UNL A   1      27.965  27.553  23.606  1.00  0.00     0.002 A 
ATOM     21  C   UNL A   1      28.876  29.446  22.450  1.00  0.00     0.018 A 
ATOM     22  C   UNL A   1      27.786  28.803  23.027  1.00  0.00     0.016 A 
ATOM     23  Br  UNL A   1      28.649  31.165  21.691  1.00  0.00    -0.051 Br
ENDBRANCH  13  17
ENDBRANCH   8  13
ENDBRANCH   5   8
ENDBRANCH   3   4
ENDBRANCH   2   3
ENDBRANCH   1   2
BRANCH   1  24
ATOM     24  C   UNL A   1      31.229  30.669  25.530  1.00  0.00     0.002 C 
BRANCH  24  25
ATOM     25  C   UNL A   1      31.193  31.846  26.512  1.00  0.00     0.021 C 
BRANCH  25  26
ATOM     26  C   UNL A   1      32.559  32.329  26.995  1.00  0.00     0.116 C 
BRANCH  26  27
ATOM     27  N   UNL A   1      32.526  33.726  27.386  1.00  0.00    -0.352 N 
ATOM     28  C   UNL A   1      33.231  34.378  28.366  1.00  0.00     0.251 C 
ATOM     29  H   UNL A   1      31.904  34.291  26.872  1.00  0.00     0.163 HD
ATOM     30  O   UNL A   1      32.878  35.500  28.716  1.00  0.00    -0.269 OA
BRANCH  28  31
ATOM     31  C   UNL A   1      34.401  33.732  29.002  1.00  0.00     0.039 A 
ATOM     32  C   UNL A   1      34.188  32.657  29.869  1.00  0.00     0.014 A 
ATOM     33  C   UNL A   1      35.696  34.216  28.792  1.00  0.00     0.014 A 
ATOM     34  C   UNL A   1      35.275  32.047  30.500  1.00  0.00     0.010 A 
ATOM     35  C   UNL A   1      36.785  33.565  29.371  1.00  0.00     0.010 A 
ATOM     36  C   UNL A   1      36.584  32.485  30.245  1.00  0.00    -0.014 A 
BRANCH  36  37
ATOM     37  C   UNL A   1      37.748  31.853  30.919  1.00  0.00     0.031 A 
ATOM     38  C   UNL A   1      38.581  30.837  30.182  1.00  0.00     0.074 A 
ATOM     39  C   UNL A   1      38.030  32.162  32.199  1.00  0.00     0.049 A 
ATOM     40  N   UNL A   1      39.597  30.132  30.608  1.00  0.00    -0.248 NA
ATOM     41  C   UNL A   1      38.197  30.559  28.789  1.00  0.00     0.031 C 
ATOM     42  C   UNL A   1      37.275  33.106  33.026  1.00  0.00     0.029 A 
ATOM     43  N   UNL A   1      39.023  31.714  33.032  1.00  0.00    -0.354 N 
ATOM     44  C   UNL A   1      39.966  29.316  29.542  1.00  0.00     0.074 A 
ATOM     45  C   UNL A   1      39.023  29.573  28.474  1.00  0.00     0.031 C 
ATOM     46  C   UNL A   1      37.846  33.181  34.240  1.00  0.00     0.029 A 
ATOM     47  C   UNL A   1      38.982  32.267  34.291  1.00  0.00     0.049 A 
ATOM     48  H   UNL A   1      39.704  31.057  32.755  1.00  0.00     0.167 HD
ATOM     49  C   UNL A   1      41.008  28.452  29.454  1.00  0.00     0.034 A 
ATOM     50  C   UNL A   1      39.768  32.055  35.366  1.00  0.00     0.034 A 
ATOM     51  C   UNL A   1      41.948  28.220  30.524  1.00  0.00     0.049 A 
ATOM     52  C   UNL A   1      40.920  31.089  35.245  1.00  0.00     0.074 A 
ATOM     53  C   UNL A   1      43.060  27.396  30.534  1.00  0.00     0.029 A 
ATOM     54  N   UNL A   1      41.886  28.814  31.779  1.00  0.00    -0.354 N 
ATOM     55  N   UNL A   1      41.279  30.354  34.218  1.00  0.00    -0.248 NA
ATOM     56  C   UNL A   1      41.783  30.940  36.423  1.00  0.00     0.031 C 
ATOM     57  C   UNL A   1      43.636  27.449  31.809  1.00  0.00     0.029 A 
ATOM     58  C   UNL A   1      42.929  28.361  32.574  1.00  0.00     0.049 A 
ATOM     59  H   UNL A   1      41.201  29.463  32.062  1.00  0.00     0.167 HD
ATOM     60  C   UNL A   1      42.432  29.685  34.616  1.00  0.00     0.074 A 
ATOM     61  C   UNL A   1      42.714  30.114  35.971  1.00  0.00     0.031 C 
ATOM     62  C   UNL A   1      43.194  28.798  33.925  1.00  0.00     0.034 A 
BRANCH  49  63
ATOM     63  C   UNL A   1      41.163  27.682  28.163  1.00  0.00     0.023 A 
ATOM     64  C   UNL A   1      40.838  26.316  28.074  1.00  0.00     0.031 A 
ATOM     65  C   UNL A   1      41.672  28.310  27.013  1.00  0.00     0.131 A 
ATOM     66  C   UNL A   1      41.102  25.607  26.894  1.00  0.00     0.055 A 
ATOM     67  C   UNL A   1      41.853  27.618  25.814  1.00  0.00     0.041 A 
ATOM     68  F   UNL A   1      42.019  29.606  27.039  1.00  0.00    -0.206 F 
ATOM     69  C   UNL A   1      41.583  26.254  25.754  1.00  0.00     0.022 A 
BRANCH  66  70
ATOM     70  S   UNL A   1      40.946  23.800  26.916  1.00  0.00     0.124 S 
ATOM     71  O   UNL A   1      41.258  23.496  28.310  1.00  0.00    -0.237 OA
ATOM     72  O   UNL A   1      39.560  23.597  26.511  1.00  0.00    -0.237 OA
ATOM     73  O   UNL A   1      41.950  23.358  25.949  1.00  0.00    -0.744 OA
ENDBRANCH  66  70
ENDBRANCH  49  63
BRANCH  50  74
ATOM     74  C   UNL A   1      39.505  32.769  36.648  1.00  0.00     0.023 A 
ATOM     75  C   UNL A   1      38.578  32.269  37.577  1.00  0.00     0.031 A 
ATOM     76  C   UNL A   1      40.144  33.986  36.944  1.00  0.00     0.131 A 
ATOM     77  C   UNL A   1      38.276  33.009  38.731  1.00  0.00     0.055 A 
ATOM     78  C   UNL A   1      39.878  34.692  38.119  1.00  0.00     0.041 A 
ATOM     79  F   UNL A   1      41.045  34.504  36.094  1.00  0.00    -0.206 F 
ATOM     80  C   UNL A   1      38.928  34.211  39.013  1.00  0.00     0.022 A 
BRANCH  77  81
ATOM     81  S   UNL A   1      36.948  32.418  39.816  1.00  0.00     0.124 S 
ATOM     82  O   UNL A   1      37.309  31.016  39.991  1.00  0.00    -0.237 OA
ATOM     83  O   UNL A   1      37.109  33.275  40.985  1.00  0.00    -0.237 OA
ATOM     84  O   UNL A   1      35.738  32.658  39.032  1.00  0.00    -0.744 OA
ENDBRANCH  77  81
ENDBRANCH  50  74
BRANCH  62  85
ATOM     85  C   UNL A   1      44.437  28.286  34.610  1.00  0.00     0.023 A 
ATOM     86  C   UNL A   1      44.420  27.136  35.416  1.00  0.00     0.031 A 
ATOM     87  C   UNL A   1      45.654  28.978  34.468  1.00  0.00     0.131 A 
ATOM     88  C   UNL A   1      45.580  26.746  36.103  1.00  0.00     0.055 A 
ATOM     89  C   UNL A   1      46.820  28.551  35.105  1.00  0.00     0.041 A 
ATOM     90  F   UNL A   1      45.727  30.083  33.711  1.00  0.00    -0.206 F 
ATOM     91  C   UNL A   1      46.784  27.438  35.939  1.00  0.00     0.022 A 
BRANCH  88  92
ATOM     92  S   UNL A   1      45.471  25.382  37.293  1.00  0.00     0.124 S 
ATOM     93  O   UNL A   1      44.448  25.865  38.215  1.00  0.00    -0.237 OA
ATOM     94  O   UNL A   1      45.086  24.259  36.445  1.00  0.00    -0.237 OA
ATOM     95  O   UNL A   1      46.821  25.304  37.850  1.00  0.00    -0.744 OA
ENDBRANCH  88  92
ENDBRANCH  62  85
ENDBRANCH  36  37
ENDBRANCH  28  31
ENDBRANCH  26  27
ENDBRANCH  25  26
ENDBRANCH  24  25
ENDBRANCH   1  24
TORSDOF 22
ENDMDL
MODEL 3
REMARK VINA RESULT:     -10.4      2.381      7.925
REMARK SMILES CCCC[C@@H](C(=O)NCCCCCCNC(=O)c1ccc(-c2c3nc(c(-c4cc(S(=O)(=O)[O-])ccc4F)c4ccc([nH]4)c(-c4cc(S(=O)(=O)[O-])ccc4F)c4nc(c(-c5cc(S(=O)(=O)[O-])ccc5F)c5ccc2[nH]5)C=C4)C=C3)cc1)[C@](C)(O)c1cccc(Br)c1
REMARK SMILES IDX 11 1 10 2 9 3 8 4 6 5 7 6 5 8 4 9 3 10 2 11 1 12 81 13 82 14
REMARK SMILES IDX 83 15 84 17 85 18 90 19 86 20 88 21 87 22 89 23 12 24 13 25
REMARK SMILES IDX 14 26 15 27 16 28 17 30 18 31 19 32 80 33 20 34 79 35 21 36
REMARK SMILES IDX 22 37 23 38 73 39 24 40 78 41 72 42 74 43 25 44 77 45 71 46
REMARK SMILES IDX 70 47 26 49 58 50 38 51 57 52 39 53 42 54 56 55 75 56 40 57
REMARK SMILES IDX 41 58 55 60 76 61 43 62 27 63 28 64 36 65 29 66 35 67 37 68
REMARK SMILES IDX 34 69 30 70 31 71 32 72 33 73 59 74 60 75 68 76 61 77 67 78
REMARK SMILES IDX 69 79 66 80 62 81 63 82 64 83 65 84 44 85 45 86 53 87 46 88
REMARK SMILES IDX 52 89 54 90 51 91 47 92 48 93 49 94 50 95
REMARK H PARENT 8 7 83 16 15 29 74 48 42 59
REMARK Flexibility Score: inf
ROOT
ATOM      1  C   UNL A   1      32.385  29.666  26.915  1.00  0.00     0.002 C 
ENDROOT
BRANCH   1   2
ATOM      2  C   UNL A   1      31.649  28.556  27.664  1.00  0.00     0.021 C 
BRANCH   2   3
ATOM      3  C   UNL A   1      31.428  27.289  26.832  1.00  0.00     0.116 C 
BRANCH   3   4
ATOM      4  N   UNL A   1      32.640  26.971  26.111  1.00  0.00    -0.356 N 
ATOM      5  C   UNL A   1      32.866  26.194  25.020  1.00  0.00     0.226 C 
ATOM      6  O   UNL A   1      34.056  25.967  24.795  1.00  0.00    -0.275 OA
ATOM      7  H   UNL A   1      33.448  27.397  26.477  1.00  0.00     0.163 HD
BRANCH   5   8
ATOM      8  C   UNL A   1      31.727  25.706  24.103  1.00  0.00     0.114 C 
BRANCH   8   9
ATOM      9  C   UNL A   1      31.953  24.283  23.515  1.00  0.00     0.017 C 
BRANCH   9  10
ATOM     10  C   UNL A   1      32.174  23.086  24.440  1.00  0.00     0.001 C 
BRANCH  10  11
ATOM     11  C   UNL A   1      31.046  22.759  25.421  1.00  0.00    -0.003 C 
ATOM     12  C   UNL A   1      31.305  23.274  26.827  1.00  0.00     0.004 C 
ENDBRANCH  10  11
ENDBRANCH   9  10
ENDBRANCH   8   9
BRANCH   8  13
ATOM     13  C   UNL A   1      31.491  26.759  22.928  1.00  0.00     0.098 C 
ATOM     14  C   UNL A   1      31.694  26.104  21.543  1.00  0.00     0.048 C 
BRANCH  13  15
ATOM     15  O   UNL A   1      32.557  27.739  23.009  1.00  0.00    -0.385 OA
ATOM     16  H   UNL A   1      32.915  27.902  22.122  1.00  0.00     0.211 HD
ENDBRANCH  13  15
BRANCH  13  17
ATOM     17  C   UNL A   1      30.174  27.555  23.036  1.00  0.00    -0.015 A 
ATOM     18  C   UNL A   1      29.021  26.970  23.599  1.00  0.00     0.007 A 
ATOM     19  C   UNL A   1      30.034  28.859  22.526  1.00  0.00     0.022 A 
ATOM     20  C   UNL A   1      27.776  27.603  23.562  1.00  0.00     0.002 A 
ATOM     21  C   UNL A   1      28.792  29.502  22.510  1.00  0.00     0.018 A 
ATOM     22  C   UNL A   1      27.657  28.869  23.005  1.00  0.00     0.016 A 
ATOM     23  Br  UNL A   1      28.645  31.242  21.780  1.00  0.00    -0.051 Br
ENDBRANCH  13  17
ENDBRANCH   8  13
ENDBRANCH   5   8
ENDBRANCH   3   4
ENDBRANCH   2   3
ENDBRANCH   1   2
BRANCH   1  24
ATOM     24  C   UNL A   1      31.472  30.576  26.087  1.00  0.00     0.002 C 
BRANCH  24  25
ATOM     25  C   UNL A   1      31.447  32.047  26.518  1.00  0.00     0.021 C 
BRANCH  25  26
ATOM     26  C   UNL A   1      32.693  32.525  27.260  1.00  0.00     0.116 C 
BRANCH  26  27
ATOM     27  N   UNL A   1      32.596  33.927  27.623  1.00  0.00    -0.352 N 
ATOM     28  C   UNL A   1      33.201  34.611  28.647  1.00  0.00     0.251 C 
ATOM     29  H   UNL A   1      32.007  34.469  27.049  1.00  0.00     0.163 HD
ATOM     30  O   UNL A   1      32.795  35.729  28.947  1.00  0.00    -0.269 OA
BRANCH  28  31
ATOM     31  C   UNL A   1      34.328  34.003  29.390  1.00  0.00     0.039 A 
ATOM     32  C   UNL A   1      35.632  34.381  29.062  1.00  0.00     0.014 A 
ATOM     33  C   UNL A   1      34.107  33.024  30.364  1.00  0.00     0.014 A 
ATOM     34  C   UNL A   1      36.714  33.803  29.733  1.00  0.00     0.010 A 
ATOM     35  C   UNL A   1      35.182  32.497  31.078  1.00  0.00     0.010 A 
ATOM     36  C   UNL A   1      36.497  32.867  30.757  1.00  0.00    -0.014 A 
BRANCH  36  37
ATOM     37  C   UNL A   1      37.638  32.235  31.469  1.00  0.00     0.031 A 
ATOM     38  C   UNL A   1      38.400  31.112  30.816  1.00  0.00     0.074 A 
ATOM     39  C   UNL A   1      37.962  32.642  32.711  1.00  0.00     0.049 A 
ATOM     40  N   UNL A   1      39.385  30.392  31.290  1.00  0.00    -0.248 NA
ATOM     41  C   UNL A   1      37.975  30.731  29.460  1.00  0.00     0.031 C 
ATOM     42  C   UNL A   1      37.275  33.698  33.459  1.00  0.00     0.029 A 
ATOM     43  N   UNL A   1      38.945  32.216  33.567  1.00  0.00    -0.354 N 
ATOM     44  C   UNL A   1      39.688  29.464  30.297  1.00  0.00     0.074 A 
ATOM     45  C   UNL A   1      38.740  29.676  29.224  1.00  0.00     0.031 C 
ATOM     46  C   UNL A   1      37.873  33.851  34.653  1.00  0.00     0.029 A 
ATOM     47  C   UNL A   1      38.958  32.882  34.771  1.00  0.00     0.049 A 
ATOM     48  H   UNL A   1      39.583  31.500  33.342  1.00  0.00     0.167 HD
ATOM     49  C   UNL A   1      40.680  28.539  30.273  1.00  0.00     0.034 A 
ATOM     50  C   UNL A   1      39.753  32.725  35.849  1.00  0.00     0.034 A 
ATOM     51  C   UNL A   1      41.627  28.352  31.347  1.00  0.00     0.049 A 
ATOM     52  C   UNL A   1      40.848  31.689  35.800  1.00  0.00     0.074 A 
ATOM     53  C   UNL A   1      42.692  27.471  31.416  1.00  0.00     0.029 A 
ATOM     54  N   UNL A   1      41.621  29.060  32.543  1.00  0.00    -0.354 N 
ATOM     55  N   UNL A   1      41.146  30.846  34.839  1.00  0.00    -0.248 NA
ATOM     56  C   UNL A   1      41.725  31.600  36.974  1.00  0.00     0.031 C 
ATOM     57  C   UNL A   1      43.295  27.607  32.672  1.00  0.00     0.029 A 
ATOM     58  C   UNL A   1      42.653  28.623  33.360  1.00  0.00     0.049 A 
ATOM     59  H   UNL A   1      40.979  29.769  32.775  1.00  0.00     0.167 HD
ATOM     60  C   UNL A   1      42.269  30.151  35.280  1.00  0.00     0.074 A 
ATOM     61  C   UNL A   1      42.600  30.685  36.586  1.00  0.00     0.031 C 
ATOM     62  C   UNL A   1      42.969  29.165  34.662  1.00  0.00     0.034 A 
BRANCH  49  63
ATOM     63  C   UNL A   1      40.767  27.648  29.056  1.00  0.00     0.023 A 
ATOM     64  C   UNL A   1      41.713  27.875  28.040  1.00  0.00     0.031 A 
ATOM     65  C   UNL A   1      39.874  26.574  28.891  1.00  0.00     0.131 A 
ATOM     66  C   UNL A   1      41.691  27.098  26.873  1.00  0.00     0.055 A 
ATOM     67  C   UNL A   1      39.912  25.750  27.764  1.00  0.00     0.041 A 
ATOM     68  F   UNL A   1      38.935  26.317  29.815  1.00  0.00    -0.206 F 
ATOM     69  C   UNL A   1      40.814  26.020  26.739  1.00  0.00     0.022 A 
BRANCH  66  70
ATOM     70  S   UNL A   1      42.724  27.609  25.473  1.00  0.00     0.124 S 
ATOM     71  O   UNL A   1      44.003  27.865  26.130  1.00  0.00    -0.237 OA
ATOM     72  O   UNL A   1      42.675  26.441  24.601  1.00  0.00    -0.237 OA
ATOM     73  O   UNL A   1      42.044  28.799  24.962  1.00  0.00    -0.744 OA
ENDBRANCH  66  70
ENDBRANCH  49  63
BRANCH  50  74
ATOM     74  C   UNL A   1      39.554  33.566  37.065  1.00  0.00     0.023 A 
ATOM     75  C   UNL A   1      40.349  34.699  37.298  1.00  0.00     0.031 A 
ATOM     76  C   UNL A   1      38.595  33.222  38.033  1.00  0.00     0.131 A 
ATOM     77  C   UNL A   1      40.209  35.416  38.496  1.00  0.00     0.055 A 
ATOM     78  C   UNL A   1      38.423  33.970  39.200  1.00  0.00     0.041 A 
ATOM     79  F   UNL A   1      37.802  32.153  37.855  1.00  0.00    -0.206 F 
ATOM     80  C   UNL A   1      39.244  35.067  39.442  1.00  0.00     0.022 A 
BRANCH  77  81
ATOM     81  S   UNL A   1      41.372  36.766  38.839  1.00  0.00     0.124 S 
ATOM     82  O   UNL A   1      40.474  37.831  39.270  1.00  0.00    -0.237 OA
ATOM     83  O   UNL A   1      42.218  36.180  39.872  1.00  0.00    -0.237 OA
ATOM     84  O   UNL A   1      42.027  36.984  37.550  1.00  0.00    -0.744 OA
ENDBRANCH  77  81
ENDBRANCH  50  74
BRANCH  62  85
ATOM     85  C   UNL A   1      44.195  28.648  35.372  1.00  0.00     0.023 A 
ATOM     86  C   UNL A   1      45.469  29.196  35.149  1.00  0.00     0.031 A 
ATOM     87  C   UNL A   1      44.086  27.572  36.271  1.00  0.00     0.131 A 
ATOM     88  C   UNL A   1      46.594  28.627  35.766  1.00  0.00     0.055 A 
ATOM     89  C   UNL A   1      45.200  27.049  36.930  1.00  0.00     0.041 A 
ATOM     90  F   UNL A   1      42.893  27.009  36.521  1.00  0.00    -0.206 F 
ATOM     91  C   UNL A   1      46.464  27.567  36.667  1.00  0.00     0.022 A 
BRANCH  88  92
ATOM     92  S   UNL A   1      48.240  29.225  35.297  1.00  0.00     0.124 S 
ATOM     93  O   UNL A   1      48.230  29.042  33.849  1.00  0.00    -0.237 OA
ATOM     94  O   UNL A   1      48.215  30.607  35.765  1.00  0.00    -0.237 OA
ATOM     95  O   UNL A   1      49.147  28.340  36.027  1.00  0.00    -0.744 OA
ENDBRANCH  88  92
ENDBRANCH  62  85
ENDBRANCH  36  37
ENDBRANCH  28  31
ENDBRANCH  26  27
ENDBRANCH  25  26
ENDBRANCH  24  25
ENDBRANCH   1  24
TORSDOF 22
ENDMDL
