MODEL 1
REMARK VINA RESULT:     -11.4      0.000      0.000
REMARK SMILES C[C@@H](CCC(=O)NCCCCCCNC(=O)c1ccc(-c2c3nc(c(-c4cc(S(=O)(=O)[O-])ccc4F)c4ccc([nH]4)c(-c4cc(S(=O)(=O)[O-])ccc4F)c4nc(c(-c5cc(S(=O)(=O)[O-])ccc5F)c5ccc2[nH]5)C=C4)C=C3)cc1)[C@@H]1CC[C@@H]2[C@H]3CC[C@@H]4CC(=O)CC[C@]4(C)[C@@H]3CC(=O)[C@]21C
REMARK SMILES IDX 10 1 9 2 8 3 7 4 5 5 6 6 4 8 3 9 2 10 1 11 80 12 81 13 99 14
REMARK SMILES IDX 82 15 83 16 97 17 100 18 84 19 96 20 98 21 85 22 95 23 86 24
REMARK SMILES IDX 93 25 87 26 92 27 94 28 88 29 91 30 89 31 90 32 11 33 12 34
REMARK SMILES IDX 13 35 14 36 15 37 16 39 17 40 18 41 79 42 19 43 78 44 20 45
REMARK SMILES IDX 21 46 22 47 72 48 23 49 77 50 71 51 73 52 24 53 76 54 70 55
REMARK SMILES IDX 69 56 25 58 57 59 37 60 56 61 38 62 41 63 55 64 74 65 39 66
REMARK SMILES IDX 40 67 54 69 75 70 42 71 26 72 27 73 35 74 28 75 34 76 36 77
REMARK SMILES IDX 33 78 29 79 30 80 31 81 32 82 58 83 59 84 67 85 60 86 66 87
REMARK SMILES IDX 68 88 65 89 61 90 62 91 63 92 64 93 43 94 44 95 52 96 45 97
REMARK SMILES IDX 51 98 53 99 50 100 46 101 47 102 48 103 49 104
REMARK H PARENT 7 7 14 38 73 57 41 68
REMARK Flexibility Score: inf
ROOT
ATOM      1  C   UNL A   1      35.497  30.138  27.927  1.00  0.00     0.002 C 
ENDROOT
BRANCH   1   2
ATOM      2  C   UNL A   1      34.196  29.456  27.468  1.00  0.00     0.021 C 
BRANCH   2   3
ATOM      3  C   UNL A   1      33.715  29.458  25.997  1.00  0.00     0.116 C 
BRANCH   3   4
ATOM      4  N   UNL A   1      32.542  30.252  25.622  1.00  0.00    -0.356 N 
ATOM      5  C   UNL A   1      31.373  30.025  24.955  1.00  0.00     0.220 C 
ATOM      6  O   UNL A   1      30.540  30.941  24.971  1.00  0.00    -0.275 OA
ATOM      7  H   UNL A   1      32.616  31.185  25.927  1.00  0.00     0.163 HD
BRANCH   5   8
ATOM      8  C   UNL A   1      31.059  28.766  24.171  1.00  0.00     0.100 C 
BRANCH   8   9
ATOM      9  C   UNL A   1      30.255  27.682  24.922  1.00  0.00     0.013 C 
BRANCH   9  10
ATOM     10  C   UNL A   1      30.012  26.331  24.232  1.00  0.00    -0.010 C 
ATOM     11  C   UNL A   1      28.502  26.162  23.947  1.00  0.00     0.008 C 
BRANCH  10  12
ATOM     12  C   UNL A   1      30.725  25.078  24.840  1.00  0.00     0.005 C 
ATOM     13  C   UNL A   1      30.653  24.798  26.360  1.00  0.00     0.005 C 
ATOM     14  C   UNL A   1      32.269  25.009  24.688  1.00  0.00     0.032 C 
ATOM     15  C   UNL A   1      31.776  23.819  26.715  1.00  0.00     0.005 C 
ATOM     16  C   UNL A   1      32.504  23.651  25.396  1.00  0.00     0.006 C 
ATOM     17  C   UNL A   1      32.830  24.816  23.298  1.00  0.00     0.139 C 
ATOM     18  C   UNL A   1      32.983  26.219  25.331  1.00  0.00     0.020 C 
ATOM     19  C   UNL A   1      33.951  23.176  25.476  1.00  0.00    -0.003 C 
ATOM     20  C   UNL A   1      34.314  24.497  23.260  1.00  0.00     0.080 C 
ATOM     21  O   UNL A   1      32.157  24.919  22.277  1.00  0.00    -0.299 OA
ATOM     22  C   UNL A   1      34.003  21.735  26.019  1.00  0.00     0.004 C 
ATOM     23  C   UNL A   1      34.610  23.219  24.068  1.00  0.00     0.006 C 
ATOM     24  C   UNL A   1      35.399  21.124  25.980  1.00  0.00     0.005 C 
ATOM     25  C   UNL A   1      36.126  22.820  24.154  1.00  0.00    -0.025 C 
ATOM     26  C   UNL A   1      36.153  21.344  24.648  1.00  0.00     0.002 C 
ATOM     27  C   UNL A   1      36.974  23.739  25.083  1.00  0.00     0.015 C 
ATOM     28  C   UNL A   1      36.746  22.926  22.737  1.00  0.00     0.012 C 
ATOM     29  C   UNL A   1      37.579  20.813  24.750  1.00  0.00     0.079 C 
ATOM     30  C   UNL A   1      37.991  23.062  26.008  1.00  0.00     0.076 C 
ATOM     31  C   UNL A   1      38.427  21.652  25.670  1.00  0.00     0.133 C 
ATOM     32  O   UNL A   1      39.451  21.182  26.170  1.00  0.00    -0.300 OA
ENDBRANCH  10  12
ENDBRANCH   9  10
ENDBRANCH   8   9
ENDBRANCH   5   8
ENDBRANCH   3   4
ENDBRANCH   2   3
ENDBRANCH   1   2
BRANCH   1  33
ATOM     33  C   UNL A   1      35.575  31.657  27.866  1.00  0.00     0.002 C 
BRANCH  33  34
ATOM     34  C   UNL A   1      34.241  32.389  27.954  1.00  0.00     0.021 C 
BRANCH  34  35
ATOM     35  C   UNL A   1      34.316  33.901  27.759  1.00  0.00     0.116 C 
BRANCH  35  36
ATOM     36  N   UNL A   1      33.519  34.627  28.740  1.00  0.00    -0.352 N 
ATOM     37  C   UNL A   1      33.629  34.588  30.111  1.00  0.00     0.251 C 
ATOM     38  H   UNL A   1      32.818  35.215  28.378  1.00  0.00     0.163 HD
ATOM     39  O   UNL A   1      32.759  35.079  30.825  1.00  0.00    -0.269 OA
BRANCH  37  40
ATOM     40  C   UNL A   1      34.809  33.927  30.704  1.00  0.00     0.039 A 
ATOM     41  C   UNL A   1      34.667  32.686  31.327  1.00  0.00     0.014 A 
ATOM     42  C   UNL A   1      36.068  34.520  30.575  1.00  0.00     0.014 A 
ATOM     43  C   UNL A   1      35.805  32.015  31.781  1.00  0.00     0.010 A 
ATOM     44  C   UNL A   1      37.204  33.816  30.961  1.00  0.00     0.010 A 
ATOM     45  C   UNL A   1      37.084  32.562  31.582  1.00  0.00    -0.014 A 
BRANCH  45  46
ATOM     46  C   UNL A   1      38.304  31.871  32.078  1.00  0.00     0.031 A 
ATOM     47  C   UNL A   1      38.825  32.195  33.454  1.00  0.00     0.074 A 
ATOM     48  C   UNL A   1      38.957  30.991  31.292  1.00  0.00     0.049 A 
ATOM     49  N   UNL A   1      39.904  31.765  34.056  1.00  0.00    -0.248 NA
ATOM     50  C   UNL A   1      38.041  33.159  34.244  1.00  0.00     0.031 C 
ATOM     51  C   UNL A   1      38.572  30.627  29.927  1.00  0.00     0.029 A 
ATOM     52  N   UNL A   1      40.086  30.246  31.525  1.00  0.00    -0.354 N 
ATOM     53  C   UNL A   1      39.927  32.405  35.291  1.00  0.00     0.074 A 
ATOM     54  C   UNL A   1      38.803  33.315  35.314  1.00  0.00     0.031 C 
ATOM     55  C   UNL A   1      39.435  29.713  29.454  1.00  0.00     0.029 A 
ATOM     56  C   UNL A   1      40.458  29.451  30.464  1.00  0.00     0.049 A 
ATOM     57  H   UNL A   1      40.584  30.276  32.373  1.00  0.00     0.167 HD
ATOM     58  C   UNL A   1      40.781  32.221  36.328  1.00  0.00     0.034 A 
ATOM     59  C   UNL A   1      41.506  28.614  30.322  1.00  0.00     0.034 A 
ATOM     60  C   UNL A   1      41.890  31.303  36.295  1.00  0.00     0.049 A 
ATOM     61  C   UNL A   1      42.453  28.438  31.486  1.00  0.00     0.074 A 
ATOM     62  C   UNL A   1      42.820  31.033  37.284  1.00  0.00     0.029 A 
ATOM     63  N   UNL A   1      42.214  30.492  35.215  1.00  0.00    -0.354 N 
ATOM     64  N   UNL A   1      42.442  29.031  32.660  1.00  0.00    -0.248 NA
ATOM     65  C   UNL A   1      43.537  27.462  31.319  1.00  0.00     0.031 C 
ATOM     66  C   UNL A   1      43.734  30.099  36.786  1.00  0.00     0.029 A 
ATOM     67  C   UNL A   1      43.331  29.727  35.513  1.00  0.00     0.049 A 
ATOM     68  H   UNL A   1      41.723  30.465  34.362  1.00  0.00     0.167 HD
ATOM     69  C   UNL A   1      43.489  28.463  33.382  1.00  0.00     0.074 A 
ATOM     70  C   UNL A   1      44.096  27.471  32.520  1.00  0.00     0.031 C 
ATOM     71  C   UNL A   1      43.912  28.731  34.644  1.00  0.00     0.034 A 
BRANCH  58  72
ATOM     72  C   UNL A   1      40.537  33.037  37.576  1.00  0.00     0.023 A 
ATOM     73  C   UNL A   1      39.576  32.649  38.527  1.00  0.00     0.031 A 
ATOM     74  C   UNL A   1      41.248  34.227  37.808  1.00  0.00     0.131 A 
ATOM     75  C   UNL A   1      39.299  33.478  39.623  1.00  0.00     0.055 A 
ATOM     76  C   UNL A   1      41.027  35.005  38.946  1.00  0.00     0.041 A 
ATOM     77  F   UNL A   1      42.162  34.661  36.926  1.00  0.00    -0.206 F 
ATOM     78  C   UNL A   1      40.037  34.640  39.855  1.00  0.00     0.022 A 
BRANCH  75  79
ATOM     79  S   UNL A   1      37.867  33.084  40.665  1.00  0.00     0.124 S 
ATOM     80  O   UNL A   1      38.427  32.079  41.564  1.00  0.00    -0.237 OA
ATOM     81  O   UNL A   1      37.549  34.374  41.266  1.00  0.00    -0.237 OA
ATOM     82  O   UNL A   1      36.880  32.578  39.713  1.00  0.00    -0.744 OA
ENDBRANCH  75  79
ENDBRANCH  58  72
BRANCH  59  83
ATOM     83  C   UNL A   1      41.733  27.876  29.043  1.00  0.00     0.023 A 
ATOM     84  C   UNL A   1      41.445  26.506  28.934  1.00  0.00     0.031 A 
ATOM     85  C   UNL A   1      42.318  28.513  27.934  1.00  0.00     0.131 A 
ATOM     86  C   UNL A   1      41.811  25.802  27.775  1.00  0.00     0.055 A 
ATOM     87  C   UNL A   1      42.620  27.822  26.758  1.00  0.00     0.041 A 
ATOM     88  F   UNL A   1      42.610  29.823  27.979  1.00  0.00    -0.206 F 
ATOM     89  C   UNL A   1      42.385  26.454  26.682  1.00  0.00     0.022 A 
BRANCH  86  90
ATOM     90  S   UNL A   1      41.647  23.994  27.769  1.00  0.00     0.124 S 
ATOM     91  O   UNL A   1      42.636  23.604  28.768  1.00  0.00    -0.237 OA
ATOM     92  O   UNL A   1      40.248  23.819  28.147  1.00  0.00    -0.237 OA
ATOM     93  O   UNL A   1      41.970  23.629  26.393  1.00  0.00    -0.744 OA
ENDBRANCH  86  90
ENDBRANCH  59  83
BRANCH  71  94
ATOM     94  C   UNL A   1      45.036  27.884  35.187  1.00  0.00     0.023 A 
ATOM     95  C   UNL A   1      44.804  26.639  35.797  1.00  0.00     0.031 A 
ATOM     96  C   UNL A   1      46.363  28.345  35.109  1.00  0.00     0.131 A 
ATOM     97  C   UNL A   1      45.874  25.930  36.365  1.00  0.00     0.055 A 
ATOM     98  C   UNL A   1      47.430  27.605  35.617  1.00  0.00     0.041 A 
ATOM     99  F   UNL A   1      46.642  29.528  34.538  1.00  0.00    -0.206 F 
ATOM    100  C   UNL A   1      47.187  26.398  36.264  1.00  0.00     0.022 A 
BRANCH  97 101
ATOM    101  S   UNL A   1      45.512  24.442  37.337  1.00  0.00     0.124 S 
ATOM    102  O   UNL A   1      46.849  23.938  37.631  1.00  0.00    -0.237 OA
ATOM    103  O   UNL A   1      44.771  24.985  38.471  1.00  0.00    -0.237 OA
ATOM    104  O   UNL A   1      44.725  23.617  36.421  1.00  0.00    -0.744 OA
ENDBRANCH  97 101
ENDBRANCH  71  94
ENDBRANCH  45  46
ENDBRANCH  37  40
ENDBRANCH  35  36
ENDBRANCH  34  35
ENDBRANCH  33  34
ENDBRANCH   1  33
TORSDOF 19
ENDMDL
MODEL 2
REMARK VINA RESULT:     -11.3      5.838     10.037
REMARK SMILES C[C@@H](CCC(=O)NCCCCCCNC(=O)c1ccc(-c2c3nc(c(-c4cc(S(=O)(=O)[O-])ccc4F)c4ccc([nH]4)c(-c4cc(S(=O)(=O)[O-])ccc4F)c4nc(c(-c5cc(S(=O)(=O)[O-])ccc5F)c5ccc2[nH]5)C=C4)C=C3)cc1)[C@@H]1CC[C@@H]2[C@H]3CC[C@@H]4CC(=O)CC[C@]4(C)[C@@H]3CC(=O)[C@]21C
REMARK SMILES IDX 10 1 9 2 8 3 7 4 5 5 6 6 4 8 3 9 2 10 1 11 80 12 81 13 99 14
REMARK SMILES IDX 82 15 83 16 97 17 100 18 84 19 96 20 98 21 85 22 95 23 86 24
REMARK SMILES IDX 93 25 87 26 92 27 94 28 88 29 91 30 89 31 90 32 11 33 12 34
REMARK SMILES IDX 13 35 14 36 15 37 16 39 17 40 18 41 79 42 19 43 78 44 20 45
REMARK SMILES IDX 21 46 22 47 72 48 23 49 77 50 71 51 73 52 24 53 76 54 70 55
REMARK SMILES IDX 69 56 25 58 57 59 37 60 56 61 38 62 41 63 55 64 74 65 39 66
REMARK SMILES IDX 40 67 54 69 75 70 42 71 26 72 27 73 35 74 28 75 34 76 36 77
REMARK SMILES IDX 33 78 29 79 30 80 31 81 32 82 58 83 59 84 67 85 60 86 66 87
REMARK SMILES IDX 68 88 65 89 61 90 62 91 63 92 64 93 43 94 44 95 52 96 45 97
REMARK SMILES IDX 51 98 53 99 50 100 46 101 47 102 48 103 49 104
REMARK H PARENT 7 7 14 38 73 57 41 68
REMARK Flexibility Score: inf
ROOT
ATOM      1  C   UNL A   1      39.187  27.802  28.390  1.00  0.00     0.002 C 
ENDROOT
BRANCH   1   2
ATOM      2  C   UNL A   1      38.070  28.681  28.982  1.00  0.00     0.021 C 
BRANCH   2   3
ATOM      3  C   UNL A   1      37.251  29.686  28.138  1.00  0.00     0.116 C 
BRANCH   3   4
ATOM      4  N   UNL A   1      36.401  30.672  28.812  1.00  0.00    -0.356 N 
ATOM      5  C   UNL A   1      35.199  31.267  28.564  1.00  0.00     0.220 C 
ATOM      6  O   UNL A   1      34.726  31.959  29.475  1.00  0.00    -0.275 OA
ATOM      7  H   UNL A   1      36.799  30.983  29.657  1.00  0.00     0.163 HD
BRANCH   5   8
ATOM      8  C   UNL A   1      34.446  31.174  27.251  1.00  0.00     0.100 C 
BRANCH   8   9
ATOM      9  C   UNL A   1      32.911  31.046  27.357  1.00  0.00     0.013 C 
BRANCH   9  10
ATOM     10  C   UNL A   1      32.134  30.461  26.167  1.00  0.00    -0.010 C 
ATOM     11  C   UNL A   1      31.120  31.506  25.650  1.00  0.00     0.008 C 
BRANCH  10  12
ATOM     12  C   UNL A   1      31.581  29.005  26.321  1.00  0.00     0.005 C 
ATOM     13  C   UNL A   1      31.400  28.381  27.724  1.00  0.00     0.005 C 
ATOM     14  C   UNL A   1      32.427  27.865  25.692  1.00  0.00     0.032 C 
ATOM     15  C   UNL A   1      31.294  26.862  27.558  1.00  0.00     0.005 C 
ATOM     16  C   UNL A   1      31.513  26.673  26.069  1.00  0.00     0.006 C 
ATOM     17  C   UNL A   1      32.523  27.810  24.185  1.00  0.00     0.139 C 
ATOM     18  C   UNL A   1      33.860  27.804  26.268  1.00  0.00     0.020 C 
ATOM     19  C   UNL A   1      31.988  25.294  25.625  1.00  0.00    -0.003 C 
ATOM     20  C   UNL A   1      33.139  26.532  23.643  1.00  0.00     0.080 C 
ATOM     21  O   UNL A   1      32.150  28.719  23.450  1.00  0.00    -0.299 OA
ATOM     22  C   UNL A   1      30.889  24.247  25.890  1.00  0.00     0.004 C 
ATOM     23  C   UNL A   1      32.330  25.305  24.108  1.00  0.00     0.006 C 
ATOM     24  C   UNL A   1      31.218  22.869  25.328  1.00  0.00     0.005 C 
ATOM     25  C   UNL A   1      32.908  23.916  23.660  1.00  0.00    -0.025 C 
ATOM     26  C   UNL A   1      31.763  22.885  23.882  1.00  0.00     0.002 C 
ATOM     27  C   UNL A   1      34.202  23.492  24.417  1.00  0.00     0.015 C 
ATOM     28  C   UNL A   1      33.278  23.997  22.156  1.00  0.00     0.012 C 
ATOM     29  C   UNL A   1      32.183  21.482  23.456  1.00  0.00     0.079 C 
ATOM     30  C   UNL A   1      34.309  22.030  24.865  1.00  0.00     0.076 C 
ATOM     31  C   UNL A   1      33.412  21.014  24.191  1.00  0.00     0.133 C 
ATOM     32  O   UNL A   1      33.666  19.811  24.271  1.00  0.00    -0.300 OA
ENDBRANCH  10  12
ENDBRANCH   9  10
ENDBRANCH   8   9
ENDBRANCH   5   8
ENDBRANCH   3   4
ENDBRANCH   2   3
ENDBRANCH   1   2
BRANCH   1  33
ATOM     33  C   UNL A   1      39.260  26.344  28.819  1.00  0.00     0.002 C 
BRANCH  33  34
ATOM     34  C   UNL A   1      40.222  25.470  28.021  1.00  0.00     0.021 C 
BRANCH  34  35
ATOM     35  C   UNL A   1      40.059  25.543  26.504  1.00  0.00     0.116 C 
BRANCH  35  36
ATOM     36  N   UNL A   1      41.233  25.047  25.797  1.00  0.00    -0.352 N 
ATOM     37  C   UNL A   1      42.412  25.712  25.550  1.00  0.00     0.251 C 
ATOM     38  H   UNL A   1      41.175  24.126  25.454  1.00  0.00     0.163 HD
ATOM     39  O   UNL A   1      43.235  25.259  24.759  1.00  0.00    -0.269 OA
BRANCH  37  40
ATOM     40  C   UNL A   1      42.657  26.992  26.245  1.00  0.00     0.039 A 
ATOM     41  C   UNL A   1      42.002  28.148  25.819  1.00  0.00     0.014 A 
ATOM     42  C   UNL A   1      43.492  27.018  27.366  1.00  0.00     0.014 A 
ATOM     43  C   UNL A   1      42.148  29.328  26.552  1.00  0.00     0.010 A 
ATOM     44  C   UNL A   1      43.575  28.174  28.135  1.00  0.00     0.010 A 
ATOM     45  C   UNL A   1      42.917  29.346  27.729  1.00  0.00    -0.014 A 
BRANCH  45  46
ATOM     46  C   UNL A   1      43.101  30.598  28.510  1.00  0.00     0.031 A 
ATOM     47  C   UNL A   1      44.214  31.542  28.135  1.00  0.00     0.074 A 
ATOM     48  C   UNL A   1      42.304  30.868  29.564  1.00  0.00     0.049 A 
ATOM     49  N   UNL A   1      44.595  32.649  28.719  1.00  0.00    -0.248 NA
ATOM     50  C   UNL A   1      45.025  31.171  26.965  1.00  0.00     0.031 C 
ATOM     51  C   UNL A   1      41.220  30.010  30.048  1.00  0.00     0.029 A 
ATOM     52  N   UNL A   1      42.285  31.938  30.424  1.00  0.00    -0.354 N 
ATOM     53  C   UNL A   1      45.688  33.103  27.987  1.00  0.00     0.074 A 
ATOM     54  C   UNL A   1      45.959  32.107  26.974  1.00  0.00     0.031 C 
ATOM     55  C   UNL A   1      40.629  30.599  31.101  1.00  0.00     0.029 A 
ATOM     56  C   UNL A   1      41.312  31.856  31.394  1.00  0.00     0.049 A 
ATOM     57  H   UNL A   1      42.909  32.696  30.351  1.00  0.00     0.167 HD
ATOM     58  C   UNL A   1      46.377  34.263  28.120  1.00  0.00     0.034 A 
ATOM     59  C   UNL A   1      41.012  32.696  32.405  1.00  0.00     0.034 A 
ATOM     60  C   UNL A   1      46.089  35.252  29.127  1.00  0.00     0.049 A 
ATOM     61  C   UNL A   1      41.805  33.976  32.543  1.00  0.00     0.074 A 
ATOM     62  C   UNL A   1      46.719  36.462  29.358  1.00  0.00     0.029 A 
ATOM     63  N   UNL A   1      45.075  35.147  30.072  1.00  0.00    -0.354 N 
ATOM     64  N   UNL A   1      42.818  34.403  31.822  1.00  0.00    -0.248 NA
ATOM     65  C   UNL A   1      41.398  34.898  33.610  1.00  0.00     0.031 C 
ATOM     66  C   UNL A   1      46.120  37.066  30.468  1.00  0.00     0.029 A 
ATOM     67  C   UNL A   1      45.066  36.268  30.886  1.00  0.00     0.049 A 
ATOM     68  H   UNL A   1      44.454  34.388  30.151  1.00  0.00     0.167 HD
ATOM     69  C   UNL A   1      43.135  35.663  32.324  1.00  0.00     0.074 A 
ATOM     70  C   UNL A   1      42.196  35.932  33.392  1.00  0.00     0.031 C 
ATOM     71  C   UNL A   1      44.111  36.525  31.937  1.00  0.00     0.034 A 
BRANCH  58  72
ATOM     72  C   UNL A   1      47.507  34.511  27.148  1.00  0.00     0.023 A 
ATOM     73  C   UNL A   1      48.832  34.160  27.463  1.00  0.00     0.031 A 
ATOM     74  C   UNL A   1      47.267  35.128  25.908  1.00  0.00     0.131 A 
ATOM     75  C   UNL A   1      49.874  34.495  26.586  1.00  0.00     0.055 A 
ATOM     76  C   UNL A   1      48.298  35.382  25.002  1.00  0.00     0.041 A 
ATOM     77  F   UNL A   1      46.027  35.507  25.561  1.00  0.00    -0.206 F 
ATOM     78  C   UNL A   1      49.613  35.079  25.345  1.00  0.00     0.022 A 
BRANCH  75  79
ATOM     79  S   UNL A   1      51.583  34.280  27.152  1.00  0.00     0.124 S 
ATOM     80  O   UNL A   1      51.554  34.967  28.440  1.00  0.00    -0.237 OA
ATOM     81  O   UNL A   1      51.719  32.829  27.205  1.00  0.00    -0.237 OA
ATOM     82  O   UNL A   1      52.373  34.943  26.116  1.00  0.00    -0.744 OA
ENDBRANCH  75  79
ENDBRANCH  58  72
BRANCH  59  83
ATOM     83  C   UNL A   1      39.923  32.373  33.375  1.00  0.00     0.023 A 
ATOM     84  C   UNL A   1      38.644  32.942  33.249  1.00  0.00     0.031 A 
ATOM     85  C   UNL A   1      40.167  31.553  34.492  1.00  0.00     0.131 A 
ATOM     86  C   UNL A   1      37.686  32.746  34.256  1.00  0.00     0.055 A 
ATOM     87  C   UNL A   1      39.188  31.308  35.458  1.00  0.00     0.041 A 
ATOM     88  F   UNL A   1      41.368  30.977  34.662  1.00  0.00    -0.206 F 
ATOM     89  C   UNL A   1      37.945  31.923  35.354  1.00  0.00     0.022 A 
BRANCH  86  90
ATOM     90  S   UNL A   1      36.139  33.692  34.178  1.00  0.00     0.124 S 
ATOM     91  O   UNL A   1      35.765  33.764  35.587  1.00  0.00    -0.237 OA
ATOM     92  O   UNL A   1      36.581  34.941  33.567  1.00  0.00    -0.237 OA
ATOM     93  O   UNL A   1      35.275  32.862  33.344  1.00  0.00    -0.744 OA
ENDBRANCH  86  90
ENDBRANCH  59  83
BRANCH  71  94
ATOM     94  C   UNL A   1      44.156  37.866  32.626  1.00  0.00     0.023 A 
ATOM     95  C   UNL A   1      43.417  38.968  32.163  1.00  0.00     0.031 A 
ATOM     96  C   UNL A   1      44.972  38.047  33.758  1.00  0.00     0.131 A 
ATOM     97  C   UNL A   1      43.560  40.217  32.785  1.00  0.00     0.055 A 
ATOM     98  C   UNL A   1      45.061  39.274  34.413  1.00  0.00     0.041 A 
ATOM     99  F   UNL A   1      45.701  37.029  34.243  1.00  0.00    -0.206 F 
ATOM    100  C   UNL A   1      44.365  40.373  33.918  1.00  0.00     0.022 A 
BRANCH  97 101
ATOM    101  S   UNL A   1      42.769  41.663  32.028  1.00  0.00     0.124 S 
ATOM    102  O   UNL A   1      42.540  42.524  33.184  1.00  0.00    -0.237 OA
ATOM    103  O   UNL A   1      43.788  42.117  31.087  1.00  0.00    -0.237 OA
ATOM    104  O   UNL A   1      41.561  41.111  31.416  1.00  0.00    -0.744 OA
ENDBRANCH  97 101
ENDBRANCH  71  94
ENDBRANCH  45  46
ENDBRANCH  37  40
ENDBRANCH  35  36
ENDBRANCH  34  35
ENDBRANCH  33  34
ENDBRANCH   1  33
TORSDOF 19
ENDMDL
MODEL 3
REMARK VINA RESULT:     -11.2      4.546      8.723
REMARK SMILES C[C@@H](CCC(=O)NCCCCCCNC(=O)c1ccc(-c2c3nc(c(-c4cc(S(=O)(=O)[O-])ccc4F)c4ccc([nH]4)c(-c4cc(S(=O)(=O)[O-])ccc4F)c4nc(c(-c5cc(S(=O)(=O)[O-])ccc5F)c5ccc2[nH]5)C=C4)C=C3)cc1)[C@@H]1CC[C@@H]2[C@H]3CC[C@@H]4CC(=O)CC[C@]4(C)[C@@H]3CC(=O)[C@]21C
REMARK SMILES IDX 10 1 9 2 8 3 7 4 5 5 6 6 4 8 3 9 2 10 1 11 80 12 81 13 99 14
REMARK SMILES IDX 82 15 83 16 97 17 100 18 84 19 96 20 98 21 85 22 95 23 86 24
REMARK SMILES IDX 93 25 87 26 92 27 94 28 88 29 91 30 89 31 90 32 11 33 12 34
REMARK SMILES IDX 13 35 14 36 15 37 16 39 17 40 18 41 79 42 19 43 78 44 20 45
REMARK SMILES IDX 21 46 22 47 72 48 23 49 77 50 71 51 73 52 24 53 76 54 70 55
REMARK SMILES IDX 69 56 25 58 57 59 37 60 56 61 38 62 41 63 55 64 74 65 39 66
REMARK SMILES IDX 40 67 54 69 75 70 42 71 26 72 27 73 35 74 28 75 34 76 36 77
REMARK SMILES IDX 33 78 29 79 30 80 31 81 32 82 58 83 59 84 67 85 60 86 66 87
REMARK SMILES IDX 68 88 65 89 61 90 62 91 63 92 64 93 43 94 44 95 52 96 45 97
REMARK SMILES IDX 51 98 53 99 50 100 46 101 47 102 48 103 49 104
REMARK H PARENT 7 7 14 38 73 57 41 68
REMARK Flexibility Score: inf
ROOT
ATOM      1  C   UNL A   1      38.170  33.286  29.194  1.00  0.00     0.002 C 
ENDROOT
BRANCH   1   2
ATOM      2  C   UNL A   1      39.464  33.721  29.904  1.00  0.00     0.021 C 
BRANCH   2   3
ATOM      3  C   UNL A   1      40.752  32.863  29.911  1.00  0.00     0.116 C 
BRANCH   3   4
ATOM      4  N   UNL A   1      42.046  33.503  30.162  1.00  0.00    -0.356 N 
ATOM      5  C   UNL A   1      43.291  33.456  29.606  1.00  0.00     0.220 C 
ATOM      6  O   UNL A   1      44.113  34.284  30.020  1.00  0.00    -0.275 OA
ATOM      7  H   UNL A   1      42.007  34.124  30.925  1.00  0.00     0.163 HD
BRANCH   5   8
ATOM      8  C   UNL A   1      43.734  32.442  28.571  1.00  0.00     0.100 C 
BRANCH   8   9
ATOM      9  C   UNL A   1      43.079  31.046  28.664  1.00  0.00     0.013 C 
BRANCH   9  10
ATOM     10  C   UNL A   1      43.537  29.948  27.693  1.00  0.00    -0.010 C 
ATOM     11  C   UNL A   1      42.305  29.340  26.984  1.00  0.00     0.008 C 
BRANCH  10  12
ATOM     12  C   UNL A   1      44.585  28.914  28.223  1.00  0.00     0.005 C 
ATOM     13  C   UNL A   1      45.103  29.003  29.678  1.00  0.00     0.005 C 
ATOM     14  C   UNL A   1      45.966  28.889  27.511  1.00  0.00     0.032 C 
ATOM     15  C   UNL A   1      46.401  28.195  29.769  1.00  0.00     0.005 C 
ATOM     16  C   UNL A   1      46.622  27.753  28.336  1.00  0.00     0.006 C 
ATOM     17  C   UNL A   1      46.009  28.397  26.083  1.00  0.00     0.139 C 
ATOM     18  C   UNL A   1      46.690  30.251  27.574  1.00  0.00     0.020 C 
ATOM     19  C   UNL A   1      48.051  27.385  27.953  1.00  0.00    -0.003 C 
ATOM     20  C   UNL A   1      47.410  28.154  25.548  1.00  0.00     0.080 C 
ATOM     21  O   UNL A   1      45.007  28.219  25.398  1.00  0.00    -0.299 OA
ATOM     22  C   UNL A   1      48.491  26.120  28.715  1.00  0.00     0.004 C 
ATOM     23  C   UNL A   1      48.148  27.122  26.423  1.00  0.00     0.006 C 
ATOM     24  C   UNL A   1      49.849  25.588  28.272  1.00  0.00     0.005 C 
ATOM     25  C   UNL A   1      49.633  26.832  26.004  1.00  0.00    -0.025 C 
ATOM     26  C   UNL A   1      50.036  25.521  26.739  1.00  0.00     0.002 C 
ATOM     27  C   UNL A   1      50.624  27.989  26.333  1.00  0.00     0.015 C 
ATOM     28  C   UNL A   1      49.682  26.627  24.468  1.00  0.00     0.012 C 
ATOM     29  C   UNL A   1      51.462  25.102  26.395  1.00  0.00     0.079 C 
ATOM     30  C   UNL A   1      51.987  27.604  26.917  1.00  0.00     0.076 C 
ATOM     31  C   UNL A   1      52.461  26.178  26.732  1.00  0.00     0.133 C 
ATOM     32  O   UNL A   1      53.651  25.894  26.887  1.00  0.00    -0.300 OA
ENDBRANCH  10  12
ENDBRANCH   9  10
ENDBRANCH   8   9
ENDBRANCH   5   8
ENDBRANCH   3   4
ENDBRANCH   2   3
ENDBRANCH   1   2
BRANCH   1  33
ATOM     33  C   UNL A   1      36.850  33.865  29.684  1.00  0.00     0.002 C 
BRANCH  33  34
ATOM     34  C   UNL A   1      35.649  33.627  28.775  1.00  0.00     0.021 C 
BRANCH  34  35
ATOM     35  C   UNL A   1      34.571  32.712  29.349  1.00  0.00     0.116 C 
BRANCH  35  36
ATOM     36  N   UNL A   1      34.024  31.803  28.350  1.00  0.00    -0.352 N 
ATOM     37  C   UNL A   1      34.641  30.719  27.769  1.00  0.00     0.251 C 
ATOM     38  H   UNL A   1      33.104  31.987  28.055  1.00  0.00     0.163 HD
ATOM     39  O   UNL A   1      34.149  30.168  26.788  1.00  0.00    -0.269 OA
BRANCH  37  40
ATOM     40  C   UNL A   1      35.916  30.244  28.344  1.00  0.00     0.039 A 
ATOM     41  C   UNL A   1      35.930  29.662  29.612  1.00  0.00     0.014 A 
ATOM     42  C   UNL A   1      37.086  30.321  27.582  1.00  0.00     0.014 A 
ATOM     43  C   UNL A   1      37.117  29.111  30.100  1.00  0.00     0.010 A 
ATOM     44  C   UNL A   1      38.246  29.706  28.039  1.00  0.00     0.010 A 
ATOM     45  C   UNL A   1      38.280  29.107  29.309  1.00  0.00    -0.014 A 
BRANCH  45  46
ATOM     46  C   UNL A   1      39.557  28.544  29.821  1.00  0.00     0.031 A 
ATOM     47  C   UNL A   1      40.200  29.163  31.035  1.00  0.00     0.074 A 
ATOM     48  C   UNL A   1      40.153  27.515  29.185  1.00  0.00     0.049 A 
ATOM     49  N   UNL A   1      41.341  28.877  31.607  1.00  0.00    -0.248 NA
ATOM     50  C   UNL A   1      39.473  30.274  31.670  1.00  0.00     0.031 C 
ATOM     51  C   UNL A   1      39.647  26.860  27.976  1.00  0.00     0.029 A 
ATOM     52  N   UNL A   1      41.317  26.841  29.461  1.00  0.00    -0.354 N 
ATOM     53  C   UNL A   1      41.467  29.772  32.665  1.00  0.00     0.074 A 
ATOM     54  C   UNL A   1      40.329  30.662  32.600  1.00  0.00     0.031 C 
ATOM     55  C   UNL A   1      40.483  25.867  27.631  1.00  0.00     0.029 A 
ATOM     56  C   UNL A   1      41.604  25.835  28.568  1.00  0.00     0.049 A 
ATOM     57  H   UNL A   1      41.892  27.058  30.230  1.00  0.00     0.167 HD
ATOM     58  C   UNL A   1      42.420  29.822  33.628  1.00  0.00     0.034 A 
ATOM     59  C   UNL A   1      42.653  24.989  28.509  1.00  0.00     0.034 A 
ATOM     60  C   UNL A   1      43.543  28.921  33.686  1.00  0.00     0.049 A 
ATOM     61  C   UNL A   1      43.711  25.074  29.584  1.00  0.00     0.074 A 
ATOM     62  C   UNL A   1      44.570  28.876  34.613  1.00  0.00     0.029 A 
ATOM     63  N   UNL A   1      43.782  27.894  32.781  1.00  0.00    -0.354 N 
ATOM     64  N   UNL A   1      43.799  25.910  30.595  1.00  0.00    -0.248 NA
ATOM     65  C   UNL A   1      44.797  24.088  29.527  1.00  0.00     0.031 C 
ATOM     66  C   UNL A   1      45.454  27.857  34.242  1.00  0.00     0.029 A 
ATOM     67  C   UNL A   1      44.939  27.216  33.127  1.00  0.00     0.049 A 
ATOM     68  H   UNL A   1      43.212  27.679  32.008  1.00  0.00     0.167 HD
ATOM     69  C   UNL A   1      44.923  25.516  31.317  1.00  0.00     0.074 A 
ATOM     70  C   UNL A   1      45.468  24.360  30.636  1.00  0.00     0.031 C 
ATOM     71  C   UNL A   1      45.458  26.055  32.443  1.00  0.00     0.034 A 
BRANCH  58  72
ATOM     72  C   UNL A   1      42.278  30.890  34.686  1.00  0.00     0.023 A 
ATOM     73  C   UNL A   1      42.802  32.182  34.495  1.00  0.00     0.031 A 
ATOM     74  C   UNL A   1      41.642  30.613  35.908  1.00  0.00     0.131 A 
ATOM     75  C   UNL A   1      42.746  33.122  35.534  1.00  0.00     0.055 A 
ATOM     76  C   UNL A   1      41.515  31.580  36.906  1.00  0.00     0.041 A 
ATOM     77  F   UNL A   1      41.143  29.392  36.158  1.00  0.00    -0.206 F 
ATOM     78  C   UNL A   1      42.082  32.839  36.729  1.00  0.00     0.022 A 
BRANCH  75  79
ATOM     79  S   UNL A   1      43.674  34.669  35.350  1.00  0.00     0.124 S 
ATOM     80  O   UNL A   1      43.028  35.261  34.181  1.00  0.00    -0.237 OA
ATOM     81  O   UNL A   1      43.430  35.338  36.622  1.00  0.00    -0.237 OA
ATOM     82  O   UNL A   1      45.048  34.220  35.133  1.00  0.00    -0.744 OA
ENDBRANCH  75  79
ENDBRANCH  58  72
BRANCH  59  83
ATOM     83  C   UNL A   1      42.774  23.990  27.405  1.00  0.00     0.023 A 
ATOM     84  C   UNL A   1      42.075  22.772  27.447  1.00  0.00     0.031 A 
ATOM     85  C   UNL A   1      43.655  24.202  26.330  1.00  0.00     0.131 A 
ATOM     86  C   UNL A   1      42.323  21.786  26.479  1.00  0.00     0.055 A 
ATOM     87  C   UNL A   1      43.850  23.244  25.332  1.00  0.00     0.041 A 
ATOM     88  F   UNL A   1      44.346  25.350  26.234  1.00  0.00    -0.206 F 
ATOM     89  C   UNL A   1      43.197  22.019  25.414  1.00  0.00     0.022 A 
BRANCH  86  90
ATOM     90  S   UNL A   1      41.587  20.142  26.704  1.00  0.00     0.124 S 
ATOM     91  O   UNL A   1      40.239  20.480  27.147  1.00  0.00    -0.237 OA
ATOM     92  O   UNL A   1      41.700  19.577  25.364  1.00  0.00    -0.237 OA
ATOM     93  O   UNL A   1      42.441  19.524  27.715  1.00  0.00    -0.744 OA
ENDBRANCH  86  90
ENDBRANCH  59  83
BRANCH  71  94
ATOM     94  C   UNL A   1      46.649  25.349  33.044  1.00  0.00     0.023 A 
ATOM     95  C   UNL A   1      47.965  25.636  32.646  1.00  0.00     0.031 A 
ATOM     96  C   UNL A   1      46.455  24.356  34.022  1.00  0.00     0.131 A 
ATOM     97  C   UNL A   1      49.032  24.891  33.171  1.00  0.00     0.055 A 
ATOM     98  C   UNL A   1      47.524  23.664  34.589  1.00  0.00     0.041 A 
ATOM     99  F   UNL A   1      45.219  24.041  34.440  1.00  0.00    -0.206 F 
ATOM    100  C   UNL A   1      48.821  23.918  34.153  1.00  0.00     0.022 A 
BRANCH  97 101
ATOM    101  S   UNL A   1      50.688  25.131  32.472  1.00  0.00     0.124 S 
ATOM    102  O   UNL A   1      50.493  26.304  31.625  1.00  0.00    -0.237 OA
ATOM    103  O   UNL A   1      51.502  25.336  33.666  1.00  0.00    -0.237 OA
ATOM    104  O   UNL A   1      50.942  23.883  31.755  1.00  0.00    -0.744 OA
ENDBRANCH  97 101
ENDBRANCH  71  94
ENDBRANCH  45  46
ENDBRANCH  37  40
ENDBRANCH  35  36
ENDBRANCH  34  35
ENDBRANCH  33  34
ENDBRANCH   1  33
TORSDOF 19
ENDMDL
