MODEL 1
REMARK VINA RESULT:     -11.7      0.000      0.000
REMARK SMILES O=C(Nc1c(F)cc(F)cc1F)N[C@H]1C=C[C@@H](C(=O)NCCCCCCNC(=O)c2ccc(-c3c4nc(c(-c5cc(S(=O)(=O)[O-])ccc5F)c5ccc([nH]5)c(-c5cc(S(=O)(=O)[O-])ccc5F)c5nc(c(-c6cc(S(=O)(=O)[O-])ccc6F)c6ccc3[nH]6)C=C5)C=C4)cc2)C1
REMARK SMILES IDX 24 1 23 2 22 3 21 4 20 5 18 6 19 7 17 9 14 10 15 11 93 12
REMARK SMILES IDX 16 13 13 14 1 15 2 16 3 17 4 20 5 21 11 22 6 23 7 24 10 25
REMARK SMILES IDX 12 26 8 27 9 28 25 29 26 30 27 31 28 32 29 34 30 35 31 36
REMARK SMILES IDX 92 37 32 38 91 39 33 40 34 41 35 42 85 43 36 44 90 45 84 46
REMARK SMILES IDX 86 47 37 48 89 49 83 50 82 51 38 53 70 54 50 55 69 56 51 57
REMARK SMILES IDX 54 58 68 59 87 60 52 61 53 62 67 64 88 65 55 66 39 67 40 68
REMARK SMILES IDX 48 69 41 70 47 71 49 72 46 73 42 74 43 75 44 76 45 77 71 78
REMARK SMILES IDX 72 79 80 80 73 81 79 82 81 83 78 84 74 85 75 86 76 87 77 88
REMARK SMILES IDX 56 89 57 90 65 91 58 92 64 93 66 94 63 95 59 96 60 97 61 98
REMARK SMILES IDX 62 99
REMARK H PARENT 20 8 3 18 13 19 27 33 86 52 54 63
REMARK Flexibility Score: inf
ROOT
ATOM      1  C   UNL A   1      34.958  24.342  24.399  1.00  0.00     0.002 C 
ENDROOT
BRANCH   1   2
ATOM      2  C   UNL A   1      34.230  24.007  23.092  1.00  0.00     0.002 C 
BRANCH   2   3
ATOM      3  C   UNL A   1      32.967  24.833  22.820  1.00  0.00     0.021 C 
BRANCH   3   4
ATOM      4  C   UNL A   1      33.231  26.319  22.588  1.00  0.00     0.116 C 
BRANCH   4   5
ATOM      5  N   UNL A   1      32.068  26.981  22.034  1.00  0.00    -0.356 N 
ATOM      6  C   UNL A   1      31.001  27.564  22.644  1.00  0.00     0.227 C 
ATOM      7  O   UNL A   1      30.138  28.062  21.911  1.00  0.00    -0.274 OA
ATOM      8  H   UNL A   1      32.046  27.015  21.050  1.00  0.00     0.163 HD
BRANCH   6   9
ATOM      9  C   UNL A   1      30.855  27.647  24.165  1.00  0.00     0.103 C 
ATOM     10  C   UNL A   1      31.020  26.139  26.103  1.00  0.00     0.107 C 
ATOM     11  C   UNL A   1      32.246  26.978  25.932  1.00  0.00    -0.006 C 
ATOM     12  C   UNL A   1      30.189  26.441  24.842  1.00  0.00     0.047 C 
ATOM     13  C   UNL A   1      32.165  27.795  24.877  1.00  0.00    -0.016 C 
BRANCH  10  14
ATOM     14  N   UNL A   1      31.429  24.760  26.161  1.00  0.00    -0.332 N 
ATOM     15  O   UNL A   1      29.568  24.007  27.211  1.00  0.00    -0.248 OA
ATOM     16  C   UNL A   1      30.657  23.781  26.686  1.00  0.00     0.319 C 
ATOM     17  N   UNL A   1      31.048  22.489  26.507  1.00  0.00    -0.303 N 
ATOM     18  H   UNL A   1      30.373  21.834  26.795  1.00  0.00     0.172 HD
ATOM     19  H   UNL A   1      32.314  24.518  25.802  1.00  0.00     0.165 HD
BRANCH  17  20
ATOM     20  C   UNL A   1      32.221  21.893  25.992  1.00  0.00     0.115 A 
ATOM     21  C   UNL A   1      32.400  21.428  24.686  1.00  0.00     0.152 A 
ATOM     22  C   UNL A   1      33.303  21.772  26.875  1.00  0.00     0.152 A 
ATOM     23  F   UNL A   1      31.441  21.563  23.760  1.00  0.00    -0.204 F 
ATOM     24  C   UNL A   1      33.588  20.824  24.287  1.00  0.00     0.081 A 
ATOM     25  C   UNL A   1      34.490  21.152  26.503  1.00  0.00     0.081 A 
ATOM     26  F   UNL A   1      33.175  22.212  28.137  1.00  0.00    -0.204 F 
ATOM     27  C   UNL A   1      34.616  20.682  25.204  1.00  0.00     0.129 A 
ATOM     28  F   UNL A   1      35.739  20.066  24.826  1.00  0.00    -0.207 F 
ENDBRANCH  17  20
ENDBRANCH  10  14
ENDBRANCH   6   9
ENDBRANCH   4   5
ENDBRANCH   3   4
ENDBRANCH   2   3
ENDBRANCH   1   2
BRANCH   1  29
ATOM     29  C   UNL A   1      36.373  23.771  24.520  1.00  0.00     0.021 C 
BRANCH  29  30
ATOM     30  C   UNL A   1      36.881  23.618  25.952  1.00  0.00     0.116 C 
BRANCH  30  31
ATOM     31  N   UNL A   1      37.866  22.555  26.073  1.00  0.00    -0.352 N 
ATOM     32  C   UNL A   1      39.206  22.646  26.361  1.00  0.00     0.251 C 
ATOM     33  H   UNL A   1      37.526  21.643  25.928  1.00  0.00     0.163 HD
ATOM     34  O   UNL A   1      39.929  21.663  26.210  1.00  0.00    -0.269 OA
BRANCH  32  35
ATOM     35  C   UNL A   1      39.777  23.928  26.828  1.00  0.00     0.039 A 
ATOM     36  C   UNL A   1      40.136  24.896  25.888  1.00  0.00     0.014 A 
ATOM     37  C   UNL A   1      39.956  24.174  28.192  1.00  0.00     0.014 A 
ATOM     38  C   UNL A   1      40.603  26.141  26.319  1.00  0.00     0.010 A 
ATOM     39  C   UNL A   1      40.359  25.439  28.619  1.00  0.00     0.010 A 
ATOM     40  C   UNL A   1      40.677  26.443  27.690  1.00  0.00    -0.014 A 
BRANCH  40  41
ATOM     41  C   UNL A   1      41.064  27.800  28.167  1.00  0.00     0.031 A 
ATOM     42  C   UNL A   1      42.512  28.214  28.182  1.00  0.00     0.074 A 
ATOM     43  C   UNL A   1      40.121  28.638  28.643  1.00  0.00     0.049 A 
ATOM     44  N   UNL A   1      43.052  29.319  28.631  1.00  0.00    -0.248 NA
ATOM     45  C   UNL A   1      43.482  27.246  27.651  1.00  0.00     0.031 C 
ATOM     46  C   UNL A   1      38.688  28.341  28.720  1.00  0.00     0.029 A 
ATOM     47  N   UNL A   1      40.220  29.909  29.157  1.00  0.00    -0.354 N 
ATOM     48  C   UNL A   1      44.423  29.178  28.443  1.00  0.00     0.074 A 
ATOM     49  C   UNL A   1      44.634  27.851  27.903  1.00  0.00     0.031 C 
ATOM     50  C   UNL A   1      38.043  29.408  29.217  1.00  0.00     0.029 A 
ATOM     51  C   UNL A   1      39.015  30.445  29.551  1.00  0.00     0.049 A 
ATOM     52  H   UNL A   1      41.075  30.391  29.238  1.00  0.00     0.167 HD
ATOM     53  C   UNL A   1      45.411  30.077  28.675  1.00  0.00     0.034 A 
ATOM     54  C   UNL A   1      38.723  31.628  30.130  1.00  0.00     0.034 A 
ATOM     55  C   UNL A   1      45.186  31.400  29.205  1.00  0.00     0.049 A 
ATOM     56  C   UNL A   1      39.846  32.596  30.417  1.00  0.00     0.074 A 
ATOM     57  C   UNL A   1      46.111  32.405  29.431  1.00  0.00     0.029 A 
ATOM     58  N   UNL A   1      43.953  31.903  29.600  1.00  0.00    -0.354 N 
ATOM     59  N   UNL A   1      41.132  32.461  30.189  1.00  0.00    -0.248 NA
ATOM     60  C   UNL A   1      39.476  33.879  31.030  1.00  0.00     0.031 C 
ATOM     61  C   UNL A   1      45.453  33.482  30.036  1.00  0.00     0.029 A 
ATOM     62  C   UNL A   1      44.100  33.189  30.102  1.00  0.00     0.049 A 
ATOM     63  H   UNL A   1      43.098  31.419  29.533  1.00  0.00     0.167 HD
ATOM     64  C   UNL A   1      41.717  33.657  30.598  1.00  0.00     0.074 A 
ATOM     65  C   UNL A   1      40.641  34.504  31.071  1.00  0.00     0.031 C 
ATOM     66  C   UNL A   1      43.023  34.025  30.579  1.00  0.00     0.034 A 
BRANCH  53  67
ATOM     67  C   UNL A   1      46.829  29.648  28.379  1.00  0.00     0.023 A 
ATOM     68  C   UNL A   1      47.614  28.978  29.333  1.00  0.00     0.031 A 
ATOM     69  C   UNL A   1      47.410  29.921  27.127  1.00  0.00     0.131 A 
ATOM     70  C   UNL A   1      48.953  28.670  29.050  1.00  0.00     0.055 A 
ATOM     71  C   UNL A   1      48.716  29.533  26.820  1.00  0.00     0.041 A 
ATOM     72  F   UNL A   1      46.720  30.578  26.182  1.00  0.00    -0.206 F 
ATOM     73  C   UNL A   1      49.501  28.916  27.790  1.00  0.00     0.022 A 
BRANCH  70  74
ATOM     74  S   UNL A   1      50.008  28.076  30.400  1.00  0.00     0.124 S 
ATOM     75  O   UNL A   1      51.090  29.058  30.379  1.00  0.00    -0.237 OA
ATOM     76  O   UNL A   1      49.114  28.134  31.550  1.00  0.00    -0.237 OA
ATOM     77  O   UNL A   1      50.390  26.732  29.970  1.00  0.00    -0.744 OA
ENDBRANCH  70  74
ENDBRANCH  53  67
BRANCH  54  78
ATOM     78  C   UNL A   1      37.317  31.969  30.499  1.00  0.00     0.023 A 
ATOM     79  C   UNL A   1      36.438  32.535  29.561  1.00  0.00     0.031 A 
ATOM     80  C   UNL A   1      36.848  31.789  31.813  1.00  0.00     0.131 A 
ATOM     81  C   UNL A   1      35.160  32.955  29.963  1.00  0.00     0.055 A 
ATOM     82  C   UNL A   1      35.553  32.148  32.192  1.00  0.00     0.041 A 
ATOM     83  F   UNL A   1      37.644  31.251  32.751  1.00  0.00    -0.206 F 
ATOM     84  C   UNL A   1      34.706  32.750  31.268  1.00  0.00     0.022 A 
BRANCH  81  85
ATOM     85  S   UNL A   1      34.135  33.874  28.781  1.00  0.00     0.124 S 
ATOM     86  O   UNL A   1      35.121  34.745  28.152  1.00  0.00    -0.237 OA
ATOM     87  O   UNL A   1      33.601  32.801  27.948  1.00  0.00    -0.237 OA
ATOM     88  O   UNL A   1      33.157  34.548  29.631  1.00  0.00    -0.744 OA
ENDBRANCH  81  85
ENDBRANCH  54  78
BRANCH  66  89
ATOM     89  C   UNL A   1      43.355  35.426  31.035  1.00  0.00     0.023 A 
ATOM     90  C   UNL A   1      43.457  35.761  32.397  1.00  0.00     0.031 A 
ATOM     91  C   UNL A   1      43.565  36.445  30.089  1.00  0.00     0.131 A 
ATOM     92  C   UNL A   1      43.701  37.090  32.774  1.00  0.00     0.055 A 
ATOM     93  C   UNL A   1      43.875  37.751  30.469  1.00  0.00     0.041 A 
ATOM     94  F   UNL A   1      43.475  36.187  28.774  1.00  0.00    -0.206 F 
ATOM     95  C   UNL A   1      43.930  38.084  31.818  1.00  0.00     0.022 A 
BRANCH  92  96
ATOM     96  S   UNL A   1      43.614  37.527  34.533  1.00  0.00     0.124 S 
ATOM     97  O   UNL A   1      44.315  38.806  34.563  1.00  0.00    -0.237 OA
ATOM     98  O   UNL A   1      42.175  37.584  34.769  1.00  0.00    -0.237 OA
ATOM     99  O   UNL A   1      44.308  36.425  35.195  1.00  0.00    -0.744 OA
ENDBRANCH  92  96
ENDBRANCH  66  89
ENDBRANCH  40  41
ENDBRANCH  32  35
ENDBRANCH  30  31
ENDBRANCH  29  30
ENDBRANCH   1  29
TORSDOF 18
ENDMDL
MODEL 2
REMARK VINA RESULT:     -11.6      3.472      8.518
REMARK SMILES O=C(Nc1c(F)cc(F)cc1F)N[C@H]1C=C[C@@H](C(=O)NCCCCCCNC(=O)c2ccc(-c3c4nc(c(-c5cc(S(=O)(=O)[O-])ccc5F)c5ccc([nH]5)c(-c5cc(S(=O)(=O)[O-])ccc5F)c5nc(c(-c6cc(S(=O)(=O)[O-])ccc6F)c6ccc3[nH]6)C=C5)C=C4)cc2)C1
REMARK SMILES IDX 24 1 23 2 22 3 21 4 20 5 18 6 19 7 17 9 14 10 15 11 93 12
REMARK SMILES IDX 16 13 13 14 1 15 2 16 3 17 4 20 5 21 11 22 6 23 7 24 10 25
REMARK SMILES IDX 12 26 8 27 9 28 25 29 26 30 27 31 28 32 29 34 30 35 31 36
REMARK SMILES IDX 92 37 32 38 91 39 33 40 34 41 35 42 85 43 36 44 90 45 84 46
REMARK SMILES IDX 86 47 37 48 89 49 83 50 82 51 38 53 70 54 50 55 69 56 51 57
REMARK SMILES IDX 54 58 68 59 87 60 52 61 53 62 67 64 88 65 55 66 39 67 40 68
REMARK SMILES IDX 48 69 41 70 47 71 49 72 46 73 42 74 43 75 44 76 45 77 71 78
REMARK SMILES IDX 72 79 80 80 73 81 79 82 81 83 78 84 74 85 75 86 76 87 77 88
REMARK SMILES IDX 56 89 57 90 65 91 58 92 64 93 66 94 63 95 59 96 60 97 61 98
REMARK SMILES IDX 62 99
REMARK H PARENT 20 8 3 18 13 19 27 33 86 52 54 63
REMARK Flexibility Score: inf
ROOT
ATOM      1  C   UNL A   1      34.011  26.478  25.547  1.00  0.00     0.002 C 
ENDROOT
BRANCH   1   2
ATOM      2  C   UNL A   1      33.868  26.781  24.052  1.00  0.00     0.002 C 
BRANCH   2   3
ATOM      3  C   UNL A   1      33.686  25.552  23.153  1.00  0.00     0.021 C 
BRANCH   3   4
ATOM      4  C   UNL A   1      32.256  25.350  22.656  1.00  0.00     0.116 C 
BRANCH   4   5
ATOM      5  N   UNL A   1      31.702  26.579  22.127  1.00  0.00    -0.356 N 
ATOM      6  C   UNL A   1      30.693  27.370  22.582  1.00  0.00     0.227 C 
ATOM      7  O   UNL A   1      30.426  28.378  21.917  1.00  0.00    -0.274 OA
ATOM      8  H   UNL A   1      32.127  26.896  21.297  1.00  0.00     0.163 HD
BRANCH   6   9
ATOM      9  C   UNL A   1      29.921  27.075  23.870  1.00  0.00     0.103 C 
ATOM     10  C   UNL A   1      29.965  25.420  25.690  1.00  0.00     0.107 C 
ATOM     11  C   UNL A   1      30.608  26.711  26.084  1.00  0.00    -0.006 C 
ATOM     12  C   UNL A   1      29.685  25.592  24.186  1.00  0.00     0.047 C 
ATOM     13  C   UNL A   1      30.593  27.613  25.097  1.00  0.00    -0.016 C 
BRANCH  10  14
ATOM     14  N   UNL A   1      30.905  24.359  25.944  1.00  0.00    -0.332 N 
ATOM     15  O   UNL A   1      29.605  23.242  27.425  1.00  0.00    -0.248 OA
ATOM     16  C   UNL A   1      30.645  23.323  26.775  1.00  0.00     0.319 C 
ATOM     17  N   UNL A   1      31.514  22.276  26.786  1.00  0.00    -0.303 N 
ATOM     18  H   UNL A   1      31.191  21.507  27.308  1.00  0.00     0.172 HD
ATOM     19  H   UNL A   1      31.780  24.390  25.492  1.00  0.00     0.165 HD
BRANCH  17  20
ATOM     20  C   UNL A   1      32.783  22.061  26.203  1.00  0.00     0.115 A 
ATOM     21  C   UNL A   1      33.951  22.771  26.493  1.00  0.00     0.152 A 
ATOM     22  C   UNL A   1      32.872  21.030  25.256  1.00  0.00     0.152 A 
ATOM     23  F   UNL A   1      33.970  23.728  27.431  1.00  0.00    -0.204 F 
ATOM     24  C   UNL A   1      35.148  22.502  25.837  1.00  0.00     0.081 A 
ATOM     25  C   UNL A   1      34.052  20.759  24.573  1.00  0.00     0.081 A 
ATOM     26  F   UNL A   1      31.775  20.319  24.953  1.00  0.00    -0.204 F 
ATOM     27  C   UNL A   1      35.181  21.506  24.875  1.00  0.00     0.129 A 
ATOM     28  F   UNL A   1      36.323  21.279  24.220  1.00  0.00    -0.207 F 
ENDBRANCH  17  20
ENDBRANCH  10  14
ENDBRANCH   6   9
ENDBRANCH   4   5
ENDBRANCH   3   4
ENDBRANCH   2   3
ENDBRANCH   1   2
BRANCH   1  29
ATOM     29  C   UNL A   1      33.948  27.701  26.467  1.00  0.00     0.021 C 
BRANCH  29  30
ATOM     30  C   UNL A   1      34.428  29.004  25.833  1.00  0.00     0.116 C 
BRANCH  30  31
ATOM     31  N   UNL A   1      33.899  30.173  26.517  1.00  0.00    -0.352 N 
ATOM     32  C   UNL A   1      34.357  30.792  27.654  1.00  0.00     0.251 C 
ATOM     33  H   UNL A   1      33.101  30.578  26.108  1.00  0.00     0.163 HD
ATOM     34  O   UNL A   1      33.659  31.638  28.211  1.00  0.00    -0.269 OA
BRANCH  32  35
ATOM     35  C   UNL A   1      35.674  30.423  28.218  1.00  0.00     0.039 A 
ATOM     36  C   UNL A   1      35.724  29.660  29.387  1.00  0.00     0.014 A 
ATOM     37  C   UNL A   1      36.857  30.827  27.594  1.00  0.00     0.014 A 
ATOM     38  C   UNL A   1      36.960  29.239  29.887  1.00  0.00     0.010 A 
ATOM     39  C   UNL A   1      38.082  30.349  28.057  1.00  0.00     0.010 A 
ATOM     40  C   UNL A   1      38.149  29.540  29.202  1.00  0.00    -0.014 A 
BRANCH  40  41
ATOM     41  C   UNL A   1      39.464  29.005  29.656  1.00  0.00     0.031 A 
ATOM     42  C   UNL A   1      40.221  29.691  30.763  1.00  0.00     0.074 A 
ATOM     43  C   UNL A   1      40.006  27.938  29.034  1.00  0.00     0.049 A 
ATOM     44  N   UNL A   1      41.409  29.423  31.243  1.00  0.00    -0.248 NA
ATOM     45  C   UNL A   1      39.569  30.849  31.391  1.00  0.00     0.031 C 
ATOM     46  C   UNL A   1      39.392  27.208  27.921  1.00  0.00     0.029 A 
ATOM     47  N   UNL A   1      41.195  27.281  29.239  1.00  0.00    -0.354 N 
ATOM     48  C   UNL A   1      41.650  30.381  32.222  1.00  0.00     0.074 A 
ATOM     49  C   UNL A   1      40.512  31.276  32.217  1.00  0.00     0.031 C 
ATOM     50  C   UNL A   1      40.191  26.189  27.568  1.00  0.00     0.029 A 
ATOM     51  C   UNL A   1      41.401  26.223  28.384  1.00  0.00     0.049 A 
ATOM     52  H   UNL A   1      41.840  27.544  29.935  1.00  0.00     0.167 HD
ATOM     53  C   UNL A   1      42.709  30.490  33.063  1.00  0.00     0.034 A 
ATOM     54  C   UNL A   1      42.450  25.384  28.256  1.00  0.00     0.034 A 
ATOM     55  C   UNL A   1      43.832  29.585  33.063  1.00  0.00     0.049 A 
ATOM     56  C   UNL A   1      43.634  25.552  29.176  1.00  0.00     0.074 A 
ATOM     57  C   UNL A   1      44.931  29.578  33.906  1.00  0.00     0.029 A 
ATOM     58  N   UNL A   1      44.009  28.532  32.176  1.00  0.00    -0.354 N 
ATOM     59  N   UNL A   1      43.823  26.437  30.129  1.00  0.00    -0.248 NA
ATOM     60  C   UNL A   1      44.744  24.603  29.011  1.00  0.00     0.031 C 
ATOM     61  C   UNL A   1      45.808  28.575  33.478  1.00  0.00     0.029 A 
ATOM     62  C   UNL A   1      45.216  27.893  32.428  1.00  0.00     0.049 A 
ATOM     63  H   UNL A   1      43.373  28.274  31.471  1.00  0.00     0.167 HD
ATOM     64  C   UNL A   1      45.055  26.125  30.698  1.00  0.00     0.074 A 
ATOM     65  C   UNL A   1      45.555  24.963  29.992  1.00  0.00     0.031 C 
ATOM     66  C   UNL A   1      45.711  26.739  31.715  1.00  0.00     0.034 A 
BRANCH  53  67
ATOM     67  C   UNL A   1      42.709  31.645  34.038  1.00  0.00     0.023 A 
ATOM     68  C   UNL A   1      42.178  31.520  35.333  1.00  0.00     0.031 A 
ATOM     69  C   UNL A   1      43.241  32.893  33.664  1.00  0.00     0.131 A 
ATOM     70  C   UNL A   1      42.122  32.638  36.179  1.00  0.00     0.055 A 
ATOM     71  C   UNL A   1      43.262  33.978  34.542  1.00  0.00     0.041 A 
ATOM     72  F   UNL A   1      43.742  33.081  32.433  1.00  0.00    -0.206 F 
ATOM     73  C   UNL A   1      42.686  33.859  35.804  1.00  0.00     0.022 A 
BRANCH  70  74
ATOM     74  S   UNL A   1      41.170  32.511  37.717  1.00  0.00     0.124 S 
ATOM     75  O   UNL A   1      41.098  33.911  38.133  1.00  0.00    -0.237 OA
ATOM     76  O   UNL A   1      39.919  31.912  37.267  1.00  0.00    -0.237 OA
ATOM     77  O   UNL A   1      42.002  31.660  38.566  1.00  0.00    -0.744 OA
ENDBRANCH  70  74
ENDBRANCH  53  67
BRANCH  54  78
ATOM     78  C   UNL A   1      42.449  24.319  27.209  1.00  0.00     0.023 A 
ATOM     79  C   UNL A   1      41.626  23.188  27.327  1.00  0.00     0.031 A 
ATOM     80  C   UNL A   1      43.317  24.387  26.104  1.00  0.00     0.131 A 
ATOM     81  C   UNL A   1      41.729  22.145  26.392  1.00  0.00     0.055 A 
ATOM     82  C   UNL A   1      43.369  23.377  25.141  1.00  0.00     0.041 A 
ATOM     83  F   UNL A   1      44.127  25.446  25.940  1.00  0.00    -0.206 F 
ATOM     84  C   UNL A   1      42.583  22.240  25.291  1.00  0.00     0.022 A 
BRANCH  81  85
ATOM     85  S   UNL A   1      40.808  20.611  26.695  1.00  0.00     0.124 S 
ATOM     86  O   UNL A   1      39.489  20.952  26.174  1.00  0.00    -0.237 OA
ATOM     87  O   UNL A   1      41.575  19.642  25.919  1.00  0.00    -0.237 OA
ATOM     88  O   UNL A   1      40.886  20.449  28.145  1.00  0.00    -0.744 OA
ENDBRANCH  81  85
ENDBRANCH  54  78
BRANCH  66  89
ATOM     89  C   UNL A   1      47.020  26.131  32.162  1.00  0.00     0.023 A 
ATOM     90  C   UNL A   1      48.231  26.401  31.499  1.00  0.00     0.031 A 
ATOM     91  C   UNL A   1      47.053  25.260  33.265  1.00  0.00     0.131 A 
ATOM     92  C   UNL A   1      49.410  25.760  31.910  1.00  0.00     0.055 A 
ATOM     93  C   UNL A   1      48.240  24.679  33.711  1.00  0.00     0.041 A 
ATOM     94  F   UNL A   1      45.927  24.960  33.934  1.00  0.00    -0.206 F 
ATOM     95  C   UNL A   1      49.426  24.916  33.024  1.00  0.00     0.022 A 
BRANCH  92  96
ATOM     96  S   UNL A   1      50.907  25.963  30.905  1.00  0.00     0.124 S 
ATOM     97  O   UNL A   1      50.561  25.227  29.694  1.00  0.00    -0.237 OA
ATOM     98  O   UNL A   1      50.995  27.413  30.766  1.00  0.00    -0.237 OA
ATOM     99  O   UNL A   1      51.955  25.354  31.722  1.00  0.00    -0.744 OA
ENDBRANCH  92  96
ENDBRANCH  66  89
ENDBRANCH  40  41
ENDBRANCH  32  35
ENDBRANCH  30  31
ENDBRANCH  29  30
ENDBRANCH   1  29
TORSDOF 18
ENDMDL
MODEL 3
REMARK VINA RESULT:     -11.6      1.751      2.083
REMARK SMILES O=C(Nc1c(F)cc(F)cc1F)N[C@H]1C=C[C@@H](C(=O)NCCCCCCNC(=O)c2ccc(-c3c4nc(c(-c5cc(S(=O)(=O)[O-])ccc5F)c5ccc([nH]5)c(-c5cc(S(=O)(=O)[O-])ccc5F)c5nc(c(-c6cc(S(=O)(=O)[O-])ccc6F)c6ccc3[nH]6)C=C5)C=C4)cc2)C1
REMARK SMILES IDX 24 1 23 2 22 3 21 4 20 5 18 6 19 7 17 9 14 10 15 11 93 12
REMARK SMILES IDX 16 13 13 14 1 15 2 16 3 17 4 20 5 21 11 22 6 23 7 24 10 25
REMARK SMILES IDX 12 26 8 27 9 28 25 29 26 30 27 31 28 32 29 34 30 35 31 36
REMARK SMILES IDX 92 37 32 38 91 39 33 40 34 41 35 42 85 43 36 44 90 45 84 46
REMARK SMILES IDX 86 47 37 48 89 49 83 50 82 51 38 53 70 54 50 55 69 56 51 57
REMARK SMILES IDX 54 58 68 59 87 60 52 61 53 62 67 64 88 65 55 66 39 67 40 68
REMARK SMILES IDX 48 69 41 70 47 71 49 72 46 73 42 74 43 75 44 76 45 77 71 78
REMARK SMILES IDX 72 79 80 80 73 81 79 82 81 83 78 84 74 85 75 86 76 87 77 88
REMARK SMILES IDX 56 89 57 90 65 91 58 92 64 93 66 94 63 95 59 96 60 97 61 98
REMARK SMILES IDX 62 99
REMARK H PARENT 20 8 3 18 13 19 27 33 86 52 54 63
REMARK Flexibility Score: inf
ROOT
ATOM      1  C   UNL A   1      35.481  23.344  23.173  1.00  0.00     0.002 C 
ENDROOT
BRANCH   1   2
ATOM      2  C   UNL A   1      34.476  24.236  23.910  1.00  0.00     0.002 C 
BRANCH   2   3
ATOM      3  C   UNL A   1      33.398  24.872  23.024  1.00  0.00     0.021 C 
BRANCH   3   4
ATOM      4  C   UNL A   1      33.566  26.376  22.820  1.00  0.00     0.116 C 
BRANCH   4   5
ATOM      5  N   UNL A   1      32.412  26.952  22.162  1.00  0.00    -0.356 N 
ATOM      6  C   UNL A   1      31.252  27.448  22.671  1.00  0.00     0.227 C 
ATOM      7  O   UNL A   1      30.424  27.883  21.862  1.00  0.00    -0.274 OA
ATOM      8  H   UNL A   1      32.478  26.991  21.180  1.00  0.00     0.163 HD
BRANCH   6   9
ATOM      9  C   UNL A   1      30.961  27.509  24.172  1.00  0.00     0.103 C 
ATOM     10  C   UNL A   1      30.980  25.983  26.103  1.00  0.00     0.107 C 
ATOM     11  C   UNL A   1      32.195  26.852  26.057  1.00  0.00    -0.006 C 
ATOM     12  C   UNL A   1      30.265  26.280  24.771  1.00  0.00     0.047 C 
ATOM     13  C   UNL A   1      32.194  27.680  25.006  1.00  0.00    -0.016 C 
BRANCH  10  14
ATOM     14  N   UNL A   1      31.416  24.613  26.186  1.00  0.00    -0.332 N 
ATOM     15  O   UNL A   1      29.565  23.842  27.241  1.00  0.00    -0.248 OA
ATOM     16  C   UNL A   1      30.660  23.628  26.724  1.00  0.00     0.319 C 
ATOM     17  N   UNL A   1      31.078  22.342  26.569  1.00  0.00    -0.303 N 
ATOM     18  H   UNL A   1      30.414  21.678  26.866  1.00  0.00     0.172 HD
ATOM     19  H   UNL A   1      32.306  24.383  25.835  1.00  0.00     0.165 HD
BRANCH  17  20
ATOM     20  C   UNL A   1      32.264  21.760  26.069  1.00  0.00     0.115 A 
ATOM     21  C   UNL A   1      32.448  21.246  24.782  1.00  0.00     0.152 A 
ATOM     22  C   UNL A   1      33.356  21.709  26.948  1.00  0.00     0.152 A 
ATOM     23  F   UNL A   1      31.478  21.313  23.861  1.00  0.00    -0.204 F 
ATOM     24  C   UNL A   1      33.650  20.662  24.398  1.00  0.00     0.081 A 
ATOM     25  C   UNL A   1      34.559  21.110  26.590  1.00  0.00     0.081 A 
ATOM     26  F   UNL A   1      33.224  22.197  28.191  1.00  0.00    -0.204 F 
ATOM     27  C   UNL A   1      34.689  20.590  25.312  1.00  0.00     0.129 A 
ATOM     28  F   UNL A   1      35.827  19.993  24.949  1.00  0.00    -0.207 F 
ENDBRANCH  17  20
ENDBRANCH  10  14
ENDBRANCH   6   9
ENDBRANCH   4   5
ENDBRANCH   3   4
ENDBRANCH   2   3
ENDBRANCH   1   2
BRANCH   1  29
ATOM     29  C   UNL A   1      36.888  23.312  23.777  1.00  0.00     0.021 C 
BRANCH  29  30
ATOM     30  C   UNL A   1      36.929  23.274  25.302  1.00  0.00     0.116 C 
BRANCH  30  31
ATOM     31  N   UNL A   1      37.955  22.372  25.800  1.00  0.00    -0.352 N 
ATOM     32  C   UNL A   1      39.147  22.671  26.413  1.00  0.00     0.251 C 
ATOM     33  H   UNL A   1      37.770  21.413  25.681  1.00  0.00     0.163 HD
ATOM     34  O   UNL A   1      39.988  21.788  26.573  1.00  0.00    -0.269 OA
BRANCH  32  35
ATOM     35  C   UNL A   1      39.425  24.054  26.856  1.00  0.00     0.039 A 
ATOM     36  C   UNL A   1      39.047  24.446  28.142  1.00  0.00     0.014 A 
ATOM     37  C   UNL A   1      40.060  24.963  26.005  1.00  0.00     0.014 A 
ATOM     38  C   UNL A   1      39.374  25.725  28.602  1.00  0.00     0.010 A 
ATOM     39  C   UNL A   1      40.442  26.214  26.490  1.00  0.00     0.010 A 
ATOM     40  C   UNL A   1      40.116  26.607  27.798  1.00  0.00    -0.014 A 
BRANCH  40  41
ATOM     41  C   UNL A   1      40.571  27.929  28.310  1.00  0.00     0.031 A 
ATOM     42  C   UNL A   1      42.042  28.222  28.454  1.00  0.00     0.074 A 
ATOM     43  C   UNL A   1      39.663  28.846  28.704  1.00  0.00     0.049 A 
ATOM     44  N   UNL A   1      42.630  29.281  28.950  1.00  0.00    -0.248 NA
ATOM     45  C   UNL A   1      42.971  27.175  28.007  1.00  0.00     0.031 C 
ATOM     46  C   UNL A   1      38.209  28.669  28.655  1.00  0.00     0.029 A 
ATOM     47  N   UNL A   1      39.821  30.106  29.229  1.00  0.00    -0.354 N 
ATOM     48  C   UNL A   1      43.995  29.026  28.883  1.00  0.00     0.074 A 
ATOM     49  C   UNL A   1      44.142  27.683  28.360  1.00  0.00     0.031 C 
ATOM     50  C   UNL A   1      37.613  29.788  29.096  1.00  0.00     0.029 A 
ATOM     51  C   UNL A   1      38.635  30.742  29.516  1.00  0.00     0.049 A 
ATOM     52  H   UNL A   1      40.703  30.516  29.385  1.00  0.00     0.167 HD
ATOM     53  C   UNL A   1      45.031  29.841  29.203  1.00  0.00     0.034 A 
ATOM     54  C   UNL A   1      38.393  31.948  30.070  1.00  0.00     0.034 A 
ATOM     55  C   UNL A   1      44.871  31.181  29.714  1.00  0.00     0.049 A 
ATOM     56  C   UNL A   1      39.563  32.821  30.457  1.00  0.00     0.074 A 
ATOM     57  C   UNL A   1      45.853  32.107  30.022  1.00  0.00     0.029 A 
ATOM     58  N   UNL A   1      43.654  31.786  30.001  1.00  0.00    -0.354 N 
ATOM     59  N   UNL A   1      40.849  32.579  30.342  1.00  0.00    -0.248 NA
ATOM     60  C   UNL A   1      39.248  34.133  31.039  1.00  0.00     0.031 C 
ATOM     61  C   UNL A   1      45.236  33.237  30.570  1.00  0.00     0.029 A 
ATOM     62  C   UNL A   1      43.863  33.058  30.517  1.00  0.00     0.049 A 
ATOM     63  H   UNL A   1      42.771  31.374  29.858  1.00  0.00     0.167 HD
ATOM     64  C   UNL A   1      41.493  33.724  30.803  1.00  0.00     0.074 A 
ATOM     65  C   UNL A   1      40.454  34.660  31.182  1.00  0.00     0.031 C 
ATOM     66  C   UNL A   1      42.822  33.982  30.900  1.00  0.00     0.034 A 
BRANCH  53  67
ATOM     67  C   UNL A   1      46.429  29.295  29.031  1.00  0.00     0.023 A 
ATOM     68  C   UNL A   1      47.020  29.161  27.763  1.00  0.00     0.031 A 
ATOM     69  C   UNL A   1      47.180  28.891  30.150  1.00  0.00     0.131 A 
ATOM     70  C   UNL A   1      48.287  28.573  27.637  1.00  0.00     0.055 A 
ATOM     71  C   UNL A   1      48.476  28.387  30.026  1.00  0.00     0.041 A 
ATOM     72  F   UNL A   1      46.662  28.973  31.386  1.00  0.00    -0.206 F 
ATOM     73  C   UNL A   1      49.032  28.211  28.762  1.00  0.00     0.022 A 
BRANCH  70  74
ATOM     74  S   UNL A   1      48.885  28.153  25.978  1.00  0.00     0.124 S 
ATOM     75  O   UNL A   1      50.079  28.991  25.875  1.00  0.00    -0.237 OA
ATOM     76  O   UNL A   1      49.119  26.717  26.080  1.00  0.00    -0.237 OA
ATOM     77  O   UNL A   1      47.780  28.547  25.105  1.00  0.00    -0.744 OA
ENDBRANCH  70  74
ENDBRANCH  53  67
BRANCH  54  78
ATOM     78  C   UNL A   1      36.993  32.406  30.316  1.00  0.00     0.023 A 
ATOM     79  C   UNL A   1      36.248  33.032  29.304  1.00  0.00     0.031 A 
ATOM     80  C   UNL A   1      36.400  32.278  31.585  1.00  0.00     0.131 A 
ATOM     81  C   UNL A   1      34.978  33.559  29.593  1.00  0.00     0.055 A 
ATOM     82  C   UNL A   1      35.111  32.745  31.850  1.00  0.00     0.041 A 
ATOM     83  F   UNL A   1      37.066  31.687  32.590  1.00  0.00    -0.206 F 
ATOM     84  C   UNL A   1      34.399  33.405  30.855  1.00  0.00     0.022 A 
BRANCH  81  85
ATOM     85  S   UNL A   1      34.138  34.547  28.324  1.00  0.00     0.124 S 
ATOM     86  O   UNL A   1      34.052  35.849  28.973  1.00  0.00    -0.237 OA
ATOM     87  O   UNL A   1      35.066  34.447  27.202  1.00  0.00    -0.237 OA
ATOM     88  O   UNL A   1      32.864  33.853  28.142  1.00  0.00    -0.744 OA
ENDBRANCH  81  85
ENDBRANCH  54  78
BRANCH  66  89
ATOM     89  C   UNL A   1      43.228  35.353  31.387  1.00  0.00     0.023 A 
ATOM     90  C   UNL A   1      43.485  36.412  30.499  1.00  0.00     0.031 A 
ATOM     91  C   UNL A   1      43.367  35.600  32.765  1.00  0.00     0.131 A 
ATOM     92  C   UNL A   1      43.924  37.650  30.995  1.00  0.00     0.055 A 
ATOM     93  C   UNL A   1      43.737  36.852  33.256  1.00  0.00     0.041 A 
ATOM     94  F   UNL A   1      43.139  34.625  33.661  1.00  0.00    -0.206 F 
ATOM     95  C   UNL A   1      44.033  37.882  32.369  1.00  0.00     0.022 A 
BRANCH  92  96
ATOM     96  S   UNL A   1      44.452  38.923  29.816  1.00  0.00     0.124 S 
ATOM     97  O   UNL A   1      45.037  39.928  30.697  1.00  0.00    -0.237 OA
ATOM     98  O   UNL A   1      45.389  38.195  28.968  1.00  0.00    -0.237 OA
ATOM     99  O   UNL A   1      43.207  39.323  29.162  1.00  0.00    -0.744 OA
ENDBRANCH  92  96
ENDBRANCH  66  89
ENDBRANCH  40  41
ENDBRANCH  32  35
ENDBRANCH  30  31
ENDBRANCH  29  30
ENDBRANCH   1  29
TORSDOF 18
ENDMDL
