MODEL 1
REMARK VINA RESULT:     -12.2      0.000      0.000
REMARK SMILES CCc1cccc(C)c1Nc1ccccc1CC(=O)NCCCCCCNC(=O)c1ccc(-c2c3nc(c(-c4cc(S(=O)(=O)[O-])ccc4F)c4ccc([nH]4)c(-c4cc(S(=O)(=O)[O-])ccc4F)c4nc(c(-c5cc(S(=O)(=O)[O-])ccc5F)c5ccc2[nH]5)C=C4)C=C3)cc1
REMARK SMILES IDX 23 1 22 2 21 3 20 4 18 5 19 6 17 8 16 9 11 10 12 11 13 12
REMARK SMILES IDX 15 13 14 14 10 15 9 17 3 18 4 19 5 20 7 21 6 22 8 23 2 24
REMARK SMILES IDX 1 25 24 26 25 27 26 28 27 29 28 30 29 32 30 33 31 34 92 35
REMARK SMILES IDX 32 36 91 37 33 38 34 39 35 40 85 41 36 42 90 43 84 44 86 45
REMARK SMILES IDX 37 46 89 47 83 48 82 49 38 51 70 52 50 53 69 54 51 55 54 56
REMARK SMILES IDX 68 57 87 58 52 59 53 60 67 62 88 63 55 64 39 65 40 66 48 67
REMARK SMILES IDX 41 68 47 69 49 70 46 71 42 72 43 73 44 74 45 75 71 76 72 77
REMARK SMILES IDX 80 78 73 79 79 80 81 81 78 82 74 83 75 84 76 85 77 86 56 87
REMARK SMILES IDX 57 88 65 89 58 90 64 91 66 92 63 93 59 94 60 95 61 96 62 97
REMARK H PARENT 20 7 10 16 27 31 86 50 54 61
REMARK Flexibility Score: inf
ROOT
ATOM      1  C   UNL A   1      31.828  29.965  24.991  1.00  0.00     0.002 C 
ENDROOT
BRANCH   1   2
ATOM      2  C   UNL A   1      31.069  28.866  24.236  1.00  0.00     0.021 C 
BRANCH   2   3
ATOM      3  C   UNL A   1      31.397  28.739  22.748  1.00  0.00     0.116 C 
BRANCH   3   4
ATOM      4  N   UNL A   1      32.583  27.953  22.464  1.00  0.00    -0.356 N 
ATOM      5  C   UNL A   1      32.735  26.626  22.199  1.00  0.00     0.224 C 
ATOM      6  O   UNL A   1      33.798  26.255  21.687  1.00  0.00    -0.275 OA
ATOM      7  H   UNL A   1      33.423  28.468  22.464  1.00  0.00     0.163 HD
BRANCH   5   8
ATOM      8  C   UNL A   1      31.594  25.646  22.373  1.00  0.00     0.137 C 
BRANCH   8   9
ATOM      9  C   UNL A   1      31.287  25.180  23.781  1.00  0.00    -0.015 A 
ATOM     10  C   UNL A   1      32.018  24.172  24.446  1.00  0.00     0.042 A 
ATOM     11  C   UNL A   1      31.603  23.757  25.722  1.00  0.00     0.026 A 
ATOM     12  C   UNL A   1      30.509  24.346  26.356  1.00  0.00     0.002 A 
ATOM     13  C   UNL A   1      30.169  25.747  24.429  1.00  0.00     0.006 A 
ATOM     14  C   UNL A   1      29.791  25.342  25.708  1.00  0.00     0.000 A 
BRANCH  10  15
ATOM     15  N   UNL A   1      33.093  23.481  23.852  1.00  0.00    -0.355 N 
ATOM     16  H   UNL A   1      33.667  24.036  23.275  1.00  0.00     0.167 HD
BRANCH  15  17
ATOM     17  C   UNL A   1      33.490  22.123  23.944  1.00  0.00     0.045 A 
ATOM     18  C   UNL A   1      34.711  21.804  24.588  1.00  0.00    -0.024 A 
ATOM     19  C   UNL A   1      34.929  20.478  25.019  1.00  0.00     0.006 A 
ATOM     20  C   UNL A   1      34.040  19.462  24.698  1.00  0.00     0.001 A 
ATOM     21  C   UNL A   1      32.740  21.053  23.407  1.00  0.00    -0.027 A 
ATOM     22  C   UNL A   1      32.986  19.739  23.843  1.00  0.00     0.005 A 
ATOM     23  C   UNL A   1      31.715  21.228  22.323  1.00  0.00     0.046 C 
BRANCH  18  24
ATOM     24  C   UNL A   1      35.854  22.769  24.848  1.00  0.00     0.034 C 
ATOM     25  C   UNL A   1      36.901  22.964  23.752  1.00  0.00     0.009 C 
ENDBRANCH  18  24
ENDBRANCH  15  17
ENDBRANCH  10  15
ENDBRANCH   8   9
ENDBRANCH   5   8
ENDBRANCH   3   4
ENDBRANCH   2   3
ENDBRANCH   1   2
BRANCH   1  26
ATOM     26  C   UNL A   1      32.120  29.704  26.475  1.00  0.00     0.002 C 
BRANCH  26  27
ATOM     27  C   UNL A   1      32.962  30.762  27.190  1.00  0.00     0.021 C 
BRANCH  27  28
ATOM     28  C   UNL A   1      34.250  30.225  27.809  1.00  0.00     0.116 C 
BRANCH  28  29
ATOM     29  N   UNL A   1      34.923  31.150  28.706  1.00  0.00    -0.352 N 
ATOM     30  C   UNL A   1      36.111  30.987  29.403  1.00  0.00     0.251 C 
ATOM     31  H   UNL A   1      34.472  32.016  28.837  1.00  0.00     0.163 HD
ATOM     32  O   UNL A   1      36.485  31.815  30.211  1.00  0.00    -0.269 OA
BRANCH  30  33
ATOM     33  C   UNL A   1      37.007  29.851  29.046  1.00  0.00     0.039 A 
ATOM     34  C   UNL A   1      37.308  28.939  30.067  1.00  0.00     0.014 A 
ATOM     35  C   UNL A   1      37.694  29.789  27.837  1.00  0.00     0.014 A 
ATOM     36  C   UNL A   1      38.440  28.133  29.962  1.00  0.00     0.010 A 
ATOM     37  C   UNL A   1      38.862  29.050  27.761  1.00  0.00     0.010 A 
ATOM     38  C   UNL A   1      39.271  28.275  28.849  1.00  0.00    -0.014 A 
BRANCH  38  39
ATOM     39  C   UNL A   1      40.647  27.785  28.822  1.00  0.00     0.031 A 
ATOM     40  C   UNL A   1      40.980  26.424  28.361  1.00  0.00     0.074 A 
ATOM     41  C   UNL A   1      41.651  28.596  29.224  1.00  0.00     0.049 A 
ATOM     42  N   UNL A   1      42.005  25.759  28.777  1.00  0.00    -0.248 NA
ATOM     43  C   UNL A   1      40.161  25.688  27.405  1.00  0.00     0.031 C 
ATOM     44  C   UNL A   1      43.087  28.368  29.096  1.00  0.00     0.029 A 
ATOM     45  N   UNL A   1      41.549  29.692  30.077  1.00  0.00    -0.354 N 
ATOM     46  C   UNL A   1      42.136  24.651  27.979  1.00  0.00     0.074 A 
ATOM     47  C   UNL A   1      40.933  24.619  27.176  1.00  0.00     0.031 C 
ATOM     48  C   UNL A   1      43.723  29.088  30.032  1.00  0.00     0.029 A 
ATOM     49  C   UNL A   1      42.713  29.710  30.869  1.00  0.00     0.049 A 
ATOM     50  H   UNL A   1      40.804  30.333  30.117  1.00  0.00     0.167 HD
ATOM     51  C   UNL A   1      43.294  23.935  27.987  1.00  0.00     0.034 A 
ATOM     52  C   UNL A   1      42.625  29.624  32.229  1.00  0.00     0.034 A 
ATOM     53  C   UNL A   1      44.283  24.471  28.916  1.00  0.00     0.049 A 
ATOM     54  C   UNL A   1      43.294  28.392  32.812  1.00  0.00     0.074 A 
ATOM     55  C   UNL A   1      45.405  25.273  28.783  1.00  0.00     0.029 A 
ATOM     56  N   UNL A   1      44.026  24.397  30.270  1.00  0.00    -0.354 N 
ATOM     57  N   UNL A   1      43.895  27.472  32.106  1.00  0.00    -0.248 NA
ATOM     58  C   UNL A   1      43.254  28.051  34.236  1.00  0.00     0.031 C 
ATOM     59  C   UNL A   1      45.793  25.707  30.084  1.00  0.00     0.029 A 
ATOM     60  C   UNL A   1      44.920  25.151  31.002  1.00  0.00     0.049 A 
ATOM     61  H   UNL A   1      43.295  23.870  30.666  1.00  0.00     0.167 HD
ATOM     62  C   UNL A   1      44.220  26.416  32.916  1.00  0.00     0.074 A 
ATOM     63  C   UNL A   1      43.817  26.831  34.246  1.00  0.00     0.031 C 
ATOM     64  C   UNL A   1      44.740  25.247  32.441  1.00  0.00     0.034 A 
BRANCH  51  65
ATOM     65  C   UNL A   1      43.605  22.872  26.973  1.00  0.00     0.023 A 
ATOM     66  C   UNL A   1      42.937  21.634  27.038  1.00  0.00     0.031 A 
ATOM     67  C   UNL A   1      44.544  23.014  25.934  1.00  0.00     0.131 A 
ATOM     68  C   UNL A   1      43.269  20.581  26.170  1.00  0.00     0.055 A 
ATOM     69  C   UNL A   1      44.917  21.947  25.106  1.00  0.00     0.041 A 
ATOM     70  F   UNL A   1      45.113  24.199  25.666  1.00  0.00    -0.206 F 
ATOM     71  C   UNL A   1      44.287  20.717  25.229  1.00  0.00     0.022 A 
BRANCH  68  72
ATOM     72  S   UNL A   1      42.342  19.026  26.286  1.00  0.00     0.124 S 
ATOM     73  O   UNL A   1      41.016  19.420  25.823  1.00  0.00    -0.237 OA
ATOM     74  O   UNL A   1      43.101  18.151  25.399  1.00  0.00    -0.237 OA
ATOM     75  O   UNL A   1      42.425  18.688  27.706  1.00  0.00    -0.744 OA
ENDBRANCH  68  72
ENDBRANCH  51  65
BRANCH  52  76
ATOM     76  C   UNL A   1      41.401  30.300  32.762  1.00  0.00     0.023 A 
ATOM     77  C   UNL A   1      41.414  31.714  32.800  1.00  0.00     0.031 A 
ATOM     78  C   UNL A   1      40.160  29.656  32.839  1.00  0.00     0.131 A 
ATOM     79  C   UNL A   1      40.216  32.436  32.722  1.00  0.00     0.055 A 
ATOM     80  C   UNL A   1      38.964  30.385  32.858  1.00  0.00     0.041 A 
ATOM     81  F   UNL A   1      40.070  28.320  32.770  1.00  0.00    -0.206 F 
ATOM     82  C   UNL A   1      38.986  31.778  32.748  1.00  0.00     0.022 A 
BRANCH  79  83
ATOM     83  S   UNL A   1      40.285  34.201  32.278  1.00  0.00     0.124 S 
ATOM     84  O   UNL A   1      41.486  34.261  31.454  1.00  0.00    -0.237 OA
ATOM     85  O   UNL A   1      39.019  34.412  31.576  1.00  0.00    -0.237 OA
ATOM     86  O   UNL A   1      40.370  34.877  33.570  1.00  0.00    -0.744 OA
ENDBRANCH  79  83
ENDBRANCH  52  76
BRANCH  64  87
ATOM     87  C   UNL A   1      45.093  24.086  33.327  1.00  0.00     0.023 A 
ATOM     88  C   UNL A   1      46.352  23.986  33.940  1.00  0.00     0.031 A 
ATOM     89  C   UNL A   1      44.209  23.001  33.517  1.00  0.00     0.131 A 
ATOM     90  C   UNL A   1      46.670  22.874  34.739  1.00  0.00     0.055 A 
ATOM     91  C   UNL A   1      44.561  21.860  34.241  1.00  0.00     0.041 A 
ATOM     92  F   UNL A   1      42.953  23.027  33.044  1.00  0.00    -0.206 F 
ATOM     93  C   UNL A   1      45.797  21.795  34.865  1.00  0.00     0.022 A 
BRANCH  90  94
ATOM     94  S   UNL A   1      48.217  22.899  35.682  1.00  0.00     0.124 S 
ATOM     95  O   UNL A   1      48.987  23.938  35.006  1.00  0.00    -0.237 OA
ATOM     96  O   UNL A   1      47.739  23.234  37.022  1.00  0.00    -0.237 OA
ATOM     97  O   UNL A   1      48.735  21.542  35.531  1.00  0.00    -0.744 OA
ENDBRANCH  90  94
ENDBRANCH  64  87
ENDBRANCH  38  39
ENDBRANCH  30  33
ENDBRANCH  28  29
ENDBRANCH  27  28
ENDBRANCH  26  27
ENDBRANCH   1  26
TORSDOF 20
ENDMDL
MODEL 2
REMARK VINA RESULT:     -12.2      1.398      2.452
REMARK SMILES CCc1cccc(C)c1Nc1ccccc1CC(=O)NCCCCCCNC(=O)c1ccc(-c2c3nc(c(-c4cc(S(=O)(=O)[O-])ccc4F)c4ccc([nH]4)c(-c4cc(S(=O)(=O)[O-])ccc4F)c4nc(c(-c5cc(S(=O)(=O)[O-])ccc5F)c5ccc2[nH]5)C=C4)C=C3)cc1
REMARK SMILES IDX 23 1 22 2 21 3 20 4 18 5 19 6 17 8 16 9 11 10 12 11 13 12
REMARK SMILES IDX 15 13 14 14 10 15 9 17 3 18 4 19 5 20 7 21 6 22 8 23 2 24
REMARK SMILES IDX 1 25 24 26 25 27 26 28 27 29 28 30 29 32 30 33 31 34 92 35
REMARK SMILES IDX 32 36 91 37 33 38 34 39 35 40 85 41 36 42 90 43 84 44 86 45
REMARK SMILES IDX 37 46 89 47 83 48 82 49 38 51 70 52 50 53 69 54 51 55 54 56
REMARK SMILES IDX 68 57 87 58 52 59 53 60 67 62 88 63 55 64 39 65 40 66 48 67
REMARK SMILES IDX 41 68 47 69 49 70 46 71 42 72 43 73 44 74 45 75 71 76 72 77
REMARK SMILES IDX 80 78 73 79 79 80 81 81 78 82 74 83 75 84 76 85 77 86 56 87
REMARK SMILES IDX 57 88 65 89 58 90 64 91 66 92 63 93 59 94 60 95 61 96 62 97
REMARK H PARENT 20 7 10 16 27 31 86 50 54 61
REMARK Flexibility Score: inf
ROOT
ATOM      1  C   UNL A   1      33.706  28.726  25.895  1.00  0.00     0.002 C 
ENDROOT
BRANCH   1   2
ATOM      2  C   UNL A   1      33.283  27.404  25.241  1.00  0.00     0.021 C 
BRANCH   2   3
ATOM      3  C   UNL A   1      33.693  26.135  25.989  1.00  0.00     0.116 C 
BRANCH   3   4
ATOM      4  N   UNL A   1      32.743  25.044  25.876  1.00  0.00    -0.356 N 
ATOM      5  C   UNL A   1      32.757  23.787  26.400  1.00  0.00     0.224 C 
ATOM      6  O   UNL A   1      31.696  23.154  26.418  1.00  0.00    -0.275 OA
ATOM      7  H   UNL A   1      31.952  25.248  25.326  1.00  0.00     0.163 HD
BRANCH   5   8
ATOM      8  C   UNL A   1      33.987  23.226  27.083  1.00  0.00     0.137 C 
BRANCH   8   9
ATOM      9  C   UNL A   1      35.058  22.622  26.199  1.00  0.00    -0.015 A 
ATOM     10  C   UNL A   1      34.896  21.408  25.496  1.00  0.00     0.042 A 
ATOM     11  C   UNL A   1      35.980  20.892  24.767  1.00  0.00     0.026 A 
ATOM     12  C   UNL A   1      37.194  21.573  24.693  1.00  0.00     0.002 A 
ATOM     13  C   UNL A   1      36.302  23.283  26.132  1.00  0.00     0.006 A 
ATOM     14  C   UNL A   1      37.356  22.771  25.377  1.00  0.00     0.000 A 
BRANCH  10  15
ATOM     15  N   UNL A   1      33.727  20.625  25.570  1.00  0.00    -0.355 N 
ATOM     16  H   UNL A   1      33.308  20.599  26.461  1.00  0.00     0.167 HD
BRANCH  15  17
ATOM     17  C   UNL A   1      33.050  19.869  24.579  1.00  0.00     0.045 A 
ATOM     18  C   UNL A   1      32.548  20.531  23.431  1.00  0.00    -0.024 A 
ATOM     19  C   UNL A   1      32.225  19.766  22.289  1.00  0.00     0.006 A 
ATOM     20  C   UNL A   1      32.253  18.379  22.321  1.00  0.00     0.001 A 
ATOM     21  C   UNL A   1      32.825  18.478  24.677  1.00  0.00    -0.027 A 
ATOM     22  C   UNL A   1      32.491  17.741  23.527  1.00  0.00     0.005 A 
ATOM     23  C   UNL A   1      32.857  17.729  25.978  1.00  0.00     0.046 C 
BRANCH  18  24
ATOM     24  C   UNL A   1      32.291  22.023  23.309  1.00  0.00     0.034 C 
ATOM     25  C   UNL A   1      33.013  22.795  22.206  1.00  0.00     0.009 C 
ENDBRANCH  18  24
ENDBRANCH  15  17
ENDBRANCH  10  15
ENDBRANCH   8   9
ENDBRANCH   5   8
ENDBRANCH   3   4
ENDBRANCH   2   3
ENDBRANCH   1   2
BRANCH   1  26
ATOM     26  C   UNL A   1      32.713  29.354  26.883  1.00  0.00     0.002 C 
BRANCH  26  27
ATOM     27  C   UNL A   1      33.076  30.742  27.410  1.00  0.00     0.021 C 
BRANCH  27  28
ATOM     28  C   UNL A   1      34.576  30.978  27.572  1.00  0.00     0.116 C 
BRANCH  28  29
ATOM     29  N   UNL A   1      34.969  31.513  28.866  1.00  0.00    -0.352 N 
ATOM     30  C   UNL A   1      35.865  30.998  29.792  1.00  0.00     0.251 C 
ATOM     31  H   UNL A   1      34.538  32.361  29.121  1.00  0.00     0.163 HD
ATOM     32  O   UNL A   1      35.999  31.508  30.888  1.00  0.00    -0.269 OA
BRANCH  30  33
ATOM     33  C   UNL A   1      36.777  29.895  29.377  1.00  0.00     0.039 A 
ATOM     34  C   UNL A   1      37.161  28.986  30.372  1.00  0.00     0.014 A 
ATOM     35  C   UNL A   1      37.400  29.866  28.133  1.00  0.00     0.014 A 
ATOM     36  C   UNL A   1      38.311  28.218  30.199  1.00  0.00     0.010 A 
ATOM     37  C   UNL A   1      38.586  29.166  27.988  1.00  0.00     0.010 A 
ATOM     38  C   UNL A   1      39.077  28.395  29.046  1.00  0.00    -0.014 A 
BRANCH  38  39
ATOM     39  C   UNL A   1      40.464  27.951  28.942  1.00  0.00     0.031 A 
ATOM     40  C   UNL A   1      40.816  26.607  28.447  1.00  0.00     0.074 A 
ATOM     41  C   UNL A   1      41.461  28.790  29.301  1.00  0.00     0.049 A 
ATOM     42  N   UNL A   1      41.883  25.971  28.801  1.00  0.00    -0.248 NA
ATOM     43  C   UNL A   1      39.972  25.854  27.525  1.00  0.00     0.031 C 
ATOM     44  C   UNL A   1      42.896  28.610  29.096  1.00  0.00     0.029 A 
ATOM     45  N   UNL A   1      41.369  29.873  30.171  1.00  0.00    -0.354 N 
ATOM     46  C   UNL A   1      42.007  24.877  27.984  1.00  0.00     0.074 A 
ATOM     47  C   UNL A   1      40.765  24.814  27.244  1.00  0.00     0.031 C 
ATOM     48  C   UNL A   1      43.555  29.341  30.007  1.00  0.00     0.029 A 
ATOM     49  C   UNL A   1      42.571  29.920  30.903  1.00  0.00     0.049 A 
ATOM     50  H   UNL A   1      40.607  30.489  30.259  1.00  0.00     0.167 HD
ATOM     51  C   UNL A   1      43.186  24.198  27.924  1.00  0.00     0.034 A 
ATOM     52  C   UNL A   1      42.557  29.817  32.264  1.00  0.00     0.034 A 
ATOM     53  C   UNL A   1      44.204  24.757  28.806  1.00  0.00     0.049 A 
ATOM     54  C   UNL A   1      43.295  28.601  32.797  1.00  0.00     0.074 A 
ATOM     55  C   UNL A   1      45.291  25.596  28.625  1.00  0.00     0.029 A 
ATOM     56  N   UNL A   1      44.021  24.659  30.171  1.00  0.00    -0.354 N 
ATOM     57  N   UNL A   1      43.887  27.709  32.049  1.00  0.00    -0.248 NA
ATOM     58  C   UNL A   1      43.339  28.244  34.216  1.00  0.00     0.031 C 
ATOM     59  C   UNL A   1      45.733  26.029  29.910  1.00  0.00     0.029 A 
ATOM     60  C   UNL A   1      44.927  25.435  30.865  1.00  0.00     0.049 A 
ATOM     61  H   UNL A   1      43.328  24.105  30.598  1.00  0.00     0.167 HD
ATOM     62  C   UNL A   1      44.288  26.655  32.828  1.00  0.00     0.074 A 
ATOM     63  C   UNL A   1      43.941  27.043  34.182  1.00  0.00     0.031 C 
ATOM     64  C   UNL A   1      44.820  25.510  32.312  1.00  0.00     0.034 A 
BRANCH  51  65
ATOM     65  C   UNL A   1      43.478  23.157  26.881  1.00  0.00     0.023 A 
ATOM     66  C   UNL A   1      42.926  21.868  27.014  1.00  0.00     0.031 A 
ATOM     67  C   UNL A   1      44.289  23.369  25.751  1.00  0.00     0.131 A 
ATOM     68  C   UNL A   1      43.253  20.840  26.116  1.00  0.00     0.055 A 
ATOM     69  C   UNL A   1      44.662  22.330  24.887  1.00  0.00     0.041 A 
ATOM     70  F   UNL A   1      44.726  24.595  25.426  1.00  0.00    -0.206 F 
ATOM     71  C   UNL A   1      44.152  21.053  25.074  1.00  0.00     0.022 A 
BRANCH  68  72
ATOM     72  S   UNL A   1      42.475  19.215  26.325  1.00  0.00     0.124 S 
ATOM     73  O   UNL A   1      42.079  19.238  27.729  1.00  0.00    -0.237 OA
ATOM     74  O   UNL A   1      41.393  19.265  25.348  1.00  0.00    -0.237 OA
ATOM     75  O   UNL A   1      43.554  18.281  26.005  1.00  0.00    -0.744 OA
ENDBRANCH  68  72
ENDBRANCH  51  65
BRANCH  52  76
ATOM     76  C   UNL A   1      41.342  30.447  32.868  1.00  0.00     0.023 A 
ATOM     77  C   UNL A   1      41.311  31.860  32.922  1.00  0.00     0.031 A 
ATOM     78  C   UNL A   1      40.127  29.762  33.003  1.00  0.00     0.131 A 
ATOM     79  C   UNL A   1      40.087  32.543  32.914  1.00  0.00     0.055 A 
ATOM     80  C   UNL A   1      38.912  30.451  33.093  1.00  0.00     0.041 A 
ATOM     81  F   UNL A   1      40.078  28.424  32.923  1.00  0.00    -0.206 F 
ATOM     82  C   UNL A   1      38.882  31.844  32.997  1.00  0.00     0.022 A 
BRANCH  79  83
ATOM     83  S   UNL A   1      40.075  34.313  32.487  1.00  0.00     0.124 S 
ATOM     84  O   UNL A   1      41.053  34.373  31.407  1.00  0.00    -0.237 OA
ATOM     85  O   UNL A   1      38.684  34.548  32.101  1.00  0.00    -0.237 OA
ATOM     86  O   UNL A   1      40.467  34.970  33.732  1.00  0.00    -0.744 OA
ENDBRANCH  79  83
ENDBRANCH  52  76
BRANCH  64  87
ATOM     87  C   UNL A   1      45.255  24.351  33.165  1.00  0.00     0.023 A 
ATOM     88  C   UNL A   1      46.508  24.335  33.797  1.00  0.00     0.031 A 
ATOM     89  C   UNL A   1      44.463  23.190  33.301  1.00  0.00     0.131 A 
ATOM     90  C   UNL A   1      46.906  23.226  34.563  1.00  0.00     0.055 A 
ATOM     91  C   UNL A   1      44.898  22.057  33.991  1.00  0.00     0.041 A 
ATOM     92  F   UNL A   1      43.216  23.127  32.806  1.00  0.00    -0.206 F 
ATOM     93  C   UNL A   1      46.125  22.073  34.637  1.00  0.00     0.022 A 
BRANCH  90  94
ATOM     94  S   UNL A   1      48.430  23.346  35.535  1.00  0.00     0.124 S 
ATOM     95  O   UNL A   1      49.087  22.073  35.260  1.00  0.00    -0.237 OA
ATOM     96  O   UNL A   1      49.061  24.527  34.949  1.00  0.00    -0.237 OA
ATOM     97  O   UNL A   1      47.953  23.517  36.905  1.00  0.00    -0.744 OA
ENDBRANCH  90  94
ENDBRANCH  64  87
ENDBRANCH  38  39
ENDBRANCH  30  33
ENDBRANCH  28  29
ENDBRANCH  27  28
ENDBRANCH  26  27
ENDBRANCH   1  26
TORSDOF 20
ENDMDL
MODEL 3
REMARK VINA RESULT:     -12.0      2.239      3.155
REMARK SMILES CCc1cccc(C)c1Nc1ccccc1CC(=O)NCCCCCCNC(=O)c1ccc(-c2c3nc(c(-c4cc(S(=O)(=O)[O-])ccc4F)c4ccc([nH]4)c(-c4cc(S(=O)(=O)[O-])ccc4F)c4nc(c(-c5cc(S(=O)(=O)[O-])ccc5F)c5ccc2[nH]5)C=C4)C=C3)cc1
REMARK SMILES IDX 23 1 22 2 21 3 20 4 18 5 19 6 17 8 16 9 11 10 12 11 13 12
REMARK SMILES IDX 15 13 14 14 10 15 9 17 3 18 4 19 5 20 7 21 6 22 8 23 2 24
REMARK SMILES IDX 1 25 24 26 25 27 26 28 27 29 28 30 29 32 30 33 31 34 92 35
REMARK SMILES IDX 32 36 91 37 33 38 34 39 35 40 85 41 36 42 90 43 84 44 86 45
REMARK SMILES IDX 37 46 89 47 83 48 82 49 38 51 70 52 50 53 69 54 51 55 54 56
REMARK SMILES IDX 68 57 87 58 52 59 53 60 67 62 88 63 55 64 39 65 40 66 48 67
REMARK SMILES IDX 41 68 47 69 49 70 46 71 42 72 43 73 44 74 45 75 71 76 72 77
REMARK SMILES IDX 80 78 73 79 79 80 81 81 78 82 74 83 75 84 76 85 77 86 56 87
REMARK SMILES IDX 57 88 65 89 58 90 64 91 66 92 63 93 59 94 60 95 61 96 62 97
REMARK H PARENT 20 7 10 16 27 31 86 50 54 61
REMARK Flexibility Score: inf
ROOT
ATOM      1  C   UNL A   1      33.961  28.252  26.814  1.00  0.00     0.002 C 
ENDROOT
BRANCH   1   2
ATOM      2  C   UNL A   1      33.701  27.763  25.383  1.00  0.00     0.021 C 
BRANCH   2   3
ATOM      3  C   UNL A   1      33.841  26.256  25.164  1.00  0.00     0.116 C 
BRANCH   3   4
ATOM      4  N   UNL A   1      32.667  25.489  25.538  1.00  0.00    -0.356 N 
ATOM      5  C   UNL A   1      32.522  24.430  26.382  1.00  0.00     0.224 C 
ATOM      6  O   UNL A   1      31.382  24.151  26.772  1.00  0.00    -0.275 OA
ATOM      7  H   UNL A   1      31.832  25.785  25.108  1.00  0.00     0.163 HD
BRANCH   5   8
ATOM      8  C   UNL A   1      33.719  23.704  26.958  1.00  0.00     0.137 C 
BRANCH   8   9
ATOM      9  C   UNL A   1      34.785  23.243  25.986  1.00  0.00    -0.015 A 
ATOM     10  C   UNL A   1      34.672  22.075  25.201  1.00  0.00     0.042 A 
ATOM     11  C   UNL A   1      35.753  21.691  24.389  1.00  0.00     0.026 A 
ATOM     12  C   UNL A   1      36.914  22.461  24.317  1.00  0.00     0.002 A 
ATOM     13  C   UNL A   1      35.978  23.994  25.917  1.00  0.00     0.006 A 
ATOM     14  C   UNL A   1      37.026  23.613  25.082  1.00  0.00     0.000 A 
BRANCH  10  15
ATOM     15  N   UNL A   1      33.563  21.209  25.264  1.00  0.00    -0.355 N 
ATOM     16  H   UNL A   1      33.194  21.083  26.169  1.00  0.00     0.167 HD
BRANCH  15  17
ATOM     17  C   UNL A   1      32.887  20.487  24.248  1.00  0.00     0.045 A 
ATOM     18  C   UNL A   1      32.310  21.199  23.166  1.00  0.00    -0.024 A 
ATOM     19  C   UNL A   1      31.982  20.498  21.986  1.00  0.00     0.006 A 
ATOM     20  C   UNL A   1      32.079  19.115  21.920  1.00  0.00     0.001 A 
ATOM     21  C   UNL A   1      32.734  19.083  24.257  1.00  0.00    -0.027 A 
ATOM     22  C   UNL A   1      32.393  18.409  23.070  1.00  0.00     0.005 A 
ATOM     23  C   UNL A   1      32.852  18.251  25.501  1.00  0.00     0.046 C 
BRANCH  18  24
ATOM     24  C   UNL A   1      31.977  22.681  23.157  1.00  0.00     0.034 C 
ATOM     25  C   UNL A   1      32.928  23.633  22.435  1.00  0.00     0.009 C 
ENDBRANCH  18  24
ENDBRANCH  15  17
ENDBRANCH  10  15
ENDBRANCH   8   9
ENDBRANCH   5   8
ENDBRANCH   3   4
ENDBRANCH   2   3
ENDBRANCH   1   2
BRANCH   1  26
ATOM     26  C   UNL A   1      32.813  28.999  27.505  1.00  0.00     0.002 C 
BRANCH  26  27
ATOM     27  C   UNL A   1      32.744  30.505  27.253  1.00  0.00     0.021 C 
BRANCH  27  28
ATOM     28  C   UNL A   1      34.107  31.184  27.134  1.00  0.00     0.116 C 
BRANCH  28  29
ATOM     29  N   UNL A   1      34.560  31.850  28.345  1.00  0.00    -0.352 N 
ATOM     30  C   UNL A   1      35.467  31.413  29.299  1.00  0.00     0.251 C 
ATOM     31  H   UNL A   1      34.167  32.738  28.511  1.00  0.00     0.163 HD
ATOM     32  O   UNL A   1      35.654  32.041  30.323  1.00  0.00    -0.269 OA
BRANCH  30  33
ATOM     33  C   UNL A   1      36.326  30.235  28.990  1.00  0.00     0.039 A 
ATOM     34  C   UNL A   1      36.779  29.481  30.081  1.00  0.00     0.014 A 
ATOM     35  C   UNL A   1      36.844  29.998  27.721  1.00  0.00     0.014 A 
ATOM     36  C   UNL A   1      37.900  28.665  29.940  1.00  0.00     0.010 A 
ATOM     37  C   UNL A   1      38.005  29.253  27.593  1.00  0.00     0.010 A 
ATOM     38  C   UNL A   1      38.570  28.642  28.716  1.00  0.00    -0.014 A 
BRANCH  38  39
ATOM     39  C   UNL A   1      39.938  28.151  28.573  1.00  0.00     0.031 A 
ATOM     40  C   UNL A   1      40.236  26.717  28.397  1.00  0.00     0.074 A 
ATOM     41  C   UNL A   1      40.967  29.028  28.594  1.00  0.00     0.049 A 
ATOM     42  N   UNL A   1      41.338  26.164  28.778  1.00  0.00    -0.248 NA
ATOM     43  C   UNL A   1      39.295  25.779  27.796  1.00  0.00     0.031 C 
ATOM     44  C   UNL A   1      42.369  28.765  28.282  1.00  0.00     0.029 A 
ATOM     45  N   UNL A   1      40.972  30.296  29.167  1.00  0.00    -0.354 N 
ATOM     46  C   UNL A   1      41.372  24.896  28.256  1.00  0.00     0.074 A 
ATOM     47  C   UNL A   1      40.054  24.681  27.700  1.00  0.00     0.031 C 
ATOM     48  C   UNL A   1      43.126  29.684  28.898  1.00  0.00     0.029 A 
ATOM     49  C   UNL A   1      42.250  30.495  29.723  1.00  0.00     0.049 A 
ATOM     50  H   UNL A   1      40.222  30.934  29.180  1.00  0.00     0.167 HD
ATOM     51  C   UNL A   1      42.539  24.194  28.237  1.00  0.00     0.034 A 
ATOM     52  C   UNL A   1      42.393  30.739  31.059  1.00  0.00     0.034 A 
ATOM     53  C   UNL A   1      43.650  24.931  28.830  1.00  0.00     0.049 A 
ATOM     54  C   UNL A   1      43.191  29.677  31.795  1.00  0.00     0.074 A 
ATOM     55  C   UNL A   1      44.706  25.670  28.322  1.00  0.00     0.029 A 
ATOM     56  N   UNL A   1      43.625  25.184  30.187  1.00  0.00    -0.354 N 
ATOM     57  N   UNL A   1      43.697  28.611  31.236  1.00  0.00    -0.248 NA
ATOM     58  C   UNL A   1      43.400  29.687  33.245  1.00  0.00     0.031 C 
ATOM     59  C   UNL A   1      45.290  26.400  29.398  1.00  0.00     0.029 A 
ATOM     60  C   UNL A   1      44.602  26.086  30.556  1.00  0.00     0.049 A 
ATOM     61  H   UNL A   1      42.988  24.773  30.814  1.00  0.00     0.167 HD
ATOM     62  C   UNL A   1      44.188  27.777  32.206  1.00  0.00     0.074 A 
ATOM     63  C   UNL A   1      43.998  28.501  33.448  1.00  0.00     0.031 C 
ATOM     64  C   UNL A   1      44.661  26.525  31.940  1.00  0.00     0.034 A 
BRANCH  51  65
ATOM     65  C   UNL A   1      42.713  22.917  27.466  1.00  0.00     0.023 A 
ATOM     66  C   UNL A   1      43.750  22.814  26.519  1.00  0.00     0.031 A 
ATOM     67  C   UNL A   1      41.892  21.783  27.611  1.00  0.00     0.131 A 
ATOM     68  C   UNL A   1      43.885  21.675  25.709  1.00  0.00     0.055 A 
ATOM     69  C   UNL A   1      41.990  20.671  26.764  1.00  0.00     0.041 A 
ATOM     70  F   UNL A   1      40.986  21.700  28.596  1.00  0.00    -0.206 F 
ATOM     71  C   UNL A   1      42.984  20.617  25.797  1.00  0.00     0.022 A 
BRANCH  68  72
ATOM     72  S   UNL A   1      45.268  21.594  24.538  1.00  0.00     0.124 S 
ATOM     73  O   UNL A   1      44.905  22.611  23.557  1.00  0.00    -0.237 OA
ATOM     74  O   UNL A   1      46.411  21.898  25.391  1.00  0.00    -0.237 OA
ATOM     75  O   UNL A   1      45.213  20.217  24.046  1.00  0.00    -0.744 OA
ENDBRANCH  68  72
ENDBRANCH  51  65
BRANCH  52  76
ATOM     76  C   UNL A   1      41.252  31.530  31.616  1.00  0.00     0.023 A 
ATOM     77  C   UNL A   1      40.248  30.810  32.305  1.00  0.00     0.031 A 
ATOM     78  C   UNL A   1      41.328  32.912  31.832  1.00  0.00     0.131 A 
ATOM     79  C   UNL A   1      39.493  31.432  33.308  1.00  0.00     0.055 A 
ATOM     80  C   UNL A   1      40.504  33.547  32.768  1.00  0.00     0.041 A 
ATOM     81  F   UNL A   1      42.280  33.650  31.242  1.00  0.00    -0.206 F 
ATOM     82  C   UNL A   1      39.617  32.801  33.547  1.00  0.00     0.022 A 
BRANCH  79  83
ATOM     83  S   UNL A   1      38.584  30.389  34.493  1.00  0.00     0.124 S 
ATOM     84  O   UNL A   1      39.653  29.912  35.362  1.00  0.00    -0.237 OA
ATOM     85  O   UNL A   1      37.639  31.327  35.098  1.00  0.00    -0.237 OA
ATOM     86  O   UNL A   1      37.957  29.375  33.647  1.00  0.00    -0.744 OA
ENDBRANCH  79  83
ENDBRANCH  52  76
BRANCH  64  87
ATOM     87  C   UNL A   1      45.196  25.607  33.004  1.00  0.00     0.023 A 
ATOM     88  C   UNL A   1      46.565  25.317  33.102  1.00  0.00     0.031 A 
ATOM     89  C   UNL A   1      44.340  24.928  33.897  1.00  0.00     0.131 A 
ATOM     90  C   UNL A   1      47.038  24.430  34.085  1.00  0.00     0.055 A 
ATOM     91  C   UNL A   1      44.804  23.983  34.815  1.00  0.00     0.041 A 
ATOM     92  F   UNL A   1      43.023  25.188  33.945  1.00  0.00    -0.206 F 
ATOM     93  C   UNL A   1      46.164  23.736  34.919  1.00  0.00     0.022 A 
BRANCH  90  94
ATOM     94  S   UNL A   1      48.828  24.262  34.312  1.00  0.00     0.124 S 
ATOM     95  O   UNL A   1      48.977  22.849  34.642  1.00  0.00    -0.237 OA
ATOM     96  O   UNL A   1      49.330  24.665  33.000  1.00  0.00    -0.237 OA
ATOM     97  O   UNL A   1      49.126  25.191  35.400  1.00  0.00    -0.744 OA
ENDBRANCH  90  94
ENDBRANCH  64  87
ENDBRANCH  38  39
ENDBRANCH  30  33
ENDBRANCH  28  29
ENDBRANCH  27  28
ENDBRANCH  26  27
ENDBRANCH   1  26
TORSDOF 20
ENDMDL
