MODEL 1
REMARK VINA RESULT:      -9.0      0.000      0.000
REMARK SMILES CC(=O)N[C@H](CC(=O)NCC(=O)NCCCCCCNC(=O)c1ccc(-c2c3nc(c(-c4cc(S(=O)(=O)[O-])ccc4F)c4ccc([nH]4)c(-c4cc(S(=O)(=O)[O-])ccc4F)c4nc(c(-c5cc(S(=O)(=O)[O-])ccc5F)c5ccc2[nH]5)C=C4)C=C3)cc1)c1cccs1
REMARK SMILES IDX 16 1 15 2 14 3 13 4 11 5 12 6 10 8 9 9 7 10 8 11 6 13 5 14
REMARK SMILES IDX 4 15 1 16 2 17 3 18 86 20 87 21 90 22 88 23 89 24 17 25
REMARK SMILES IDX 18 26 19 27 20 28 21 29 22 31 23 32 24 33 85 34 25 35 84 36
REMARK SMILES IDX 26 37 27 38 28 39 78 40 29 41 83 42 77 43 79 44 30 45 82 46
REMARK SMILES IDX 76 47 75 48 31 50 63 51 43 52 62 53 44 54 47 55 61 56 80 57
REMARK SMILES IDX 45 58 46 59 60 61 81 62 48 63 32 64 33 65 41 66 34 67 40 68
REMARK SMILES IDX 42 69 39 70 35 71 36 72 37 73 38 74 64 75 65 76 73 77 66 78
REMARK SMILES IDX 72 79 74 80 71 81 67 82 68 83 69 84 70 85 49 86 50 87 58 88
REMARK SMILES IDX 51 89 57 90 59 91 56 92 52 93 53 94 54 95 55 96
REMARK H PARENT 13 7 9 12 4 19 20 30 79 49 47 60
REMARK Flexibility Score: inf
ROOT
ATOM      1  C   UNL A   1      38.680  28.278  29.152  1.00  0.00     0.002 C 
ENDROOT
BRANCH   1   2
ATOM      2  C   UNL A   1      39.385  27.325  28.191  1.00  0.00     0.021 C 
BRANCH   2   3
ATOM      3  C   UNL A   1      39.793  25.992  28.798  1.00  0.00     0.116 C 
BRANCH   3   4
ATOM      4  N   UNL A   1      40.515  25.125  27.891  1.00  0.00    -0.355 N 
ATOM      5  C   UNL A   1      40.060  24.287  26.913  1.00  0.00     0.239 C 
ATOM      6  O   UNL A   1      40.898  23.861  26.110  1.00  0.00    -0.273 OA
ATOM      7  H   UNL A   1      41.494  25.143  27.995  1.00  0.00     0.163 HD
BRANCH   5   8
ATOM      8  C   UNL A   1      38.561  24.003  26.682  1.00  0.00     0.216 C 
BRANCH   8   9
ATOM      9  N   UNL A   1      38.173  23.680  25.317  1.00  0.00    -0.347 N 
ATOM     10  C   UNL A   1      36.968  23.291  24.806  1.00  0.00     0.222 C 
ATOM     11  O   UNL A   1      36.936  22.901  23.639  1.00  0.00    -0.275 OA
ATOM     12  H   UNL A   1      38.897  23.753  24.654  1.00  0.00     0.164 HD
BRANCH  10  13
ATOM     13  C   UNL A   1      35.711  23.356  25.652  1.00  0.00     0.130 C 
BRANCH  13  14
ATOM     14  C   UNL A   1      34.425  23.153  24.847  1.00  0.00     0.131 C 
BRANCH  14  15
ATOM     15  N   UNL A   1      34.399  23.850  23.563  1.00  0.00    -0.348 N 
ATOM     16  C   UNL A   1      33.584  26.086  24.270  1.00  0.00     0.114 C 
ATOM     17  C   UNL A   1      34.022  25.108  23.217  1.00  0.00     0.217 C 
ATOM     18  O   UNL A   1      34.010  25.403  22.022  1.00  0.00    -0.275 OA
ATOM     19  H   UNL A   1      34.714  23.305  22.807  1.00  0.00     0.164 HD
ENDBRANCH  14  15
BRANCH  14  20
ATOM     20  C   UNL A   1      33.900  21.732  24.769  1.00  0.00     0.027 A 
ATOM     21  C   UNL A   1      34.656  20.576  24.626  1.00  0.00     0.017 A 
ATOM     22  S   UNL A   1      32.239  21.334  24.973  1.00  0.00    -0.147 S 
ATOM     23  C   UNL A   1      33.876  19.385  24.726  1.00  0.00     0.012 A 
ATOM     24  C   UNL A   1      32.542  19.658  24.909  1.00  0.00     0.065 A 
ENDBRANCH  14  20
ENDBRANCH  13  14
ENDBRANCH  10  13
ENDBRANCH   8   9
ENDBRANCH   5   8
ENDBRANCH   3   4
ENDBRANCH   2   3
ENDBRANCH   1   2
BRANCH   1  25
ATOM     25  C   UNL A   1      38.512  29.721  28.660  1.00  0.00     0.002 C 
BRANCH  25  26
ATOM     26  C   UNL A   1      37.156  30.377  28.936  1.00  0.00     0.021 C 
BRANCH  26  27
ATOM     27  C   UNL A   1      36.313  29.723  30.027  1.00  0.00     0.116 C 
BRANCH  27  28
ATOM     28  N   UNL A   1      36.154  30.576  31.190  1.00  0.00    -0.352 N 
ATOM     29  C   UNL A   1      36.962  30.723  32.291  1.00  0.00     0.251 C 
ATOM     30  H   UNL A   1      35.344  31.136  31.190  1.00  0.00     0.163 HD
ATOM     31  O   UNL A   1      36.556  31.370  33.251  1.00  0.00    -0.269 OA
BRANCH  29  32
ATOM     32  C   UNL A   1      38.296  30.083  32.332  1.00  0.00     0.039 A 
ATOM     33  C   UNL A   1      39.426  30.879  32.128  1.00  0.00     0.014 A 
ATOM     34  C   UNL A   1      38.440  28.709  32.545  1.00  0.00     0.014 A 
ATOM     35  C   UNL A   1      40.700  30.307  32.192  1.00  0.00     0.010 A 
ATOM     36  C   UNL A   1      39.711  28.155  32.681  1.00  0.00     0.010 A 
ATOM     37  C   UNL A   1      40.856  28.947  32.500  1.00  0.00    -0.014 A 
BRANCH  37  38
ATOM     38  C   UNL A   1      42.208  28.340  32.631  1.00  0.00     0.031 A 
ATOM     39  C   UNL A   1      42.985  27.946  31.404  1.00  0.00     0.074 A 
ATOM     40  C   UNL A   1      42.714  28.100  33.856  1.00  0.00     0.049 A 
ATOM     41  N   UNL A   1      44.154  27.365  31.314  1.00  0.00    -0.248 NA
ATOM     42  C   UNL A   1      42.347  28.216  30.108  1.00  0.00     0.031 C 
ATOM     43  C   UNL A   1      42.046  28.412  35.123  1.00  0.00     0.029 A 
ATOM     44  N   UNL A   1      43.906  27.540  34.243  1.00  0.00    -0.354 N 
ATOM     45  C   UNL A   1      44.388  27.188  29.954  1.00  0.00     0.074 A 
ATOM     46  C   UNL A   1      43.206  27.664  29.266  1.00  0.00     0.031 C 
ATOM     47  C   UNL A   1      42.853  28.076  36.141  1.00  0.00     0.029 A 
ATOM     48  C   UNL A   1      44.072  27.477  35.607  1.00  0.00     0.049 A 
ATOM     49  H   UNL A   1      44.580  27.215  33.603  1.00  0.00     0.167 HD
ATOM     50  C   UNL A   1      45.493  26.697  29.337  1.00  0.00     0.034 A 
ATOM     51  C   UNL A   1      45.089  26.987  36.345  1.00  0.00     0.034 A 
ATOM     52  C   UNL A   1      46.663  26.231  30.042  1.00  0.00     0.049 A 
ATOM     53  C   UNL A   1      46.284  26.399  35.639  1.00  0.00     0.074 A 
ATOM     54  C   UNL A   1      47.859  25.770  29.519  1.00  0.00     0.029 A 
ATOM     55  N   UNL A   1      46.783  26.152  31.425  1.00  0.00    -0.354 N 
ATOM     56  N   UNL A   1      46.514  26.292  34.350  1.00  0.00    -0.248 NA
ATOM     57  C   UNL A   1      47.360  25.874  36.489  1.00  0.00     0.031 C 
ATOM     58  C   UNL A   1      48.665  25.336  30.578  1.00  0.00     0.029 A 
ATOM     59  C   UNL A   1      48.012  25.609  31.770  1.00  0.00     0.049 A 
ATOM     60  H   UNL A   1      46.095  26.440  32.068  1.00  0.00     0.167 HD
ATOM     61  C   UNL A   1      47.780  25.720  34.238  1.00  0.00     0.074 A 
ATOM     62  C   UNL A   1      48.264  25.519  35.588  1.00  0.00     0.031 C 
ATOM     63  C   UNL A   1      48.481  25.398  33.121  1.00  0.00     0.034 A 
BRANCH  50  64
ATOM     64  C   UNL A   1      45.462  26.607  27.827  1.00  0.00     0.023 A 
ATOM     65  C   UNL A   1      45.151  25.408  27.162  1.00  0.00     0.031 A 
ATOM     66  C   UNL A   1      45.791  27.726  27.041  1.00  0.00     0.131 A 
ATOM     67  C   UNL A   1      45.270  25.328  25.766  1.00  0.00     0.055 A 
ATOM     68  C   UNL A   1      45.813  27.665  25.645  1.00  0.00     0.041 A 
ATOM     69  F   UNL A   1      46.117  28.895  27.613  1.00  0.00    -0.206 F 
ATOM     70  C   UNL A   1      45.571  26.456  25.000  1.00  0.00     0.022 A 
BRANCH  67  71
ATOM     71  S   UNL A   1      45.201  23.692  24.985  1.00  0.00     0.124 S 
ATOM     72  O   UNL A   1      45.489  22.814  26.117  1.00  0.00    -0.237 OA
ATOM     73  O   UNL A   1      43.837  23.645  24.470  1.00  0.00    -0.237 OA
ATOM     74  O   UNL A   1      46.251  23.752  23.971  1.00  0.00    -0.744 OA
ENDBRANCH  67  71
ENDBRANCH  50  64
BRANCH  51  75
ATOM     75  C   UNL A   1      45.031  27.031  37.834  1.00  0.00     0.023 A 
ATOM     76  C   UNL A   1      45.505  28.150  38.538  1.00  0.00     0.031 A 
ATOM     77  C   UNL A   1      44.546  25.941  38.579  1.00  0.00     0.131 A 
ATOM     78  C   UNL A   1      45.527  28.137  39.942  1.00  0.00     0.055 A 
ATOM     79  C   UNL A   1      44.517  25.956  39.974  1.00  0.00     0.041 A 
ATOM     80  F   UNL A   1      44.077  24.847  37.957  1.00  0.00    -0.206 F 
ATOM     81  C   UNL A   1      45.023  27.053  40.664  1.00  0.00     0.022 A 
BRANCH  78  82
ATOM     82  S   UNL A   1      46.307  29.525  40.808  1.00  0.00     0.124 S 
ATOM     83  O   UNL A   1      45.169  30.407  41.040  1.00  0.00    -0.237 OA
ATOM     84  O   UNL A   1      46.863  28.871  41.988  1.00  0.00    -0.237 OA
ATOM     85  O   UNL A   1      47.293  30.014  39.847  1.00  0.00    -0.744 OA
ENDBRANCH  78  82
ENDBRANCH  51  75
BRANCH  63  86
ATOM     86  C   UNL A   1      49.871  24.839  33.319  1.00  0.00     0.023 A 
ATOM     87  C   UNL A   1      50.130  23.458  33.273  1.00  0.00     0.031 A 
ATOM     88  C   UNL A   1      50.951  25.704  33.576  1.00  0.00     0.131 A 
ATOM     89  C   UNL A   1      51.422  22.979  33.542  1.00  0.00     0.055 A 
ATOM     90  C   UNL A   1      52.246  25.227  33.774  1.00  0.00     0.041 A 
ATOM     91  F   UNL A   1      50.762  27.032  33.636  1.00  0.00    -0.206 F 
ATOM     92  C   UNL A   1      52.485  23.856  33.773  1.00  0.00     0.022 A 
BRANCH  89  93
ATOM     93  S   UNL A   1      51.675  21.189  33.691  1.00  0.00     0.124 S 
ATOM     94  O   UNL A   1      50.392  20.663  33.233  1.00  0.00    -0.237 OA
ATOM     95  O   UNL A   1      52.811  20.959  32.804  1.00  0.00    -0.237 OA
ATOM     96  O   UNL A   1      51.951  20.998  35.112  1.00  0.00    -0.744 OA
ENDBRANCH  89  93
ENDBRANCH  63  86
ENDBRANCH  37  38
ENDBRANCH  29  32
ENDBRANCH  27  28
ENDBRANCH  26  27
ENDBRANCH  25  26
ENDBRANCH   1  25
TORSDOF 21
ENDMDL
MODEL 2
REMARK VINA RESULT:      -8.8      6.059     10.405
REMARK SMILES CC(=O)N[C@H](CC(=O)NCC(=O)NCCCCCCNC(=O)c1ccc(-c2c3nc(c(-c4cc(S(=O)(=O)[O-])ccc4F)c4ccc([nH]4)c(-c4cc(S(=O)(=O)[O-])ccc4F)c4nc(c(-c5cc(S(=O)(=O)[O-])ccc5F)c5ccc2[nH]5)C=C4)C=C3)cc1)c1cccs1
REMARK SMILES IDX 16 1 15 2 14 3 13 4 11 5 12 6 10 8 9 9 7 10 8 11 6 13 5 14
REMARK SMILES IDX 4 15 1 16 2 17 3 18 86 20 87 21 90 22 88 23 89 24 17 25
REMARK SMILES IDX 18 26 19 27 20 28 21 29 22 31 23 32 24 33 85 34 25 35 84 36
REMARK SMILES IDX 26 37 27 38 28 39 78 40 29 41 83 42 77 43 79 44 30 45 82 46
REMARK SMILES IDX 76 47 75 48 31 50 63 51 43 52 62 53 44 54 47 55 61 56 80 57
REMARK SMILES IDX 45 58 46 59 60 61 81 62 48 63 32 64 33 65 41 66 34 67 40 68
REMARK SMILES IDX 42 69 39 70 35 71 36 72 37 73 38 74 64 75 65 76 73 77 66 78
REMARK SMILES IDX 72 79 74 80 71 81 67 82 68 83 69 84 70 85 49 86 50 87 58 88
REMARK SMILES IDX 51 89 57 90 59 91 56 92 52 93 53 94 54 95 55 96
REMARK H PARENT 13 7 9 12 4 19 20 30 79 49 47 60
REMARK Flexibility Score: inf
ROOT
ATOM      1  C   UNL A   1      36.931  22.510  24.692  1.00  0.00     0.002 C 
ENDROOT
BRANCH   1   2
ATOM      2  C   UNL A   1      35.625  22.084  25.357  1.00  0.00     0.021 C 
BRANCH   2   3
ATOM      3  C   UNL A   1      34.703  23.228  25.745  1.00  0.00     0.116 C 
BRANCH   3   4
ATOM      4  N   UNL A   1      33.343  23.079  25.270  1.00  0.00    -0.355 N 
ATOM      5  C   UNL A   1      32.820  23.225  24.018  1.00  0.00     0.239 C 
ATOM      6  O   UNL A   1      31.679  22.785  23.834  1.00  0.00    -0.273 OA
ATOM      7  H   UNL A   1      32.690  22.830  25.963  1.00  0.00     0.163 HD
BRANCH   5   8
ATOM      8  C   UNL A   1      33.641  23.749  22.820  1.00  0.00     0.216 C 
BRANCH   8   9
ATOM      9  N   UNL A   1      33.876  25.184  22.783  1.00  0.00    -0.347 N 
ATOM     10  C   UNL A   1      33.036  26.212  22.464  1.00  0.00     0.222 C 
ATOM     11  O   UNL A   1      33.522  27.335  22.332  1.00  0.00    -0.275 OA
ATOM     12  H   UNL A   1      34.789  25.459  23.026  1.00  0.00     0.164 HD
BRANCH  10  13
ATOM     13  C   UNL A   1      31.548  25.972  22.294  1.00  0.00     0.130 C 
BRANCH  13  14
ATOM     14  C   UNL A   1      30.698  26.619  23.390  1.00  0.00     0.131 C 
BRANCH  14  15
ATOM     15  N   UNL A   1      31.377  26.764  24.675  1.00  0.00    -0.348 N 
ATOM     16  C   UNL A   1      29.801  25.555  26.164  1.00  0.00     0.114 C 
ATOM     17  C   UNL A   1      31.047  26.361  25.929  1.00  0.00     0.217 C 
ATOM     18  O   UNL A   1      31.771  26.711  26.862  1.00  0.00    -0.275 OA
ATOM     19  H   UNL A   1      32.235  27.243  24.622  1.00  0.00     0.164 HD
ENDBRANCH  14  15
BRANCH  14  20
ATOM     20  C   UNL A   1      29.909  27.851  22.987  1.00  0.00     0.027 A 
ATOM     21  C   UNL A   1      28.539  28.037  23.117  1.00  0.00     0.017 A 
ATOM     22  S   UNL A   1      30.650  29.288  22.400  1.00  0.00    -0.147 S 
ATOM     23  C   UNL A   1      28.121  29.357  22.775  1.00  0.00     0.012 A 
ATOM     24  C   UNL A   1      29.173  30.138  22.362  1.00  0.00     0.065 A 
ENDBRANCH  14  20
ENDBRANCH  13  14
ENDBRANCH  10  13
ENDBRANCH   8   9
ENDBRANCH   5   8
ENDBRANCH   3   4
ENDBRANCH   2   3
ENDBRANCH   1   2
BRANCH   1  25
ATOM     25  C   UNL A   1      38.218  22.032  25.375  1.00  0.00     0.002 C 
BRANCH  25  26
ATOM     26  C   UNL A   1      38.553  20.545  25.222  1.00  0.00     0.021 C 
BRANCH  26  27
ATOM     27  C   UNL A   1      39.177  19.877  26.444  1.00  0.00     0.116 C 
BRANCH  27  28
ATOM     28  N   UNL A   1      40.405  19.175  26.124  1.00  0.00    -0.352 N 
ATOM     29  C   UNL A   1      41.683  19.658  25.977  1.00  0.00     0.251 C 
ATOM     30  H   UNL A   1      40.309  18.203  25.992  1.00  0.00     0.163 HD
ATOM     31  O   UNL A   1      42.555  18.921  25.529  1.00  0.00    -0.269 OA
BRANCH  29  32
ATOM     32  C   UNL A   1      41.998  21.060  26.329  1.00  0.00     0.039 A 
ATOM     33  C   UNL A   1      42.305  21.364  27.658  1.00  0.00     0.014 A 
ATOM     34  C   UNL A   1      41.970  22.077  25.370  1.00  0.00     0.014 A 
ATOM     35  C   UNL A   1      42.638  22.674  28.013  1.00  0.00     0.010 A 
ATOM     36  C   UNL A   1      42.372  23.367  25.711  1.00  0.00     0.010 A 
ATOM     37  C   UNL A   1      42.705  23.682  27.037  1.00  0.00    -0.014 A 
BRANCH  37  38
ATOM     38  C   UNL A   1      43.117  25.067  27.392  1.00  0.00     0.031 A 
ATOM     39  C   UNL A   1      42.130  26.014  28.018  1.00  0.00     0.074 A 
ATOM     40  C   UNL A   1      44.365  25.484  27.105  1.00  0.00     0.049 A 
ATOM     41  N   UNL A   1      42.285  27.269  28.356  1.00  0.00    -0.248 NA
ATOM     42  C   UNL A   1      40.782  25.487  28.270  1.00  0.00     0.031 C 
ATOM     43  C   UNL A   1      45.405  24.667  26.474  1.00  0.00     0.029 A 
ATOM     44  N   UNL A   1      44.976  26.697  27.306  1.00  0.00    -0.354 N 
ATOM     45  C   UNL A   1      41.052  27.686  28.849  1.00  0.00     0.074 A 
ATOM     46  C   UNL A   1      40.147  26.566  28.701  1.00  0.00     0.031 C 
ATOM     47  C   UNL A   1      46.532  25.390  26.376  1.00  0.00     0.029 A 
ATOM     48  C   UNL A   1      46.285  26.734  26.887  1.00  0.00     0.049 A 
ATOM     49  H   UNL A   1      44.518  27.468  27.713  1.00  0.00     0.167 HD
ATOM     50  C   UNL A   1      40.714  28.883  29.395  1.00  0.00     0.034 A 
ATOM     51  C   UNL A   1      47.184  27.739  26.907  1.00  0.00     0.034 A 
ATOM     52  C   UNL A   1      41.634  29.986  29.537  1.00  0.00     0.049 A 
ATOM     53  C   UNL A   1      46.771  29.075  27.471  1.00  0.00     0.074 A 
ATOM     54  C   UNL A   1      41.417  31.219  30.127  1.00  0.00     0.029 A 
ATOM     55  N   UNL A   1      42.945  29.998  29.073  1.00  0.00    -0.354 N 
ATOM     56  N   UNL A   1      45.618  29.435  27.986  1.00  0.00    -0.248 NA
ATOM     57  C   UNL A   1      47.786  30.136  27.463  1.00  0.00     0.031 C 
ATOM     58  C   UNL A   1      42.563  32.003  29.946  1.00  0.00     0.029 A 
ATOM     59  C   UNL A   1      43.531  31.230  29.322  1.00  0.00     0.049 A 
ATOM     60  H   UNL A   1      43.392  29.241  28.630  1.00  0.00     0.167 HD
ATOM     61  C   UNL A   1      45.784  30.756  28.397  1.00  0.00     0.074 A 
ATOM     62  C   UNL A   1      47.150  31.120  28.081  1.00  0.00     0.031 C 
ATOM     63  C   UNL A   1      44.890  31.589  28.989  1.00  0.00     0.034 A 
BRANCH  50  64
ATOM     64  C   UNL A   1      39.280  29.061  29.839  1.00  0.00     0.023 A 
ATOM     65  C   UNL A   1      38.333  29.727  29.039  1.00  0.00     0.031 A 
ATOM     66  C   UNL A   1      38.862  28.598  31.100  1.00  0.00     0.131 A 
ATOM     67  C   UNL A   1      37.052  29.995  29.545  1.00  0.00     0.055 A 
ATOM     68  C   UNL A   1      37.555  28.785  31.558  1.00  0.00     0.041 A 
ATOM     69  F   UNL A   1      39.721  27.974  31.920  1.00  0.00    -0.206 F 
ATOM     70  C   UNL A   1      36.647  29.505  30.788  1.00  0.00     0.022 A 
BRANCH  67  71
ATOM     71  S   UNL A   1      35.988  31.147  28.632  1.00  0.00     0.124 S 
ATOM     72  O   UNL A   1      35.146  31.679  29.700  1.00  0.00    -0.237 OA
ATOM     73  O   UNL A   1      36.952  32.076  28.054  1.00  0.00    -0.237 OA
ATOM     74  O   UNL A   1      35.295  30.287  27.674  1.00  0.00    -0.744 OA
ENDBRANCH  67  71
ENDBRANCH  50  64
BRANCH  51  75
ATOM     75  C   UNL A   1      48.565  27.528  26.383  1.00  0.00     0.023 A 
ATOM     76  C   UNL A   1      49.633  27.275  27.257  1.00  0.00     0.031 A 
ATOM     77  C   UNL A   1      48.846  27.622  25.008  1.00  0.00     0.131 A 
ATOM     78  C   UNL A   1      50.940  27.169  26.755  1.00  0.00     0.055 A 
ATOM     79  C   UNL A   1      50.139  27.460  24.507  1.00  0.00     0.041 A 
ATOM     80  F   UNL A   1      47.861  27.859  24.126  1.00  0.00    -0.206 F 
ATOM     81  C   UNL A   1      51.197  27.246  25.385  1.00  0.00     0.022 A 
BRANCH  78  82
ATOM     82  S   UNL A   1      52.311  27.017  27.932  1.00  0.00     0.124 S 
ATOM     83  O   UNL A   1      52.974  28.307  27.782  1.00  0.00    -0.237 OA
ATOM     84  O   UNL A   1      51.606  26.800  29.191  1.00  0.00    -0.237 OA
ATOM     85  O   UNL A   1      53.060  25.866  27.433  1.00  0.00    -0.744 OA
ENDBRANCH  78  82
ENDBRANCH  51  75
BRANCH  63  86
ATOM     86  C   UNL A   1      45.385  32.963  29.378  1.00  0.00     0.023 A 
ATOM     87  C   UNL A   1      45.251  34.071  28.522  1.00  0.00     0.031 A 
ATOM     88  C   UNL A   1      46.019  33.162  30.618  1.00  0.00     0.131 A 
ATOM     89  C   UNL A   1      45.797  35.311  28.892  1.00  0.00     0.055 A 
ATOM     90  C   UNL A   1      46.498  34.412  31.009  1.00  0.00     0.041 A 
ATOM     91  F   UNL A   1      46.180  32.139  31.474  1.00  0.00    -0.206 F 
ATOM     92  C   UNL A   1      46.402  35.492  30.138  1.00  0.00     0.022 A 
BRANCH  89  93
ATOM     93  S   UNL A   1      45.799  36.659  27.678  1.00  0.00     0.124 S 
ATOM     94  O   UNL A   1      45.059  37.701  28.382  1.00  0.00    -0.237 OA
ATOM     95  O   UNL A   1      47.225  36.907  27.488  1.00  0.00    -0.237 OA
ATOM     96  O   UNL A   1      45.112  36.083  26.524  1.00  0.00    -0.744 OA
ENDBRANCH  89  93
ENDBRANCH  63  86
ENDBRANCH  37  38
ENDBRANCH  29  32
ENDBRANCH  27  28
ENDBRANCH  26  27
ENDBRANCH  25  26
ENDBRANCH   1  25
TORSDOF 21
ENDMDL
MODEL 3
REMARK VINA RESULT:      -8.7      5.970     10.389
REMARK SMILES CC(=O)N[C@H](CC(=O)NCC(=O)NCCCCCCNC(=O)c1ccc(-c2c3nc(c(-c4cc(S(=O)(=O)[O-])ccc4F)c4ccc([nH]4)c(-c4cc(S(=O)(=O)[O-])ccc4F)c4nc(c(-c5cc(S(=O)(=O)[O-])ccc5F)c5ccc2[nH]5)C=C4)C=C3)cc1)c1cccs1
REMARK SMILES IDX 16 1 15 2 14 3 13 4 11 5 12 6 10 8 9 9 7 10 8 11 6 13 5 14
REMARK SMILES IDX 4 15 1 16 2 17 3 18 86 20 87 21 90 22 88 23 89 24 17 25
REMARK SMILES IDX 18 26 19 27 20 28 21 29 22 31 23 32 24 33 85 34 25 35 84 36
REMARK SMILES IDX 26 37 27 38 28 39 78 40 29 41 83 42 77 43 79 44 30 45 82 46
REMARK SMILES IDX 76 47 75 48 31 50 63 51 43 52 62 53 44 54 47 55 61 56 80 57
REMARK SMILES IDX 45 58 46 59 60 61 81 62 48 63 32 64 33 65 41 66 34 67 40 68
REMARK SMILES IDX 42 69 39 70 35 71 36 72 37 73 38 74 64 75 65 76 73 77 66 78
REMARK SMILES IDX 72 79 74 80 71 81 67 82 68 83 69 84 70 85 49 86 50 87 58 88
REMARK SMILES IDX 51 89 57 90 59 91 56 92 52 93 53 94 54 95 55 96
REMARK H PARENT 13 7 9 12 4 19 20 30 79 49 47 60
REMARK Flexibility Score: inf
ROOT
ATOM      1  C   UNL A   1      36.816  22.119  24.518  1.00  0.00     0.002 C 
ENDROOT
BRANCH   1   2
ATOM      2  C   UNL A   1      35.888  20.939  24.794  1.00  0.00     0.021 C 
BRANCH   2   3
ATOM      3  C   UNL A   1      34.978  21.110  26.000  1.00  0.00     0.116 C 
BRANCH   3   4
ATOM      4  N   UNL A   1      33.692  20.459  25.867  1.00  0.00    -0.355 N 
ATOM      5  C   UNL A   1      32.528  20.898  25.303  1.00  0.00     0.239 C 
ATOM      6  O   UNL A   1      31.657  20.048  25.087  1.00  0.00    -0.273 OA
ATOM      7  H   UNL A   1      33.650  19.550  26.243  1.00  0.00     0.163 HD
BRANCH   5   8
ATOM      8  C   UNL A   1      32.338  22.340  24.786  1.00  0.00     0.216 C 
BRANCH   8   9
ATOM      9  N   UNL A   1      31.196  23.067  25.321  1.00  0.00    -0.347 N 
ATOM     10  C   UNL A   1      31.145  24.160  26.138  1.00  0.00     0.222 C 
ATOM     11  O   UNL A   1      30.051  24.483  26.599  1.00  0.00    -0.275 OA
ATOM     12  H   UNL A   1      30.318  22.713  25.050  1.00  0.00     0.164 HD
BRANCH  10  13
ATOM     13  C   UNL A   1      32.399  24.953  26.450  1.00  0.00     0.130 C 
BRANCH  13  14
ATOM     14  C   UNL A   1      32.326  26.412  25.994  1.00  0.00     0.131 C 
BRANCH  14  15
ATOM     15  N   UNL A   1      33.318  27.289  26.608  1.00  0.00    -0.348 N 
ATOM     16  C   UNL A   1      31.929  29.290  27.088  1.00  0.00     0.114 C 
ATOM     17  C   UNL A   1      33.242  28.559  27.084  1.00  0.00     0.217 C 
ATOM     18  O   UNL A   1      34.279  29.100  27.466  1.00  0.00    -0.275 OA
ATOM     19  H   UNL A   1      34.211  26.883  26.695  1.00  0.00     0.164 HD
ENDBRANCH  14  15
BRANCH  14  20
ATOM     20  C   UNL A   1      32.165  26.640  24.502  1.00  0.00     0.027 A 
ATOM     21  C   UNL A   1      33.050  26.253  23.504  1.00  0.00     0.017 A 
ATOM     22  S   UNL A   1      30.752  27.332  23.807  1.00  0.00    -0.147 S 
ATOM     23  C   UNL A   1      32.546  26.489  22.191  1.00  0.00     0.012 A 
ATOM     24  C   UNL A   1      31.306  27.080  22.215  1.00  0.00     0.065 A 
ENDBRANCH  14  20
ENDBRANCH  13  14
ENDBRANCH  10  13
ENDBRANCH   8   9
ENDBRANCH   5   8
ENDBRANCH   3   4
ENDBRANCH   2   3
ENDBRANCH   1   2
BRANCH   1  25
ATOM     25  C   UNL A   1      38.233  22.005  25.094  1.00  0.00     0.002 C 
BRANCH  25  26
ATOM     26  C   UNL A   1      38.733  20.587  25.385  1.00  0.00     0.021 C 
BRANCH  26  27
ATOM     27  C   UNL A   1      39.784  20.467  26.485  1.00  0.00     0.116 C 
BRANCH  27  28
ATOM     28  N   UNL A   1      40.874  19.583  26.116  1.00  0.00    -0.352 N 
ATOM     29  C   UNL A   1      42.199  19.865  25.894  1.00  0.00     0.251 C 
ATOM     30  H   UNL A   1      40.625  18.636  26.009  1.00  0.00     0.163 HD
ATOM     31  O   UNL A   1      42.925  18.999  25.416  1.00  0.00    -0.269 OA
BRANCH  29  32
ATOM     32  C   UNL A   1      42.741  21.208  26.200  1.00  0.00     0.039 A 
ATOM     33  C   UNL A   1      42.984  22.090  25.144  1.00  0.00     0.014 A 
ATOM     34  C   UNL A   1      43.034  21.594  27.512  1.00  0.00     0.014 A 
ATOM     35  C   UNL A   1      43.466  23.374  25.407  1.00  0.00     0.010 A 
ATOM     36  C   UNL A   1      43.445  22.898  27.778  1.00  0.00     0.010 A 
ATOM     37  C   UNL A   1      43.671  23.802  26.729  1.00  0.00    -0.014 A 
BRANCH  37  38
ATOM     38  C   UNL A   1      44.126  25.187  27.025  1.00  0.00     0.031 A 
ATOM     39  C   UNL A   1      43.170  26.191  27.609  1.00  0.00     0.074 A 
ATOM     40  C   UNL A   1      45.387  25.552  26.724  1.00  0.00     0.049 A 
ATOM     41  N   UNL A   1      43.364  27.453  27.894  1.00  0.00    -0.248 NA
ATOM     42  C   UNL A   1      41.806  25.718  27.881  1.00  0.00     0.031 C 
ATOM     43  C   UNL A   1      46.401  24.677  26.129  1.00  0.00     0.029 A 
ATOM     44  N   UNL A   1      46.036  26.752  26.874  1.00  0.00    -0.354 N 
ATOM     45  C   UNL A   1      42.145  27.930  28.368  1.00  0.00     0.074 A 
ATOM     46  C   UNL A   1      41.205  26.833  28.265  1.00  0.00     0.031 C 
ATOM     47  C   UNL A   1      47.551  25.358  26.003  1.00  0.00     0.029 A 
ATOM     48  C   UNL A   1      47.346  26.730  26.456  1.00  0.00     0.049 A 
ATOM     49  H   UNL A   1      45.603  27.554  27.247  1.00  0.00     0.167 HD
ATOM     50  C   UNL A   1      41.845  29.158  28.861  1.00  0.00     0.034 A 
ATOM     51  C   UNL A   1      48.277  27.706  26.435  1.00  0.00     0.034 A 
ATOM     52  C   UNL A   1      42.799  30.237  28.959  1.00  0.00     0.049 A 
ATOM     53  C   UNL A   1      47.906  29.077  26.942  1.00  0.00     0.074 A 
ATOM     54  C   UNL A   1      42.621  31.500  29.496  1.00  0.00     0.029 A 
ATOM     55  N   UNL A   1      44.110  30.188  28.497  1.00  0.00    -0.354 N 
ATOM     56  N   UNL A   1      46.765  29.495  27.439  1.00  0.00    -0.248 NA
ATOM     57  C   UNL A   1      48.954  30.104  26.890  1.00  0.00     0.031 C 
ATOM     58  C   UNL A   1      43.791  32.239  29.283  1.00  0.00     0.029 A 
ATOM     59  C   UNL A   1      44.734  31.410  28.695  1.00  0.00     0.049 A 
ATOM     60  H   UNL A   1      44.533  29.399  28.086  1.00  0.00     0.167 HD
ATOM     61  C   UNL A   1      46.972  30.826  27.794  1.00  0.00     0.074 A 
ATOM     62  C   UNL A   1      48.349  31.133  27.466  1.00  0.00     0.031 C 
ATOM     63  C   UNL A   1      46.105  31.712  28.349  1.00  0.00     0.034 A 
BRANCH  50  64
ATOM     64  C   UNL A   1      40.417  29.401  29.295  1.00  0.00     0.023 A 
ATOM     65  C   UNL A   1      40.046  29.410  30.652  1.00  0.00     0.031 A 
ATOM     66  C   UNL A   1      39.403  29.582  28.338  1.00  0.00     0.131 A 
ATOM     67  C   UNL A   1      38.691  29.498  31.008  1.00  0.00     0.055 A 
ATOM     68  C   UNL A   1      38.067  29.766  28.704  1.00  0.00     0.041 A 
ATOM     69  F   UNL A   1      39.686  29.563  27.026  1.00  0.00    -0.206 F 
ATOM     70  C   UNL A   1      37.701  29.705  30.045  1.00  0.00     0.022 A 
BRANCH  67  71
ATOM     71  S   UNL A   1      38.227  29.159  32.729  1.00  0.00     0.124 S 
ATOM     72  O   UNL A   1      36.770  29.244  32.663  1.00  0.00    -0.237 OA
ATOM     73  O   UNL A   1      38.781  27.828  32.948  1.00  0.00    -0.237 OA
ATOM     74  O   UNL A   1      38.872  30.237  33.476  1.00  0.00    -0.744 OA
ENDBRANCH  67  71
ENDBRANCH  50  64
BRANCH  51  75
ATOM     75  C   UNL A   1      49.650  27.430  25.923  1.00  0.00     0.023 A 
ATOM     76  C   UNL A   1      50.726  27.267  26.809  1.00  0.00     0.031 A 
ATOM     77  C   UNL A   1      49.916  27.370  24.543  1.00  0.00     0.131 A 
ATOM     78  C   UNL A   1      52.027  27.098  26.307  1.00  0.00     0.055 A 
ATOM     79  C   UNL A   1      51.202  27.145  24.050  1.00  0.00     0.041 A 
ATOM     80  F   UNL A   1      48.923  27.514  23.651  1.00  0.00    -0.206 F 
ATOM     81  C   UNL A   1      52.269  27.022  24.934  1.00  0.00     0.022 A 
BRANCH  78  82
ATOM     82  S   UNL A   1      53.410  27.068  27.479  1.00  0.00     0.124 S 
ATOM     83  O   UNL A   1      52.853  27.793  28.614  1.00  0.00    -0.237 OA
ATOM     84  O   UNL A   1      53.615  25.637  27.668  1.00  0.00    -0.237 OA
ATOM     85  O   UNL A   1      54.479  27.759  26.759  1.00  0.00    -0.744 OA
ENDBRANCH  78  82
ENDBRANCH  51  75
BRANCH  63  86
ATOM     86  C   UNL A   1      46.643  33.084  28.680  1.00  0.00     0.023 A 
ATOM     87  C   UNL A   1      46.659  34.125  27.734  1.00  0.00     0.031 A 
ATOM     88  C   UNL A   1      47.166  33.349  29.960  1.00  0.00     0.131 A 
ATOM     89  C   UNL A   1      47.242  35.360  28.061  1.00  0.00     0.055 A 
ATOM     90  C   UNL A   1      47.681  34.600  30.301  1.00  0.00     0.041 A 
ATOM     91  F   UNL A   1      47.182  32.393  30.902  1.00  0.00    -0.206 F 
ATOM     92  C   UNL A   1      47.734  35.609  29.345  1.00  0.00     0.022 A 
BRANCH  89  93
ATOM     93  S   UNL A   1      47.442  36.602  26.755  1.00  0.00     0.124 S 
ATOM     94  O   UNL A   1      46.353  36.261  25.844  1.00  0.00    -0.237 OA
ATOM     95  O   UNL A   1      47.290  37.855  27.489  1.00  0.00    -0.237 OA
ATOM     96  O   UNL A   1      48.784  36.346  26.240  1.00  0.00    -0.744 OA
ENDBRANCH  89  93
ENDBRANCH  63  86
ENDBRANCH  37  38
ENDBRANCH  29  32
ENDBRANCH  27  28
ENDBRANCH  26  27
ENDBRANCH  25  26
ENDBRANCH   1  25
TORSDOF 21
ENDMDL
