MODEL 1
REMARK VINA RESULT:     -10.5      0.000      0.000
REMARK SMILES CCOc1ccc(-c2nnc3ccc(S[C@@H](CC)C(=O)NCCCCCCNC(=O)c4ccc(-c5c6nc(c(-c7cc(S(=O)(=O)[O-])ccc7F)c7ccc([nH]7)c(-c7cc(S(=O)(=O)[O-])ccc7F)c7nc(c(-c8cc(S(=O)(=O)[O-])ccc8F)c8ccc5[nH]8)C=C7)C=C6)cc4)nn23)cc1
REMARK SMILES IDX 23 1 22 2 21 3 19 4 20 5 16 7 15 8 14 9 8 10 9 11 95 12
REMARK SMILES IDX 10 13 11 14 94 15 12 16 13 17 7 18 4 19 5 20 97 21 6 22
REMARK SMILES IDX 96 23 3 24 2 25 1 26 17 27 18 28 24 29 25 30 26 31 27 32
REMARK SMILES IDX 28 33 29 34 30 36 31 37 32 38 93 39 33 40 92 41 34 42 35 43
REMARK SMILES IDX 36 44 86 45 37 46 91 47 85 48 87 49 38 50 90 51 84 52 83 53
REMARK SMILES IDX 39 55 71 56 51 57 70 58 52 59 55 60 69 61 88 62 53 63 54 64
REMARK SMILES IDX 68 66 89 67 56 68 40 69 41 70 49 71 42 72 48 73 50 74 47 75
REMARK SMILES IDX 43 76 44 77 45 78 46 79 72 80 73 81 81 82 74 83 80 84 82 85
REMARK SMILES IDX 79 86 75 87 76 88 77 89 78 90 57 91 58 92 66 93 59 94 65 95
REMARK SMILES IDX 67 96 64 97 60 98 61 99 62 100 63 101
REMARK H PARENT 21 6 28 35 87 54 55 65
REMARK Flexibility Score: inf
ROOT
ATOM      1  C   UNL A   1      34.658  20.570  25.569  1.00  0.00     0.021 C 
ENDROOT
BRANCH   1   2
ATOM      2  C   UNL A   1      33.202  20.144  25.371  1.00  0.00     0.116 C 
BRANCH   2   3
ATOM      3  N   UNL A   1      32.754  20.446  24.036  1.00  0.00    -0.355 N 
ATOM      4  C   UNL A   1      32.024  21.463  23.525  1.00  0.00     0.233 C 
ATOM      5  O   UNL A   1      31.787  21.371  22.310  1.00  0.00    -0.274 OA
ATOM      6  H   UNL A   1      33.034  19.783  23.365  1.00  0.00     0.163 HD
BRANCH   4   7
ATOM      7  C   UNL A   1      31.608  22.731  24.280  1.00  0.00     0.142 C 
BRANCH   7   8
ATOM      8  S   UNL A   1      31.495  24.303  23.395  1.00  0.00    -0.091 SA
BRANCH   8   9
ATOM      9  C   UNL A   1      32.231  25.634  24.232  1.00  0.00     0.118 A 
ATOM     10  C   UNL A   1      31.890  29.092  25.030  1.00  0.00     0.185 A 
ATOM     11  N   UNL A   1      32.760  29.687  25.833  1.00  0.00    -0.128 NA
ATOM     12  N   UNL A   1      32.222  27.750  24.947  1.00  0.00    -0.192 N 
ATOM     13  N   UNL A   1      33.749  28.787  26.152  1.00  0.00    -0.128 NA
ATOM     14  C   UNL A   1      33.473  27.668  25.528  1.00  0.00     0.178 A 
ATOM     15  N   UNL A   1      31.531  26.720  24.350  1.00  0.00    -0.158 NA
ATOM     16  C   UNL A   1      34.220  26.497  25.297  1.00  0.00     0.054 A 
ATOM     17  C   UNL A   1      33.659  25.499  24.601  1.00  0.00     0.041 A 
BRANCH  10  18
ATOM     18  C   UNL A   1      30.889  29.761  24.204  1.00  0.00     0.021 A 
ATOM     19  C   UNL A   1      28.870  30.864  22.608  1.00  0.00     0.119 A 
ATOM     20  C   UNL A   1      29.672  29.851  22.093  1.00  0.00     0.047 A 
ATOM     21  C   UNL A   1      29.061  31.326  23.909  1.00  0.00     0.047 A 
ATOM     22  C   UNL A   1      30.689  29.313  22.886  1.00  0.00     0.016 A 
ATOM     23  C   UNL A   1      30.075  30.783  24.704  1.00  0.00     0.016 A 
BRANCH  19  24
ATOM     24  O   UNL A   1      27.814  31.318  21.871  1.00  0.00    -0.494 OA
BRANCH  24  25
ATOM     25  C   UNL A   1      28.143  32.500  21.131  1.00  0.00     0.226 C 
ATOM     26  C   UNL A   1      27.749  32.335  19.673  1.00  0.00     0.049 C 
ENDBRANCH  24  25
ENDBRANCH  19  24
ENDBRANCH  10  18
ENDBRANCH   8   9
ENDBRANCH   7   8
BRANCH   7  27
ATOM     27  C   UNL A   1      30.896  22.495  25.626  1.00  0.00     0.021 C 
ATOM     28  C   UNL A   1      31.384  23.192  26.878  1.00  0.00     0.005 C 
ENDBRANCH   7  27
ENDBRANCH   4   7
ENDBRANCH   2   3
ENDBRANCH   1   2
BRANCH   1  29
ATOM     29  C   UNL A   1      34.893  22.081  25.461  1.00  0.00     0.002 C 
BRANCH  29  30
ATOM     30  C   UNL A   1      35.632  22.551  24.203  1.00  0.00     0.002 C 
BRANCH  30  31
ATOM     31  C   UNL A   1      37.152  22.692  24.333  1.00  0.00     0.021 C 
BRANCH  31  32
ATOM     32  C   UNL A   1      37.689  22.728  25.763  1.00  0.00     0.116 C 
BRANCH  32  33
ATOM     33  N   UNL A   1      38.887  21.923  25.916  1.00  0.00    -0.352 N 
ATOM     34  C   UNL A   1      40.164  22.300  26.243  1.00  0.00     0.251 C 
ATOM     35  H   UNL A   1      38.765  20.958  25.762  1.00  0.00     0.163 HD
ATOM     36  O   UNL A   1      41.076  21.477  26.121  1.00  0.00    -0.269 OA
BRANCH  34  37
ATOM     37  C   UNL A   1      40.465  23.673  26.710  1.00  0.00     0.039 A 
ATOM     38  C   UNL A   1      40.896  23.849  28.030  1.00  0.00     0.014 A 
ATOM     39  C   UNL A   1      40.288  24.787  25.885  1.00  0.00     0.014 A 
ATOM     40  C   UNL A   1      41.192  25.130  28.505  1.00  0.00     0.010 A 
ATOM     41  C   UNL A   1      40.640  26.058  26.340  1.00  0.00     0.010 A 
ATOM     42  C   UNL A   1      41.088  26.244  27.656  1.00  0.00    -0.014 A 
BRANCH  42  43
ATOM     43  C   UNL A   1      41.430  27.607  28.139  1.00  0.00     0.031 A 
ATOM     44  C   UNL A   1      42.866  28.054  28.190  1.00  0.00     0.074 A 
ATOM     45  C   UNL A   1      40.453  28.429  28.567  1.00  0.00     0.049 A 
ATOM     46  N   UNL A   1      43.369  29.183  28.621  1.00  0.00    -0.248 NA
ATOM     47  C   UNL A   1      43.868  27.093  27.708  1.00  0.00     0.031 C 
ATOM     48  C   UNL A   1      39.026  28.105  28.585  1.00  0.00     0.029 A 
ATOM     49  N   UNL A   1      40.510  29.704  29.073  1.00  0.00    -0.354 N 
ATOM     50  C   UNL A   1      44.747  29.068  28.466  1.00  0.00     0.074 A 
ATOM     51  C   UNL A   1      45.000  27.736  27.956  1.00  0.00     0.031 C 
ATOM     52  C   UNL A   1      38.342  29.159  29.059  1.00  0.00     0.029 A 
ATOM     53  C   UNL A   1      39.282  30.217  29.417  1.00  0.00     0.049 A 
ATOM     54  H   UNL A   1      41.351  30.204  29.178  1.00  0.00     0.167 HD
ATOM     55  C   UNL A   1      45.710  29.994  28.708  1.00  0.00     0.034 A 
ATOM     56  C   UNL A   1      38.950  31.400  29.972  1.00  0.00     0.034 A 
ATOM     57  C   UNL A   1      45.444  31.315  29.226  1.00  0.00     0.049 A 
ATOM     58  C   UNL A   1      40.041  32.392  30.284  1.00  0.00     0.074 A 
ATOM     59  C   UNL A   1      46.339  32.343  29.474  1.00  0.00     0.029 A 
ATOM     60  N   UNL A   1      44.189  31.790  29.587  1.00  0.00    -0.354 N 
ATOM     61  N   UNL A   1      41.336  32.284  30.098  1.00  0.00    -0.248 NA
ATOM     62  C   UNL A   1      39.622  33.670  30.875  1.00  0.00     0.031 C 
ATOM     63  C   UNL A   1      45.636  33.411  30.043  1.00  0.00     0.029 A 
ATOM     64  C   UNL A   1      44.291  33.082  30.084  1.00  0.00     0.049 A 
ATOM     65  H   UNL A   1      43.349  31.283  29.503  1.00  0.00     0.167 HD
ATOM     66  C   UNL A   1      41.882  33.492  30.521  1.00  0.00     0.074 A 
ATOM     67  C   UNL A   1      40.775  34.317  30.961  1.00  0.00     0.031 C 
ATOM     68  C   UNL A   1      43.181  33.888  30.535  1.00  0.00     0.034 A 
BRANCH  55  69
ATOM     69  C   UNL A   1      47.141  29.586  28.443  1.00  0.00     0.023 A 
ATOM     70  C   UNL A   1      47.936  28.999  29.444  1.00  0.00     0.031 A 
ATOM     71  C   UNL A   1      47.731  29.821  27.189  1.00  0.00     0.131 A 
ATOM     72  C   UNL A   1      49.294  28.745  29.201  1.00  0.00     0.055 A 
ATOM     73  C   UNL A   1      49.063  29.490  26.928  1.00  0.00     0.041 A 
ATOM     74  F   UNL A   1      47.029  30.394  26.198  1.00  0.00    -0.206 F 
ATOM     75  C   UNL A   1      49.858  28.964  27.943  1.00  0.00     0.022 A 
BRANCH  72  76
ATOM     76  S   UNL A   1      50.350  28.267  30.597  1.00  0.00     0.124 S 
ATOM     77  O   UNL A   1      50.101  26.829  30.678  1.00  0.00    -0.237 OA
ATOM     78  O   UNL A   1      51.678  28.660  30.137  1.00  0.00    -0.237 OA
ATOM     79  O   UNL A   1      49.819  29.046  31.713  1.00  0.00    -0.744 OA
ENDBRANCH  72  76
ENDBRANCH  55  69
BRANCH  56  80
ATOM     80  C   UNL A   1      37.527  31.715  30.279  1.00  0.00     0.023 A 
ATOM     81  C   UNL A   1      36.677  32.246  29.295  1.00  0.00     0.031 A 
ATOM     82  C   UNL A   1      37.006  31.527  31.571  1.00  0.00     0.131 A 
ATOM     83  C   UNL A   1      35.363  32.608  29.628  1.00  0.00     0.055 A 
ATOM     84  C   UNL A   1      35.684  31.845  31.886  1.00  0.00     0.041 A 
ATOM     85  F   UNL A   1      37.775  31.018  32.547  1.00  0.00    -0.206 F 
ATOM     86  C   UNL A   1      34.857  32.401  30.914  1.00  0.00     0.022 A 
BRANCH  83  87
ATOM     87  S   UNL A   1      34.342  33.426  28.372  1.00  0.00     0.124 S 
ATOM     88  O   UNL A   1      35.353  33.935  27.452  1.00  0.00    -0.237 OA
ATOM     89  O   UNL A   1      33.525  32.322  27.881  1.00  0.00    -0.237 OA
ATOM     90  O   UNL A   1      33.620  34.444  29.131  1.00  0.00    -0.744 OA
ENDBRANCH  83  87
ENDBRANCH  56  80
BRANCH  68  91
ATOM     91  C   UNL A   1      43.460  35.295  31.005  1.00  0.00     0.023 A 
ATOM     92  C   UNL A   1      43.541  35.619  32.371  1.00  0.00     0.031 A 
ATOM     93  C   UNL A   1      43.630  36.329  30.068  1.00  0.00     0.131 A 
ATOM     94  C   UNL A   1      43.733  36.953  32.762  1.00  0.00     0.055 A 
ATOM     95  C   UNL A   1      43.875  37.646  30.463  1.00  0.00     0.041 A 
ATOM     96  F   UNL A   1      43.558  36.078  28.751  1.00  0.00    -0.206 F 
ATOM     97  C   UNL A   1      43.915  37.965  31.816  1.00  0.00     0.022 A 
BRANCH  94  98
ATOM     98  S   UNL A   1      43.656  37.364  34.527  1.00  0.00     0.124 S 
ATOM     99  O   UNL A   1      42.262  37.766  34.686  1.00  0.00    -0.237 OA
ATOM    100  O   UNL A   1      44.031  36.103  35.160  1.00  0.00    -0.237 OA
ATOM    101  O   UNL A   1      44.633  38.443  34.672  1.00  0.00    -0.744 OA
ENDBRANCH  94  98
ENDBRANCH  68  91
ENDBRANCH  42  43
ENDBRANCH  34  37
ENDBRANCH  32  33
ENDBRANCH  31  32
ENDBRANCH  30  31
ENDBRANCH  29  30
ENDBRANCH   1  29
TORSDOF 22
ENDMDL
MODEL 2
REMARK VINA RESULT:     -10.3      1.597      3.881
REMARK SMILES CCOc1ccc(-c2nnc3ccc(S[C@@H](CC)C(=O)NCCCCCCNC(=O)c4ccc(-c5c6nc(c(-c7cc(S(=O)(=O)[O-])ccc7F)c7ccc([nH]7)c(-c7cc(S(=O)(=O)[O-])ccc7F)c7nc(c(-c8cc(S(=O)(=O)[O-])ccc8F)c8ccc5[nH]8)C=C7)C=C6)cc4)nn23)cc1
REMARK SMILES IDX 23 1 22 2 21 3 19 4 20 5 16 7 15 8 14 9 8 10 9 11 95 12
REMARK SMILES IDX 10 13 11 14 94 15 12 16 13 17 7 18 4 19 5 20 97 21 6 22
REMARK SMILES IDX 96 23 3 24 2 25 1 26 17 27 18 28 24 29 25 30 26 31 27 32
REMARK SMILES IDX 28 33 29 34 30 36 31 37 32 38 93 39 33 40 92 41 34 42 35 43
REMARK SMILES IDX 36 44 86 45 37 46 91 47 85 48 87 49 38 50 90 51 84 52 83 53
REMARK SMILES IDX 39 55 71 56 51 57 70 58 52 59 55 60 69 61 88 62 53 63 54 64
REMARK SMILES IDX 68 66 89 67 56 68 40 69 41 70 49 71 42 72 48 73 50 74 47 75
REMARK SMILES IDX 43 76 44 77 45 78 46 79 72 80 73 81 81 82 74 83 80 84 82 85
REMARK SMILES IDX 79 86 75 87 76 88 77 89 78 90 57 91 58 92 66 93 59 94 65 95
REMARK SMILES IDX 67 96 64 97 60 98 61 99 62 100 63 101
REMARK H PARENT 21 6 28 35 87 54 55 65
REMARK Flexibility Score: inf
ROOT
ATOM      1  C   UNL A   1      34.267  24.391  25.870  1.00  0.00     0.021 C 
ENDROOT
BRANCH   1   2
ATOM      2  C   UNL A   1      33.667  25.797  25.945  1.00  0.00     0.116 C 
BRANCH   2   3
ATOM      3  N   UNL A   1      33.987  26.556  24.764  1.00  0.00    -0.355 N 
ATOM      4  C   UNL A   1      34.082  27.885  24.530  1.00  0.00     0.233 C 
ATOM      5  O   UNL A   1      34.339  28.186  23.355  1.00  0.00    -0.274 OA
ATOM      6  H   UNL A   1      34.173  26.001  23.973  1.00  0.00     0.163 HD
BRANCH   4   7
ATOM      7  C   UNL A   1      34.033  28.986  25.597  1.00  0.00     0.142 C 
BRANCH   7   8
ATOM      8  S   UNL A   1      32.536  29.979  25.792  1.00  0.00    -0.091 SA
BRANCH   8   9
ATOM      9  C   UNL A   1      31.151  29.331  24.970  1.00  0.00     0.118 A 
ATOM     10  C   UNL A   1      29.377  26.332  24.215  1.00  0.00     0.185 A 
ATOM     11  N   UNL A   1      28.230  26.376  23.553  1.00  0.00    -0.128 NA
ATOM     12  N   UNL A   1      29.809  27.632  24.425  1.00  0.00    -0.192 N 
ATOM     13  N   UNL A   1      27.983  27.679  23.190  1.00  0.00    -0.128 NA
ATOM     14  C   UNL A   1      28.989  28.401  23.622  1.00  0.00     0.178 A 
ATOM     15  N   UNL A   1      30.866  28.083  25.182  1.00  0.00    -0.158 NA
ATOM     16  C   UNL A   1      29.393  29.724  23.361  1.00  0.00     0.054 A 
ATOM     17  C   UNL A   1      30.496  30.192  23.959  1.00  0.00     0.041 A 
BRANCH  10  18
ATOM     18  C   UNL A   1      30.163  25.133  24.488  1.00  0.00     0.021 A 
ATOM     19  C   UNL A   1      31.498  22.739  25.063  1.00  0.00     0.119 A 
ATOM     20  C   UNL A   1      30.812  23.400  26.076  1.00  0.00     0.047 A 
ATOM     21  C   UNL A   1      31.520  23.257  23.769  1.00  0.00     0.047 A 
ATOM     22  C   UNL A   1      30.160  24.602  25.791  1.00  0.00     0.016 A 
ATOM     23  C   UNL A   1      30.863  24.456  23.483  1.00  0.00     0.016 A 
BRANCH  19  24
ATOM     24  O   UNL A   1      32.049  21.516  25.318  1.00  0.00    -0.494 OA
BRANCH  24  25
ATOM     25  C   UNL A   1      32.236  20.749  24.122  1.00  0.00     0.226 C 
ATOM     26  C   UNL A   1      33.191  19.596  24.378  1.00  0.00     0.049 C 
ENDBRANCH  24  25
ENDBRANCH  19  24
ENDBRANCH  10  18
ENDBRANCH   8   9
ENDBRANCH   7   8
BRANCH   7  27
ATOM     27  C   UNL A   1      35.093  28.874  26.710  1.00  0.00     0.021 C 
ATOM     28  C   UNL A   1      34.955  29.688  27.978  1.00  0.00     0.005 C 
ENDBRANCH   7  27
ENDBRANCH   4   7
ENDBRANCH   2   3
ENDBRANCH   1   2
BRANCH   1  29
ATOM     29  C   UNL A   1      35.141  24.144  24.635  1.00  0.00     0.002 C 
BRANCH  29  30
ATOM     30  C   UNL A   1      35.341  22.675  24.245  1.00  0.00     0.002 C 
BRANCH  30  31
ATOM     31  C   UNL A   1      36.793  22.223  24.061  1.00  0.00     0.021 C 
BRANCH  31  32
ATOM     32  C   UNL A   1      37.821  22.943  24.932  1.00  0.00     0.116 C 
BRANCH  32  33
ATOM     33  N   UNL A   1      38.624  22.015  25.709  1.00  0.00    -0.352 N 
ATOM     34  C   UNL A   1      39.670  22.258  26.561  1.00  0.00     0.251 C 
ATOM     35  H   UNL A   1      38.380  21.066  25.609  1.00  0.00     0.163 HD
ATOM     36  O   UNL A   1      40.341  21.303  26.964  1.00  0.00    -0.269 OA
BRANCH  34  37
ATOM     37  C   UNL A   1      40.017  23.634  26.981  1.00  0.00     0.039 A 
ATOM     38  C   UNL A   1      40.607  23.822  28.236  1.00  0.00     0.014 A 
ATOM     39  C   UNL A   1      39.731  24.743  26.178  1.00  0.00     0.014 A 
ATOM     40  C   UNL A   1      40.950  25.107  28.664  1.00  0.00     0.010 A 
ATOM     41  C   UNL A   1      40.128  26.019  26.580  1.00  0.00     0.010 A 
ATOM     42  C   UNL A   1      40.735  26.215  27.830  1.00  0.00    -0.014 A 
BRANCH  42  43
ATOM     43  C   UNL A   1      41.124  27.583  28.260  1.00  0.00     0.031 A 
ATOM     44  C   UNL A   1      42.568  28.006  28.221  1.00  0.00     0.074 A 
ATOM     45  C   UNL A   1      40.186  28.432  28.720  1.00  0.00     0.049 A 
ATOM     46  N   UNL A   1      43.112  29.137  28.596  1.00  0.00    -0.248 NA
ATOM     47  C   UNL A   1      43.527  27.017  27.709  1.00  0.00     0.031 C 
ATOM     48  C   UNL A   1      38.756  28.133  28.824  1.00  0.00     0.029 A 
ATOM     49  N   UNL A   1      40.290  29.717  29.190  1.00  0.00    -0.354 N 
ATOM     50  C   UNL A   1      44.477  28.994  28.369  1.00  0.00     0.074 A 
ATOM     51  C   UNL A   1      44.680  27.646  27.878  1.00  0.00     0.031 C 
ATOM     52  C   UNL A   1      38.117  29.209  29.309  1.00  0.00     0.029 A 
ATOM     53  C   UNL A   1      39.091  30.259  29.589  1.00  0.00     0.049 A 
ATOM     54  H   UNL A   1      41.144  30.205  29.238  1.00  0.00     0.167 HD
ATOM     55  C   UNL A   1      45.467  29.908  28.535  1.00  0.00     0.034 A 
ATOM     56  C   UNL A   1      38.810  31.460  30.131  1.00  0.00     0.034 A 
ATOM     57  C   UNL A   1      45.251  31.246  29.034  1.00  0.00     0.049 A 
ATOM     58  C   UNL A   1      39.932  32.440  30.360  1.00  0.00     0.074 A 
ATOM     59  C   UNL A   1      46.174  32.263  29.208  1.00  0.00     0.029 A 
ATOM     60  N   UNL A   1      44.025  31.751  29.452  1.00  0.00    -0.354 N 
ATOM     61  N   UNL A   1      41.213  32.306  30.106  1.00  0.00    -0.248 NA
ATOM     62  C   UNL A   1      39.567  33.739  30.940  1.00  0.00     0.031 C 
ATOM     63  C   UNL A   1      45.520  33.357  29.788  1.00  0.00     0.029 A 
ATOM     64  C   UNL A   1      44.175  33.052  29.910  1.00  0.00     0.049 A 
ATOM     65  H   UNL A   1      43.174  31.257  29.426  1.00  0.00     0.167 HD
ATOM     66  C   UNL A   1      41.801  33.514  30.468  1.00  0.00     0.074 A 
ATOM     67  C   UNL A   1      40.733  34.368  30.948  1.00  0.00     0.031 C 
ATOM     68  C   UNL A   1      43.105  33.887  30.402  1.00  0.00     0.034 A 
BRANCH  55  69
ATOM     69  C   UNL A   1      46.874  29.469  28.202  1.00  0.00     0.023 A 
ATOM     70  C   UNL A   1      47.733  28.944  29.185  1.00  0.00     0.031 A 
ATOM     71  C   UNL A   1      47.378  29.613  26.898  1.00  0.00     0.131 A 
ATOM     72  C   UNL A   1      49.070  28.661  28.869  1.00  0.00     0.055 A 
ATOM     73  C   UNL A   1      48.688  29.252  26.571  1.00  0.00     0.041 A 
ATOM     74  F   UNL A   1      46.613  30.124  25.920  1.00  0.00    -0.206 F 
ATOM     75  C   UNL A   1      49.548  28.789  27.563  1.00  0.00     0.022 A 
BRANCH  72  76
ATOM     76  S   UNL A   1      50.216  28.269  30.219  1.00  0.00     0.124 S 
ATOM     77  O   UNL A   1      51.291  27.583  29.505  1.00  0.00    -0.237 OA
ATOM     78  O   UNL A   1      50.542  29.589  30.750  1.00  0.00    -0.237 OA
ATOM     79  O   UNL A   1      49.426  27.418  31.105  1.00  0.00    -0.744 OA
ENDBRANCH  72  76
ENDBRANCH  55  69
BRANCH  56  80
ATOM     80  C   UNL A   1      37.411  31.807  30.508  1.00  0.00     0.023 A 
ATOM     81  C   UNL A   1      36.575  32.501  29.619  1.00  0.00     0.031 A 
ATOM     82  C   UNL A   1      36.901  31.484  31.778  1.00  0.00     0.131 A 
ATOM     83  C   UNL A   1      35.289  32.886  30.024  1.00  0.00     0.055 A 
ATOM     84  C   UNL A   1      35.604  31.828  32.161  1.00  0.00     0.041 A 
ATOM     85  F   UNL A   1      37.657  30.817  32.664  1.00  0.00    -0.206 F 
ATOM     86  C   UNL A   1      34.793  32.544  31.285  1.00  0.00     0.022 A 
BRANCH  83  87
ATOM     87  S   UNL A   1      34.293  33.908  28.904  1.00  0.00     0.124 S 
ATOM     88  O   UNL A   1      33.816  32.918  27.944  1.00  0.00    -0.237 OA
ATOM     89  O   UNL A   1      33.290  34.460  29.809  1.00  0.00    -0.237 OA
ATOM     90  O   UNL A   1      35.255  34.874  28.380  1.00  0.00    -0.744 OA
ENDBRANCH  83  87
ENDBRANCH  56  80
BRANCH  68  91
ATOM     91  C   UNL A   1      43.432  35.300  30.821  1.00  0.00     0.023 A 
ATOM     92  C   UNL A   1      43.626  35.648  32.170  1.00  0.00     0.031 A 
ATOM     93  C   UNL A   1      43.533  36.316  29.854  1.00  0.00     0.131 A 
ATOM     94  C   UNL A   1      43.858  36.987  32.519  1.00  0.00     0.055 A 
ATOM     95  C   UNL A   1      43.819  37.637  30.203  1.00  0.00     0.041 A 
ATOM     96  F   UNL A   1      43.353  36.041  28.552  1.00  0.00    -0.206 F 
ATOM     97  C   UNL A   1      43.971  37.980  31.543  1.00  0.00     0.022 A 
BRANCH  94  98
ATOM     98  S   UNL A   1      43.928  37.430  34.276  1.00  0.00     0.124 S 
ATOM     99  O   UNL A   1      44.280  38.846  34.220  1.00  0.00    -0.237 OA
ATOM    100  O   UNL A   1      42.574  37.128  34.731  1.00  0.00    -0.237 OA
ATOM    101  O   UNL A   1      44.970  36.554  34.812  1.00  0.00    -0.744 OA
ENDBRANCH  94  98
ENDBRANCH  68  91
ENDBRANCH  42  43
ENDBRANCH  34  37
ENDBRANCH  32  33
ENDBRANCH  31  32
ENDBRANCH  30  31
ENDBRANCH  29  30
ENDBRANCH   1  29
TORSDOF 22
ENDMDL
MODEL 3
REMARK VINA RESULT:      -9.5      5.838     11.815
REMARK SMILES CCOc1ccc(-c2nnc3ccc(S[C@@H](CC)C(=O)NCCCCCCNC(=O)c4ccc(-c5c6nc(c(-c7cc(S(=O)(=O)[O-])ccc7F)c7ccc([nH]7)c(-c7cc(S(=O)(=O)[O-])ccc7F)c7nc(c(-c8cc(S(=O)(=O)[O-])ccc8F)c8ccc5[nH]8)C=C7)C=C6)cc4)nn23)cc1
REMARK SMILES IDX 23 1 22 2 21 3 19 4 20 5 16 7 15 8 14 9 8 10 9 11 95 12
REMARK SMILES IDX 10 13 11 14 94 15 12 16 13 17 7 18 4 19 5 20 97 21 6 22
REMARK SMILES IDX 96 23 3 24 2 25 1 26 17 27 18 28 24 29 25 30 26 31 27 32
REMARK SMILES IDX 28 33 29 34 30 36 31 37 32 38 93 39 33 40 92 41 34 42 35 43
REMARK SMILES IDX 36 44 86 45 37 46 91 47 85 48 87 49 38 50 90 51 84 52 83 53
REMARK SMILES IDX 39 55 71 56 51 57 70 58 52 59 55 60 69 61 88 62 53 63 54 64
REMARK SMILES IDX 68 66 89 67 56 68 40 69 41 70 49 71 42 72 48 73 50 74 47 75
REMARK SMILES IDX 43 76 44 77 45 78 46 79 72 80 73 81 81 82 74 83 80 84 82 85
REMARK SMILES IDX 79 86 75 87 76 88 77 89 78 90 57 91 58 92 66 93 59 94 65 95
REMARK SMILES IDX 67 96 64 97 60 98 61 99 62 100 63 101
REMARK H PARENT 21 6 28 35 87 54 55 65
REMARK Flexibility Score: inf
ROOT
ATOM      1  C   UNL A   1      38.791  32.700  37.908  1.00  0.00     0.021 C 
ENDROOT
BRANCH   1   2
ATOM      2  C   UNL A   1      37.530  32.988  37.089  1.00  0.00     0.116 C 
BRANCH   2   3
ATOM      3  N   UNL A   1      37.802  33.942  36.045  1.00  0.00    -0.355 N 
ATOM      4  C   UNL A   1      37.486  33.973  34.731  1.00  0.00     0.233 C 
ATOM      5  O   UNL A   1      37.935  34.951  34.114  1.00  0.00    -0.274 OA
ATOM      6  H   UNL A   1      38.320  34.723  36.347  1.00  0.00     0.163 HD
BRANCH   4   7
ATOM      7  C   UNL A   1      36.537  33.003  34.017  1.00  0.00     0.142 C 
BRANCH   7   8
ATOM      8  S   UNL A   1      34.838  33.506  33.666  1.00  0.00    -0.091 SA
BRANCH   8   9
ATOM      9  C   UNL A   1      34.509  33.744  31.978  1.00  0.00     0.118 A 
ATOM     10  C   UNL A   1      35.178  32.515  28.700  1.00  0.00     0.185 A 
ATOM     11  N   UNL A   1      34.576  33.045  27.646  1.00  0.00    -0.128 NA
ATOM     12  N   UNL A   1      34.688  33.134  29.838  1.00  0.00    -0.192 N 
ATOM     13  N   UNL A   1      33.813  34.109  28.065  1.00  0.00    -0.128 NA
ATOM     14  C   UNL A   1      33.977  34.218  29.362  1.00  0.00     0.178 A 
ATOM     15  N   UNL A   1      34.911  32.822  31.160  1.00  0.00    -0.158 NA
ATOM     16  C   UNL A   1      33.639  35.228  30.283  1.00  0.00     0.054 A 
ATOM     17  C   UNL A   1      33.949  35.055  31.574  1.00  0.00     0.041 A 
BRANCH  10  18
ATOM     18  C   UNL A   1      36.313  31.598  28.668  1.00  0.00     0.021 A 
ATOM     19  C   UNL A   1      38.488  29.839  28.810  1.00  0.00     0.119 A 
ATOM     20  C   UNL A   1      38.612  31.124  29.330  1.00  0.00     0.047 A 
ATOM     21  C   UNL A   1      37.292  29.423  28.228  1.00  0.00     0.047 A 
ATOM     22  C   UNL A   1      37.530  32.004  29.243  1.00  0.00     0.016 A 
ATOM     23  C   UNL A   1      36.209  30.303  28.147  1.00  0.00     0.016 A 
BRANCH  19  24
ATOM     24  O   UNL A   1      39.508  28.948  28.986  1.00  0.00    -0.494 OA
BRANCH  24  25
ATOM     25  C   UNL A   1      39.296  27.736  28.252  1.00  0.00     0.226 C 
ATOM     26  C   UNL A   1      39.556  26.530  29.139  1.00  0.00     0.049 C 
ENDBRANCH  24  25
ENDBRANCH  19  24
ENDBRANCH  10  18
ENDBRANCH   8   9
ENDBRANCH   7   8
BRANCH   7  27
ATOM     27  C   UNL A   1      37.221  31.845  33.264  1.00  0.00     0.021 C 
ATOM     28  C   UNL A   1      38.707  31.891  32.982  1.00  0.00     0.005 C 
ENDBRANCH   7  27
ENDBRANCH   4   7
ENDBRANCH   2   3
ENDBRANCH   1   2
BRANCH   1  29
ATOM     29  C   UNL A   1      38.573  32.714  39.425  1.00  0.00     0.002 C 
BRANCH  29  30
ATOM     30  C   UNL A   1      38.469  34.102  40.068  1.00  0.00     0.002 C 
BRANCH  30  31
ATOM     31  C   UNL A   1      39.695  35.007  39.910  1.00  0.00     0.021 C 
BRANCH  31  32
ATOM     32  C   UNL A   1      39.534  36.166  38.928  1.00  0.00     0.116 C 
BRANCH  32  33
ATOM     33  N   UNL A   1      40.635  37.110  39.014  1.00  0.00    -0.352 N 
ATOM     34  C   UNL A   1      41.836  37.122  38.353  1.00  0.00     0.251 C 
ATOM     35  H   UNL A   1      40.498  37.856  39.642  1.00  0.00     0.163 HD
ATOM     36  O   UNL A   1      42.711  37.909  38.726  1.00  0.00    -0.269 OA
BRANCH  34  37
ATOM     37  C   UNL A   1      42.104  36.197  37.228  1.00  0.00     0.039 A 
ATOM     38  C   UNL A   1      41.072  35.931  36.322  1.00  0.00     0.014 A 
ATOM     39  C   UNL A   1      43.339  35.558  37.078  1.00  0.00     0.014 A 
ATOM     40  C   UNL A   1      41.290  35.066  35.246  1.00  0.00     0.010 A 
ATOM     41  C   UNL A   1      43.574  34.742  35.971  1.00  0.00     0.010 A 
ATOM     42  C   UNL A   1      42.551  34.481  35.048  1.00  0.00    -0.014 A 
BRANCH  42  43
ATOM     43  C   UNL A   1      42.805  33.585  33.891  1.00  0.00     0.031 A 
ATOM     44  C   UNL A   1      42.997  34.161  32.514  1.00  0.00     0.074 A 
ATOM     45  C   UNL A   1      42.826  32.250  34.071  1.00  0.00     0.049 A 
ATOM     46  N   UNL A   1      43.184  33.545  31.375  1.00  0.00    -0.248 NA
ATOM     47  C   UNL A   1      42.956  35.627  32.407  1.00  0.00     0.031 C 
ATOM     48  C   UNL A   1      42.634  31.569  35.353  1.00  0.00     0.029 A 
ATOM     49  N   UNL A   1      43.013  31.226  33.176  1.00  0.00    -0.354 N 
ATOM     50  C   UNL A   1      43.277  34.546  30.413  1.00  0.00     0.074 A 
ATOM     51  C   UNL A   1      43.069  35.805  31.099  1.00  0.00     0.031 C 
ATOM     52  C   UNL A   1      42.732  30.243  35.164  1.00  0.00     0.029 A 
ATOM     53  C   UNL A   1      42.951  29.976  33.746  1.00  0.00     0.049 A 
ATOM     54  H   UNL A   1      43.177  31.373  32.217  1.00  0.00     0.167 HD
ATOM     55  C   UNL A   1      43.533  34.428  29.085  1.00  0.00     0.034 A 
ATOM     56  C   UNL A   1      43.047  28.753  33.188  1.00  0.00     0.034 A 
ATOM     57  C   UNL A   1      43.729  33.166  28.413  1.00  0.00     0.049 A 
ATOM     58  C   UNL A   1      43.275  28.644  31.702  1.00  0.00     0.074 A 
ATOM     59  C   UNL A   1      44.029  32.933  27.081  1.00  0.00     0.029 A 
ATOM     60  N   UNL A   1      43.634  31.918  29.019  1.00  0.00    -0.354 N 
ATOM     61  N   UNL A   1      43.399  29.600  30.811  1.00  0.00    -0.248 NA
ATOM     62  C   UNL A   1      43.386  27.287  31.149  1.00  0.00     0.031 C 
ATOM     63  C   UNL A   1      44.051  31.549  26.870  1.00  0.00     0.029 A 
ATOM     64  C   UNL A   1      43.838  30.915  28.082  1.00  0.00     0.049 A 
ATOM     65  H   UNL A   1      43.449  31.769  29.974  1.00  0.00     0.167 HD
ATOM     66  C   UNL A   1      43.632  28.959  29.597  1.00  0.00     0.074 A 
ATOM     67  C   UNL A   1      43.642  27.537  29.873  1.00  0.00     0.031 C 
ATOM     68  C   UNL A   1      43.829  29.499  28.367  1.00  0.00     0.034 A 
BRANCH  55  69
ATOM     69  C   UNL A   1      43.580  35.704  28.276  1.00  0.00     0.023 A 
ATOM     70  C   UNL A   1      44.789  36.383  28.041  1.00  0.00     0.031 A 
ATOM     71  C   UNL A   1      42.399  36.271  27.767  1.00  0.00     0.131 A 
ATOM     72  C   UNL A   1      44.781  37.626  27.392  1.00  0.00     0.055 A 
ATOM     73  C   UNL A   1      42.407  37.469  27.049  1.00  0.00     0.041 A 
ATOM     74  F   UNL A   1      41.211  35.680  27.973  1.00  0.00    -0.206 F 
ATOM     75  C   UNL A   1      43.601  38.163  26.873  1.00  0.00     0.022 A 
BRANCH  72  76
ATOM     76  S   UNL A   1      46.309  38.602  27.368  1.00  0.00     0.124 S 
ATOM     77  O   UNL A   1      47.251  37.694  28.017  1.00  0.00    -0.237 OA
ATOM     78  O   UNL A   1      46.518  38.828  25.941  1.00  0.00    -0.237 OA
ATOM     79  O   UNL A   1      45.969  39.793  28.144  1.00  0.00    -0.744 OA
ENDBRANCH  72  76
ENDBRANCH  55  69
BRANCH  56  80
ATOM     80  C   UNL A   1      42.918  27.530  34.028  1.00  0.00     0.023 A 
ATOM     81  C   UNL A   1      44.055  26.830  34.462  1.00  0.00     0.031 A 
ATOM     82  C   UNL A   1      41.656  27.021  34.377  1.00  0.00     0.131 A 
ATOM     83  C   UNL A   1      43.908  25.638  35.186  1.00  0.00     0.055 A 
ATOM     84  C   UNL A   1      41.514  25.859  35.138  1.00  0.00     0.041 A 
ATOM     85  F   UNL A   1      40.536  27.654  33.991  1.00  0.00    -0.206 F 
ATOM     86  C   UNL A   1      42.645  25.153  35.537  1.00  0.00     0.022 A 
BRANCH  83  87
ATOM     87  S   UNL A   1      45.393  24.684  35.603  1.00  0.00     0.124 S 
ATOM     88  O   UNL A   1      46.043  24.561  34.302  1.00  0.00    -0.237 OA
ATOM     89  O   UNL A   1      46.052  25.556  36.569  1.00  0.00    -0.237 OA
ATOM     90  O   UNL A   1      44.857  23.442  36.153  1.00  0.00    -0.744 OA
ENDBRANCH  83  87
ENDBRANCH  56  80
BRANCH  68  91
ATOM     91  C   UNL A   1      44.116  28.538  27.239  1.00  0.00     0.023 A 
ATOM     92  C   UNL A   1      45.419  28.090  26.960  1.00  0.00     0.031 A 
ATOM     93  C   UNL A   1      43.069  28.080  26.420  1.00  0.00     0.131 A 
ATOM     94  C   UNL A   1      45.649  27.253  25.858  1.00  0.00     0.055 A 
ATOM     95  C   UNL A   1      43.296  27.203  25.358  1.00  0.00     0.041 A 
ATOM     96  F   UNL A   1      41.805  28.479  26.638  1.00  0.00    -0.206 F 
ATOM     97  C   UNL A   1      44.594  26.795  25.064  1.00  0.00     0.022 A 
BRANCH  94  98
ATOM     98  S   UNL A   1      47.359  26.836  25.420  1.00  0.00     0.124 S 
ATOM     99  O   UNL A   1      47.261  26.619  23.980  1.00  0.00    -0.237 OA
ATOM    100  O   UNL A   1      48.090  28.029  25.836  1.00  0.00    -0.237 OA
ATOM    101  O   UNL A   1      47.634  25.636  26.210  1.00  0.00    -0.744 OA
ENDBRANCH  94  98
ENDBRANCH  68  91
ENDBRANCH  42  43
ENDBRANCH  34  37
ENDBRANCH  32  33
ENDBRANCH  31  32
ENDBRANCH  30  31
ENDBRANCH  29  30
ENDBRANCH   1  29
TORSDOF 22
ENDMDL
