MODEL 1
REMARK VINA RESULT:     -11.5      0.000      0.000
REMARK SMILES C[C@@](O)(c1ccc(Cl)cc1Cl)[C@@H](F)C(=O)NCCCCCCNC(=O)c1ccc(-c2c3nc(c(-c4cc(S(=O)(=O)[O-])ccc4F)c4ccc([nH]4)c(-c4cc(S(=O)(=O)[O-])ccc4F)c4nc(c(-c5cc(S(=O)(=O)[O-])ccc5F)c5ccc2[nH]5)C=C4)C=C3)cc1
REMARK SMILES IDX 20 1 19 2 18 3 17 4 16 5 14 6 15 7 12 9 13 10 2 11 1 12 3 13
REMARK SMILES IDX 4 15 5 16 10 17 6 18 9 19 11 20 7 21 8 22 21 23 22 24 23 25
REMARK SMILES IDX 24 26 25 28 26 29 27 30 88 31 28 32 87 33 29 34 30 35 31 36
REMARK SMILES IDX 81 37 32 38 86 39 80 40 82 41 33 42 85 43 79 44 78 45 34 47
REMARK SMILES IDX 66 48 46 49 65 50 47 51 50 52 64 53 83 54 48 55 49 56 63 58
REMARK SMILES IDX 84 59 51 60 35 61 36 62 44 63 37 64 43 65 45 66 42 67 38 68
REMARK SMILES IDX 39 69 40 70 41 71 67 72 68 73 76 74 69 75 75 76 77 77 74 78
REMARK SMILES IDX 70 79 71 80 72 81 73 82 52 83 53 84 61 85 54 86 60 87 62 88
REMARK SMILES IDX 59 89 55 90 56 91 57 92 58 93
REMARK H PARENT 16 8 3 14 23 27 82 46 50 57
REMARK Flexibility Score: inf
ROOT
ATOM      1  C   UNL A   1      32.024  30.165  26.049  1.00  0.00     0.002 C 
ENDROOT
BRANCH   1   2
ATOM      2  C   UNL A   1      31.784  28.901  26.876  1.00  0.00     0.002 C 
BRANCH   2   3
ATOM      3  C   UNL A   1      31.304  27.696  26.070  1.00  0.00     0.021 C 
BRANCH   3   4
ATOM      4  C   UNL A   1      32.165  26.445  26.243  1.00  0.00     0.116 C 
BRANCH   4   5
ATOM      5  N   UNL A   1      31.381  25.374  26.827  1.00  0.00    -0.353 N 
ATOM      6  C   UNL A   1      31.627  24.033  26.874  1.00  0.00     0.257 C 
ATOM      7  O   UNL A   1      30.719  23.314  27.304  1.00  0.00    -0.272 OA
ATOM      8  H   UNL A   1      30.542  25.659  27.256  1.00  0.00     0.163 HD
BRANCH   6   9
ATOM      9  C   UNL A   1      32.954  23.436  26.384  1.00  0.00     0.291 C 
ATOM     10  F   UNL A   1      34.006  24.240  26.723  1.00  0.00    -0.233 F 
BRANCH   9  11
ATOM     11  C   UNL A   1      32.977  23.085  24.859  1.00  0.00     0.128 C 
ATOM     12  C   UNL A   1      34.019  23.905  24.086  1.00  0.00     0.051 C 
BRANCH  11  13
ATOM     13  O   UNL A   1      31.670  23.373  24.346  1.00  0.00    -0.382 OA
ATOM     14  H   UNL A   1      31.007  22.877  24.851  1.00  0.00     0.212 HD
ENDBRANCH  11  13
BRANCH  11  15
ATOM     15  C   UNL A   1      33.302  21.605  24.541  1.00  0.00     0.005 A 
ATOM     16  C   UNL A   1      32.340  20.791  23.902  1.00  0.00     0.010 A 
ATOM     17  C   UNL A   1      34.481  20.954  24.990  1.00  0.00     0.048 A 
ATOM     18  C   UNL A   1      32.533  19.419  23.719  1.00  0.00     0.021 A 
ATOM     19  C   UNL A   1      34.676  19.580  24.792  1.00  0.00     0.041 A 
ATOM     20  Cl  UNL A   1      35.746  21.737  25.885  1.00  0.00    -0.084 Cl
ATOM     21  C   UNL A   1      33.700  18.819  24.165  1.00  0.00     0.042 A 
ATOM     22  Cl  UNL A   1      33.925  17.126  23.971  1.00  0.00    -0.084 Cl
ENDBRANCH  11  15
ENDBRANCH   9  11
ENDBRANCH   6   9
ENDBRANCH   4   5
ENDBRANCH   3   4
ENDBRANCH   2   3
ENDBRANCH   1   2
BRANCH   1  23
ATOM     23  C   UNL A   1      31.790  31.480  26.798  1.00  0.00     0.021 C 
BRANCH  23  24
ATOM     24  C   UNL A   1      33.063  32.237  27.164  1.00  0.00     0.116 C 
BRANCH  24  25
ATOM     25  N   UNL A   1      32.784  33.622  27.507  1.00  0.00    -0.352 N 
ATOM     26  C   UNL A   1      33.269  34.366  28.550  1.00  0.00     0.251 C 
ATOM     27  H   UNL A   1      32.158  34.090  26.908  1.00  0.00     0.163 HD
ATOM     28  O   UNL A   1      32.732  35.433  28.846  1.00  0.00    -0.269 OA
BRANCH  26  29
ATOM     29  C   UNL A   1      34.429  33.873  29.321  1.00  0.00     0.039 A 
ATOM     30  C   UNL A   1      34.217  32.999  30.389  1.00  0.00     0.014 A 
ATOM     31  C   UNL A   1      35.725  34.275  28.984  1.00  0.00     0.014 A 
ATOM     32  C   UNL A   1      35.312  32.482  31.084  1.00  0.00     0.010 A 
ATOM     33  C   UNL A   1      36.816  33.702  29.630  1.00  0.00     0.010 A 
ATOM     34  C   UNL A   1      36.622  32.803  30.690  1.00  0.00    -0.014 A 
BRANCH  34  35
ATOM     35  C   UNL A   1      37.802  32.215  31.376  1.00  0.00     0.031 A 
ATOM     36  C   UNL A   1      38.596  31.127  30.704  1.00  0.00     0.074 A 
ATOM     37  C   UNL A   1      38.116  32.616  32.626  1.00  0.00     0.049 A 
ATOM     38  N   UNL A   1      39.604  30.433  31.166  1.00  0.00    -0.248 NA
ATOM     39  C   UNL A   1      38.185  30.751  29.342  1.00  0.00     0.031 C 
ATOM     40  C   UNL A   1      37.400  33.641  33.390  1.00  0.00     0.029 A 
ATOM     41  N   UNL A   1      39.109  32.205  33.479  1.00  0.00    -0.354 N 
ATOM     42  C   UNL A   1      39.932  29.525  30.166  1.00  0.00     0.074 A 
ATOM     43  C   UNL A   1      38.985  29.727  29.089  1.00  0.00     0.031 C 
ATOM     44  C   UNL A   1      37.992  33.794  34.585  1.00  0.00     0.029 A 
ATOM     45  C   UNL A   1      39.094  32.844  34.698  1.00  0.00     0.049 A 
ATOM     46  H   UNL A   1      39.771  31.516  33.242  1.00  0.00     0.167 HD
ATOM     47  C   UNL A   1      40.937  28.616  30.144  1.00  0.00     0.034 A 
ATOM     48  C   UNL A   1      39.868  32.672  35.790  1.00  0.00     0.034 A 
ATOM     49  C   UNL A   1      41.888  28.449  31.216  1.00  0.00     0.049 A 
ATOM     50  C   UNL A   1      40.964  31.633  35.745  1.00  0.00     0.074 A 
ATOM     51  C   UNL A   1      42.994  27.619  31.261  1.00  0.00     0.029 A 
ATOM     52  N   UNL A   1      41.838  29.112  32.435  1.00  0.00    -0.354 N 
ATOM     53  N   UNL A   1      41.303  30.832  34.760  1.00  0.00    -0.248 NA
ATOM     54  C   UNL A   1      41.786  31.481  36.952  1.00  0.00     0.031 C 
ATOM     55  C   UNL A   1      43.563  27.716  32.533  1.00  0.00     0.029 A 
ATOM     56  C   UNL A   1      42.869  28.674  33.254  1.00  0.00     0.049 A 
ATOM     57  H   UNL A   1      41.171  29.791  32.683  1.00  0.00     0.167 HD
ATOM     58  C   UNL A   1      42.407  30.115  35.218  1.00  0.00     0.074 A 
ATOM     59  C   UNL A   1      42.680  30.588  36.559  1.00  0.00     0.031 C 
ATOM     60  C   UNL A   1      43.131  29.157  34.589  1.00  0.00     0.034 A 
BRANCH  47  61
ATOM     61  C   UNL A   1      41.047  27.710  28.942  1.00  0.00     0.023 A 
ATOM     62  C   UNL A   1      42.034  27.888  27.958  1.00  0.00     0.031 A 
ATOM     63  C   UNL A   1      40.153  26.635  28.789  1.00  0.00     0.131 A 
ATOM     64  C   UNL A   1      42.069  27.041  26.840  1.00  0.00     0.055 A 
ATOM     65  C   UNL A   1      40.241  25.749  27.713  1.00  0.00     0.041 A 
ATOM     66  F   UNL A   1      39.174  26.428  29.684  1.00  0.00    -0.206 F 
ATOM     67  C   UNL A   1      41.197  25.956  26.725  1.00  0.00     0.022 A 
BRANCH  64  68
ATOM     68  S   UNL A   1      43.195  27.447  25.477  1.00  0.00     0.124 S 
ATOM     69  O   UNL A   1      44.171  28.304  26.146  1.00  0.00    -0.237 OA
ATOM     70  O   UNL A   1      43.676  26.135  25.062  1.00  0.00    -0.237 OA
ATOM     71  O   UNL A   1      42.335  28.130  24.513  1.00  0.00    -0.744 OA
ENDBRANCH  64  68
ENDBRANCH  47  61
BRANCH  48  72
ATOM     72  C   UNL A   1      39.639  33.473  37.029  1.00  0.00     0.023 A 
ATOM     73  C   UNL A   1      39.033  32.896  38.157  1.00  0.00     0.031 A 
ATOM     74  C   UNL A   1      39.941  34.845  37.078  1.00  0.00     0.131 A 
ATOM     75  C   UNL A   1      38.683  33.698  39.254  1.00  0.00     0.055 A 
ATOM     76  C   UNL A   1      39.653  35.626  38.199  1.00  0.00     0.041 A 
ATOM     77  F   UNL A   1      40.520  35.452  36.030  1.00  0.00    -0.206 F 
ATOM     78  C   UNL A   1      39.001  35.058  39.289  1.00  0.00     0.022 A 
BRANCH  75  79
ATOM     79  S   UNL A   1      37.679  32.967  40.576  1.00  0.00     0.124 S 
ATOM     80  O   UNL A   1      38.206  31.609  40.630  1.00  0.00    -0.237 OA
ATOM     81  O   UNL A   1      38.000  33.828  41.709  1.00  0.00    -0.237 OA
ATOM     82  O   UNL A   1      36.312  33.087  40.070  1.00  0.00    -0.744 OA
ENDBRANCH  75  79
ENDBRANCH  48  72
BRANCH  60  83
ATOM     83  C   UNL A   1      44.329  28.601  35.323  1.00  0.00     0.023 A 
ATOM     84  C   UNL A   1      44.208  27.577  36.277  1.00  0.00     0.031 A 
ATOM     85  C   UNL A   1      45.613  29.112  35.060  1.00  0.00     0.131 A 
ATOM     86  C   UNL A   1      45.342  27.135  36.974  1.00  0.00     0.055 A 
ATOM     87  C   UNL A   1      46.746  28.622  35.707  1.00  0.00     0.041 A 
ATOM     88  F   UNL A   1      45.787  30.095  34.160  1.00  0.00    -0.206 F 
ATOM     89  C   UNL A   1      46.613  27.636  36.681  1.00  0.00     0.022 A 
BRANCH  86  90
ATOM     90  S   UNL A   1      45.124  25.959  38.338  1.00  0.00     0.124 S 
ATOM     91  O   UNL A   1      46.363  26.133  39.088  1.00  0.00    -0.237 OA
ATOM     92  O   UNL A   1      43.913  26.454  38.986  1.00  0.00    -0.237 OA
ATOM     93  O   UNL A   1      44.983  24.672  37.662  1.00  0.00    -0.744 OA
ENDBRANCH  86  90
ENDBRANCH  60  83
ENDBRANCH  34  35
ENDBRANCH  26  29
ENDBRANCH  24  25
ENDBRANCH  23  24
ENDBRANCH   1  23
TORSDOF 19
ENDMDL
MODEL 2
REMARK VINA RESULT:     -11.3      5.902     11.052
REMARK SMILES C[C@@](O)(c1ccc(Cl)cc1Cl)[C@@H](F)C(=O)NCCCCCCNC(=O)c1ccc(-c2c3nc(c(-c4cc(S(=O)(=O)[O-])ccc4F)c4ccc([nH]4)c(-c4cc(S(=O)(=O)[O-])ccc4F)c4nc(c(-c5cc(S(=O)(=O)[O-])ccc5F)c5ccc2[nH]5)C=C4)C=C3)cc1
REMARK SMILES IDX 20 1 19 2 18 3 17 4 16 5 14 6 15 7 12 9 13 10 2 11 1 12 3 13
REMARK SMILES IDX 4 15 5 16 10 17 6 18 9 19 11 20 7 21 8 22 21 23 22 24 23 25
REMARK SMILES IDX 24 26 25 28 26 29 27 30 88 31 28 32 87 33 29 34 30 35 31 36
REMARK SMILES IDX 81 37 32 38 86 39 80 40 82 41 33 42 85 43 79 44 78 45 34 47
REMARK SMILES IDX 66 48 46 49 65 50 47 51 50 52 64 53 83 54 48 55 49 56 63 58
REMARK SMILES IDX 84 59 51 60 35 61 36 62 44 63 37 64 43 65 45 66 42 67 38 68
REMARK SMILES IDX 39 69 40 70 41 71 67 72 68 73 76 74 69 75 75 76 77 77 74 78
REMARK SMILES IDX 70 79 71 80 72 81 73 82 52 83 53 84 61 85 54 86 60 87 62 88
REMARK SMILES IDX 59 89 55 90 56 91 57 92 58 93
REMARK H PARENT 16 8 3 14 23 27 82 46 50 57
REMARK Flexibility Score: inf
ROOT
ATOM      1  C   UNL A   1      34.794  23.275  24.138  1.00  0.00     0.002 C 
ENDROOT
BRANCH   1   2
ATOM      2  C   UNL A   1      33.859  23.108  22.940  1.00  0.00     0.002 C 
BRANCH   2   3
ATOM      3  C   UNL A   1      32.528  22.430  23.261  1.00  0.00     0.021 C 
BRANCH   3   4
ATOM      4  C   UNL A   1      31.416  23.398  23.666  1.00  0.00     0.116 C 
BRANCH   4   5
ATOM      5  N   UNL A   1      31.194  23.334  25.098  1.00  0.00    -0.353 N 
ATOM      6  C   UNL A   1      31.601  24.182  26.086  1.00  0.00     0.257 C 
ATOM      7  O   UNL A   1      31.404  23.816  27.250  1.00  0.00    -0.272 OA
ATOM      8  H   UNL A   1      30.669  22.559  25.403  1.00  0.00     0.163 HD
BRANCH   6   9
ATOM      9  C   UNL A   1      32.301  25.512  25.773  1.00  0.00     0.291 C 
ATOM     10  F   UNL A   1      33.535  25.564  26.359  1.00  0.00    -0.233 F 
BRANCH   9  11
ATOM     11  C   UNL A   1      31.455  26.782  26.120  1.00  0.00     0.128 C 
ATOM     12  C   UNL A   1      32.212  27.758  27.031  1.00  0.00     0.051 C 
BRANCH  11  13
ATOM     13  O   UNL A   1      30.274  26.324  26.794  1.00  0.00    -0.382 OA
ATOM     14  H   UNL A   1      29.855  27.069  27.254  1.00  0.00     0.212 HD
ENDBRANCH  11  13
BRANCH  11  15
ATOM     15  C   UNL A   1      31.014  27.620  24.896  1.00  0.00     0.005 A 
ATOM     16  C   UNL A   1      31.651  28.849  24.614  1.00  0.00     0.010 A 
ATOM     17  C   UNL A   1      29.885  27.297  24.099  1.00  0.00     0.048 A 
ATOM     18  C   UNL A   1      31.199  29.705  23.605  1.00  0.00     0.021 A 
ATOM     19  C   UNL A   1      29.443  28.152  23.080  1.00  0.00     0.041 A 
ATOM     20  Cl  UNL A   1      28.894  25.891  24.336  1.00  0.00    -0.084 Cl
ATOM     21  C   UNL A   1      30.096  29.353  22.843  1.00  0.00     0.042 A 
ATOM     22  Cl  UNL A   1      29.519  30.419  21.624  1.00  0.00    -0.084 Cl
ENDBRANCH  11  15
ENDBRANCH   9  11
ENDBRANCH   6   9
ENDBRANCH   4   5
ENDBRANCH   3   4
ENDBRANCH   2   3
ENDBRANCH   1   2
BRANCH   1  23
ATOM     23  C   UNL A   1      35.879  22.202  24.264  1.00  0.00     0.021 C 
BRANCH  23  24
ATOM     24  C   UNL A   1      36.354  21.943  25.691  1.00  0.00     0.116 C 
BRANCH  24  25
ATOM     25  N   UNL A   1      37.313  20.852  25.748  1.00  0.00    -0.352 N 
ATOM     26  C   UNL A   1      38.673  20.908  25.905  1.00  0.00     0.251 C 
ATOM     27  H   UNL A   1      36.933  19.948  25.661  1.00  0.00     0.163 HD
ATOM     28  O   UNL A   1      39.360  19.914  25.668  1.00  0.00    -0.269 OA
BRANCH  26  29
ATOM     29  C   UNL A   1      39.306  22.168  26.345  1.00  0.00     0.039 A 
ATOM     30  C   UNL A   1      40.351  22.121  27.269  1.00  0.00     0.014 A 
ATOM     31  C   UNL A   1      38.863  23.395  25.841  1.00  0.00     0.014 A 
ATOM     32  C   UNL A   1      40.993  23.303  27.645  1.00  0.00     0.010 A 
ATOM     33  C   UNL A   1      39.552  24.562  26.160  1.00  0.00     0.010 A 
ATOM     34  C   UNL A   1      40.620  24.529  27.069  1.00  0.00    -0.014 A 
BRANCH  34  35
ATOM     35  C   UNL A   1      41.331  25.790  27.408  1.00  0.00     0.031 A 
ATOM     36  C   UNL A   1      40.635  26.849  28.220  1.00  0.00     0.074 A 
ATOM     37  C   UNL A   1      42.575  26.004  26.931  1.00  0.00     0.049 A 
ATOM     38  N   UNL A   1      41.052  28.044  28.551  1.00  0.00    -0.248 NA
ATOM     39  C   UNL A   1      39.280  26.533  28.700  1.00  0.00     0.031 C 
ATOM     40  C   UNL A   1      43.338  25.062  26.107  1.00  0.00     0.029 A 
ATOM     41  N   UNL A   1      43.414  27.083  27.059  1.00  0.00    -0.354 N 
ATOM     42  C   UNL A   1      40.006  28.631  29.255  1.00  0.00     0.074 A 
ATOM     43  C   UNL A   1      38.918  27.675  29.264  1.00  0.00     0.031 C 
ATOM     44  C   UNL A   1      44.538  25.595  25.827  1.00  0.00     0.029 A 
ATOM     45  C   UNL A   1      44.614  26.934  26.400  1.00  0.00     0.049 A 
ATOM     46  H   UNL A   1      43.180  27.888  27.573  1.00  0.00     0.167 HD
ATOM     47  C   UNL A   1      39.963  29.848  29.850  1.00  0.00     0.034 A 
ATOM     48  C   UNL A   1      45.649  27.788  26.258  1.00  0.00     0.034 A 
ATOM     49  C   UNL A   1      41.068  30.775  29.854  1.00  0.00     0.049 A 
ATOM     50  C   UNL A   1      45.561  29.148  26.910  1.00  0.00     0.074 A 
ATOM     51  C   UNL A   1      41.162  31.997  30.497  1.00  0.00     0.029 A 
ATOM     52  N   UNL A   1      42.265  30.592  29.173  1.00  0.00    -0.354 N 
ATOM     53  N   UNL A   1      44.590  29.657  27.633  1.00  0.00    -0.248 NA
ATOM     54  C   UNL A   1      46.712  30.044  26.735  1.00  0.00     0.031 C 
ATOM     55  C   UNL A   1      42.375  32.589  30.138  1.00  0.00     0.029 A 
ATOM     56  C   UNL A   1      43.082  31.699  29.346  1.00  0.00     0.049 A 
ATOM     57  H   UNL A   1      42.499  29.794  28.646  1.00  0.00     0.167 HD
ATOM     58  C   UNL A   1      45.035  30.914  28.034  1.00  0.00     0.074 A 
ATOM     59  C   UNL A   1      46.364  31.079  27.483  1.00  0.00     0.031 C 
ATOM     60  C   UNL A   1      44.407  31.848  28.792  1.00  0.00     0.034 A 
BRANCH  47  61
ATOM     61  C   UNL A   1      38.676  30.265  30.517  1.00  0.00     0.023 A 
ATOM     62  C   UNL A   1      37.670  30.966  29.831  1.00  0.00     0.031 A 
ATOM     63  C   UNL A   1      38.446  29.939  31.866  1.00  0.00     0.131 A 
ATOM     64  C   UNL A   1      36.507  31.365  30.509  1.00  0.00     0.055 A 
ATOM     65  C   UNL A   1      37.255  30.271  32.514  1.00  0.00     0.041 A 
ATOM     66  F   UNL A   1      39.380  29.290  32.581  1.00  0.00    -0.206 F 
ATOM     67  C   UNL A   1      36.281  30.997  31.837  1.00  0.00     0.022 A 
BRANCH  64  68
ATOM     68  S   UNL A   1      35.346  32.473  29.664  1.00  0.00     0.124 S 
ATOM     69  O   UNL A   1      34.390  32.765  30.728  1.00  0.00    -0.237 OA
ATOM     70  O   UNL A   1      36.205  33.579  29.255  1.00  0.00    -0.237 OA
ATOM     71  O   UNL A   1      34.822  31.653  28.573  1.00  0.00    -0.744 OA
ENDBRANCH  64  68
ENDBRANCH  47  61
BRANCH  48  72
ATOM     72  C   UNL A   1      46.851  27.412  25.456  1.00  0.00     0.023 A 
ATOM     73  C   UNL A   1      47.030  27.902  24.153  1.00  0.00     0.031 A 
ATOM     74  C   UNL A   1      47.795  26.491  25.945  1.00  0.00     0.131 A 
ATOM     75  C   UNL A   1      48.080  27.417  23.358  1.00  0.00     0.055 A 
ATOM     76  C   UNL A   1      48.879  26.064  25.174  1.00  0.00     0.041 A 
ATOM     77  F   UNL A   1      47.677  25.987  27.184  1.00  0.00    -0.206 F 
ATOM     78  C   UNL A   1      49.014  26.512  23.864  1.00  0.00     0.022 A 
BRANCH  75  79
ATOM     79  S   UNL A   1      48.124  27.883  21.605  1.00  0.00     0.124 S 
ATOM     80  O   UNL A   1      46.793  28.448  21.416  1.00  0.00    -0.237 OA
ATOM     81  O   UNL A   1      49.235  28.829  21.573  1.00  0.00    -0.237 OA
ATOM     82  O   UNL A   1      48.367  26.613  20.922  1.00  0.00    -0.744 OA
ENDBRANCH  75  79
ENDBRANCH  48  72
BRANCH  60  83
ATOM     83  C   UNL A   1      45.177  33.105  29.121  1.00  0.00     0.023 A 
ATOM     84  C   UNL A   1      45.128  34.244  28.300  1.00  0.00     0.031 A 
ATOM     85  C   UNL A   1      45.976  33.157  30.277  1.00  0.00     0.131 A 
ATOM     86  C   UNL A   1      45.907  35.367  28.617  1.00  0.00     0.055 A 
ATOM     87  C   UNL A   1      46.696  34.300  30.623  1.00  0.00     0.041 A 
ATOM     88  F   UNL A   1      46.064  32.095  31.096  1.00  0.00    -0.206 F 
ATOM     89  C   UNL A   1      46.675  35.410  29.784  1.00  0.00     0.022 A 
BRANCH  86  90
ATOM     90  S   UNL A   1      45.979  36.741  27.434  1.00  0.00     0.124 S 
ATOM     91  O   UNL A   1      46.066  36.038  26.159  1.00  0.00    -0.237 OA
ATOM     92  O   UNL A   1      44.723  37.440  27.691  1.00  0.00    -0.237 OA
ATOM     93  O   UNL A   1      47.184  37.468  27.826  1.00  0.00    -0.744 OA
ENDBRANCH  86  90
ENDBRANCH  60  83
ENDBRANCH  34  35
ENDBRANCH  26  29
ENDBRANCH  24  25
ENDBRANCH  23  24
ENDBRANCH   1  23
TORSDOF 19
ENDMDL
MODEL 3
REMARK VINA RESULT:     -11.3      3.070      8.376
REMARK SMILES C[C@@](O)(c1ccc(Cl)cc1Cl)[C@@H](F)C(=O)NCCCCCCNC(=O)c1ccc(-c2c3nc(c(-c4cc(S(=O)(=O)[O-])ccc4F)c4ccc([nH]4)c(-c4cc(S(=O)(=O)[O-])ccc4F)c4nc(c(-c5cc(S(=O)(=O)[O-])ccc5F)c5ccc2[nH]5)C=C4)C=C3)cc1
REMARK SMILES IDX 20 1 19 2 18 3 17 4 16 5 14 6 15 7 12 9 13 10 2 11 1 12 3 13
REMARK SMILES IDX 4 15 5 16 10 17 6 18 9 19 11 20 7 21 8 22 21 23 22 24 23 25
REMARK SMILES IDX 24 26 25 28 26 29 27 30 88 31 28 32 87 33 29 34 30 35 31 36
REMARK SMILES IDX 81 37 32 38 86 39 80 40 82 41 33 42 85 43 79 44 78 45 34 47
REMARK SMILES IDX 66 48 46 49 65 50 47 51 50 52 64 53 83 54 48 55 49 56 63 58
REMARK SMILES IDX 84 59 51 60 35 61 36 62 44 63 37 64 43 65 45 66 42 67 38 68
REMARK SMILES IDX 39 69 40 70 41 71 67 72 68 73 76 74 69 75 75 76 77 77 74 78
REMARK SMILES IDX 70 79 71 80 72 81 73 82 52 83 53 84 61 85 54 86 60 87 62 88
REMARK SMILES IDX 59 89 55 90 56 91 57 92 58 93
REMARK H PARENT 16 8 3 14 23 27 82 46 50 57
REMARK Flexibility Score: inf
ROOT
ATOM      1  C   UNL A   1      31.787  28.421  27.256  1.00  0.00     0.002 C 
ENDROOT
BRANCH   1   2
ATOM      2  C   UNL A   1      31.617  27.198  26.353  1.00  0.00     0.002 C 
BRANCH   2   3
ATOM      3  C   UNL A   1      31.343  27.523  24.886  1.00  0.00     0.021 C 
BRANCH   3   4
ATOM      4  C   UNL A   1      31.142  26.293  24.001  1.00  0.00     0.116 C 
BRANCH   4   5
ATOM      5  N   UNL A   1      32.080  26.315  22.895  1.00  0.00    -0.353 N 
ATOM      6  C   UNL A   1      33.319  25.753  22.786  1.00  0.00     0.257 C 
ATOM      7  O   UNL A   1      33.978  26.049  21.784  1.00  0.00    -0.272 OA
ATOM      8  H   UNL A   1      31.776  26.811  22.101  1.00  0.00     0.163 HD
BRANCH   6   9
ATOM      9  C   UNL A   1      33.885  24.826  23.871  1.00  0.00     0.291 C 
ATOM     10  F   UNL A   1      34.791  25.486  24.653  1.00  0.00    -0.233 F 
BRANCH   9  11
ATOM     11  C   UNL A   1      34.478  23.485  23.325  1.00  0.00     0.128 C 
ATOM     12  C   UNL A   1      36.007  23.426  23.453  1.00  0.00     0.051 C 
BRANCH  11  13
ATOM     13  O   UNL A   1      34.115  23.401  21.941  1.00  0.00    -0.382 OA
ATOM     14  H   UNL A   1      34.437  22.564  21.571  1.00  0.00     0.212 HD
ENDBRANCH  11  13
BRANCH  11  15
ATOM     15  C   UNL A   1      33.958  22.211  24.036  1.00  0.00     0.005 A 
ATOM     16  C   UNL A   1      34.870  21.310  24.630  1.00  0.00     0.010 A 
ATOM     17  C   UNL A   1      32.599  21.804  24.003  1.00  0.00     0.048 A 
ATOM     18  C   UNL A   1      34.462  20.083  25.159  1.00  0.00     0.021 A 
ATOM     19  C   UNL A   1      32.192  20.578  24.548  1.00  0.00     0.041 A 
ATOM     20  Cl  UNL A   1      31.329  22.705  23.236  1.00  0.00    -0.084 Cl
ATOM     21  C   UNL A   1      33.124  19.722  25.116  1.00  0.00     0.042 A 
ATOM     22  Cl  UNL A   1      32.624  18.199  25.737  1.00  0.00    -0.084 Cl
ENDBRANCH  11  15
ENDBRANCH   9  11
ENDBRANCH   6   9
ENDBRANCH   4   5
ENDBRANCH   3   4
ENDBRANCH   2   3
ENDBRANCH   1   2
BRANCH   1  23
ATOM     23  C   UNL A   1      32.232  29.697  26.536  1.00  0.00     0.021 C 
BRANCH  23  24
ATOM     24  C   UNL A   1      33.632  30.179  26.906  1.00  0.00     0.116 C 
BRANCH  24  25
ATOM     25  N   UNL A   1      33.601  31.494  27.524  1.00  0.00    -0.352 N 
ATOM     26  C   UNL A   1      34.403  32.001  28.513  1.00  0.00     0.251 C 
ATOM     27  H   UNL A   1      32.907  32.106  27.186  1.00  0.00     0.163 HD
ATOM     28  O   UNL A   1      34.075  33.032  29.101  1.00  0.00    -0.269 OA
BRANCH  26  29
ATOM     29  C   UNL A   1      35.650  31.297  28.874  1.00  0.00     0.039 A 
ATOM     30  C   UNL A   1      36.871  31.790  28.412  1.00  0.00     0.014 A 
ATOM     31  C   UNL A   1      35.607  30.149  29.671  1.00  0.00     0.014 A 
ATOM     32  C   UNL A   1      38.058  31.163  28.799  1.00  0.00     0.010 A 
ATOM     33  C   UNL A   1      36.793  29.571  30.115  1.00  0.00     0.010 A 
ATOM     34  C   UNL A   1      38.031  30.068  29.680  1.00  0.00    -0.014 A 
BRANCH  34  35
ATOM     35  C   UNL A   1      39.285  29.426  30.153  1.00  0.00     0.031 A 
ATOM     36  C   UNL A   1      40.009  29.985  31.349  1.00  0.00     0.074 A 
ATOM     37  C   UNL A   1      39.801  28.384  29.468  1.00  0.00     0.049 A 
ATOM     38  N   UNL A   1      41.153  29.620  31.867  1.00  0.00    -0.248 NA
ATOM     39  C   UNL A   1      39.376  31.121  32.036  1.00  0.00     0.031 C 
ATOM     40  C   UNL A   1      39.204  27.777  28.276  1.00  0.00     0.029 A 
ATOM     41  N   UNL A   1      40.949  27.658  29.667  1.00  0.00    -0.354 N 
ATOM     42  C   UNL A   1      41.389  30.494  32.923  1.00  0.00     0.074 A 
ATOM     43  C   UNL A   1      40.289  31.435  32.942  1.00  0.00     0.031 C 
ATOM     44  C   UNL A   1      39.976  26.757  27.868  1.00  0.00     0.029 A 
ATOM     45  C   UNL A   1      41.150  26.670  28.729  1.00  0.00     0.049 A 
ATOM     46  H   UNL A   1      41.571  27.827  30.410  1.00  0.00     0.167 HD
ATOM     47  C   UNL A   1      42.421  30.501  33.802  1.00  0.00     0.034 A 
ATOM     48  C   UNL A   1      42.173  25.804  28.572  1.00  0.00     0.034 A 
ATOM     49  C   UNL A   1      43.494  29.537  33.783  1.00  0.00     0.049 A 
ATOM     50  C   UNL A   1      43.322  25.853  29.552  1.00  0.00     0.074 A 
ATOM     51  C   UNL A   1      44.541  29.401  34.677  1.00  0.00     0.029 A 
ATOM     52  N   UNL A   1      43.665  28.554  32.817  1.00  0.00    -0.354 N 
ATOM     53  N   UNL A   1      43.490  26.643  30.588  1.00  0.00    -0.248 NA
ATOM     54  C   UNL A   1      44.412  24.891  29.346  1.00  0.00     0.031 C 
ATOM     55  C   UNL A   1      45.391  28.396  34.207  1.00  0.00     0.029 A 
ATOM     56  C   UNL A   1      44.827  27.839  33.070  1.00  0.00     0.049 A 
ATOM     57  H   UNL A   1      43.053  28.388  32.064  1.00  0.00     0.167 HD
ATOM     58  C   UNL A   1      44.685  26.238  31.181  1.00  0.00     0.074 A 
ATOM     59  C   UNL A   1      45.184  25.130  30.395  1.00  0.00     0.031 C 
ATOM     60  C   UNL A   1      45.311  26.734  32.278  1.00  0.00     0.034 A 
BRANCH  47  61
ATOM     61  C   UNL A   1      42.462  31.598  34.837  1.00  0.00     0.023 A 
ATOM     62  C   UNL A   1      41.567  31.640  35.919  1.00  0.00     0.031 A 
ATOM     63  C   UNL A   1      43.431  32.614  34.745  1.00  0.00     0.131 A 
ATOM     64  C   UNL A   1      41.623  32.704  36.833  1.00  0.00     0.055 A 
ATOM     65  C   UNL A   1      43.531  33.627  35.701  1.00  0.00     0.041 A 
ATOM     66  F   UNL A   1      44.299  32.640  33.721  1.00  0.00    -0.206 F 
ATOM     67  C   UNL A   1      42.617  33.682  36.747  1.00  0.00     0.022 A 
BRANCH  64  68
ATOM     68  S   UNL A   1      40.305  32.856  38.070  1.00  0.00     0.124 S 
ATOM     69  O   UNL A   1      41.001  32.463  39.292  1.00  0.00    -0.237 OA
ATOM     70  O   UNL A   1      39.938  34.264  37.969  1.00  0.00    -0.237 OA
ATOM     71  O   UNL A   1      39.290  31.911  37.608  1.00  0.00    -0.744 OA
ENDBRANCH  64  68
ENDBRANCH  47  61
BRANCH  48  72
ATOM     72  C   UNL A   1      42.187  24.828  27.442  1.00  0.00     0.023 A 
ATOM     73  C   UNL A   1      41.425  23.650  27.498  1.00  0.00     0.031 A 
ATOM     74  C   UNL A   1      43.024  25.013  26.328  1.00  0.00     0.131 A 
ATOM     75  C   UNL A   1      41.569  22.672  26.503  1.00  0.00     0.055 A 
ATOM     76  C   UNL A   1      43.112  24.068  25.303  1.00  0.00     0.041 A 
ATOM     77  F   UNL A   1      43.777  26.120  26.218  1.00  0.00    -0.206 F 
ATOM     78  C   UNL A   1      42.397  22.878  25.398  1.00  0.00     0.022 A 
BRANCH  75  79
ATOM     79  S   UNL A   1      40.763  21.065  26.746  1.00  0.00     0.124 S 
ATOM     80  O   UNL A   1      39.458  21.293  26.136  1.00  0.00    -0.237 OA
ATOM     81  O   UNL A   1      41.660  20.166  26.027  1.00  0.00    -0.237 OA
ATOM     82  O   UNL A   1      40.755  20.905  28.199  1.00  0.00    -0.744 OA
ENDBRANCH  75  79
ENDBRANCH  48  72
BRANCH  60  83
ATOM     83  C   UNL A   1      46.574  26.037  32.727  1.00  0.00     0.023 A 
ATOM     84  C   UNL A   1      46.544  24.909  33.565  1.00  0.00     0.031 A 
ATOM     85  C   UNL A   1      47.828  26.516  32.308  1.00  0.00     0.131 A 
ATOM     86  C   UNL A   1      47.746  24.332  34.002  1.00  0.00     0.055 A 
ATOM     87  C   UNL A   1      49.017  25.897  32.691  1.00  0.00     0.041 A 
ATOM     88  F   UNL A   1      47.917  27.593  31.509  1.00  0.00    -0.206 F 
ATOM     89  C   UNL A   1      48.981  24.807  33.554  1.00  0.00     0.022 A 
BRANCH  86  90
ATOM     90  S   UNL A   1      47.678  23.009  35.240  1.00  0.00     0.124 S 
ATOM     91  O   UNL A   1      48.785  22.153  34.830  1.00  0.00    -0.237 OA
ATOM     92  O   UNL A   1      47.867  23.740  36.489  1.00  0.00    -0.237 OA
ATOM     93  O   UNL A   1      46.348  22.433  35.055  1.00  0.00    -0.744 OA
ENDBRANCH  86  90
ENDBRANCH  60  83
ENDBRANCH  34  35
ENDBRANCH  26  29
ENDBRANCH  24  25
ENDBRANCH  23  24
ENDBRANCH   1  23
TORSDOF 19
ENDMDL
