MODEL 1
REMARK VINA RESULT:     -12.3      0.000      0.000
REMARK SMILES Cc1ccnc(C(=O)c2[nH]c3ccc(F)cc3c2CC(=O)NCCCCCCNC(=O)c2ccc(-c3c4nc(c(-c5cc(S(=O)(=O)[O-])ccc5F)c5ccc([nH]5)c(-c5cc(S(=O)(=O)[O-])ccc5F)c5nc(c(-c6cc(S(=O)(=O)[O-])ccc6F)c6ccc3[nH]6)C=C5)C=C4)cc2)c1
REMARK SMILES IDX 25 1 24 2 23 3 22 4 20 5 21 6 19 8 18 9 9 10 10 11 11 12
REMARK SMILES IDX 17 14 12 15 16 16 13 17 14 18 15 19 7 20 8 21 6 22 1 23 2 24
REMARK SMILES IDX 3 25 95 26 4 27 5 28 26 29 27 30 28 31 29 32 30 33 31 35
REMARK SMILES IDX 32 36 33 37 94 38 34 39 93 40 35 41 36 42 37 43 87 44 38 45
REMARK SMILES IDX 92 46 86 47 88 48 39 49 91 50 85 51 84 52 40 54 72 55 52 56
REMARK SMILES IDX 71 57 53 58 56 59 70 60 89 61 54 62 55 63 69 65 90 66 57 67
REMARK SMILES IDX 41 68 42 69 50 70 43 71 49 72 51 73 48 74 44 75 45 76 46 77
REMARK SMILES IDX 47 78 73 79 74 80 82 81 75 82 81 83 83 84 80 85 76 86 77 87
REMARK SMILES IDX 78 88 79 89 58 90 59 91 67 92 60 93 66 94 68 95 65 96 61 97
REMARK SMILES IDX 62 98 63 99 64 100
REMARK H PARENT 22 7 10 13 29 34 88 53 56 64
REMARK Flexibility Score: inf
ROOT
ATOM      1  C   UNL A   1      32.331  29.621  27.144  1.00  0.00     0.002 C 
ENDROOT
BRANCH   1   2
ATOM      2  C   UNL A   1      31.881  28.221  27.573  1.00  0.00     0.021 C 
BRANCH   2   3
ATOM      3  C   UNL A   1      31.887  27.137  26.487  1.00  0.00     0.116 C 
BRANCH   3   4
ATOM      4  N   UNL A   1      31.246  25.894  26.871  1.00  0.00    -0.356 N 
ATOM      5  C   UNL A   1      31.625  24.598  26.692  1.00  0.00     0.224 C 
ATOM      6  O   UNL A   1      30.948  23.732  27.258  1.00  0.00    -0.275 OA
ATOM      7  H   UNL A   1      30.390  26.007  27.344  1.00  0.00     0.163 HD
BRANCH   5   8
ATOM      8  C   UNL A   1      32.853  24.202  25.895  1.00  0.00     0.138 C 
BRANCH   8   9
ATOM      9  C   UNL A   1      32.620  23.650  24.517  1.00  0.00    -0.002 A 
ATOM     10  C   UNL A   1      32.429  24.323  23.307  1.00  0.00     0.093 A 
ATOM     11  N   UNL A   1      32.126  23.356  22.365  1.00  0.00    -0.352 N 
ATOM     12  C   UNL A   1      32.216  22.092  22.884  1.00  0.00     0.046 A 
ATOM     13  H   UNL A   1      31.875  23.554  21.433  1.00  0.00     0.167 HD
ATOM     14  C   UNL A   1      32.450  22.238  24.247  1.00  0.00     0.007 A 
ATOM     15  C   UNL A   1      32.086  20.844  22.259  1.00  0.00     0.030 A 
ATOM     16  C   UNL A   1      32.501  21.070  25.040  1.00  0.00     0.049 A 
ATOM     17  C   UNL A   1      32.208  19.703  23.057  1.00  0.00     0.041 A 
ATOM     18  C   UNL A   1      32.404  19.823  24.424  1.00  0.00     0.123 A 
ATOM     19  F   UNL A   1      32.520  18.718  25.173  1.00  0.00    -0.207 F 
BRANCH  10  20
ATOM     20  C   UNL A   1      32.365  25.729  22.904  1.00  0.00     0.227 C 
ATOM     21  O   UNL A   1      33.399  26.292  22.540  1.00  0.00    -0.285 OA
BRANCH  20  22
ATOM     22  C   UNL A   1      31.115  26.561  23.039  1.00  0.00     0.113 A 
ATOM     23  C   UNL A   1      29.605  29.917  22.064  1.00  0.00     0.044 C 
ATOM     24  C   UNL A   1      29.785  28.528  22.603  1.00  0.00    -0.047 A 
ATOM     25  C   UNL A   1      28.739  27.925  23.295  1.00  0.00     0.023 A 
ATOM     26  C   UNL A   1      30.969  27.800  22.423  1.00  0.00     0.036 A 
ATOM     27  C   UNL A   1      28.937  26.662  23.821  1.00  0.00     0.112 A 
ATOM     28  N   UNL A   1      30.096  25.977  23.722  1.00  0.00    -0.253 NA
ENDBRANCH  20  22
ENDBRANCH  10  20
ENDBRANCH   8   9
ENDBRANCH   5   8
ENDBRANCH   3   4
ENDBRANCH   2   3
ENDBRANCH   1   2
BRANCH   1  29
ATOM     29  C   UNL A   1      31.411  30.330  26.155  1.00  0.00     0.002 C 
BRANCH  29  30
ATOM     30  C   UNL A   1      31.334  31.840  26.365  1.00  0.00     0.021 C 
BRANCH  30  31
ATOM     31  C   UNL A   1      32.656  32.470  26.782  1.00  0.00     0.116 C 
BRANCH  31  32
ATOM     32  N   UNL A   1      32.478  33.827  27.272  1.00  0.00    -0.352 N 
ATOM     33  C   UNL A   1      33.113  34.442  28.325  1.00  0.00     0.251 C 
ATOM     34  H   UNL A   1      31.818  34.376  26.788  1.00  0.00     0.163 HD
ATOM     35  O   UNL A   1      32.703  35.512  28.751  1.00  0.00    -0.269 OA
BRANCH  33  36
ATOM     36  C   UNL A   1      34.277  33.772  28.941  1.00  0.00     0.039 A 
ATOM     37  C   UNL A   1      35.551  34.308  28.748  1.00  0.00     0.014 A 
ATOM     38  C   UNL A   1      34.099  32.631  29.729  1.00  0.00     0.014 A 
ATOM     39  C   UNL A   1      36.646  33.720  29.383  1.00  0.00     0.010 A 
ATOM     40  C   UNL A   1      35.177  32.100  30.428  1.00  0.00     0.010 A 
ATOM     41  C   UNL A   1      36.465  32.627  30.247  1.00  0.00    -0.014 A 
BRANCH  41  42
ATOM     42  C   UNL A   1      37.620  31.995  30.935  1.00  0.00     0.031 A 
ATOM     43  C   UNL A   1      38.455  30.976  30.206  1.00  0.00     0.074 A 
ATOM     44  C   UNL A   1      37.889  32.302  32.220  1.00  0.00     0.049 A 
ATOM     45  N   UNL A   1      39.470  30.272  30.638  1.00  0.00    -0.248 NA
ATOM     46  C   UNL A   1      38.077  30.688  28.814  1.00  0.00     0.031 C 
ATOM     47  C   UNL A   1      37.125  33.244  33.040  1.00  0.00     0.029 A 
ATOM     48  N   UNL A   1      38.877  31.856  33.061  1.00  0.00    -0.354 N 
ATOM     49  C   UNL A   1      39.841  29.453  29.578  1.00  0.00     0.074 A 
ATOM     50  C   UNL A   1      38.895  29.694  28.511  1.00  0.00     0.031 C 
ATOM     51  C   UNL A   1      37.693  33.329  34.254  1.00  0.00     0.029 A 
ATOM     52  C   UNL A   1      38.830  32.416  34.316  1.00  0.00     0.049 A 
ATOM     53  H   UNL A   1      39.556  31.195  32.790  1.00  0.00     0.167 HD
ATOM     54  C   UNL A   1      40.894  28.601  29.491  1.00  0.00     0.034 A 
ATOM     55  C   UNL A   1      39.610  32.210  35.396  1.00  0.00     0.034 A 
ATOM     56  C   UNL A   1      41.832  28.382  30.564  1.00  0.00     0.049 A 
ATOM     57  C   UNL A   1      40.758  31.237  35.285  1.00  0.00     0.074 A 
ATOM     58  C   UNL A   1      42.957  27.576  30.574  1.00  0.00     0.029 A 
ATOM     59  N   UNL A   1      41.752  28.966  31.823  1.00  0.00    -0.354 N 
ATOM     60  N   UNL A   1      41.126  30.503  34.259  1.00  0.00    -0.248 NA
ATOM     61  C   UNL A   1      41.605  31.080  36.473  1.00  0.00     0.031 C 
ATOM     62  C   UNL A   1      43.511  27.612  31.858  1.00  0.00     0.029 A 
ATOM     63  C   UNL A   1      42.789  28.514  32.625  1.00  0.00     0.049 A 
ATOM     64  H   UNL A   1      41.060  29.607  32.104  1.00  0.00     0.167 HD
ATOM     65  C   UNL A   1      42.274  29.829  34.668  1.00  0.00     0.074 A 
ATOM     66  C   UNL A   1      42.541  30.255  36.027  1.00  0.00     0.031 C 
ATOM     67  C   UNL A   1      43.041  28.942  33.982  1.00  0.00     0.034 A 
BRANCH  54  68
ATOM     68  C   UNL A   1      41.056  27.829  28.201  1.00  0.00     0.023 A 
ATOM     69  C   UNL A   1      40.628  26.494  28.078  1.00  0.00     0.031 A 
ATOM     70  C   UNL A   1      41.684  28.420  27.090  1.00  0.00     0.131 A 
ATOM     71  C   UNL A   1      40.910  25.771  26.910  1.00  0.00     0.055 A 
ATOM     72  C   UNL A   1      41.877  27.723  25.895  1.00  0.00     0.041 A 
ATOM     73  F   UNL A   1      42.138  29.681  27.152  1.00  0.00    -0.206 F 
ATOM     74  C   UNL A   1      41.507  26.385  25.806  1.00  0.00     0.022 A 
BRANCH  71  75
ATOM     75  S   UNL A   1      40.641  23.976  26.916  1.00  0.00     0.124 S 
ATOM     76  O   UNL A   1      39.244  23.888  26.499  1.00  0.00    -0.237 OA
ATOM     77  O   UNL A   1      41.627  23.506  25.950  1.00  0.00    -0.237 OA
ATOM     78  O   UNL A   1      40.895  23.597  28.304  1.00  0.00    -0.744 OA
ENDBRANCH  71  75
ENDBRANCH  54  68
BRANCH  55  79
ATOM     79  C   UNL A   1      39.339  32.929  36.674  1.00  0.00     0.023 A 
ATOM     80  C   UNL A   1      38.534  32.357  37.672  1.00  0.00     0.031 A 
ATOM     81  C   UNL A   1      39.845  34.222  36.899  1.00  0.00     0.131 A 
ATOM     82  C   UNL A   1      38.215  33.094  38.824  1.00  0.00     0.055 A 
ATOM     83  C   UNL A   1      39.573  34.928  38.073  1.00  0.00     0.041 A 
ATOM     84  F   UNL A   1      40.624  34.815  35.980  1.00  0.00    -0.206 F 
ATOM     85  C   UNL A   1      38.741  34.370  39.037  1.00  0.00     0.022 A 
BRANCH  82  86
ATOM     86  S   UNL A   1      37.021  32.397  39.999  1.00  0.00     0.124 S 
ATOM     87  O   UNL A   1      35.780  32.469  39.239  1.00  0.00    -0.237 OA
ATOM     88  O   UNL A   1      37.562  31.060  40.221  1.00  0.00    -0.237 OA
ATOM     89  O   UNL A   1      37.107  33.299  41.145  1.00  0.00    -0.744 OA
ENDBRANCH  82  86
ENDBRANCH  55  79
BRANCH  67  90
ATOM     90  C   UNL A   1      44.280  28.424  34.675  1.00  0.00     0.023 A 
ATOM     91  C   UNL A   1      44.264  27.258  35.459  1.00  0.00     0.031 A 
ATOM     92  C   UNL A   1      45.494  29.128  34.565  1.00  0.00     0.131 A 
ATOM     93  C   UNL A   1      45.418  26.869  36.158  1.00  0.00     0.055 A 
ATOM     94  C   UNL A   1      46.657  28.695  35.203  1.00  0.00     0.041 A 
ATOM     95  F   UNL A   1      45.570  30.252  33.833  1.00  0.00    -0.206 F 
ATOM     96  C   UNL A   1      46.618  27.569  36.020  1.00  0.00     0.022 A 
BRANCH  93  97
ATOM     97  S   UNL A   1      45.294  25.508  37.351  1.00  0.00     0.124 S 
ATOM     98  O   UNL A   1      45.329  26.216  38.626  1.00  0.00    -0.237 OA
ATOM     99  O   UNL A   1      44.017  24.897  36.996  1.00  0.00    -0.237 OA
ATOM    100  O   UNL A   1      46.472  24.691  37.062  1.00  0.00    -0.744 OA
ENDBRANCH  93  97
ENDBRANCH  67  90
ENDBRANCH  41  42
ENDBRANCH  33  36
ENDBRANCH  31  32
ENDBRANCH  30  31
ENDBRANCH  29  30
ENDBRANCH   1  29
TORSDOF 19
ENDMDL
MODEL 2
REMARK VINA RESULT:     -12.2      6.064     11.332
REMARK SMILES Cc1ccnc(C(=O)c2[nH]c3ccc(F)cc3c2CC(=O)NCCCCCCNC(=O)c2ccc(-c3c4nc(c(-c5cc(S(=O)(=O)[O-])ccc5F)c5ccc([nH]5)c(-c5cc(S(=O)(=O)[O-])ccc5F)c5nc(c(-c6cc(S(=O)(=O)[O-])ccc6F)c6ccc3[nH]6)C=C5)C=C4)cc2)c1
REMARK SMILES IDX 25 1 24 2 23 3 22 4 20 5 21 6 19 8 18 9 9 10 10 11 11 12
REMARK SMILES IDX 17 14 12 15 16 16 13 17 14 18 15 19 7 20 8 21 6 22 1 23 2 24
REMARK SMILES IDX 3 25 95 26 4 27 5 28 26 29 27 30 28 31 29 32 30 33 31 35
REMARK SMILES IDX 32 36 33 37 94 38 34 39 93 40 35 41 36 42 37 43 87 44 38 45
REMARK SMILES IDX 92 46 86 47 88 48 39 49 91 50 85 51 84 52 40 54 72 55 52 56
REMARK SMILES IDX 71 57 53 58 56 59 70 60 89 61 54 62 55 63 69 65 90 66 57 67
REMARK SMILES IDX 41 68 42 69 50 70 43 71 49 72 51 73 48 74 44 75 45 76 46 77
REMARK SMILES IDX 47 78 73 79 74 80 82 81 75 82 81 83 83 84 80 85 76 86 77 87
REMARK SMILES IDX 78 88 79 89 58 90 59 91 67 92 60 93 66 94 68 95 65 96 61 97
REMARK SMILES IDX 62 98 63 99 64 100
REMARK H PARENT 22 7 10 13 29 34 88 53 56 64
REMARK Flexibility Score: inf
ROOT
ATOM      1  C   UNL A   1      36.910  21.808  25.096  1.00  0.00     0.002 C 
ENDROOT
BRANCH   1   2
ATOM      2  C   UNL A   1      36.283  22.527  23.898  1.00  0.00     0.021 C 
BRANCH   2   3
ATOM      3  C   UNL A   1      35.380  23.726  24.215  1.00  0.00     0.116 C 
BRANCH   3   4
ATOM      4  N   UNL A   1      34.720  24.306  23.062  1.00  0.00    -0.356 N 
ATOM      5  C   UNL A   1      33.876  25.371  22.954  1.00  0.00     0.224 C 
ATOM      6  O   UNL A   1      33.576  25.735  21.811  1.00  0.00    -0.275 OA
ATOM      7  H   UNL A   1      34.916  23.854  22.210  1.00  0.00     0.163 HD
BRANCH   5   8
ATOM      8  C   UNL A   1      33.361  26.139  24.156  1.00  0.00     0.138 C 
BRANCH   8   9
ATOM      9  C   UNL A   1      31.881  26.096  24.407  1.00  0.00    -0.002 A 
ATOM     10  C   UNL A   1      31.135  25.215  25.195  1.00  0.00     0.093 A 
ATOM     11  N   UNL A   1      29.804  25.527  24.977  1.00  0.00    -0.352 N 
ATOM     12  C   UNL A   1      29.662  26.628  24.174  1.00  0.00     0.046 A 
ATOM     13  H   UNL A   1      29.050  25.018  25.355  1.00  0.00     0.167 HD
ATOM     14  C   UNL A   1      30.937  26.966  23.737  1.00  0.00     0.007 A 
ATOM     15  C   UNL A   1      28.509  27.326  23.789  1.00  0.00     0.030 A 
ATOM     16  C   UNL A   1      31.061  28.031  22.815  1.00  0.00     0.049 A 
ATOM     17  C   UNL A   1      28.669  28.417  22.930  1.00  0.00     0.041 A 
ATOM     18  C   UNL A   1      29.926  28.752  22.449  1.00  0.00     0.123 A 
ATOM     19  F   UNL A   1      30.059  29.801  21.628  1.00  0.00    -0.207 F 
BRANCH  10  20
ATOM     20  C   UNL A   1      31.448  24.053  26.027  1.00  0.00     0.227 C 
ATOM     21  O   UNL A   1      31.349  24.153  27.251  1.00  0.00    -0.285 OA
BRANCH  20  22
ATOM     22  C   UNL A   1      32.014  22.774  25.465  1.00  0.00     0.113 A 
ATOM     23  C   UNL A   1      32.149  20.669  22.296  1.00  0.00     0.044 C 
ATOM     24  C   UNL A   1      32.388  21.188  23.684  1.00  0.00    -0.047 A 
ATOM     25  C   UNL A   1      33.188  20.457  24.556  1.00  0.00     0.023 A 
ATOM     26  C   UNL A   1      31.847  22.400  24.136  1.00  0.00     0.036 A 
ATOM     27  C   UNL A   1      33.363  20.929  25.844  1.00  0.00     0.112 A 
ATOM     28  N   UNL A   1      32.789  22.054  26.320  1.00  0.00    -0.253 NA
ENDBRANCH  20  22
ENDBRANCH  10  20
ENDBRANCH   8   9
ENDBRANCH   5   8
ENDBRANCH   3   4
ENDBRANCH   2   3
ENDBRANCH   1   2
BRANCH   1  29
ATOM     29  C   UNL A   1      36.876  20.284  25.037  1.00  0.00     0.002 C 
BRANCH  29  30
ATOM     30  C   UNL A   1      38.250  19.648  24.847  1.00  0.00     0.021 C 
BRANCH  30  31
ATOM     31  C   UNL A   1      39.321  20.208  25.774  1.00  0.00     0.116 C 
BRANCH  31  32
ATOM     32  N   UNL A   1      40.402  19.261  25.986  1.00  0.00    -0.352 N 
ATOM     33  C   UNL A   1      41.737  19.524  26.186  1.00  0.00     0.251 C 
ATOM     34  H   UNL A   1      40.147  18.310  25.987  1.00  0.00     0.163 HD
ATOM     35  O   UNL A   1      42.557  18.619  26.133  1.00  0.00    -0.269 OA
BRANCH  33  36
ATOM     36  C   UNL A   1      42.156  20.919  26.435  1.00  0.00     0.039 A 
ATOM     37  C   UNL A   1      42.465  21.313  27.738  1.00  0.00     0.014 A 
ATOM     38  C   UNL A   1      42.266  21.824  25.376  1.00  0.00     0.014 A 
ATOM     39  C   UNL A   1      42.928  22.608  27.971  1.00  0.00     0.010 A 
ATOM     40  C   UNL A   1      42.807  23.085  25.598  1.00  0.00     0.010 A 
ATOM     41  C   UNL A   1      43.125  23.497  26.901  1.00  0.00    -0.014 A 
BRANCH  41  42
ATOM     42  C   UNL A   1      43.623  24.878  27.133  1.00  0.00     0.031 A 
ATOM     43  C   UNL A   1      42.694  25.918  27.701  1.00  0.00     0.074 A 
ATOM     44  C   UNL A   1      44.886  25.204  26.796  1.00  0.00     0.049 A 
ATOM     45  N   UNL A   1      42.912  27.188  27.930  1.00  0.00    -0.248 NA
ATOM     46  C   UNL A   1      41.327  25.479  28.020  1.00  0.00     0.031 C 
ATOM     47  C   UNL A   1      45.864  24.290  26.202  1.00  0.00     0.029 A 
ATOM     48  N   UNL A   1      45.565  26.391  26.903  1.00  0.00    -0.354 N 
ATOM     49  C   UNL A   1      41.711  27.698  28.410  1.00  0.00     0.074 A 
ATOM     50  C   UNL A   1      40.749  26.618  28.363  1.00  0.00     0.031 C 
ATOM     51  C   UNL A   1      47.025  24.941  26.029  1.00  0.00     0.029 A 
ATOM     52  C   UNL A   1      46.864  26.328  26.454  1.00  0.00     0.049 A 
ATOM     53  H   UNL A   1      45.160  27.212  27.268  1.00  0.00     0.167 HD
ATOM     54  C   UNL A   1      41.442  28.944  28.875  1.00  0.00     0.034 A 
ATOM     55  C   UNL A   1      47.813  27.283  26.384  1.00  0.00     0.034 A 
ATOM     56  C   UNL A   1      42.418  30.005  28.921  1.00  0.00     0.049 A 
ATOM     57  C   UNL A   1      47.483  28.670  26.882  1.00  0.00     0.074 A 
ATOM     58  C   UNL A   1      42.271  31.291  29.409  1.00  0.00     0.029 A 
ATOM     59  N   UNL A   1      43.724  29.906  28.456  1.00  0.00    -0.354 N 
ATOM     60  N   UNL A   1      46.355  29.126  27.377  1.00  0.00    -0.248 NA
ATOM     61  C   UNL A   1      48.562  29.663  26.827  1.00  0.00     0.031 C 
ATOM     62  C   UNL A   1      43.457  31.990  29.169  1.00  0.00     0.029 A 
ATOM     63  C   UNL A   1      44.381  31.116  28.617  1.00  0.00     0.049 A 
ATOM     64  H   UNL A   1      44.124  29.094  28.068  1.00  0.00     0.167 HD
ATOM     65  C   UNL A   1      46.603  30.449  27.731  1.00  0.00     0.074 A 
ATOM     66  C   UNL A   1      47.991  30.710  27.404  1.00  0.00     0.031 C 
ATOM     67  C   UNL A   1      45.764  31.365  28.281  1.00  0.00     0.034 A 
BRANCH  54  68
ATOM     68  C   UNL A   1      40.030  29.221  29.338  1.00  0.00     0.023 A 
ATOM     69  C   UNL A   1      39.685  29.226  30.702  1.00  0.00     0.031 A 
ATOM     70  C   UNL A   1      39.003  29.446  28.404  1.00  0.00     0.131 A 
ATOM     71  C   UNL A   1      38.343  29.361  31.088  1.00  0.00     0.055 A 
ATOM     72  C   UNL A   1      37.683  29.674  28.799  1.00  0.00     0.041 A 
ATOM     73  F   UNL A   1      39.262  29.428  27.087  1.00  0.00    -0.206 F 
ATOM     74  C   UNL A   1      37.343  29.614  30.146  1.00  0.00     0.022 A 
BRANCH  71  75
ATOM     75  S   UNL A   1      37.902  29.032  32.817  1.00  0.00     0.124 S 
ATOM     76  O   UNL A   1      36.612  29.709  32.923  1.00  0.00    -0.237 OA
ATOM     77  O   UNL A   1      37.866  27.575  32.861  1.00  0.00    -0.237 OA
ATOM     78  O   UNL A   1      38.987  29.655  33.572  1.00  0.00    -0.744 OA
ENDBRANCH  71  75
ENDBRANCH  54  68
BRANCH  55  79
ATOM     79  C   UNL A   1      49.160  26.973  25.824  1.00  0.00     0.023 A 
ATOM     80  C   UNL A   1      49.549  27.452  24.563  1.00  0.00     0.031 A 
ATOM     81  C   UNL A   1      50.064  26.154  26.524  1.00  0.00     0.131 A 
ATOM     82  C   UNL A   1      50.784  27.065  24.017  1.00  0.00     0.055 A 
ATOM     83  C   UNL A   1      51.316  25.821  26.002  1.00  0.00     0.041 A 
ATOM     84  F   UNL A   1      49.746  25.673  27.737  1.00  0.00    -0.206 F 
ATOM     85  C   UNL A   1      51.675  26.265  24.735  1.00  0.00     0.022 A 
BRANCH  82  86
ATOM     86  S   UNL A   1      51.168  27.547  22.311  1.00  0.00     0.124 S 
ATOM     87  O   UNL A   1      52.611  27.352  22.265  1.00  0.00    -0.237 OA
ATOM     88  O   UNL A   1      50.367  26.600  21.541  1.00  0.00    -0.237 OA
ATOM     89  O   UNL A   1      50.721  28.937  22.242  1.00  0.00    -0.744 OA
ENDBRANCH  82  86
ENDBRANCH  55  79
BRANCH  67  90
ATOM     90  C   UNL A   1      46.349  32.716  28.621  1.00  0.00     0.023 A 
ATOM     91  C   UNL A   1      46.381  33.771  27.692  1.00  0.00     0.031 A 
ATOM     92  C   UNL A   1      46.904  32.943  29.894  1.00  0.00     0.131 A 
ATOM     93  C   UNL A   1      47.018  34.977  28.025  1.00  0.00     0.055 A 
ATOM     94  C   UNL A   1      47.471  34.169  30.244  1.00  0.00     0.041 A 
ATOM     95  F   UNL A   1      46.906  31.971  30.822  1.00  0.00    -0.206 F 
ATOM     96  C   UNL A   1      47.546  35.189  29.301  1.00  0.00     0.022 A 
BRANCH  93  97
ATOM     97  S   UNL A   1      47.260  36.219  26.725  1.00  0.00     0.124 S 
ATOM     98  O   UNL A   1      48.181  37.153  27.365  1.00  0.00    -0.237 OA
ATOM     99  O   UNL A   1      47.813  35.425  25.633  1.00  0.00    -0.237 OA
ATOM    100  O   UNL A   1      45.912  36.738  26.493  1.00  0.00    -0.744 OA
ENDBRANCH  93  97
ENDBRANCH  67  90
ENDBRANCH  41  42
ENDBRANCH  33  36
ENDBRANCH  31  32
ENDBRANCH  30  31
ENDBRANCH  29  30
ENDBRANCH   1  29
TORSDOF 19
ENDMDL
MODEL 3
REMARK VINA RESULT:     -12.2      2.907      8.505
REMARK SMILES Cc1ccnc(C(=O)c2[nH]c3ccc(F)cc3c2CC(=O)NCCCCCCNC(=O)c2ccc(-c3c4nc(c(-c5cc(S(=O)(=O)[O-])ccc5F)c5ccc([nH]5)c(-c5cc(S(=O)(=O)[O-])ccc5F)c5nc(c(-c6cc(S(=O)(=O)[O-])ccc6F)c6ccc3[nH]6)C=C5)C=C4)cc2)c1
REMARK SMILES IDX 25 1 24 2 23 3 22 4 20 5 21 6 19 8 18 9 9 10 10 11 11 12
REMARK SMILES IDX 17 14 12 15 16 16 13 17 14 18 15 19 7 20 8 21 6 22 1 23 2 24
REMARK SMILES IDX 3 25 95 26 4 27 5 28 26 29 27 30 28 31 29 32 30 33 31 35
REMARK SMILES IDX 32 36 33 37 94 38 34 39 93 40 35 41 36 42 37 43 87 44 38 45
REMARK SMILES IDX 92 46 86 47 88 48 39 49 91 50 85 51 84 52 40 54 72 55 52 56
REMARK SMILES IDX 71 57 53 58 56 59 70 60 89 61 54 62 55 63 69 65 90 66 57 67
REMARK SMILES IDX 41 68 42 69 50 70 43 71 49 72 51 73 48 74 44 75 45 76 46 77
REMARK SMILES IDX 47 78 73 79 74 80 82 81 75 82 81 83 83 84 80 85 76 86 77 87
REMARK SMILES IDX 78 88 79 89 58 90 59 91 67 92 60 93 66 94 68 95 65 96 61 97
REMARK SMILES IDX 62 98 63 99 64 100
REMARK H PARENT 22 7 10 13 29 34 88 53 56 64
REMARK Flexibility Score: inf
ROOT
ATOM      1  C   UNL A   1      32.337  25.785  26.503  1.00  0.00     0.002 C 
ENDROOT
BRANCH   1   2
ATOM      2  C   UNL A   1      30.885  26.262  26.406  1.00  0.00     0.021 C 
BRANCH   2   3
ATOM      3  C   UNL A   1      29.829  25.187  26.116  1.00  0.00     0.116 C 
BRANCH   3   4
ATOM      4  N   UNL A   1      30.369  23.911  25.688  1.00  0.00    -0.356 N 
ATOM      5  C   UNL A   1      30.712  23.453  24.451  1.00  0.00     0.224 C 
ATOM      6  O   UNL A   1      31.292  22.362  24.399  1.00  0.00    -0.275 OA
ATOM      7  H   UNL A   1      30.513  23.265  26.416  1.00  0.00     0.163 HD
BRANCH   5   8
ATOM      8  C   UNL A   1      30.470  24.247  23.182  1.00  0.00     0.138 C 
BRANCH   8   9
ATOM      9  C   UNL A   1      31.478  25.306  22.840  1.00  0.00    -0.002 A 
ATOM     10  C   UNL A   1      32.817  25.176  22.464  1.00  0.00     0.093 A 
ATOM     11  N   UNL A   1      33.331  26.459  22.394  1.00  0.00    -0.352 N 
ATOM     12  C   UNL A   1      32.365  27.407  22.601  1.00  0.00     0.046 A 
ATOM     13  H   UNL A   1      34.278  26.665  22.215  1.00  0.00     0.167 HD
ATOM     14  C   UNL A   1      31.208  26.724  22.958  1.00  0.00     0.007 A 
ATOM     15  C   UNL A   1      32.436  28.806  22.523  1.00  0.00     0.030 A 
ATOM     16  C   UNL A   1      30.071  27.486  23.312  1.00  0.00     0.049 A 
ATOM     17  C   UNL A   1      31.277  29.530  22.813  1.00  0.00     0.041 A 
ATOM     18  C   UNL A   1      30.121  28.875  23.208  1.00  0.00     0.123 A 
ATOM     19  F   UNL A   1      29.020  29.586  23.481  1.00  0.00    -0.207 F 
BRANCH  10  20
ATOM     20  C   UNL A   1      33.733  24.050  22.274  1.00  0.00     0.227 C 
ATOM     21  O   UNL A   1      33.645  23.378  21.246  1.00  0.00    -0.285 OA
BRANCH  20  22
ATOM     22  C   UNL A   1      34.696  23.591  23.340  1.00  0.00     0.113 A 
ATOM     23  C   UNL A   1      34.982  22.974  27.085  1.00  0.00     0.044 C 
ATOM     24  C   UNL A   1      35.279  23.035  25.616  1.00  0.00    -0.047 A 
ATOM     25  C   UNL A   1      36.535  22.650  25.158  1.00  0.00     0.023 A 
ATOM     26  C   UNL A   1      34.328  23.453  24.674  1.00  0.00     0.036 A 
ATOM     27  C   UNL A   1      36.805  22.753  23.806  1.00  0.00     0.112 A 
ATOM     28  N   UNL A   1      35.926  23.223  22.895  1.00  0.00    -0.253 NA
ENDBRANCH  20  22
ENDBRANCH  10  20
ENDBRANCH   8   9
ENDBRANCH   5   8
ENDBRANCH   3   4
ENDBRANCH   2   3
ENDBRANCH   1   2
BRANCH   1  29
ATOM     29  C   UNL A   1      33.394  26.825  26.144  1.00  0.00     0.002 C 
BRANCH  29  30
ATOM     30  C   UNL A   1      32.951  28.263  26.402  1.00  0.00     0.021 C 
BRANCH  30  31
ATOM     31  C   UNL A   1      33.954  29.308  25.935  1.00  0.00     0.116 C 
BRANCH  31  32
ATOM     32  N   UNL A   1      33.724  30.598  26.565  1.00  0.00    -0.352 N 
ATOM     33  C   UNL A   1      34.379  31.148  27.642  1.00  0.00     0.251 C 
ATOM     34  H   UNL A   1      33.008  31.147  26.172  1.00  0.00     0.163 HD
ATOM     35  O   UNL A   1      33.932  32.143  28.192  1.00  0.00    -0.269 OA
BRANCH  33  36
ATOM     36  C   UNL A   1      35.613  30.496  28.130  1.00  0.00     0.039 A 
ATOM     37  C   UNL A   1      36.819  30.747  27.473  1.00  0.00     0.014 A 
ATOM     38  C   UNL A   1      35.575  29.663  29.252  1.00  0.00     0.014 A 
ATOM     39  C   UNL A   1      37.998  30.191  27.971  1.00  0.00     0.010 A 
ATOM     40  C   UNL A   1      36.761  29.181  29.793  1.00  0.00     0.010 A 
ATOM     41  C   UNL A   1      37.983  29.423  29.148  1.00  0.00    -0.014 A 
BRANCH  41  42
ATOM     42  C   UNL A   1      39.231  28.829  29.692  1.00  0.00     0.031 A 
ATOM     43  C   UNL A   1      39.854  29.413  30.932  1.00  0.00     0.074 A 
ATOM     44  C   UNL A   1      39.821  27.800  29.054  1.00  0.00     0.049 A 
ATOM     45  N   UNL A   1      40.964  29.079  31.539  1.00  0.00    -0.248 NA
ATOM     46  C   UNL A   1      39.152  30.548  31.552  1.00  0.00     0.031 C 
ATOM     47  C   UNL A   1      39.330  27.177  27.823  1.00  0.00     0.029 A 
ATOM     48  N   UNL A   1      40.962  27.097  29.348  1.00  0.00    -0.354 N 
ATOM     49  C   UNL A   1      41.097  29.966  32.602  1.00  0.00     0.074 A 
ATOM     50  C   UNL A   1      39.996  30.899  32.508  1.00  0.00     0.031 C 
ATOM     51  C   UNL A   1      40.146  26.164  27.487  1.00  0.00     0.029 A 
ATOM     52  C   UNL A   1      41.242  26.094  28.449  1.00  0.00     0.049 A 
ATOM     53  H   UNL A   1      41.527  27.292  30.131  1.00  0.00     0.167 HD
ATOM     54  C   UNL A   1      42.034  29.982  33.583  1.00  0.00     0.034 A 
ATOM     55  C   UNL A   1      42.270  25.224  28.401  1.00  0.00     0.034 A 
ATOM     56  C   UNL A   1      43.120  29.036  33.663  1.00  0.00     0.049 A 
ATOM     57  C   UNL A   1      43.316  25.277  29.488  1.00  0.00     0.074 A 
ATOM     58  C   UNL A   1      44.101  28.931  34.632  1.00  0.00     0.029 A 
ATOM     59  N   UNL A   1      43.373  28.035  32.733  1.00  0.00    -0.354 N 
ATOM     60  N   UNL A   1      43.403  26.093  30.515  1.00  0.00    -0.248 NA
ATOM     61  C   UNL A   1      44.391  24.281  29.418  1.00  0.00     0.031 C 
ATOM     62  C   UNL A   1      44.989  27.920  34.250  1.00  0.00     0.029 A 
ATOM     63  C   UNL A   1      44.512  27.328  33.091  1.00  0.00     0.049 A 
ATOM     64  H   UNL A   1      42.824  27.853  31.937  1.00  0.00     0.167 HD
ATOM     65  C   UNL A   1      44.521  25.679  31.235  1.00  0.00     0.074 A 
ATOM     66  C   UNL A   1      45.064  24.535  30.531  1.00  0.00     0.031 C 
ATOM     67  C   UNL A   1      45.047  26.193  32.377  1.00  0.00     0.034 A 
BRANCH  54  68
ATOM     68  C   UNL A   1      41.932  31.076  34.621  1.00  0.00     0.023 A 
ATOM     69  C   UNL A   1      40.864  31.131  35.536  1.00  0.00     0.031 A 
ATOM     70  C   UNL A   1      42.893  32.101  34.675  1.00  0.00     0.131 A 
ATOM     71  C   UNL A   1      40.735  32.229  36.400  1.00  0.00     0.055 A 
ATOM     72  C   UNL A   1      42.809  33.142  35.603  1.00  0.00     0.041 A 
ATOM     73  F   UNL A   1      43.922  32.120  33.814  1.00  0.00    -0.206 F 
ATOM     74  C   UNL A   1      41.716  33.221  36.459  1.00  0.00     0.022 A 
BRANCH  71  75
ATOM     75  S   UNL A   1      39.184  32.428  37.321  1.00  0.00     0.124 S 
ATOM     76  O   UNL A   1      39.676  32.635  38.681  1.00  0.00    -0.237 OA
ATOM     77  O   UNL A   1      38.581  33.588  36.676  1.00  0.00    -0.237 OA
ATOM     78  O   UNL A   1      38.491  31.160  37.104  1.00  0.00    -0.744 OA
ENDBRANCH  71  75
ENDBRANCH  54  68
BRANCH  55  79
ATOM     79  C   UNL A   1      42.370  24.230  27.294  1.00  0.00     0.023 A 
ATOM     80  C   UNL A   1      41.591  23.061  27.295  1.00  0.00     0.031 A 
ATOM     81  C   UNL A   1      43.280  24.412  26.237  1.00  0.00     0.131 A 
ATOM     82  C   UNL A   1      41.773  22.096  26.292  1.00  0.00     0.055 A 
ATOM     83  C   UNL A   1      43.416  23.475  25.209  1.00  0.00     0.041 A 
ATOM     84  F   UNL A   1      44.046  25.513  26.183  1.00  0.00    -0.206 F 
ATOM     85  C   UNL A   1      42.670  22.303  25.242  1.00  0.00     0.022 A 
BRANCH  82  86
ATOM     86  S   UNL A   1      40.888  20.518  26.433  1.00  0.00     0.124 S 
ATOM     87  O   UNL A   1      40.882  20.310  27.876  1.00  0.00    -0.237 OA
ATOM     88  O   UNL A   1      39.601  20.839  25.825  1.00  0.00    -0.237 OA
ATOM     89  O   UNL A   1      41.721  19.592  25.670  1.00  0.00    -0.744 OA
ENDBRANCH  82  86
ENDBRANCH  55  79
BRANCH  67  90
ATOM     90  C   UNL A   1      46.240  25.476  32.967  1.00  0.00     0.023 A 
ATOM     91  C   UNL A   1      46.096  24.412  33.875  1.00  0.00     0.031 A 
ATOM     92  C   UNL A   1      47.543  25.883  32.629  1.00  0.00     0.131 A 
ATOM     93  C   UNL A   1      47.233  23.840  34.467  1.00  0.00     0.055 A 
ATOM     94  C   UNL A   1      48.672  25.260  33.165  1.00  0.00     0.041 A 
ATOM     95  F   UNL A   1      47.743  26.896  31.771  1.00  0.00    -0.206 F 
ATOM     96  C   UNL A   1      48.520  24.244  34.103  1.00  0.00     0.022 A 
BRANCH  93  97
ATOM     97  S   UNL A   1      47.004  22.645  35.812  1.00  0.00     0.124 S 
ATOM     98  O   UNL A   1      45.564  22.710  36.034  1.00  0.00    -0.237 OA
ATOM     99  O   UNL A   1      47.503  21.408  35.220  1.00  0.00    -0.237 OA
ATOM    100  O   UNL A   1      47.824  23.188  36.895  1.00  0.00    -0.744 OA
ENDBRANCH  93  97
ENDBRANCH  67  90
ENDBRANCH  41  42
ENDBRANCH  33  36
ENDBRANCH  31  32
ENDBRANCH  30  31
ENDBRANCH  29  30
ENDBRANCH   1  29
TORSDOF 19
ENDMDL
