MODEL 1
REMARK VINA RESULT:     -11.8      0.000      0.000
REMARK SMILES O=C(Cc1ccccc1Nc1c(Cl)cccc1C(F)(F)F)NCCCCCCNC(=O)c1ccc(-c2c3nc(c(-c4cc(S(=O)(=O)[O-])ccc4F)c4ccc([nH]4)c(-c4cc(S(=O)(=O)[O-])ccc4F)c4nc(c(-c5cc(S(=O)(=O)[O-])ccc5F)c5ccc2[nH]5)C=C4)C=C3)cc1
REMARK SMILES IDX 25 1 24 2 23 3 22 4 1 5 2 6 3 8 4 9 5 10 9 11 6 12 8 13 7 14
REMARK SMILES IDX 10 15 11 17 12 18 17 19 13 20 14 21 16 22 15 23 18 24 19 25
REMARK SMILES IDX 20 26 21 27 26 28 27 29 28 30 29 31 30 32 31 34 32 35 33 36
REMARK SMILES IDX 94 37 34 38 93 39 35 40 36 41 37 42 87 43 38 44 92 45 86 46
REMARK SMILES IDX 88 47 39 48 91 49 85 50 84 51 40 53 72 54 52 55 71 56 53 57
REMARK SMILES IDX 56 58 70 59 89 60 54 61 55 62 69 64 90 65 57 66 41 67 42 68
REMARK SMILES IDX 50 69 43 70 49 71 51 72 48 73 44 74 45 75 46 76 47 77 73 78
REMARK SMILES IDX 74 79 82 80 75 81 81 82 83 83 80 84 76 85 77 86 78 87 79 88
REMARK SMILES IDX 58 89 59 90 67 91 60 92 66 93 68 94 65 95 61 96 62 97 63 98
REMARK SMILES IDX 64 99
REMARK H PARENT 22 7 10 16 29 33 88 52 56 63
REMARK Flexibility Score: inf
ROOT
ATOM      1  C   UNL A   1      35.147  23.916  23.527  1.00  0.00     0.002 C 
ENDROOT
BRANCH   1   2
ATOM      2  C   UNL A   1      33.845  23.350  22.951  1.00  0.00     0.021 C 
BRANCH   2   3
ATOM      3  C   UNL A   1      32.684  24.331  22.814  1.00  0.00     0.116 C 
BRANCH   3   4
ATOM      4  N   UNL A   1      33.053  25.713  23.043  1.00  0.00    -0.356 N 
ATOM      5  O   UNL A   1      33.324  26.229  20.828  1.00  0.00    -0.275 OA
ATOM      6  C   UNL A   1      33.310  26.579  22.004  1.00  0.00     0.224 C 
ATOM      7  H   UNL A   1      33.121  26.042  23.968  1.00  0.00     0.163 HD
BRANCH   6   8
ATOM      8  C   UNL A   1      33.538  28.013  22.411  1.00  0.00     0.137 C 
BRANCH   8   9
ATOM      9  C   UNL A   1      33.145  28.436  23.819  1.00  0.00    -0.015 A 
ATOM     10  C   UNL A   1      34.187  28.310  24.772  1.00  0.00     0.006 A 
ATOM     11  C   UNL A   1      31.914  29.007  24.228  1.00  0.00     0.042 A 
ATOM     12  C   UNL A   1      34.021  28.698  26.099  1.00  0.00     0.000 A 
ATOM     13  C   UNL A   1      31.771  29.371  25.582  1.00  0.00     0.026 A 
ATOM     14  C   UNL A   1      32.805  29.217  26.507  1.00  0.00     0.002 A 
BRANCH  11  15
ATOM     15  N   UNL A   1      30.867  29.295  23.331  1.00  0.00    -0.354 N 
ATOM     16  H   UNL A   1      31.154  29.723  22.493  1.00  0.00     0.167 HD
BRANCH  15  17
ATOM     17  C   UNL A   1      29.472  29.073  23.427  1.00  0.00     0.070 A 
ATOM     18  C   UNL A   1      28.973  27.751  23.509  1.00  0.00     0.065 A 
ATOM     19  C   UNL A   1      28.539  30.124  23.331  1.00  0.00     0.080 A 
ATOM     20  Cl  UNL A   1      30.018  26.407  23.764  1.00  0.00    -0.082 Cl
ATOM     21  C   UNL A   1      27.608  27.468  23.442  1.00  0.00     0.023 A 
ATOM     22  C   UNL A   1      27.158  29.817  23.289  1.00  0.00     0.015 A 
ATOM     23  C   UNL A   1      26.697  28.503  23.322  1.00  0.00     0.002 A 
BRANCH  19  24
ATOM     24  C   UNL A   1      28.937  31.579  23.295  1.00  0.00     0.418 C 
ATOM     25  F   UNL A   1      27.852  32.413  23.357  1.00  0.00    -0.166 F 
ATOM     26  F   UNL A   1      29.704  31.931  24.368  1.00  0.00    -0.166 F 
ATOM     27  F   UNL A   1      29.613  31.977  22.184  1.00  0.00    -0.166 F 
ENDBRANCH  19  24
ENDBRANCH  15  17
ENDBRANCH  11  15
ENDBRANCH   8   9
ENDBRANCH   6   8
ENDBRANCH   3   4
ENDBRANCH   2   3
ENDBRANCH   1   2
BRANCH   1  28
ATOM     28  C   UNL A   1      36.368  22.994  23.488  1.00  0.00     0.002 C 
BRANCH  28  29
ATOM     29  C   UNL A   1      36.249  21.691  24.284  1.00  0.00     0.021 C 
BRANCH  29  30
ATOM     30  C   UNL A   1      36.855  21.718  25.684  1.00  0.00     0.116 C 
BRANCH  30  31
ATOM     31  N   UNL A   1      37.902  20.727  25.859  1.00  0.00    -0.352 N 
ATOM     32  C   UNL A   1      39.231  20.897  26.165  1.00  0.00     0.251 C 
ATOM     33  H   UNL A   1      37.617  19.793  25.742  1.00  0.00     0.163 HD
ATOM     34  O   UNL A   1      39.984  19.929  26.113  1.00  0.00    -0.269 OA
BRANCH  32  35
ATOM     35  C   UNL A   1      39.764  22.233  26.522  1.00  0.00     0.039 A 
ATOM     36  C   UNL A   1      40.862  22.304  27.383  1.00  0.00     0.014 A 
ATOM     37  C   UNL A   1      39.182  23.411  26.043  1.00  0.00     0.014 A 
ATOM     38  C   UNL A   1      41.408  23.545  27.716  1.00  0.00     0.010 A 
ATOM     39  C   UNL A   1      39.775  24.645  26.316  1.00  0.00     0.010 A 
ATOM     40  C   UNL A   1      40.892  24.726  27.158  1.00  0.00    -0.014 A 
BRANCH  40  41
ATOM     41  C   UNL A   1      41.531  26.041  27.441  1.00  0.00     0.031 A 
ATOM     42  C   UNL A   1      40.817  27.085  28.257  1.00  0.00     0.074 A 
ATOM     43  C   UNL A   1      42.751  26.302  26.930  1.00  0.00     0.049 A 
ATOM     44  N   UNL A   1      41.225  28.276  28.618  1.00  0.00    -0.248 NA
ATOM     45  C   UNL A   1      39.454  26.759  28.698  1.00  0.00     0.031 C 
ATOM     46  C   UNL A   1      43.523  25.389  26.084  1.00  0.00     0.029 A 
ATOM     47  N   UNL A   1      43.560  27.403  27.052  1.00  0.00    -0.354 N 
ATOM     48  C   UNL A   1      40.168  28.845  29.320  1.00  0.00     0.074 A 
ATOM     49  C   UNL A   1      39.080  27.891  29.276  1.00  0.00     0.031 C 
ATOM     50  C   UNL A   1      44.713  25.946  25.806  1.00  0.00     0.029 A 
ATOM     51  C   UNL A   1      44.772  27.271  26.413  1.00  0.00     0.049 A 
ATOM     52  H   UNL A   1      43.299  28.211  27.550  1.00  0.00     0.167 HD
ATOM     53  C   UNL A   1      40.118  30.041  29.960  1.00  0.00     0.034 A 
ATOM     54  C   UNL A   1      45.816  28.119  26.328  1.00  0.00     0.034 A 
ATOM     55  C   UNL A   1      41.218  30.979  29.994  1.00  0.00     0.049 A 
ATOM     56  C   UNL A   1      45.728  29.450  27.029  1.00  0.00     0.074 A 
ATOM     57  C   UNL A   1      41.303  32.184  30.671  1.00  0.00     0.029 A 
ATOM     58  N   UNL A   1      42.419  30.827  29.311  1.00  0.00    -0.354 N 
ATOM     59  N   UNL A   1      44.750  29.943  27.754  1.00  0.00    -0.248 NA
ATOM     60  C   UNL A   1      46.894  30.333  26.906  1.00  0.00     0.031 C 
ATOM     61  C   UNL A   1      42.515  32.797  30.329  1.00  0.00     0.029 A 
ATOM     62  C   UNL A   1      43.230  31.936  29.512  1.00  0.00     0.049 A 
ATOM     63  H   UNL A   1      42.661  30.045  28.764  1.00  0.00     0.167 HD
ATOM     64  C   UNL A   1      45.197  31.185  28.197  1.00  0.00     0.074 A 
ATOM     65  C   UNL A   1      46.541  31.348  27.680  1.00  0.00     0.031 C 
ATOM     66  C   UNL A   1      44.557  32.106  28.965  1.00  0.00     0.034 A 
BRANCH  53  67
ATOM     67  C   UNL A   1      38.817  30.415  30.636  1.00  0.00     0.023 A 
ATOM     68  C   UNL A   1      37.853  31.221  30.003  1.00  0.00     0.031 A 
ATOM     69  C   UNL A   1      38.551  29.992  31.951  1.00  0.00     0.131 A 
ATOM     70  C   UNL A   1      36.719  31.649  30.711  1.00  0.00     0.055 A 
ATOM     71  C   UNL A   1      37.377  30.347  32.619  1.00  0.00     0.041 A 
ATOM     72  F   UNL A   1      39.439  29.239  32.621  1.00  0.00    -0.206 F 
ATOM     73  C   UNL A   1      36.461  31.196  32.006  1.00  0.00     0.022 A 
BRANCH  70  74
ATOM     74  S   UNL A   1      35.677  32.940  29.977  1.00  0.00     0.124 S 
ATOM     75  O   UNL A   1      34.613  32.147  29.364  1.00  0.00    -0.237 OA
ATOM     76  O   UNL A   1      35.295  33.735  31.138  1.00  0.00    -0.237 OA
ATOM     77  O   UNL A   1      36.570  33.606  29.031  1.00  0.00    -0.744 OA
ENDBRANCH  70  74
ENDBRANCH  53  67
BRANCH  54  78
ATOM     78  C   UNL A   1      47.039  27.739  25.565  1.00  0.00     0.023 A 
ATOM     79  C   UNL A   1      47.147  28.017  24.193  1.00  0.00     0.031 A 
ATOM     80  C   UNL A   1      48.102  27.059  26.185  1.00  0.00     0.131 A 
ATOM     81  C   UNL A   1      48.270  27.580  23.475  1.00  0.00     0.055 A 
ATOM     82  C   UNL A   1      49.244  26.675  25.478  1.00  0.00     0.041 A 
ATOM     83  F   UNL A   1      48.053  26.772  27.496  1.00  0.00    -0.206 F 
ATOM     84  C   UNL A   1      49.326  26.924  24.112  1.00  0.00     0.022 A 
BRANCH  81  85
ATOM     85  S   UNL A   1      48.299  27.814  21.677  1.00  0.00     0.124 S 
ATOM     86  O   UNL A   1      46.959  28.330  21.424  1.00  0.00    -0.237 OA
ATOM     87  O   UNL A   1      49.395  28.763  21.513  1.00  0.00    -0.237 OA
ATOM     88  O   UNL A   1      48.558  26.471  21.163  1.00  0.00    -0.744 OA
ENDBRANCH  81  85
ENDBRANCH  54  78
BRANCH  66  89
ATOM     89  C   UNL A   1      45.330  33.360  29.305  1.00  0.00     0.023 A 
ATOM     90  C   UNL A   1      45.342  34.475  28.448  1.00  0.00     0.031 A 
ATOM     91  C   UNL A   1      46.109  33.423  30.474  1.00  0.00     0.131 A 
ATOM     92  C   UNL A   1      46.180  35.565  28.725  1.00  0.00     0.055 A 
ATOM     93  C   UNL A   1      46.881  34.544  30.786  1.00  0.00     0.041 A 
ATOM     94  F   UNL A   1      46.143  32.390  31.331  1.00  0.00    -0.206 F 
ATOM     95  C   UNL A   1      46.936  35.614  29.900  1.00  0.00     0.022 A 
BRANCH  92  96
ATOM     96  S   UNL A   1      46.379  36.853  27.463  1.00  0.00     0.124 S 
ATOM     97  O   UNL A   1      46.650  36.063  26.266  1.00  0.00    -0.237 OA
ATOM     98  O   UNL A   1      45.087  37.529  27.501  1.00  0.00    -0.237 OA
ATOM     99  O   UNL A   1      47.508  37.642  27.952  1.00  0.00    -0.744 OA
ENDBRANCH  92  96
ENDBRANCH  66  89
ENDBRANCH  40  41
ENDBRANCH  32  35
ENDBRANCH  30  31
ENDBRANCH  29  30
ENDBRANCH  28  29
ENDBRANCH   1  28
TORSDOF 20
ENDMDL
MODEL 2
REMARK VINA RESULT:     -11.7      5.596      8.628
REMARK SMILES O=C(Cc1ccccc1Nc1c(Cl)cccc1C(F)(F)F)NCCCCCCNC(=O)c1ccc(-c2c3nc(c(-c4cc(S(=O)(=O)[O-])ccc4F)c4ccc([nH]4)c(-c4cc(S(=O)(=O)[O-])ccc4F)c4nc(c(-c5cc(S(=O)(=O)[O-])ccc5F)c5ccc2[nH]5)C=C4)C=C3)cc1
REMARK SMILES IDX 25 1 24 2 23 3 22 4 1 5 2 6 3 8 4 9 5 10 9 11 6 12 8 13 7 14
REMARK SMILES IDX 10 15 11 17 12 18 17 19 13 20 14 21 16 22 15 23 18 24 19 25
REMARK SMILES IDX 20 26 21 27 26 28 27 29 28 30 29 31 30 32 31 34 32 35 33 36
REMARK SMILES IDX 94 37 34 38 93 39 35 40 36 41 37 42 87 43 38 44 92 45 86 46
REMARK SMILES IDX 88 47 39 48 91 49 85 50 84 51 40 53 72 54 52 55 71 56 53 57
REMARK SMILES IDX 56 58 70 59 89 60 54 61 55 62 69 64 90 65 57 66 41 67 42 68
REMARK SMILES IDX 50 69 43 70 49 71 51 72 48 73 44 74 45 75 46 76 47 77 73 78
REMARK SMILES IDX 74 79 82 80 75 81 81 82 83 83 80 84 76 85 77 86 78 87 79 88
REMARK SMILES IDX 58 89 59 90 67 91 60 92 66 93 68 94 65 95 61 96 62 97 63 98
REMARK SMILES IDX 64 99
REMARK H PARENT 22 7 10 16 29 33 88 52 56 63
REMARK Flexibility Score: inf
ROOT
ATOM      1  C   UNL A   1      30.903  26.878  25.657  1.00  0.00     0.002 C 
ENDROOT
BRANCH   1   2
ATOM      2  C   UNL A   1      31.574  25.839  24.752  1.00  0.00     0.021 C 
BRANCH   2   3
ATOM      3  C   UNL A   1      31.392  24.378  25.152  1.00  0.00     0.116 C 
BRANCH   3   4
ATOM      4  N   UNL A   1      32.584  23.768  25.707  1.00  0.00    -0.356 N 
ATOM      5  O   UNL A   1      31.591  23.107  27.663  1.00  0.00    -0.275 OA
ATOM      6  C   UNL A   1      32.575  23.133  26.929  1.00  0.00     0.224 C 
ATOM      7  H   UNL A   1      33.424  23.809  25.196  1.00  0.00     0.163 HD
BRANCH   6   8
ATOM      8  C   UNL A   1      33.858  22.430  27.292  1.00  0.00     0.137 C 
BRANCH   8   9
ATOM      9  C   UNL A   1      34.921  22.265  26.215  1.00  0.00    -0.015 A 
ATOM     10  C   UNL A   1      35.819  23.358  26.117  1.00  0.00     0.006 A 
ATOM     11  C   UNL A   1      35.143  21.127  25.400  1.00  0.00     0.042 A 
ATOM     12  C   UNL A   1      36.884  23.356  25.221  1.00  0.00     0.000 A 
ATOM     13  C   UNL A   1      36.218  21.164  24.490  1.00  0.00     0.026 A 
ATOM     14  C   UNL A   1      37.076  22.261  24.396  1.00  0.00     0.002 A 
BRANCH  11  15
ATOM     15  N   UNL A   1      34.389  19.943  25.516  1.00  0.00    -0.354 N 
ATOM     16  H   UNL A   1      34.197  19.671  26.442  1.00  0.00     0.167 HD
BRANCH  15  17
ATOM     17  C   UNL A   1      33.859  19.076  24.529  1.00  0.00     0.070 A 
ATOM     18  C   UNL A   1      34.359  17.757  24.409  1.00  0.00     0.065 A 
ATOM     19  C   UNL A   1      32.921  19.514  23.574  1.00  0.00     0.080 A 
ATOM     20  Cl  UNL A   1      35.406  17.078  25.595  1.00  0.00    -0.082 Cl
ATOM     21  C   UNL A   1      33.993  16.918  23.356  1.00  0.00     0.023 A 
ATOM     22  C   UNL A   1      32.543  18.638  22.529  1.00  0.00     0.015 A 
ATOM     23  C   UNL A   1      33.088  17.363  22.407  1.00  0.00     0.002 A 
BRANCH  19  24
ATOM     24  C   UNL A   1      32.269  20.874  23.623  1.00  0.00     0.418 C 
ATOM     25  F   UNL A   1      31.356  21.045  22.617  1.00  0.00    -0.166 F 
ATOM     26  F   UNL A   1      31.557  21.065  24.772  1.00  0.00    -0.166 F 
ATOM     27  F   UNL A   1      33.111  21.935  23.505  1.00  0.00    -0.166 F 
ENDBRANCH  19  24
ENDBRANCH  15  17
ENDBRANCH  11  15
ENDBRANCH   8   9
ENDBRANCH   6   8
ENDBRANCH   3   4
ENDBRANCH   2   3
ENDBRANCH   1   2
BRANCH   1  28
ATOM     28  C   UNL A   1      31.688  28.166  25.913  1.00  0.00     0.002 C 
BRANCH  28  29
ATOM     29  C   UNL A   1      33.005  28.314  25.145  1.00  0.00     0.021 C 
BRANCH  29  30
ATOM     30  C   UNL A   1      34.136  28.998  25.906  1.00  0.00     0.116 C 
BRANCH  30  31
ATOM     31  N   UNL A   1      33.727  30.257  26.504  1.00  0.00    -0.352 N 
ATOM     32  C   UNL A   1      34.290  30.964  27.539  1.00  0.00     0.251 C 
ATOM     33  H   UNL A   1      32.925  30.666  26.107  1.00  0.00     0.163 HD
ATOM     34  O   UNL A   1      33.692  31.934  27.994  1.00  0.00    -0.269 OA
BRANCH  32  35
ATOM     35  C   UNL A   1      35.587  30.548  28.125  1.00  0.00     0.039 A 
ATOM     36  C   UNL A   1      35.574  29.718  29.249  1.00  0.00     0.014 A 
ATOM     37  C   UNL A   1      36.807  30.984  27.599  1.00  0.00     0.014 A 
ATOM     38  C   UNL A   1      36.777  29.284  29.809  1.00  0.00     0.010 A 
ATOM     39  C   UNL A   1      38.007  30.489  28.113  1.00  0.00     0.010 A 
ATOM     40  C   UNL A   1      38.005  29.636  29.225  1.00  0.00    -0.014 A 
BRANCH  40  41
ATOM     41  C   UNL A   1      39.284  29.098  29.766  1.00  0.00     0.031 A 
ATOM     42  C   UNL A   1      39.892  29.671  31.018  1.00  0.00     0.074 A 
ATOM     43  C   UNL A   1      39.913  28.108  29.103  1.00  0.00     0.049 A 
ATOM     44  N   UNL A   1      40.987  29.318  31.643  1.00  0.00    -0.248 NA
ATOM     45  C   UNL A   1      39.194  30.810  31.629  1.00  0.00     0.031 C 
ATOM     46  C   UNL A   1      39.448  27.503  27.853  1.00  0.00     0.029 A 
ATOM     47  N   UNL A   1      41.070  27.428  29.387  1.00  0.00    -0.354 N 
ATOM     48  C   UNL A   1      41.114  30.195  32.715  1.00  0.00     0.074 A 
ATOM     49  C   UNL A   1      40.019  31.135  32.613  1.00  0.00     0.031 C 
ATOM     50  C   UNL A   1      40.283  26.510  27.506  1.00  0.00     0.029 A 
ATOM     51  C   UNL A   1      41.365  26.435  28.481  1.00  0.00     0.049 A 
ATOM     52  H   UNL A   1      41.636  27.630  30.168  1.00  0.00     0.167 HD
ATOM     53  C   UNL A   1      42.046  30.201  33.703  1.00  0.00     0.034 A 
ATOM     54  C   UNL A   1      42.390  25.561  28.440  1.00  0.00     0.034 A 
ATOM     55  C   UNL A   1      43.131  29.250  33.788  1.00  0.00     0.049 A 
ATOM     56  C   UNL A   1      43.423  25.602  29.536  1.00  0.00     0.074 A 
ATOM     57  C   UNL A   1      44.086  29.118  34.781  1.00  0.00     0.029 A 
ATOM     58  N   UNL A   1      43.418  28.278  32.836  1.00  0.00    -0.354 N 
ATOM     59  N   UNL A   1      43.488  26.388  30.586  1.00  0.00    -0.248 NA
ATOM     60  C   UNL A   1      44.515  24.626  29.444  1.00  0.00     0.031 C 
ATOM     61  C   UNL A   1      44.996  28.128  34.390  1.00  0.00     0.029 A 
ATOM     62  C   UNL A   1      44.561  27.576  33.196  1.00  0.00     0.049 A 
ATOM     63  H   UNL A   1      42.887  28.111  32.025  1.00  0.00     0.167 HD
ATOM     64  C   UNL A   1      44.615  25.980  31.294  1.00  0.00     0.074 A 
ATOM     65  C   UNL A   1      45.178  24.862  30.565  1.00  0.00     0.031 C 
ATOM     66  C   UNL A   1      45.135  26.482  32.445  1.00  0.00     0.034 A 
BRANCH  53  67
ATOM     67  C   UNL A   1      41.950  31.295  34.744  1.00  0.00     0.023 A 
ATOM     68  C   UNL A   1      40.919  31.326  35.700  1.00  0.00     0.031 A 
ATOM     69  C   UNL A   1      42.883  32.348  34.758  1.00  0.00     0.131 A 
ATOM     70  C   UNL A   1      40.792  32.424  36.564  1.00  0.00     0.055 A 
ATOM     71  C   UNL A   1      42.805  33.393  35.682  1.00  0.00     0.041 A 
ATOM     72  F   UNL A   1      43.880  32.391  33.859  1.00  0.00    -0.206 F 
ATOM     73  C   UNL A   1      41.744  33.445  36.580  1.00  0.00     0.022 A 
BRANCH  70  74
ATOM     74  S   UNL A   1      39.275  32.582  37.548  1.00  0.00     0.124 S 
ATOM     75  O   UNL A   1      39.805  32.565  38.911  1.00  0.00    -0.237 OA
ATOM     76  O   UNL A   1      38.733  33.854  37.088  1.00  0.00    -0.237 OA
ATOM     77  O   UNL A   1      38.500  31.400  37.176  1.00  0.00    -0.744 OA
ENDBRANCH  70  74
ENDBRANCH  53  67
BRANCH  54  78
ATOM     78  C   UNL A   1      42.489  24.564  27.336  1.00  0.00     0.023 A 
ATOM     79  C   UNL A   1      41.768  23.360  27.386  1.00  0.00     0.031 A 
ATOM     80  C   UNL A   1      43.334  24.781  26.233  1.00  0.00     0.131 A 
ATOM     81  C   UNL A   1      41.937  22.400  26.377  1.00  0.00     0.055 A 
ATOM     82  C   UNL A   1      43.457  23.846  25.203  1.00  0.00     0.041 A 
ATOM     83  F   UNL A   1      44.043  25.918  26.133  1.00  0.00    -0.206 F 
ATOM     84  C   UNL A   1      42.765  22.642  25.278  1.00  0.00     0.022 A 
BRANCH  81  85
ATOM     85  S   UNL A   1      41.116  20.794  26.559  1.00  0.00     0.124 S 
ATOM     86  O   UNL A   1      41.368  20.489  27.962  1.00  0.00    -0.237 OA
ATOM     87  O   UNL A   1      39.736  21.118  26.209  1.00  0.00    -0.237 OA
ATOM     88  O   UNL A   1      41.815  19.943  25.598  1.00  0.00    -0.744 OA
ENDBRANCH  81  85
ENDBRANCH  54  78
BRANCH  66  89
ATOM     89  C   UNL A   1      46.367  25.794  32.989  1.00  0.00     0.023 A 
ATOM     90  C   UNL A   1      46.274  24.705  33.874  1.00  0.00     0.031 A 
ATOM     91  C   UNL A   1      47.651  26.266  32.662  1.00  0.00     0.131 A 
ATOM     92  C   UNL A   1      47.433  24.182  34.468  1.00  0.00     0.055 A 
ATOM     93  C   UNL A   1      48.806  25.690  33.195  1.00  0.00     0.041 A 
ATOM     94  F   UNL A   1      47.806  27.305  31.826  1.00  0.00    -0.206 F 
ATOM     95  C   UNL A   1      48.700  24.656  34.119  1.00  0.00     0.022 A 
BRANCH  92  96
ATOM     96  S   UNL A   1      47.253  22.973  35.809  1.00  0.00     0.124 S 
ATOM     97  O   UNL A   1      47.985  23.615  36.895  1.00  0.00    -0.237 OA
ATOM     98  O   UNL A   1      45.804  22.901  35.971  1.00  0.00    -0.237 OA
ATOM     99  O   UNL A   1      47.877  21.766  35.269  1.00  0.00    -0.744 OA
ENDBRANCH  92  96
ENDBRANCH  66  89
ENDBRANCH  40  41
ENDBRANCH  32  35
ENDBRANCH  30  31
ENDBRANCH  29  30
ENDBRANCH  28  29
ENDBRANCH   1  28
TORSDOF 20
ENDMDL
MODEL 3
REMARK VINA RESULT:     -11.7      5.223      8.194
REMARK SMILES O=C(Cc1ccccc1Nc1c(Cl)cccc1C(F)(F)F)NCCCCCCNC(=O)c1ccc(-c2c3nc(c(-c4cc(S(=O)(=O)[O-])ccc4F)c4ccc([nH]4)c(-c4cc(S(=O)(=O)[O-])ccc4F)c4nc(c(-c5cc(S(=O)(=O)[O-])ccc5F)c5ccc2[nH]5)C=C4)C=C3)cc1
REMARK SMILES IDX 25 1 24 2 23 3 22 4 1 5 2 6 3 8 4 9 5 10 9 11 6 12 8 13 7 14
REMARK SMILES IDX 10 15 11 17 12 18 17 19 13 20 14 21 16 22 15 23 18 24 19 25
REMARK SMILES IDX 20 26 21 27 26 28 27 29 28 30 29 31 30 32 31 34 32 35 33 36
REMARK SMILES IDX 94 37 34 38 93 39 35 40 36 41 37 42 87 43 38 44 92 45 86 46
REMARK SMILES IDX 88 47 39 48 91 49 85 50 84 51 40 53 72 54 52 55 71 56 53 57
REMARK SMILES IDX 56 58 70 59 89 60 54 61 55 62 69 64 90 65 57 66 41 67 42 68
REMARK SMILES IDX 50 69 43 70 49 71 51 72 48 73 44 74 45 75 46 76 47 77 73 78
REMARK SMILES IDX 74 79 82 80 75 81 81 82 83 83 80 84 76 85 77 86 78 87 79 88
REMARK SMILES IDX 58 89 59 90 67 91 60 92 66 93 68 94 65 95 61 96 62 97 63 98
REMARK SMILES IDX 64 99
REMARK H PARENT 22 7 10 16 29 33 88 52 56 63
REMARK Flexibility Score: inf
ROOT
ATOM      1  C   UNL A   1      33.633  28.508  24.527  1.00  0.00     0.002 C 
ENDROOT
BRANCH   1   2
ATOM      2  C   UNL A   1      34.071  28.974  23.135  1.00  0.00     0.021 C 
BRANCH   2   3
ATOM      3  C   UNL A   1      33.370  28.316  21.951  1.00  0.00     0.116 C 
BRANCH   3   4
ATOM      4  N   UNL A   1      32.438  27.271  22.326  1.00  0.00    -0.356 N 
ATOM      5  O   UNL A   1      33.310  25.694  20.911  1.00  0.00    -0.275 OA
ATOM      6  C   UNL A   1      32.512  26.005  21.791  1.00  0.00     0.224 C 
ATOM      7  H   UNL A   1      31.732  27.473  22.982  1.00  0.00     0.163 HD
BRANCH   6   8
ATOM      8  C   UNL A   1      31.561  25.002  22.394  1.00  0.00     0.137 C 
BRANCH   8   9
ATOM      9  C   UNL A   1      31.573  24.812  23.904  1.00  0.00    -0.015 A 
ATOM     10  C   UNL A   1      30.429  25.330  24.561  1.00  0.00     0.006 A 
ATOM     11  C   UNL A   1      32.538  24.111  24.670  1.00  0.00     0.042 A 
ATOM     12  C   UNL A   1      30.248  25.201  25.934  1.00  0.00     0.000 A 
ATOM     13  C   UNL A   1      32.335  24.014  26.061  1.00  0.00     0.026 A 
ATOM     14  C   UNL A   1      31.210  24.552  26.688  1.00  0.00     0.002 A 
BRANCH  11  15
ATOM     15  N   UNL A   1      33.639  23.448  24.094  1.00  0.00    -0.354 N 
ATOM     16  H   UNL A   1      33.965  23.850  23.257  1.00  0.00     0.167 HD
BRANCH  15  17
ATOM     17  C   UNL A   1      34.358  22.302  24.512  1.00  0.00     0.070 A 
ATOM     18  C   UNL A   1      35.700  22.432  24.945  1.00  0.00     0.065 A 
ATOM     19  C   UNL A   1      33.823  21.003  24.408  1.00  0.00     0.080 A 
ATOM     20  Cl  UNL A   1      36.409  23.974  25.233  1.00  0.00    -0.082 Cl
ATOM     21  C   UNL A   1      36.504  21.323  25.210  1.00  0.00     0.023 A 
ATOM     22  C   UNL A   1      34.648  19.892  24.706  1.00  0.00     0.015 A 
ATOM     23  C   UNL A   1      35.980  20.048  25.083  1.00  0.00     0.002 A 
BRANCH  19  24
ATOM     24  C   UNL A   1      32.392  20.730  24.014  1.00  0.00     0.418 C 
ATOM     25  F   UNL A   1      32.155  19.396  23.820  1.00  0.00    -0.166 F 
ATOM     26  F   UNL A   1      31.509  21.099  24.988  1.00  0.00    -0.166 F 
ATOM     27  F   UNL A   1      31.974  21.323  22.864  1.00  0.00    -0.166 F 
ENDBRANCH  19  24
ENDBRANCH  15  17
ENDBRANCH  11  15
ENDBRANCH   8   9
ENDBRANCH   6   8
ENDBRANCH   3   4
ENDBRANCH   2   3
ENDBRANCH   1   2
BRANCH   1  28
ATOM     28  C   UNL A   1      32.260  28.985  25.005  1.00  0.00     0.002 C 
BRANCH  28  29
ATOM     29  C   UNL A   1      32.176  29.427  26.470  1.00  0.00     0.021 C 
BRANCH  29  30
ATOM     30  C   UNL A   1      33.505  29.799  27.121  1.00  0.00     0.116 C 
BRANCH  30  31
ATOM     31  N   UNL A   1      33.538  31.179  27.575  1.00  0.00    -0.352 N 
ATOM     32  C   UNL A   1      34.460  31.823  28.364  1.00  0.00     0.251 C 
ATOM     33  H   UNL A   1      32.787  31.737  27.270  1.00  0.00     0.163 HD
ATOM     34  O   UNL A   1      34.216  32.959  28.760  1.00  0.00    -0.269 OA
BRANCH  32  35
ATOM     35  C   UNL A   1      35.720  31.152  28.763  1.00  0.00     0.039 A 
ATOM     36  C   UNL A   1      36.933  31.736  28.391  1.00  0.00     0.014 A 
ATOM     37  C   UNL A   1      35.720  29.947  29.473  1.00  0.00     0.014 A 
ATOM     38  C   UNL A   1      38.138  31.147  28.777  1.00  0.00     0.010 A 
ATOM     39  C   UNL A   1      36.923  29.400  29.921  1.00  0.00     0.010 A 
ATOM     40  C   UNL A   1      38.146  29.992  29.576  1.00  0.00    -0.014 A 
BRANCH  40  41
ATOM     41  C   UNL A   1      39.429  29.415  30.063  1.00  0.00     0.031 A 
ATOM     42  C   UNL A   1      40.104  29.966  31.290  1.00  0.00     0.074 A 
ATOM     43  C   UNL A   1      40.001  28.409  29.372  1.00  0.00     0.049 A 
ATOM     44  N   UNL A   1      41.213  29.578  31.869  1.00  0.00    -0.248 NA
ATOM     45  C   UNL A   1      39.466  31.123  31.932  1.00  0.00     0.031 C 
ATOM     46  C   UNL A   1      39.467  27.822  28.141  1.00  0.00     0.029 A 
ATOM     47  N   UNL A   1      41.148  27.694  29.608  1.00  0.00    -0.354 N 
ATOM     48  C   UNL A   1      41.410  30.448  32.937  1.00  0.00     0.074 A 
ATOM     49  C   UNL A   1      40.339  31.420  32.882  1.00  0.00     0.031 C 
ATOM     50  C   UNL A   1      40.257  26.806  27.758  1.00  0.00     0.029 A 
ATOM     51  C   UNL A   1      41.377  26.697  28.687  1.00  0.00     0.049 A 
ATOM     52  H   UNL A   1      41.751  27.877  30.364  1.00  0.00     0.167 HD
ATOM     53  C   UNL A   1      42.381  30.423  33.885  1.00  0.00     0.034 A 
ATOM     54  C   UNL A   1      42.372  25.793  28.603  1.00  0.00     0.034 A 
ATOM     55  C   UNL A   1      43.441  29.441  33.924  1.00  0.00     0.049 A 
ATOM     56  C   UNL A   1      43.450  25.800  29.656  1.00  0.00     0.074 A 
ATOM     57  C   UNL A   1      44.431  29.278  34.877  1.00  0.00     0.029 A 
ATOM     58  N   UNL A   1      43.659  28.464  32.959  1.00  0.00    -0.354 N 
ATOM     59  N   UNL A   1      43.581  26.581  30.703  1.00  0.00    -0.248 NA
ATOM     60  C   UNL A   1      44.508  24.792  29.517  1.00  0.00     0.031 C 
ATOM     61  C   UNL A   1      45.295  28.263  34.446  1.00  0.00     0.029 A 
ATOM     62  C   UNL A   1      44.795  27.727  33.270  1.00  0.00     0.049 A 
ATOM     63  H   UNL A   1      43.091  28.315  32.169  1.00  0.00     0.167 HD
ATOM     64  C   UNL A   1      44.724  26.137  31.365  1.00  0.00     0.074 A 
ATOM     65  C   UNL A   1      45.223  25.005  30.610  1.00  0.00     0.031 C 
ATOM     66  C   UNL A   1      45.306  26.620  32.494  1.00  0.00     0.034 A 
BRANCH  53  67
ATOM     67  C   UNL A   1      42.360  31.516  34.932  1.00  0.00     0.023 A 
ATOM     68  C   UNL A   1      41.406  31.541  35.965  1.00  0.00     0.031 A 
ATOM     69  C   UNL A   1      43.286  32.575  34.875  1.00  0.00     0.131 A 
ATOM     70  C   UNL A   1      41.340  32.637  36.838  1.00  0.00     0.055 A 
ATOM     71  C   UNL A   1      43.274  33.618  35.803  1.00  0.00     0.041 A 
ATOM     72  F   UNL A   1      44.210  32.624  33.902  1.00  0.00    -0.206 F 
ATOM     73  C   UNL A   1      42.285  33.664  36.781  1.00  0.00     0.022 A 
BRANCH  70  74
ATOM     74  S   UNL A   1      39.904  32.787  37.936  1.00  0.00     0.124 S 
ATOM     75  O   UNL A   1      39.001  31.781  37.379  1.00  0.00    -0.237 OA
ATOM     76  O   UNL A   1      40.473  32.483  39.243  1.00  0.00    -0.237 OA
ATOM     77  O   UNL A   1      39.471  34.170  37.749  1.00  0.00    -0.744 OA
ENDBRANCH  70  74
ENDBRANCH  53  67
BRANCH  54  78
ATOM     78  C   UNL A   1      42.397  24.797  27.493  1.00  0.00     0.023 A 
ATOM     79  C   UNL A   1      41.665  23.602  27.582  1.00  0.00     0.031 A 
ATOM     80  C   UNL A   1      43.181  25.006  26.345  1.00  0.00     0.131 A 
ATOM     81  C   UNL A   1      41.765  22.642  26.563  1.00  0.00     0.055 A 
ATOM     82  C   UNL A   1      43.235  24.072  25.308  1.00  0.00     0.041 A 
ATOM     83  F   UNL A   1      43.897  26.134  26.208  1.00  0.00    -0.206 F 
ATOM     84  C   UNL A   1      42.533  22.876  25.420  1.00  0.00     0.022 A 
BRANCH  81  85
ATOM     85  S   UNL A   1      40.935  21.046  26.789  1.00  0.00     0.124 S 
ATOM     86  O   UNL A   1      39.679  21.262  26.081  1.00  0.00    -0.237 OA
ATOM     87  O   UNL A   1      41.876  20.124  26.161  1.00  0.00    -0.237 OA
ATOM     88  O   UNL A   1      40.821  20.923  28.240  1.00  0.00    -0.744 OA
ENDBRANCH  81  85
ENDBRANCH  54  78
BRANCH  66  89
ATOM     89  C   UNL A   1      46.538  25.894  32.985  1.00  0.00     0.023 A 
ATOM     90  C   UNL A   1      47.812  26.157  32.450  1.00  0.00     0.031 A 
ATOM     91  C   UNL A   1      46.432  24.888  33.961  1.00  0.00     0.131 A 
ATOM     92  C   UNL A   1      48.908  25.368  32.827  1.00  0.00     0.055 A 
ATOM     93  C   UNL A   1      47.541  24.159  34.393  1.00  0.00     0.041 A 
ATOM     94  F   UNL A   1      45.243  24.587  34.509  1.00  0.00    -0.206 F 
ATOM     95  C   UNL A   1      48.785  24.382  33.810  1.00  0.00     0.022 A 
BRANCH  92  96
ATOM     96  S   UNL A   1      50.466  25.550  31.915  1.00  0.00     0.124 S 
ATOM     97  O   UNL A   1      50.160  26.655  31.012  1.00  0.00    -0.237 OA
ATOM     98  O   UNL A   1      51.419  25.842  32.981  1.00  0.00    -0.237 OA
ATOM     99  O   UNL A   1      50.638  24.251  31.267  1.00  0.00    -0.744 OA
ENDBRANCH  92  96
ENDBRANCH  66  89
ENDBRANCH  40  41
ENDBRANCH  32  35
ENDBRANCH  30  31
ENDBRANCH  29  30
ENDBRANCH  28  29
ENDBRANCH   1  28
TORSDOF 20
ENDMDL
