MODEL 1
REMARK VINA RESULT:     -10.8      0.000      0.000
REMARK SMILES CCC1(CC)CCN(C(=O)NC(CC)(CC)C(=O)NCCCCCCNC(=O)c2ccc(-c3c4nc(c(-c5cc(S(=O)(=O)[O-])ccc5F)c5ccc([nH]5)c(-c5cc(S(=O)(=O)[O-])ccc5F)c5nc(c(-c6cc(S(=O)(=O)[O-])ccc6F)c6ccc3[nH]6)C=C5)C=C4)cc2)CC1
REMARK SMILES IDX 23 1 22 2 21 3 20 4 19 5 17 6 18 7 12 9 11 10 3 11 6 12
REMARK SMILES IDX 93 13 7 14 92 15 8 16 9 17 10 18 2 20 1 21 4 22 5 23 13 24
REMARK SMILES IDX 14 25 15 26 16 27 24 28 25 29 26 30 27 31 28 33 29 34 30 35
REMARK SMILES IDX 91 36 31 37 90 38 32 39 33 40 34 41 84 42 35 43 89 44 83 45
REMARK SMILES IDX 85 46 36 47 88 48 82 49 81 50 37 52 69 53 49 54 68 55 50 56
REMARK SMILES IDX 53 57 67 58 86 59 51 60 52 61 66 63 87 64 54 65 38 66 39 67
REMARK SMILES IDX 47 68 40 69 46 70 48 71 45 72 41 73 42 74 43 75 44 76 70 77
REMARK SMILES IDX 71 78 79 79 72 80 78 81 80 82 77 83 73 84 74 85 75 86 76 87
REMARK SMILES IDX 55 88 56 89 64 90 57 91 63 92 65 93 62 94 58 95 59 96 60 97
REMARK SMILES IDX 61 98
REMARK H PARENT 19 8 11 19 26 32 85 51 53 62
REMARK Flexibility Score: inf
ROOT
ATOM      1  C   UNL A   1      31.642  30.713  26.397  1.00  0.00     0.002 C 
ENDROOT
BRANCH   1   2
ATOM      2  C   UNL A   1      32.783  30.014  27.142  1.00  0.00     0.002 C 
BRANCH   2   3
ATOM      3  C   UNL A   1      32.585  28.510  27.388  1.00  0.00     0.021 C 
BRANCH   3   4
ATOM      4  C   UNL A   1      31.346  27.913  26.718  1.00  0.00     0.116 C 
BRANCH   4   5
ATOM      5  N   UNL A   1      31.691  26.827  25.825  1.00  0.00    -0.354 N 
ATOM      6  C   UNL A   1      31.033  26.736  24.619  1.00  0.00     0.245 C 
ATOM      7  O   UNL A   1      29.909  26.241  24.605  1.00  0.00    -0.272 OA
ATOM      8  H   UNL A   1      32.380  26.169  26.073  1.00  0.00     0.163 HD
BRANCH   6   9
ATOM      9  C   UNL A   1      31.766  27.285  23.358  1.00  0.00     0.120 C 
BRANCH   9  10
ATOM     10  N   UNL A   1      32.115  26.266  22.313  1.00  0.00    -0.323 N 
ATOM     11  C   UNL A   1      33.051  22.183  24.798  1.00  0.00    -0.027 C 
ATOM     12  C   UNL A   1      33.122  22.023  23.242  1.00  0.00     0.028 C 
ATOM     13  C   UNL A   1      32.819  23.698  25.101  1.00  0.00     0.028 C 
ATOM     14  C   UNL A   1      33.965  23.088  22.513  1.00  0.00     0.122 C 
ATOM     15  C   UNL A   1      33.753  24.637  24.336  1.00  0.00     0.122 C 
ATOM     16  N   UNL A   1      33.555  24.437  22.921  1.00  0.00    -0.325 N 
ATOM     17  C   UNL A   1      32.900  25.219  22.023  1.00  0.00     0.318 C 
ATOM     18  O   UNL A   1      32.919  24.944  20.814  1.00  0.00    -0.249 OA
ATOM     19  H   UNL A   1      31.541  26.432  21.531  1.00  0.00     0.166 HD
BRANCH  11  20
ATOM     20  C   UNL A   1      34.405  21.766  25.464  1.00  0.00     0.004 C 
ATOM     21  C   UNL A   1      35.080  20.483  25.000  1.00  0.00     0.004 C 
ENDBRANCH  11  20
BRANCH  11  22
ATOM     22  C   UNL A   1      31.779  21.446  25.340  1.00  0.00     0.004 C 
ATOM     23  C   UNL A   1      30.678  22.285  25.976  1.00  0.00     0.004 C 
ENDBRANCH  11  22
ENDBRANCH   9  10
BRANCH   9  24
ATOM     24  C   UNL A   1      33.052  28.102  23.723  1.00  0.00     0.035 C 
ATOM     25  C   UNL A   1      33.901  28.595  22.552  1.00  0.00     0.007 C 
ENDBRANCH   9  24
BRANCH   9  26
ATOM     26  C   UNL A   1      30.677  28.222  22.704  1.00  0.00     0.035 C 
ATOM     27  C   UNL A   1      30.262  29.448  23.528  1.00  0.00     0.007 C 
ENDBRANCH   9  26
ENDBRANCH   6   9
ENDBRANCH   4   5
ENDBRANCH   3   4
ENDBRANCH   2   3
ENDBRANCH   1   2
BRANCH   1  28
ATOM     28  C   UNL A   1      31.498  32.205  26.691  1.00  0.00     0.021 C 
BRANCH  28  29
ATOM     29  C   UNL A   1      32.748  32.865  27.260  1.00  0.00     0.116 C 
BRANCH  29  30
ATOM     30  N   UNL A   1      32.523  34.252  27.626  1.00  0.00    -0.352 N 
ATOM     31  C   UNL A   1      33.132  34.973  28.624  1.00  0.00     0.251 C 
ATOM     32  H   UNL A   1      31.852  34.736  27.092  1.00  0.00     0.163 HD
ATOM     33  O   UNL A   1      32.718  36.089  28.924  1.00  0.00    -0.269 OA
BRANCH  31  34
ATOM     34  C   UNL A   1      34.265  34.366  29.358  1.00  0.00     0.039 A 
ATOM     35  C   UNL A   1      33.996  33.530  30.443  1.00  0.00     0.014 A 
ATOM     36  C   UNL A   1      35.582  34.576  28.936  1.00  0.00     0.014 A 
ATOM     37  C   UNL A   1      35.045  32.848  31.064  1.00  0.00     0.010 A 
ATOM     38  C   UNL A   1      36.616  33.843  29.511  1.00  0.00     0.010 A 
ATOM     39  C   UNL A   1      36.358  32.967  30.577  1.00  0.00    -0.014 A 
BRANCH  39  40
ATOM     40  C   UNL A   1      37.469  32.171  31.162  1.00  0.00     0.031 A 
ATOM     41  C   UNL A   1      37.951  32.460  32.557  1.00  0.00     0.074 A 
ATOM     42  C   UNL A   1      38.080  31.230  30.414  1.00  0.00     0.049 A 
ATOM     43  N   UNL A   1      38.950  31.928  33.214  1.00  0.00    -0.248 NA
ATOM     44  C   UNL A   1      37.230  33.504  33.300  1.00  0.00     0.031 C 
ATOM     45  C   UNL A   1      37.726  30.885  29.035  1.00  0.00     0.029 A 
ATOM     46  N   UNL A   1      39.134  30.398  30.701  1.00  0.00    -0.354 N 
ATOM     47  C   UNL A   1      38.982  32.575  34.444  1.00  0.00     0.074 A 
ATOM     48  C   UNL A   1      37.939  33.578  34.417  1.00  0.00     0.031 C 
ATOM     49  C   UNL A   1      38.532  29.900  28.606  1.00  0.00     0.029 A 
ATOM     50  C   UNL A   1      39.492  29.576  29.656  1.00  0.00     0.049 A 
ATOM     51  H   UNL A   1      39.591  30.390  31.573  1.00  0.00     0.167 HD
ATOM     52  C   UNL A   1      39.791  32.337  35.507  1.00  0.00     0.034 A 
ATOM     53  C   UNL A   1      40.488  28.674  29.551  1.00  0.00     0.034 A 
ATOM     54  C   UNL A   1      40.819  31.326  35.522  1.00  0.00     0.049 A 
ATOM     55  C   UNL A   1      41.401  28.457  30.733  1.00  0.00     0.074 A 
ATOM     56  C   UNL A   1      41.655  30.962  36.563  1.00  0.00     0.029 A 
ATOM     57  N   UNL A   1      41.162  30.521  34.442  1.00  0.00    -0.354 N 
ATOM     58  N   UNL A   1      41.383  29.042  31.908  1.00  0.00    -0.248 NA
ATOM     59  C   UNL A   1      42.463  27.455  30.574  1.00  0.00     0.031 C 
ATOM     60  C   UNL A   1      42.546  29.990  36.095  1.00  0.00     0.029 A 
ATOM     61  C   UNL A   1      42.219  29.692  34.782  1.00  0.00     0.049 A 
ATOM     62  H   UNL A   1      40.718  30.539  33.563  1.00  0.00     0.167 HD
ATOM     63  C   UNL A   1      42.416  28.459  32.637  1.00  0.00     0.074 A 
ATOM     64  C   UNL A   1      43.021  27.464  31.776  1.00  0.00     0.031 C 
ATOM     65  C   UNL A   1      42.826  28.718  33.904  1.00  0.00     0.034 A 
BRANCH  52  66
ATOM     66  C   UNL A   1      39.607  33.204  36.728  1.00  0.00     0.023 A 
ATOM     67  C   UNL A   1      40.306  34.413  36.888  1.00  0.00     0.031 A 
ATOM     68  C   UNL A   1      38.728  32.813  37.754  1.00  0.00     0.131 A 
ATOM     69  C   UNL A   1      40.169  35.151  38.073  1.00  0.00     0.055 A 
ATOM     70  C   UNL A   1      38.537  33.592  38.897  1.00  0.00     0.041 A 
ATOM     71  F   UNL A   1      38.047  31.659  37.668  1.00  0.00    -0.206 F 
ATOM     72  C   UNL A   1      39.270  34.762  39.068  1.00  0.00     0.022 A 
BRANCH  69  73
ATOM     73  S   UNL A   1      41.279  36.558  38.350  1.00  0.00     0.124 S 
ATOM     74  O   UNL A   1      41.758  36.827  36.997  1.00  0.00    -0.237 OA
ATOM     75  O   UNL A   1      40.385  37.559  38.921  1.00  0.00    -0.237 OA
ATOM     76  O   UNL A   1      42.286  36.025  39.265  1.00  0.00    -0.744 OA
ENDBRANCH  69  73
ENDBRANCH  52  66
BRANCH  53  77
ATOM     77  C   UNL A   1      40.702  27.923  28.280  1.00  0.00     0.023 A 
ATOM     78  C   UNL A   1      40.241  26.605  28.134  1.00  0.00     0.031 A 
ATOM     79  C   UNL A   1      41.414  28.495  27.212  1.00  0.00     0.131 A 
ATOM     80  C   UNL A   1      40.542  25.884  26.968  1.00  0.00     0.055 A 
ATOM     81  C   UNL A   1      41.664  27.793  26.031  1.00  0.00     0.041 A 
ATOM     82  F   UNL A   1      41.874  29.754  27.297  1.00  0.00    -0.206 F 
ATOM     83  C   UNL A   1      41.239  26.473  25.910  1.00  0.00     0.022 A 
BRANCH  80  84
ATOM     84  S   UNL A   1      40.089  24.129  26.891  1.00  0.00     0.124 S 
ATOM     85  O   UNL A   1      38.690  24.201  26.488  1.00  0.00    -0.237 OA
ATOM     86  O   UNL A   1      41.021  23.621  25.891  1.00  0.00    -0.237 OA
ATOM     87  O   UNL A   1      40.324  23.659  28.256  1.00  0.00    -0.744 OA
ENDBRANCH  80  84
ENDBRANCH  53  77
BRANCH  65  88
ATOM     88  C   UNL A   1      43.966  27.887  34.438  1.00  0.00     0.023 A 
ATOM     89  C   UNL A   1      43.749  26.627  35.024  1.00  0.00     0.031 A 
ATOM     90  C   UNL A   1      45.286  28.367  34.369  1.00  0.00     0.131 A 
ATOM     91  C   UNL A   1      44.828  25.915  35.568  1.00  0.00     0.055 A 
ATOM     92  C   UNL A   1      46.363  27.627  34.858  1.00  0.00     0.041 A 
ATOM     93  F   UNL A   1      45.550  29.564  33.821  1.00  0.00    -0.206 F 
ATOM     94  C   UNL A   1      46.136  26.399  35.474  1.00  0.00     0.022 A 
BRANCH  91  95
ATOM     95  S   UNL A   1      44.490  24.384  36.478  1.00  0.00     0.124 S 
ATOM     96  O   UNL A   1      44.204  24.884  37.819  1.00  0.00    -0.237 OA
ATOM     97  O   UNL A   1      43.354  23.831  35.749  1.00  0.00    -0.237 OA
ATOM     98  O   UNL A   1      45.735  23.626  36.351  1.00  0.00    -0.744 OA
ENDBRANCH  91  95
ENDBRANCH  65  88
ENDBRANCH  39  40
ENDBRANCH  31  34
ENDBRANCH  29  30
ENDBRANCH  28  29
ENDBRANCH   1  28
TORSDOF 21
ENDMDL
MODEL 2
REMARK VINA RESULT:     -10.7      1.415      7.512
REMARK SMILES CCC1(CC)CCN(C(=O)NC(CC)(CC)C(=O)NCCCCCCNC(=O)c2ccc(-c3c4nc(c(-c5cc(S(=O)(=O)[O-])ccc5F)c5ccc([nH]5)c(-c5cc(S(=O)(=O)[O-])ccc5F)c5nc(c(-c6cc(S(=O)(=O)[O-])ccc6F)c6ccc3[nH]6)C=C5)C=C4)cc2)CC1
REMARK SMILES IDX 23 1 22 2 21 3 20 4 19 5 17 6 18 7 12 9 11 10 3 11 6 12
REMARK SMILES IDX 93 13 7 14 92 15 8 16 9 17 10 18 2 20 1 21 4 22 5 23 13 24
REMARK SMILES IDX 14 25 15 26 16 27 24 28 25 29 26 30 27 31 28 33 29 34 30 35
REMARK SMILES IDX 91 36 31 37 90 38 32 39 33 40 34 41 84 42 35 43 89 44 83 45
REMARK SMILES IDX 85 46 36 47 88 48 82 49 81 50 37 52 69 53 49 54 68 55 50 56
REMARK SMILES IDX 53 57 67 58 86 59 51 60 52 61 66 63 87 64 54 65 38 66 39 67
REMARK SMILES IDX 47 68 40 69 46 70 48 71 45 72 41 73 42 74 43 75 44 76 70 77
REMARK SMILES IDX 71 78 79 79 72 80 78 81 80 82 77 83 73 84 74 85 75 86 76 87
REMARK SMILES IDX 55 88 56 89 64 90 57 91 63 92 65 93 62 94 58 95 59 96 60 97
REMARK SMILES IDX 61 98
REMARK H PARENT 19 8 11 19 26 32 85 51 53 62
REMARK Flexibility Score: inf
ROOT
ATOM      1  C   UNL A   1      31.485  30.952  26.445  1.00  0.00     0.002 C 
ENDROOT
BRANCH   1   2
ATOM      2  C   UNL A   1      32.744  30.180  26.853  1.00  0.00     0.002 C 
BRANCH   2   3
ATOM      3  C   UNL A   1      32.507  28.738  27.329  1.00  0.00     0.021 C 
BRANCH   3   4
ATOM      4  C   UNL A   1      31.274  28.063  26.726  1.00  0.00     0.116 C 
BRANCH   4   5
ATOM      5  N   UNL A   1      31.633  26.935  25.893  1.00  0.00    -0.354 N 
ATOM      6  C   UNL A   1      31.064  26.835  24.644  1.00  0.00     0.245 C 
ATOM      7  O   UNL A   1      29.923  26.390  24.558  1.00  0.00    -0.272 OA
ATOM      8  H   UNL A   1      32.271  26.256  26.212  1.00  0.00     0.163 HD
BRANCH   6   9
ATOM      9  C   UNL A   1      31.914  27.311  23.427  1.00  0.00     0.120 C 
BRANCH   9  10
ATOM     10  N   UNL A   1      32.232  26.260  22.404  1.00  0.00    -0.323 N 
ATOM     11  C   UNL A   1      33.026  22.199  24.975  1.00  0.00    -0.027 C 
ATOM     12  C   UNL A   1      33.096  22.005  23.422  1.00  0.00     0.028 C 
ATOM     13  C   UNL A   1      32.843  23.727  25.245  1.00  0.00     0.028 C 
ATOM     14  C   UNL A   1      33.975  23.027  22.674  1.00  0.00     0.122 C 
ATOM     15  C   UNL A   1      33.810  24.618  24.464  1.00  0.00     0.122 C 
ATOM     16  N   UNL A   1      33.609  24.396  23.053  1.00  0.00    -0.325 N 
ATOM     17  C   UNL A   1      32.982  25.181  22.138  1.00  0.00     0.318 C 
ATOM     18  O   UNL A   1      32.995  24.882  20.935  1.00  0.00    -0.249 OA
ATOM     19  H   UNL A   1      31.666  26.429  21.617  1.00  0.00     0.166 HD
BRANCH  11  20
ATOM     20  C   UNL A   1      34.364  21.752  25.652  1.00  0.00     0.004 C 
ATOM     21  C   UNL A   1      34.454  21.772  27.172  1.00  0.00     0.004 C 
ENDBRANCH  11  20
BRANCH  11  22
ATOM     22  C   UNL A   1      31.729  21.516  25.528  1.00  0.00     0.004 C 
ATOM     23  C   UNL A   1      30.599  22.411  26.020  1.00  0.00     0.004 C 
ENDBRANCH  11  22
ENDBRANCH   9  10
BRANCH   9  24
ATOM     24  C   UNL A   1      33.244  28.013  23.866  1.00  0.00     0.035 C 
ATOM     25  C   UNL A   1      33.909  28.921  22.832  1.00  0.00     0.007 C 
ENDBRANCH   9  24
BRANCH   9  26
ATOM     26  C   UNL A   1      30.952  28.336  22.711  1.00  0.00     0.035 C 
ATOM     27  C   UNL A   1      30.384  29.456  23.594  1.00  0.00     0.007 C 
ENDBRANCH   9  26
ENDBRANCH   6   9
ENDBRANCH   4   5
ENDBRANCH   3   4
ENDBRANCH   2   3
ENDBRANCH   1   2
BRANCH   1  28
ATOM     28  C   UNL A   1      31.514  32.446  26.763  1.00  0.00     0.021 C 
BRANCH  28  29
ATOM     29  C   UNL A   1      32.838  32.954  27.316  1.00  0.00     0.116 C 
BRANCH  29  30
ATOM     30  N   UNL A   1      32.711  34.256  27.946  1.00  0.00    -0.352 N 
ATOM     31  C   UNL A   1      33.432  34.757  29.003  1.00  0.00     0.251 C 
ATOM     32  H   UNL A   1      32.026  34.853  27.569  1.00  0.00     0.163 HD
ATOM     33  O   UNL A   1      33.098  35.812  29.535  1.00  0.00    -0.269 OA
BRANCH  31  34
ATOM     34  C   UNL A   1      34.587  33.987  29.514  1.00  0.00     0.039 A 
ATOM     35  C   UNL A   1      35.877  34.406  29.187  1.00  0.00     0.014 A 
ATOM     36  C   UNL A   1      34.392  32.891  30.362  1.00  0.00     0.014 A 
ATOM     37  C   UNL A   1      36.976  33.768  29.766  1.00  0.00     0.010 A 
ATOM     38  C   UNL A   1      35.486  32.302  30.990  1.00  0.00     0.010 A 
ATOM     39  C   UNL A   1      36.789  32.739  30.704  1.00  0.00    -0.014 A 
BRANCH  39  40
ATOM     40  C   UNL A   1      37.944  32.118  31.404  1.00  0.00     0.031 A 
ATOM     41  C   UNL A   1      38.730  31.022  30.739  1.00  0.00     0.074 A 
ATOM     42  C   UNL A   1      38.246  32.503  32.661  1.00  0.00     0.049 A 
ATOM     43  N   UNL A   1      39.720  30.309  31.212  1.00  0.00    -0.248 NA
ATOM     44  C   UNL A   1      38.331  30.663  29.370  1.00  0.00     0.031 C 
ATOM     45  C   UNL A   1      37.533  33.530  33.425  1.00  0.00     0.029 A 
ATOM     46  N   UNL A   1      39.222  32.069  33.524  1.00  0.00    -0.354 N 
ATOM     47  C   UNL A   1      40.060  29.414  30.204  1.00  0.00     0.074 A 
ATOM     48  C   UNL A   1      39.130  29.637  29.117  1.00  0.00     0.031 C 
ATOM     49  C   UNL A   1      38.110  33.662  34.630  1.00  0.00     0.029 A 
ATOM     50  C   UNL A   1      39.199  32.698  34.748  1.00  0.00     0.049 A 
ATOM     51  H   UNL A   1      39.878  31.374  33.288  1.00  0.00     0.167 HD
ATOM     52  C   UNL A   1      41.069  28.508  30.178  1.00  0.00     0.034 A 
ATOM     53  C   UNL A   1      39.959  32.510  35.846  1.00  0.00     0.034 A 
ATOM     54  C   UNL A   1      41.993  28.306  31.266  1.00  0.00     0.049 A 
ATOM     55  C   UNL A   1      41.049  31.467  35.806  1.00  0.00     0.074 A 
ATOM     56  C   UNL A   1      43.085  27.457  31.323  1.00  0.00     0.029 A 
ATOM     57  N   UNL A   1      41.932  28.951  32.495  1.00  0.00    -0.354 N 
ATOM     58  N   UNL A   1      41.389  30.666  34.824  1.00  0.00    -0.248 NA
ATOM     59  C   UNL A   1      41.858  31.309  37.021  1.00  0.00     0.031 C 
ATOM     60  C   UNL A   1      43.640  27.537  32.605  1.00  0.00     0.029 A 
ATOM     61  C   UNL A   1      42.941  28.492  33.326  1.00  0.00     0.049 A 
ATOM     62  H   UNL A   1      41.267  29.634  32.740  1.00  0.00     0.167 HD
ATOM     63  C   UNL A   1      42.470  29.926  35.296  1.00  0.00     0.074 A 
ATOM     64  C   UNL A   1      42.735  30.392  36.642  1.00  0.00     0.031 C 
ATOM     65  C   UNL A   1      43.181  28.952  34.674  1.00  0.00     0.034 A 
BRANCH  52  66
ATOM     66  C   UNL A   1      41.204  27.654  28.941  1.00  0.00     0.023 A 
ATOM     67  C   UNL A   1      42.222  27.878  27.998  1.00  0.00     0.031 A 
ATOM     68  C   UNL A   1      40.297  26.609  28.694  1.00  0.00     0.131 A 
ATOM     69  C   UNL A   1      42.268  27.115  26.822  1.00  0.00     0.055 A 
ATOM     70  C   UNL A   1      40.395  25.802  27.558  1.00  0.00     0.041 A 
ATOM     71  F   UNL A   1      39.292  26.359  29.548  1.00  0.00    -0.206 F 
ATOM     72  C   UNL A   1      41.377  26.062  26.606  1.00  0.00     0.022 A 
BRANCH  69  73
ATOM     73  S   UNL A   1      43.429  27.604  25.517  1.00  0.00     0.124 S 
ATOM     74  O   UNL A   1      42.542  27.717  24.361  1.00  0.00    -0.237 OA
ATOM     75  O   UNL A   1      43.971  28.857  26.029  1.00  0.00    -0.237 OA
ATOM     76  O   UNL A   1      44.372  26.490  25.462  1.00  0.00    -0.744 OA
ENDBRANCH  69  73
ENDBRANCH  52  66
BRANCH  53  77
ATOM     77  C   UNL A   1      39.711  33.301  37.086  1.00  0.00     0.023 A 
ATOM     78  C   UNL A   1      40.531  34.388  37.426  1.00  0.00     0.031 A 
ATOM     79  C   UNL A   1      38.680  32.949  37.975  1.00  0.00     0.131 A 
ATOM     80  C   UNL A   1      40.341  35.053  38.648  1.00  0.00     0.055 A 
ATOM     81  C   UNL A   1      38.460  33.648  39.164  1.00  0.00     0.041 A 
ATOM     82  F   UNL A   1      37.863  31.920  37.697  1.00  0.00    -0.206 F 
ATOM     83  C   UNL A   1      39.303  34.699  39.513  1.00  0.00     0.022 A 
BRANCH  80  84
ATOM     84  S   UNL A   1      41.533  36.331  39.135  1.00  0.00     0.124 S 
ATOM     85  O   UNL A   1      42.739  35.544  39.358  1.00  0.00    -0.237 OA
ATOM     86  O   UNL A   1      41.538  37.199  37.963  1.00  0.00    -0.237 OA
ATOM     87  O   UNL A   1      40.934  36.912  40.336  1.00  0.00    -0.744 OA
ENDBRANCH  80  84
ENDBRANCH  53  77
BRANCH  65  88
ATOM     88  C   UNL A   1      44.333  28.352  35.441  1.00  0.00     0.023 A 
ATOM     89  C   UNL A   1      44.169  27.209  36.243  1.00  0.00     0.031 A 
ATOM     90  C   UNL A   1      45.610  28.938  35.378  1.00  0.00     0.131 A 
ATOM     91  C   UNL A   1      45.249  26.720  36.992  1.00  0.00     0.055 A 
ATOM     92  C   UNL A   1      46.696  28.412  36.079  1.00  0.00     0.041 A 
ATOM     93  F   UNL A   1      45.823  30.032  34.629  1.00  0.00    -0.206 F 
ATOM     94  C   UNL A   1      46.515  27.304  36.902  1.00  0.00     0.022 A 
BRANCH  91  95
ATOM     95  S   UNL A   1      44.957  25.359  38.155  1.00  0.00     0.124 S 
ATOM     96  O   UNL A   1      46.266  24.714  38.203  1.00  0.00    -0.237 OA
ATOM     97  O   UNL A   1      44.549  26.064  39.365  1.00  0.00    -0.237 OA
ATOM     98  O   UNL A   1      43.904  24.577  37.510  1.00  0.00    -0.744 OA
ENDBRANCH  91  95
ENDBRANCH  65  88
ENDBRANCH  39  40
ENDBRANCH  31  34
ENDBRANCH  29  30
ENDBRANCH  28  29
ENDBRANCH   1  28
TORSDOF 21
ENDMDL
MODEL 3
REMARK VINA RESULT:     -10.2      5.132     10.497
REMARK SMILES CCC1(CC)CCN(C(=O)NC(CC)(CC)C(=O)NCCCCCCNC(=O)c2ccc(-c3c4nc(c(-c5cc(S(=O)(=O)[O-])ccc5F)c5ccc([nH]5)c(-c5cc(S(=O)(=O)[O-])ccc5F)c5nc(c(-c6cc(S(=O)(=O)[O-])ccc6F)c6ccc3[nH]6)C=C5)C=C4)cc2)CC1
REMARK SMILES IDX 23 1 22 2 21 3 20 4 19 5 17 6 18 7 12 9 11 10 3 11 6 12
REMARK SMILES IDX 93 13 7 14 92 15 8 16 9 17 10 18 2 20 1 21 4 22 5 23 13 24
REMARK SMILES IDX 14 25 15 26 16 27 24 28 25 29 26 30 27 31 28 33 29 34 30 35
REMARK SMILES IDX 91 36 31 37 90 38 32 39 33 40 34 41 84 42 35 43 89 44 83 45
REMARK SMILES IDX 85 46 36 47 88 48 82 49 81 50 37 52 69 53 49 54 68 55 50 56
REMARK SMILES IDX 53 57 67 58 86 59 51 60 52 61 66 63 87 64 54 65 38 66 39 67
REMARK SMILES IDX 47 68 40 69 46 70 48 71 45 72 41 73 42 74 43 75 44 76 70 77
REMARK SMILES IDX 71 78 79 79 72 80 78 81 80 82 77 83 73 84 74 85 75 86 76 87
REMARK SMILES IDX 55 88 56 89 64 90 57 91 63 92 65 93 62 94 58 95 59 96 60 97
REMARK SMILES IDX 61 98
REMARK H PARENT 19 8 11 19 26 32 85 51 53 62
REMARK Flexibility Score: inf
ROOT
ATOM      1  C   UNL A   1      39.273  21.956  26.155  1.00  0.00     0.002 C 
ENDROOT
BRANCH   1   2
ATOM      2  C   UNL A   1      37.804  22.320  25.919  1.00  0.00     0.002 C 
BRANCH   2   3
ATOM      3  C   UNL A   1      37.565  23.516  24.983  1.00  0.00     0.021 C 
BRANCH   3   4
ATOM      4  C   UNL A   1      36.560  23.255  23.860  1.00  0.00     0.116 C 
BRANCH   4   5
ATOM      5  N   UNL A   1      35.241  23.749  24.194  1.00  0.00    -0.354 N 
ATOM      6  C   UNL A   1      34.156  22.939  23.946  1.00  0.00     0.245 C 
ATOM      7  O   UNL A   1      33.721  22.883  22.800  1.00  0.00    -0.272 OA
ATOM      8  H   UNL A   1      35.123  24.642  24.589  1.00  0.00     0.163 HD
BRANCH   6   9
ATOM      9  C   UNL A   1      33.568  22.140  25.148  1.00  0.00     0.120 C 
BRANCH   9  10
ATOM     10  N   UNL A   1      32.098  22.320  25.394  1.00  0.00    -0.323 N 
ATOM     11  C   UNL A   1      31.270  27.062  24.650  1.00  0.00    -0.027 C 
ATOM     12  C   UNL A   1      29.986  26.225  24.973  1.00  0.00     0.028 C 
ATOM     13  C   UNL A   1      32.498  26.108  24.798  1.00  0.00     0.028 C 
ATOM     14  C   UNL A   1      30.099  25.305  26.205  1.00  0.00     0.122 C 
ATOM     15  C   UNL A   1      32.497  25.285  26.087  1.00  0.00     0.122 C 
ATOM     16  N   UNL A   1      31.305  24.473  26.118  1.00  0.00    -0.325 N 
ATOM     17  C   UNL A   1      31.163  23.140  25.894  1.00  0.00     0.318 C 
ATOM     18  O   UNL A   1      30.069  22.583  26.069  1.00  0.00    -0.249 OA
ATOM     19  H   UNL A   1      31.638  21.520  25.051  1.00  0.00     0.166 HD
BRANCH  11  20
ATOM     20  C   UNL A   1      31.447  28.229  25.678  1.00  0.00     0.004 C 
ATOM     21  C   UNL A   1      31.928  29.581  25.171  1.00  0.00     0.004 C 
ENDBRANCH  11  20
BRANCH  11  22
ATOM     22  C   UNL A   1      31.248  27.490  23.143  1.00  0.00     0.004 C 
ATOM     23  C   UNL A   1      29.996  28.172  22.607  1.00  0.00     0.004 C 
ENDBRANCH  11  22
ENDBRANCH   9  10
BRANCH   9  24
ATOM     24  C   UNL A   1      34.343  22.410  26.482  1.00  0.00     0.035 C 
ATOM     25  C   UNL A   1      33.677  21.924  27.768  1.00  0.00     0.007 C 
ENDBRANCH   9  24
BRANCH   9  26
ATOM     26  C   UNL A   1      33.750  20.640  24.691  1.00  0.00     0.035 C 
ATOM     27  C   UNL A   1      35.141  20.032  24.918  1.00  0.00     0.007 C 
ENDBRANCH   9  26
ENDBRANCH   6   9
ENDBRANCH   4   5
ENDBRANCH   3   4
ENDBRANCH   2   3
ENDBRANCH   1   2
BRANCH   1  28
ATOM     28  C   UNL A   1      39.656  20.531  25.761  1.00  0.00     0.021 C 
BRANCH  28  29
ATOM     29  C   UNL A   1      40.650  19.856  26.697  1.00  0.00     0.116 C 
BRANCH  29  30
ATOM     30  N   UNL A   1      41.898  19.525  26.033  1.00  0.00    -0.352 N 
ATOM     31  C   UNL A   1      42.925  20.372  25.696  1.00  0.00     0.251 C 
ATOM     32  H   UNL A   1      42.023  18.578  25.797  1.00  0.00     0.163 HD
ATOM     33  O   UNL A   1      43.846  19.977  24.986  1.00  0.00    -0.269 OA
BRANCH  31  34
ATOM     34  C   UNL A   1      42.882  21.775  26.163  1.00  0.00     0.039 A 
ATOM     35  C   UNL A   1      43.040  22.039  27.525  1.00  0.00     0.014 A 
ATOM     36  C   UNL A   1      42.745  22.826  25.250  1.00  0.00     0.014 A 
ATOM     37  C   UNL A   1      43.132  23.361  27.964  1.00  0.00     0.010 A 
ATOM     38  C   UNL A   1      42.905  24.141  25.682  1.00  0.00     0.010 A 
ATOM     39  C   UNL A   1      43.107  24.421  27.042  1.00  0.00    -0.014 A 
BRANCH  39  40
ATOM     40  C   UNL A   1      43.303  25.827  27.483  1.00  0.00     0.031 A 
ATOM     41  C   UNL A   1      44.677  26.436  27.475  1.00  0.00     0.074 A 
ATOM     42  C   UNL A   1      42.250  26.533  27.945  1.00  0.00     0.049 A 
ATOM     43  N   UNL A   1      45.062  27.617  27.889  1.00  0.00    -0.248 NA
ATOM     44  C   UNL A   1      45.767  25.596  26.958  1.00  0.00     0.031 C 
ATOM     45  C   UNL A   1      40.875  26.036  28.036  1.00  0.00     0.029 A 
ATOM     46  N   UNL A   1      42.172  27.812  28.437  1.00  0.00    -0.354 N 
ATOM     47  C   UNL A   1      46.437  27.661  27.688  1.00  0.00     0.074 A 
ATOM     48  C   UNL A   1      46.825  26.365  27.170  1.00  0.00     0.031 C 
ATOM     49  C   UNL A   1      40.088  27.007  28.529  1.00  0.00     0.029 A 
ATOM     50  C   UNL A   1      40.906  28.176  28.837  1.00  0.00     0.049 A 
ATOM     51  H   UNL A   1      42.949  28.414  28.496  1.00  0.00     0.167 HD
ATOM     52  C   UNL A   1      47.292  28.693  27.894  1.00  0.00     0.034 A 
ATOM     53  C   UNL A   1      40.457  29.315  29.402  1.00  0.00     0.034 A 
ATOM     54  C   UNL A   1      46.887  29.981  28.401  1.00  0.00     0.049 A 
ATOM     55  C   UNL A   1      41.436  30.434  29.658  1.00  0.00     0.074 A 
ATOM     56  C   UNL A   1      47.660  31.114  28.592  1.00  0.00     0.029 A 
ATOM     57  N   UNL A   1      45.600  30.309  28.807  1.00  0.00    -0.354 N 
ATOM     58  N   UNL A   1      42.725  30.476  29.413  1.00  0.00    -0.248 NA
ATOM     59  C   UNL A   1      40.897  31.659  30.263  1.00  0.00     0.031 C 
ATOM     60  C   UNL A   1      46.859  32.100  29.177  1.00  0.00     0.029 A 
ATOM     61  C   UNL A   1      45.567  31.611  29.283  1.00  0.00     0.049 A 
ATOM     62  H   UNL A   1      44.824  29.704  28.765  1.00  0.00     0.167 HD
ATOM     63  C   UNL A   1      43.145  31.742  29.811  1.00  0.00     0.074 A 
ATOM     64  C   UNL A   1      41.969  32.438  30.291  1.00  0.00     0.031 C 
ATOM     65  C   UNL A   1      44.388  32.284  29.778  1.00  0.00     0.034 A 
BRANCH  52  66
ATOM     66  C   UNL A   1      48.751  28.458  27.591  1.00  0.00     0.023 A 
ATOM     67  C   UNL A   1      49.241  28.458  26.273  1.00  0.00     0.031 A 
ATOM     68  C   UNL A   1      49.665  28.218  28.632  1.00  0.00     0.131 A 
ATOM     69  C   UNL A   1      50.589  28.156  26.027  1.00  0.00     0.055 A 
ATOM     70  C   UNL A   1      51.022  27.995  28.385  1.00  0.00     0.041 A 
ATOM     71  F   UNL A   1      49.254  28.186  29.910  1.00  0.00    -0.206 F 
ATOM     72  C   UNL A   1      51.488  27.949  27.074  1.00  0.00     0.022 A 
BRANCH  69  73
ATOM     73  S   UNL A   1      51.121  27.909  24.310  1.00  0.00     0.124 S 
ATOM     74  O   UNL A   1      52.288  28.785  24.235  1.00  0.00    -0.237 OA
ATOM     75  O   UNL A   1      51.393  26.477  24.267  1.00  0.00    -0.237 OA
ATOM     76  O   UNL A   1      49.969  28.350  23.528  1.00  0.00    -0.744 OA
ENDBRANCH  69  73
ENDBRANCH  52  66
BRANCH  53  77
ATOM     77  C   UNL A   1      39.024  29.457  29.790  1.00  0.00     0.023 A 
ATOM     78  C   UNL A   1      38.113  30.124  28.956  1.00  0.00     0.031 A 
ATOM     79  C   UNL A   1      38.556  28.973  31.024  1.00  0.00     0.131 A 
ATOM     80  C   UNL A   1      36.793  30.333  29.388  1.00  0.00     0.055 A 
ATOM     81  C   UNL A   1      37.229  29.136  31.426  1.00  0.00     0.041 A 
ATOM     82  F   UNL A   1      39.384  28.324  31.858  1.00  0.00    -0.206 F 
ATOM     83  C   UNL A   1      36.342  29.833  30.611  1.00  0.00     0.022 A 
BRANCH  80  84
ATOM     84  S   UNL A   1      35.698  31.356  28.364  1.00  0.00     0.124 S 
ATOM     85  O   UNL A   1      36.601  32.412  27.925  1.00  0.00    -0.237 OA
ATOM     86  O   UNL A   1      35.271  30.408  27.342  1.00  0.00    -0.237 OA
ATOM     87  O   UNL A   1      34.654  31.773  29.299  1.00  0.00    -0.744 OA
ENDBRANCH  80  84
ENDBRANCH  53  77
BRANCH  65  88
ATOM     88  C   UNL A   1      44.526  33.710  30.251  1.00  0.00     0.023 A 
ATOM     89  C   UNL A   1      44.820  34.017  31.592  1.00  0.00     0.031 A 
ATOM     90  C   UNL A   1      44.347  34.777  29.352  1.00  0.00     0.131 A 
ATOM     91  C   UNL A   1      44.873  35.356  32.006  1.00  0.00     0.055 A 
ATOM     92  C   UNL A   1      44.461  36.107  29.758  1.00  0.00     0.041 A 
ATOM     93  F   UNL A   1      44.063  34.541  28.061  1.00  0.00    -0.206 F 
ATOM     94  C   UNL A   1      44.713  36.402  31.094  1.00  0.00     0.022 A 
BRANCH  91  95
ATOM     95  S   UNL A   1      45.072  35.713  33.773  1.00  0.00     0.124 S 
ATOM     96  O   UNL A   1      43.884  35.088  34.345  1.00  0.00    -0.237 OA
ATOM     97  O   UNL A   1      46.343  35.067  34.081  1.00  0.00    -0.237 OA
ATOM     98  O   UNL A   1      45.091  37.174  33.828  1.00  0.00    -0.744 OA
ENDBRANCH  91  95
ENDBRANCH  65  88
ENDBRANCH  39  40
ENDBRANCH  31  34
ENDBRANCH  29  30
ENDBRANCH  28  29
ENDBRANCH   1  28
TORSDOF 21
ENDMDL
