MODEL 1
REMARK VINA RESULT:     -11.7      0.000      0.000
REMARK SMILES Cc1nsc(NC(=O)CC2([NH3+])CCC2)c1C(=O)NCCCCCCNC(=O)c1ccc(-c2c3nc(c(-c4cc(S(=O)(=O)[O-])ccc4F)c4ccc([nH]4)c(-c4cc(S(=O)(=O)[O-])ccc4F)c4nc(c(-c5cc(S(=O)(=O)[O-])ccc5F)c5ccc2[nH]5)C=C4)C=C3)cc1
REMARK SMILES IDX 21 1 20 2 19 3 18 4 16 5 17 6 15 8 1 9 2 10 3 11 4 12 5 13
REMARK SMILES IDX 6 14 7 15 8 17 9 18 10 19 12 20 14 21 13 22 11 23 22 27
REMARK SMILES IDX 23 28 24 29 25 30 26 31 27 33 28 34 29 35 90 36 30 37 89 38
REMARK SMILES IDX 31 39 32 40 33 41 83 42 34 43 88 44 82 45 84 46 35 47 87 48
REMARK SMILES IDX 81 49 80 50 36 52 68 53 48 54 67 55 49 56 52 57 66 58 85 59
REMARK SMILES IDX 50 60 51 61 65 63 86 64 53 65 37 66 38 67 46 68 39 69 45 70
REMARK SMILES IDX 47 71 44 72 40 73 41 74 42 75 43 76 69 77 70 78 78 79 71 80
REMARK SMILES IDX 77 81 79 82 76 83 72 84 73 85 74 86 75 87 54 88 55 89 63 90
REMARK SMILES IDX 56 91 62 92 64 93 61 94 57 95 58 96 59 97 60 98
REMARK H PARENT 18 7 6 16 11 24 11 25 11 26 25 32 84 51 52 62
REMARK Flexibility Score: inf
ROOT
ATOM      1  C   UNL A   1      31.729  29.303  25.722  1.00  0.00     0.002 C 
ENDROOT
BRANCH   1   2
ATOM      2  C   UNL A   1      31.570  27.799  25.480  1.00  0.00     0.021 C 
BRANCH   2   3
ATOM      3  C   UNL A   1      32.497  26.970  26.371  1.00  0.00     0.116 C 
BRANCH   3   4
ATOM      4  N   UNL A   1      31.865  25.700  26.609  1.00  0.00    -0.352 N 
ATOM      5  C   UNL A   1      31.831  24.554  25.876  1.00  0.00     0.256 C 
ATOM      6  O   UNL A   1      31.105  23.661  26.320  1.00  0.00    -0.269 OA
ATOM      7  H   UNL A   1      31.367  25.651  27.456  1.00  0.00     0.163 HD
BRANCH   5   8
ATOM      8  C   UNL A   1      32.741  24.309  24.761  1.00  0.00     0.097 A 
ATOM      9  C   UNL A   1      31.616  25.120  22.469  1.00  0.00     0.069 C 
ATOM     10  C   UNL A   1      32.737  24.657  23.345  1.00  0.00     0.066 A 
ATOM     11  N   UNL A   1      33.879  24.404  22.693  1.00  0.00    -0.195 NA
ATOM     12  S   UNL A   1      34.867  23.516  23.662  1.00  0.00    -0.017 S 
ATOM     13  C   UNL A   1      33.765  23.378  24.937  1.00  0.00     0.129 A 
BRANCH  13  14
ATOM     14  N   UNL A   1      33.937  22.518  26.004  1.00  0.00    -0.316 N 
ATOM     15  C   UNL A   1      33.477  21.244  26.183  1.00  0.00     0.231 C 
ATOM     16  H   UNL A   1      34.473  22.878  26.748  1.00  0.00     0.170 HD
ATOM     17  O   UNL A   1      33.670  20.718  27.286  1.00  0.00    -0.274 OA
BRANCH  15  18
ATOM     18  C   UNL A   1      32.694  20.502  25.127  1.00  0.00     0.168 C 
BRANCH  18  19
ATOM     19  C   UNL A   1      32.972  19.005  25.009  1.00  0.00     0.103 C 
ATOM     20  C   UNL A   1      32.494  18.065  23.859  1.00  0.00     0.069 C 
ATOM     21  C   UNL A   1      34.432  18.681  24.586  1.00  0.00     0.069 C 
ATOM     22  C   UNL A   1      33.925  17.526  23.709  1.00  0.00     0.013 C 
BRANCH  19  23
ATOM     23  N   UNL A   1      32.711  18.287  26.272  1.00  0.00    -0.352 N 
ATOM     24  H   UNL A   1      32.281  18.925  26.943  1.00  0.00     0.344 HD
ATOM     25  H   UNL A   1      33.590  17.936  26.652  1.00  0.00     0.344 HD
ATOM     26  H   UNL A   1      32.080  17.505  26.096  1.00  0.00     0.344 HD
ENDBRANCH  19  23
ENDBRANCH  18  19
ENDBRANCH  15  18
ENDBRANCH  13  14
ENDBRANCH   5   8
ENDBRANCH   3   4
ENDBRANCH   2   3
ENDBRANCH   1   2
BRANCH   1  27
ATOM     27  C   UNL A   1      32.336  29.662  27.090  1.00  0.00     0.002 C 
BRANCH  27  28
ATOM     28  C   UNL A   1      33.105  30.993  27.145  1.00  0.00     0.021 C 
BRANCH  28  29
ATOM     29  C   UNL A   1      34.417  30.867  27.898  1.00  0.00     0.116 C 
BRANCH  29  30
ATOM     30  N   UNL A   1      35.003  32.187  28.169  1.00  0.00    -0.352 N 
ATOM     31  C   UNL A   1      36.165  32.527  28.847  1.00  0.00     0.251 C 
ATOM     32  H   UNL A   1      34.492  32.949  27.813  1.00  0.00     0.163 HD
ATOM     33  O   UNL A   1      36.310  33.649  29.298  1.00  0.00    -0.269 OA
BRANCH  31  34
ATOM     34  C   UNL A   1      37.214  31.502  28.993  1.00  0.00     0.039 A 
ATOM     35  C   UNL A   1      37.197  30.274  28.326  1.00  0.00     0.014 A 
ATOM     36  C   UNL A   1      38.274  31.833  29.818  1.00  0.00     0.014 A 
ATOM     37  C   UNL A   1      38.268  29.401  28.529  1.00  0.00     0.010 A 
ATOM     38  C   UNL A   1      39.450  31.175  29.678  1.00  0.00     0.010 A 
ATOM     39  C   UNL A   1      39.382  29.871  29.235  1.00  0.00    -0.014 A 
BRANCH  39  40
ATOM     40  C   UNL A   1      40.569  29.091  29.534  1.00  0.00     0.031 A 
ATOM     41  C   UNL A   1      40.769  28.867  30.980  1.00  0.00     0.074 A 
ATOM     42  C   UNL A   1      41.195  28.368  28.573  1.00  0.00     0.049 A 
ATOM     43  N   UNL A   1      41.663  29.411  31.733  1.00  0.00    -0.248 NA
ATOM     44  C   UNL A   1      39.730  28.136  31.726  1.00  0.00     0.031 C 
ATOM     45  C   UNL A   1      40.864  28.235  27.146  1.00  0.00     0.029 A 
ATOM     46  N   UNL A   1      42.219  27.489  28.707  1.00  0.00    -0.354 N 
ATOM     47  C   UNL A   1      41.457  28.879  32.999  1.00  0.00     0.074 A 
ATOM     48  C   UNL A   1      40.125  28.345  32.983  1.00  0.00     0.031 C 
ATOM     49  C   UNL A   1      41.521  27.173  26.620  1.00  0.00     0.029 A 
ATOM     50  C   UNL A   1      42.424  26.637  27.623  1.00  0.00     0.049 A 
ATOM     51  H   UNL A   1      42.779  27.455  29.516  1.00  0.00     0.167 HD
ATOM     52  C   UNL A   1      42.499  28.688  33.857  1.00  0.00     0.034 A 
ATOM     53  C   UNL A   1      43.246  25.547  27.590  1.00  0.00     0.034 A 
ATOM     54  C   UNL A   1      43.689  29.346  33.353  1.00  0.00     0.049 A 
ATOM     55  C   UNL A   1      44.237  25.755  28.686  1.00  0.00     0.074 A 
ATOM     56  C   UNL A   1      44.004  30.657  33.047  1.00  0.00     0.029 A 
ATOM     57  N   UNL A   1      44.608  28.575  32.669  1.00  0.00    -0.354 N 
ATOM     58  N   UNL A   1      45.086  26.751  28.693  1.00  0.00    -0.248 NA
ATOM     59  C   UNL A   1      43.915  25.217  30.002  1.00  0.00     0.031 C 
ATOM     60  C   UNL A   1      44.724  30.578  31.818  1.00  0.00     0.029 A 
ATOM     61  C   UNL A   1      44.916  29.230  31.499  1.00  0.00     0.049 A 
ATOM     62  H   UNL A   1      44.976  27.712  32.967  1.00  0.00     0.167 HD
ATOM     63  C   UNL A   1      45.063  27.244  29.991  1.00  0.00     0.074 A 
ATOM     64  C   UNL A   1      44.383  26.208  30.772  1.00  0.00     0.031 C 
ATOM     65  C   UNL A   1      45.298  28.566  30.261  1.00  0.00     0.034 A 
BRANCH  52  66
ATOM     66  C   UNL A   1      42.569  27.641  34.944  1.00  0.00     0.023 A 
ATOM     67  C   UNL A   1      43.337  26.493  34.667  1.00  0.00     0.031 A 
ATOM     68  C   UNL A   1      41.758  27.566  36.098  1.00  0.00     0.131 A 
ATOM     69  C   UNL A   1      43.203  25.325  35.435  1.00  0.00     0.055 A 
ATOM     70  C   UNL A   1      41.678  26.424  36.900  1.00  0.00     0.041 A 
ATOM     71  F   UNL A   1      40.929  28.545  36.475  1.00  0.00    -0.206 F 
ATOM     72  C   UNL A   1      42.376  25.281  36.553  1.00  0.00     0.022 A 
BRANCH  69  73
ATOM     73  S   UNL A   1      43.995  23.813  34.836  1.00  0.00     0.124 S 
ATOM     74  O   UNL A   1      44.477  23.220  36.078  1.00  0.00    -0.237 OA
ATOM     75  O   UNL A   1      42.882  23.130  34.185  1.00  0.00    -0.237 OA
ATOM     76  O   UNL A   1      45.034  24.309  33.937  1.00  0.00    -0.744 OA
ENDBRANCH  69  73
ENDBRANCH  52  66
BRANCH  53  77
ATOM     77  C   UNL A   1      42.949  24.215  26.964  1.00  0.00     0.023 A 
ATOM     78  C   UNL A   1      43.823  23.547  26.071  1.00  0.00     0.031 A 
ATOM     79  C   UNL A   1      41.854  23.455  27.442  1.00  0.00     0.131 A 
ATOM     80  C   UNL A   1      43.579  22.197  25.698  1.00  0.00     0.055 A 
ATOM     81  C   UNL A   1      41.622  22.126  27.073  1.00  0.00     0.041 A 
ATOM     82  F   UNL A   1      41.010  23.951  28.359  1.00  0.00    -0.206 F 
ATOM     83  C   UNL A   1      42.490  21.487  26.207  1.00  0.00     0.022 A 
BRANCH  80  84
ATOM     84  S   UNL A   1      44.729  21.293  24.600  1.00  0.00     0.124 S 
ATOM     85  O   UNL A   1      44.082  19.992  24.479  1.00  0.00    -0.237 OA
ATOM     86  O   UNL A   1      44.743  22.126  23.403  1.00  0.00    -0.237 OA
ATOM     87  O   UNL A   1      45.985  21.284  25.352  1.00  0.00    -0.744 OA
ENDBRANCH  80  84
ENDBRANCH  53  77
BRANCH  65  88
ATOM     88  C   UNL A   1      45.811  29.461  29.140  1.00  0.00     0.023 A 
ATOM     89  C   UNL A   1      45.014  30.319  28.344  1.00  0.00     0.031 A 
ATOM     90  C   UNL A   1      47.206  29.551  28.983  1.00  0.00     0.131 A 
ATOM     91  C   UNL A   1      45.620  31.214  27.437  1.00  0.00     0.055 A 
ATOM     92  C   UNL A   1      47.803  30.456  28.106  1.00  0.00     0.041 A 
ATOM     93  F   UNL A   1      48.023  28.785  29.724  1.00  0.00    -0.206 F 
ATOM     94  C   UNL A   1      47.012  31.289  27.325  1.00  0.00     0.022 A 
BRANCH  91  95
ATOM     95  S   UNL A   1      44.613  32.291  26.360  1.00  0.00     0.124 S 
ATOM     96  O   UNL A   1      43.551  31.407  25.892  1.00  0.00    -0.237 OA
ATOM     97  O   UNL A   1      44.202  33.357  27.271  1.00  0.00    -0.237 OA
ATOM     98  O   UNL A   1      45.555  32.711  25.321  1.00  0.00    -0.744 OA
ENDBRANCH  91  95
ENDBRANCH  65  88
ENDBRANCH  39  40
ENDBRANCH  31  34
ENDBRANCH  29  30
ENDBRANCH  28  29
ENDBRANCH  27  28
ENDBRANCH   1  27
TORSDOF 20
ENDMDL
MODEL 2
REMARK VINA RESULT:     -11.4      1.349      3.008
REMARK SMILES Cc1nsc(NC(=O)CC2([NH3+])CCC2)c1C(=O)NCCCCCCNC(=O)c1ccc(-c2c3nc(c(-c4cc(S(=O)(=O)[O-])ccc4F)c4ccc([nH]4)c(-c4cc(S(=O)(=O)[O-])ccc4F)c4nc(c(-c5cc(S(=O)(=O)[O-])ccc5F)c5ccc2[nH]5)C=C4)C=C3)cc1
REMARK SMILES IDX 21 1 20 2 19 3 18 4 16 5 17 6 15 8 1 9 2 10 3 11 4 12 5 13
REMARK SMILES IDX 6 14 7 15 8 17 9 18 10 19 12 20 14 21 13 22 11 23 22 27
REMARK SMILES IDX 23 28 24 29 25 30 26 31 27 33 28 34 29 35 90 36 30 37 89 38
REMARK SMILES IDX 31 39 32 40 33 41 83 42 34 43 88 44 82 45 84 46 35 47 87 48
REMARK SMILES IDX 81 49 80 50 36 52 68 53 48 54 67 55 49 56 52 57 66 58 85 59
REMARK SMILES IDX 50 60 51 61 65 63 86 64 53 65 37 66 38 67 46 68 39 69 45 70
REMARK SMILES IDX 47 71 44 72 40 73 41 74 42 75 43 76 69 77 70 78 78 79 71 80
REMARK SMILES IDX 77 81 79 82 76 83 72 84 73 85 74 86 75 87 54 88 55 89 63 90
REMARK SMILES IDX 56 91 62 92 64 93 61 94 57 95 58 96 59 97 60 98
REMARK H PARENT 18 7 6 16 11 24 11 25 11 26 25 32 84 51 52 62
REMARK Flexibility Score: inf
ROOT
ATOM      1  C   UNL A   1      31.825  28.219  27.633  1.00  0.00     0.002 C 
ENDROOT
BRANCH   1   2
ATOM      2  C   UNL A   1      31.400  27.249  26.526  1.00  0.00     0.021 C 
BRANCH   2   3
ATOM      3  C   UNL A   1      32.274  25.994  26.492  1.00  0.00     0.116 C 
BRANCH   3   4
ATOM      4  N   UNL A   1      31.550  24.930  27.134  1.00  0.00    -0.352 N 
ATOM      5  C   UNL A   1      31.175  23.697  26.697  1.00  0.00     0.256 C 
ATOM      6  O   UNL A   1      30.463  23.053  27.472  1.00  0.00    -0.269 OA
ATOM      7  H   UNL A   1      31.275  25.131  28.057  1.00  0.00     0.163 HD
BRANCH   5   8
ATOM      8  C   UNL A   1      31.737  23.086  25.496  1.00  0.00     0.097 A 
ATOM      9  C   UNL A   1      34.178  22.116  26.020  1.00  0.00     0.069 C 
ATOM     10  C   UNL A   1      32.930  22.298  25.214  1.00  0.00     0.066 A 
ATOM     11  N   UNL A   1      32.978  21.753  23.992  1.00  0.00    -0.195 NA
ATOM     12  S   UNL A   1      31.762  22.376  23.077  1.00  0.00    -0.017 S 
ATOM     13  C   UNL A   1      31.197  23.444  24.260  1.00  0.00     0.129 A 
BRANCH  13  14
ATOM     14  N   UNL A   1      30.284  24.449  24.007  1.00  0.00    -0.316 N 
ATOM     15  C   UNL A   1      30.441  25.620  23.322  1.00  0.00     0.231 C 
ATOM     16  H   UNL A   1      29.384  24.298  24.377  1.00  0.00     0.170 HD
ATOM     17  O   UNL A   1      29.495  26.417  23.331  1.00  0.00    -0.274 OA
BRANCH  15  18
ATOM     18  C   UNL A   1      31.729  25.996  22.629  1.00  0.00     0.168 C 
BRANCH  18  19
ATOM     19  C   UNL A   1      32.067  27.485  22.596  1.00  0.00     0.103 C 
ATOM     20  C   UNL A   1      32.437  28.375  23.822  1.00  0.00     0.069 C 
ATOM     21  C   UNL A   1      33.483  27.782  22.028  1.00  0.00     0.069 C 
ATOM     22  C   UNL A   1      33.668  28.899  23.065  1.00  0.00     0.013 C 
BRANCH  19  23
ATOM     23  N   UNL A   1      31.101  28.260  21.793  1.00  0.00    -0.352 N 
ATOM     24  H   UNL A   1      30.289  27.677  21.582  1.00  0.00     0.344 HD
ATOM     25  H   UNL A   1      31.542  28.556  20.922  1.00  0.00     0.344 HD
ATOM     26  H   UNL A   1      30.801  29.081  22.319  1.00  0.00     0.344 HD
ENDBRANCH  19  23
ENDBRANCH  18  19
ENDBRANCH  15  18
ENDBRANCH  13  14
ENDBRANCH   5   8
ENDBRANCH   3   4
ENDBRANCH   2   3
ENDBRANCH   1   2
BRANCH   1  27
ATOM     27  C   UNL A   1      31.850  29.696  27.204  1.00  0.00     0.002 C 
BRANCH  27  28
ATOM     28  C   UNL A   1      33.177  30.190  26.603  1.00  0.00     0.021 C 
BRANCH  28  29
ATOM     29  C   UNL A   1      34.292  30.231  27.632  1.00  0.00     0.116 C 
BRANCH  29  30
ATOM     30  N   UNL A   1      34.829  31.590  27.780  1.00  0.00    -0.352 N 
ATOM     31  C   UNL A   1      35.985  32.032  28.410  1.00  0.00     0.251 C 
ATOM     32  H   UNL A   1      34.284  32.299  27.368  1.00  0.00     0.163 HD
ATOM     33  O   UNL A   1      36.090  33.193  28.760  1.00  0.00    -0.269 OA
BRANCH  31  34
ATOM     34  C   UNL A   1      37.074  31.063  28.627  1.00  0.00     0.039 A 
ATOM     35  C   UNL A   1      37.098  29.782  28.070  1.00  0.00     0.014 A 
ATOM     36  C   UNL A   1      38.132  31.505  29.403  1.00  0.00     0.014 A 
ATOM     37  C   UNL A   1      38.204  28.972  28.331  1.00  0.00     0.010 A 
ATOM     38  C   UNL A   1      39.330  30.882  29.302  1.00  0.00     0.010 A 
ATOM     39  C   UNL A   1      39.308  29.543  28.976  1.00  0.00    -0.014 A 
BRANCH  39  40
ATOM     40  C   UNL A   1      40.528  28.837  29.321  1.00  0.00     0.031 A 
ATOM     41  C   UNL A   1      40.711  28.672  30.778  1.00  0.00     0.074 A 
ATOM     42  C   UNL A   1      41.211  28.118  28.397  1.00  0.00     0.049 A 
ATOM     43  N   UNL A   1      41.560  29.287  31.528  1.00  0.00    -0.248 NA
ATOM     44  C   UNL A   1      39.697  27.911  31.529  1.00  0.00     0.031 C 
ATOM     45  C   UNL A   1      40.915  27.921  26.970  1.00  0.00     0.029 A 
ATOM     46  N   UNL A   1      42.277  27.300  28.579  1.00  0.00    -0.354 N 
ATOM     47  C   UNL A   1      41.357  28.786  32.807  1.00  0.00     0.074 A 
ATOM     48  C   UNL A   1      40.056  28.183  32.785  1.00  0.00     0.031 C 
ATOM     49  C   UNL A   1      41.637  26.879  26.491  1.00  0.00     0.029 A 
ATOM     50  C   UNL A   1      42.547  26.424  27.528  1.00  0.00     0.049 A 
ATOM     51  H   UNL A   1      42.822  27.322  29.398  1.00  0.00     0.167 HD
ATOM     52  C   UNL A   1      42.391  28.680  33.690  1.00  0.00     0.034 A 
ATOM     53  C   UNL A   1      43.426  25.379  27.546  1.00  0.00     0.034 A 
ATOM     54  C   UNL A   1      43.554  29.384  33.186  1.00  0.00     0.049 A 
ATOM     55  C   UNL A   1      44.382  25.676  28.653  1.00  0.00     0.074 A 
ATOM     56  C   UNL A   1      43.806  30.698  32.841  1.00  0.00     0.029 A 
ATOM     57  N   UNL A   1      44.525  28.640  32.545  1.00  0.00    -0.354 N 
ATOM     58  N   UNL A   1      45.178  26.716  28.642  1.00  0.00    -0.248 NA
ATOM     59  C   UNL A   1      44.064  25.165  29.981  1.00  0.00     0.031 C 
ATOM     60  C   UNL A   1      44.553  30.618  31.628  1.00  0.00     0.029 A 
ATOM     61  C   UNL A   1      44.822  29.272  31.359  1.00  0.00     0.049 A 
ATOM     62  H   UNL A   1      44.933  27.808  32.878  1.00  0.00     0.167 HD
ATOM     63  C   UNL A   1      45.103  27.249  29.922  1.00  0.00     0.074 A 
ATOM     64  C   UNL A   1      44.463  26.204  30.725  1.00  0.00     0.031 C 
ATOM     65  C   UNL A   1      45.263  28.589  30.151  1.00  0.00     0.034 A 
BRANCH  52  66
ATOM     66  C   UNL A   1      42.494  27.673  34.812  1.00  0.00     0.023 A 
ATOM     67  C   UNL A   1      43.226  26.501  34.544  1.00  0.00     0.031 A 
ATOM     68  C   UNL A   1      41.739  27.659  36.006  1.00  0.00     0.131 A 
ATOM     69  C   UNL A   1      43.108  25.366  35.364  1.00  0.00     0.055 A 
ATOM     70  C   UNL A   1      41.677  26.551  36.855  1.00  0.00     0.041 A 
ATOM     71  F   UNL A   1      40.948  28.669  36.383  1.00  0.00    -0.206 F 
ATOM     72  C   UNL A   1      42.337  25.382  36.520  1.00  0.00     0.022 A 
BRANCH  69  73
ATOM     73  S   UNL A   1      43.843  23.816  34.788  1.00  0.00     0.124 S 
ATOM     74  O   UNL A   1      42.663  23.065  34.377  1.00  0.00    -0.237 OA
ATOM     75  O   UNL A   1      44.718  24.280  33.717  1.00  0.00    -0.237 OA
ATOM     76  O   UNL A   1      44.525  23.306  35.974  1.00  0.00    -0.744 OA
ENDBRANCH  69  73
ENDBRANCH  52  66
BRANCH  53  77
ATOM     77  C   UNL A   1      43.212  24.014  26.961  1.00  0.00     0.023 A 
ATOM     78  C   UNL A   1      44.039  23.442  25.963  1.00  0.00     0.031 A 
ATOM     79  C   UNL A   1      42.284  23.137  27.573  1.00  0.00     0.131 A 
ATOM     80  C   UNL A   1      43.911  22.068  25.621  1.00  0.00     0.055 A 
ATOM     81  C   UNL A   1      42.166  21.785  27.234  1.00  0.00     0.041 A 
ATOM     82  F   UNL A   1      41.509  23.541  28.590  1.00  0.00    -0.206 F 
ATOM     83  C   UNL A   1      42.986  21.242  26.262  1.00  0.00     0.022 A 
BRANCH  80  84
ATOM     84  S   UNL A   1      45.012  21.291  24.384  1.00  0.00     0.124 S 
ATOM     85  O   UNL A   1      46.333  21.525  24.955  1.00  0.00    -0.237 OA
ATOM     86  O   UNL A   1      44.546  19.910  24.368  1.00  0.00    -0.237 OA
ATOM     87  O   UNL A   1      44.733  22.043  23.159  1.00  0.00    -0.744 OA
ENDBRANCH  80  84
ENDBRANCH  53  77
BRANCH  65  88
ATOM     88  C   UNL A   1      45.750  29.473  29.010  1.00  0.00     0.023 A 
ATOM     89  C   UNL A   1      44.967  30.431  28.321  1.00  0.00     0.031 A 
ATOM     90  C   UNL A   1      47.126  29.439  28.718  1.00  0.00     0.131 A 
ATOM     91  C   UNL A   1      45.567  31.299  27.384  1.00  0.00     0.055 A 
ATOM     92  C   UNL A   1      47.720  30.315  27.812  1.00  0.00     0.041 A 
ATOM     93  F   UNL A   1      47.932  28.572  29.353  1.00  0.00    -0.206 F 
ATOM     94  C   UNL A   1      46.943  31.247  27.137  1.00  0.00     0.022 A 
BRANCH  91  95
ATOM     95  S   UNL A   1      44.570  32.504  26.442  1.00  0.00     0.124 S 
ATOM     96  O   UNL A   1      43.554  31.677  25.800  1.00  0.00    -0.237 OA
ATOM     97  O   UNL A   1      44.093  33.407  27.486  1.00  0.00    -0.237 OA
ATOM     98  O   UNL A   1      45.538  33.101  25.519  1.00  0.00    -0.744 OA
ENDBRANCH  91  95
ENDBRANCH  65  88
ENDBRANCH  39  40
ENDBRANCH  31  34
ENDBRANCH  29  30
ENDBRANCH  28  29
ENDBRANCH  27  28
ENDBRANCH   1  27
TORSDOF 20
ENDMDL
MODEL 3
REMARK VINA RESULT:     -11.3      3.152      9.357
REMARK SMILES Cc1nsc(NC(=O)CC2([NH3+])CCC2)c1C(=O)NCCCCCCNC(=O)c1ccc(-c2c3nc(c(-c4cc(S(=O)(=O)[O-])ccc4F)c4ccc([nH]4)c(-c4cc(S(=O)(=O)[O-])ccc4F)c4nc(c(-c5cc(S(=O)(=O)[O-])ccc5F)c5ccc2[nH]5)C=C4)C=C3)cc1
REMARK SMILES IDX 21 1 20 2 19 3 18 4 16 5 17 6 15 8 1 9 2 10 3 11 4 12 5 13
REMARK SMILES IDX 6 14 7 15 8 17 9 18 10 19 12 20 14 21 13 22 11 23 22 27
REMARK SMILES IDX 23 28 24 29 25 30 26 31 27 33 28 34 29 35 90 36 30 37 89 38
REMARK SMILES IDX 31 39 32 40 33 41 83 42 34 43 88 44 82 45 84 46 35 47 87 48
REMARK SMILES IDX 81 49 80 50 36 52 68 53 48 54 67 55 49 56 52 57 66 58 85 59
REMARK SMILES IDX 50 60 51 61 65 63 86 64 53 65 37 66 38 67 46 68 39 69 45 70
REMARK SMILES IDX 47 71 44 72 40 73 41 74 42 75 43 76 69 77 70 78 78 79 71 80
REMARK SMILES IDX 77 81 79 82 76 83 72 84 73 85 74 86 75 87 54 88 55 89 63 90
REMARK SMILES IDX 56 91 62 92 64 93 61 94 57 95 58 96 59 97 60 98
REMARK H PARENT 18 7 6 16 11 24 11 25 11 26 25 32 84 51 52 62
REMARK Flexibility Score: inf
ROOT
ATOM      1  C   UNL A   1      35.385  22.773  23.604  1.00  0.00     0.002 C 
ENDROOT
BRANCH   1   2
ATOM      2  C   UNL A   1      34.503  23.883  23.023  1.00  0.00     0.021 C 
BRANCH   2   3
ATOM      3  C   UNL A   1      33.539  23.355  21.958  1.00  0.00     0.116 C 
BRANCH   3   4
ATOM      4  N   UNL A   1      32.207  23.744  22.333  1.00  0.00    -0.352 N 
ATOM      5  C   UNL A   1      31.406  23.354  23.362  1.00  0.00     0.256 C 
ATOM      6  O   UNL A   1      30.259  23.810  23.345  1.00  0.00    -0.269 OA
ATOM      7  H   UNL A   1      31.800  24.413  21.737  1.00  0.00     0.163 HD
BRANCH   5   8
ATOM      8  C   UNL A   1      31.914  22.620  24.517  1.00  0.00     0.097 A 
ATOM      9  C   UNL A   1      32.379  20.069  23.846  1.00  0.00     0.069 C 
ATOM     10  C   UNL A   1      32.457  21.282  24.718  1.00  0.00     0.066 A 
ATOM     11  N   UNL A   1      33.001  21.063  25.922  1.00  0.00    -0.195 NA
ATOM     12  S   UNL A   1      32.642  22.326  26.913  1.00  0.00    -0.017 S 
ATOM     13  C   UNL A   1      31.687  23.150  25.788  1.00  0.00     0.129 A 
BRANCH  13  14
ATOM     14  N   UNL A   1      30.885  24.227  26.112  1.00  0.00    -0.316 N 
ATOM     15  C   UNL A   1      31.217  25.539  26.297  1.00  0.00     0.231 C 
ATOM     16  H   UNL A   1      29.929  24.017  26.225  1.00  0.00     0.170 HD
ATOM     17  O   UNL A   1      30.328  26.301  26.698  1.00  0.00    -0.274 OA
BRANCH  15  18
ATOM     18  C   UNL A   1      32.620  26.063  26.102  1.00  0.00     0.168 C 
BRANCH  18  19
ATOM     19  C   UNL A   1      32.784  27.581  26.140  1.00  0.00     0.103 C 
ATOM     20  C   UNL A   1      32.964  28.458  27.418  1.00  0.00     0.069 C 
ATOM     21  C   UNL A   1      34.192  28.059  25.687  1.00  0.00     0.069 C 
ATOM     22  C   UNL A   1      34.174  29.148  26.770  1.00  0.00     0.013 C 
BRANCH  19  23
ATOM     23  N   UNL A   1      31.792  28.272  25.294  1.00  0.00    -0.352 N 
ATOM     24  H   UNL A   1      31.182  28.842  25.882  1.00  0.00     0.344 HD
ATOM     25  H   UNL A   1      31.233  27.582  24.792  1.00  0.00     0.344 HD
ATOM     26  H   UNL A   1      32.274  28.872  24.624  1.00  0.00     0.344 HD
ENDBRANCH  19  23
ENDBRANCH  18  19
ENDBRANCH  15  18
ENDBRANCH  13  14
ENDBRANCH   5   8
ENDBRANCH   3   4
ENDBRANCH   2   3
ENDBRANCH   1   2
BRANCH   1  27
ATOM     27  C   UNL A   1      36.741  23.260  24.143  1.00  0.00     0.002 C 
BRANCH  27  28
ATOM     28  C   UNL A   1      36.933  23.140  25.664  1.00  0.00     0.021 C 
BRANCH  28  29
ATOM     29  C   UNL A   1      38.254  23.727  26.124  1.00  0.00     0.116 C 
BRANCH  29  30
ATOM     30  N   UNL A   1      39.110  22.700  26.731  1.00  0.00    -0.352 N 
ATOM     31  C   UNL A   1      40.319  22.824  27.403  1.00  0.00     0.251 C 
ATOM     32  H   UNL A   1      38.774  21.778  26.650  1.00  0.00     0.163 HD
ATOM     33  O   UNL A   1      41.065  21.868  27.511  1.00  0.00    -0.269 OA
BRANCH  31  34
ATOM     34  C   UNL A   1      40.661  24.133  27.986  1.00  0.00     0.039 A 
ATOM     35  C   UNL A   1      41.969  24.544  28.260  1.00  0.00     0.014 A 
ATOM     36  C   UNL A   1      39.599  24.987  28.225  1.00  0.00     0.014 A 
ATOM     37  C   UNL A   1      42.160  25.823  28.785  1.00  0.00     0.010 A 
ATOM     38  C   UNL A   1      39.833  26.316  28.338  1.00  0.00     0.010 A 
ATOM     39  C   UNL A   1      41.062  26.690  28.838  1.00  0.00    -0.014 A 
BRANCH  39  40
ATOM     40  C   UNL A   1      41.094  28.044  29.358  1.00  0.00     0.031 A 
ATOM     41  C   UNL A   1      42.085  28.904  28.679  1.00  0.00     0.074 A 
ATOM     42  C   UNL A   1      40.084  28.528  30.121  1.00  0.00     0.049 A 
ATOM     43  N   UNL A   1      43.202  29.329  29.159  1.00  0.00    -0.248 NA
ATOM     44  C   UNL A   1      41.934  29.138  27.232  1.00  0.00     0.031 C 
ATOM     45  C   UNL A   1      38.855  27.857  30.570  1.00  0.00     0.029 A 
ATOM     46  N   UNL A   1      39.891  29.795  30.568  1.00  0.00    -0.354 N 
ATOM     47  C   UNL A   1      43.768  30.106  28.157  1.00  0.00     0.074 A 
ATOM     48  C   UNL A   1      43.099  29.722  26.946  1.00  0.00     0.031 C 
ATOM     49  C   UNL A   1      37.966  28.777  31.018  1.00  0.00     0.029 A 
ATOM     50  C   UNL A   1      38.605  30.082  31.022  1.00  0.00     0.049 A 
ATOM     51  H   UNL A   1      40.611  30.466  30.569  1.00  0.00     0.167 HD
ATOM     52  C   UNL A   1      44.546  31.183  28.460  1.00  0.00     0.034 A 
ATOM     53  C   UNL A   1      38.108  31.316  31.331  1.00  0.00     0.034 A 
ATOM     54  C   UNL A   1      44.870  31.186  29.873  1.00  0.00     0.049 A 
ATOM     55  C   UNL A   1      39.299  32.175  31.597  1.00  0.00     0.074 A 
ATOM     56  C   UNL A   1      45.529  30.304  30.709  1.00  0.00     0.029 A 
ATOM     57  N   UNL A   1      44.108  31.983  30.704  1.00  0.00    -0.354 N 
ATOM     58  N   UNL A   1      40.129  31.949  32.584  1.00  0.00    -0.248 NA
ATOM     59  C   UNL A   1      39.870  32.910  30.475  1.00  0.00     0.031 C 
ATOM     60  C   UNL A   1      44.739  30.272  31.896  1.00  0.00     0.029 A 
ATOM     61  C   UNL A   1      43.714  31.216  31.776  1.00  0.00     0.049 A 
ATOM     62  H   UNL A   1      43.886  32.931  30.555  1.00  0.00     0.167 HD
ATOM     63  C   UNL A   1      41.397  32.109  32.041  1.00  0.00     0.074 A 
ATOM     64  C   UNL A   1      41.172  32.780  30.758  1.00  0.00     0.031 C 
ATOM     65  C   UNL A   1      42.474  31.407  32.513  1.00  0.00     0.034 A 
BRANCH  52  66
ATOM     66  C   UNL A   1      44.727  32.413  27.600  1.00  0.00     0.023 A 
ATOM     67  C   UNL A   1      44.097  33.591  28.042  1.00  0.00     0.031 A 
ATOM     68  C   UNL A   1      45.243  32.456  26.286  1.00  0.00     0.131 A 
ATOM     69  C   UNL A   1      43.905  34.682  27.179  1.00  0.00     0.055 A 
ATOM     70  C   UNL A   1      45.110  33.569  25.451  1.00  0.00     0.041 A 
ATOM     71  F   UNL A   1      45.824  31.408  25.693  1.00  0.00    -0.206 F 
ATOM     72  C   UNL A   1      44.408  34.680  25.883  1.00  0.00     0.022 A 
BRANCH  69  73
ATOM     73  S   UNL A   1      42.831  36.030  27.730  1.00  0.00     0.124 S 
ATOM     74  O   UNL A   1      41.665  35.300  28.214  1.00  0.00    -0.237 OA
ATOM     75  O   UNL A   1      43.657  36.674  28.745  1.00  0.00    -0.237 OA
ATOM     76  O   UNL A   1      42.617  36.810  26.513  1.00  0.00    -0.744 OA
ENDBRANCH  69  73
ENDBRANCH  52  66
BRANCH  53  77
ATOM     77  C   UNL A   1      36.745  31.846  30.994  1.00  0.00     0.023 A 
ATOM     78  C   UNL A   1      35.961  32.629  31.876  1.00  0.00     0.031 A 
ATOM     79  C   UNL A   1      36.284  31.770  29.657  1.00  0.00     0.131 A 
ATOM     80  C   UNL A   1      34.785  33.280  31.410  1.00  0.00     0.055 A 
ATOM     81  C   UNL A   1      35.129  32.416  29.206  1.00  0.00     0.041 A 
ATOM     82  F   UNL A   1      36.989  31.131  28.712  1.00  0.00    -0.206 F 
ATOM     83  C   UNL A   1      34.379  33.183  30.078  1.00  0.00     0.022 A 
BRANCH  80  84
ATOM     84  S   UNL A   1      33.793  34.351  32.513  1.00  0.00     0.124 S 
ATOM     85  O   UNL A   1      32.950  35.072  31.566  1.00  0.00    -0.237 OA
ATOM     86  O   UNL A   1      33.123  33.383  33.374  1.00  0.00    -0.237 OA
ATOM     87  O   UNL A   1      34.799  35.174  33.186  1.00  0.00    -0.744 OA
ENDBRANCH  80  84
ENDBRANCH  53  77
BRANCH  65  88
ATOM     88  C   UNL A   1      42.317  30.605  33.798  1.00  0.00     0.023 A 
ATOM     89  C   UNL A   1      42.267  29.192  33.884  1.00  0.00     0.031 A 
ATOM     90  C   UNL A   1      42.373  31.320  35.009  1.00  0.00     0.131 A 
ATOM     91  C   UNL A   1      42.272  28.555  35.144  1.00  0.00     0.055 A 
ATOM     92  C   UNL A   1      42.405  30.687  36.250  1.00  0.00     0.041 A 
ATOM     93  F   UNL A   1      42.447  32.661  35.001  1.00  0.00    -0.206 F 
ATOM     94  C   UNL A   1      42.350  29.301  36.324  1.00  0.00     0.022 A 
BRANCH  91  95
ATOM     95  S   UNL A   1      42.153  26.739  35.282  1.00  0.00     0.124 S 
ATOM     96  O   UNL A   1      40.775  26.457  34.893  1.00  0.00    -0.237 OA
ATOM     97  O   UNL A   1      43.185  26.281  34.355  1.00  0.00    -0.237 OA
ATOM     98  O   UNL A   1      42.448  26.484  36.694  1.00  0.00    -0.744 OA
ENDBRANCH  91  95
ENDBRANCH  65  88
ENDBRANCH  39  40
ENDBRANCH  31  34
ENDBRANCH  29  30
ENDBRANCH  28  29
ENDBRANCH  27  28
ENDBRANCH   1  27
TORSDOF 20
ENDMDL
