MODEL 1
REMARK VINA RESULT:     -11.1      0.000      0.000
REMARK SMILES CC[C@H]1CCCC[C@@H]1C1(C(=O)NCCCCCCNC(=O)c2ccc(-c3c4nc(c(-c5cc(S(=O)(=O)[O-])ccc5F)c5ccc([nH]5)c(-c5cc(S(=O)(=O)[O-])ccc5F)c5nc(c(-c6cc(S(=O)(=O)[O-])ccc6F)c6ccc3[nH]6)C=C5)C=C4)cc2)CC1
REMARK SMILES IDX 16 1 15 2 14 3 13 4 12 5 10 6 11 7 9 9 85 10 86 11 8 12 3 13
REMARK SMILES IDX 4 14 5 15 7 16 6 17 2 18 1 19 17 20 18 21 19 22 20 23 21 25
REMARK SMILES IDX 22 26 23 27 84 28 24 29 83 30 25 31 26 32 27 33 77 34 28 35
REMARK SMILES IDX 82 36 76 37 78 38 29 39 81 40 75 41 74 42 30 44 62 45 42 46
REMARK SMILES IDX 61 47 43 48 46 49 60 50 79 51 44 52 45 53 59 55 80 56 47 57
REMARK SMILES IDX 31 58 32 59 40 60 33 61 39 62 41 63 38 64 34 65 35 66 36 67
REMARK SMILES IDX 37 68 63 69 64 70 72 71 65 72 71 73 73 74 70 75 66 76 67 77
REMARK SMILES IDX 68 78 69 79 48 80 49 81 57 82 50 83 56 84 58 85 55 86 51 87
REMARK SMILES IDX 52 88 53 89 54 90
REMARK H PARENT 12 8 19 24 78 43 46 54
REMARK Flexibility Score: inf
ROOT
ATOM      1  C   UNL A   1      31.571  30.547  26.158  1.00  0.00     0.002 C 
ENDROOT
BRANCH   1   2
ATOM      2  C   UNL A   1      32.493  29.607  26.945  1.00  0.00     0.002 C 
BRANCH   2   3
ATOM      3  C   UNL A   1      31.834  28.332  27.495  1.00  0.00     0.021 C 
BRANCH   3   4
ATOM      4  C   UNL A   1      31.128  27.479  26.440  1.00  0.00     0.116 C 
BRANCH   4   5
ATOM      5  N   UNL A   1      30.997  26.104  26.859  1.00  0.00    -0.356 N 
ATOM      6  C   UNL A   1      31.630  24.935  26.562  1.00  0.00     0.226 C 
ATOM      7  O   UNL A   1      31.277  23.958  27.218  1.00  0.00    -0.274 OA
ATOM      8  H   UNL A   1      30.276  25.982  27.519  1.00  0.00     0.163 HD
BRANCH   6   9
ATOM      9  C   UNL A   1      32.732  24.764  25.514  1.00  0.00     0.052 C 
ATOM     10  C   UNL A   1      34.099  24.426  26.123  1.00  0.00     0.018 C 
ATOM     11  C   UNL A   1      33.921  25.695  25.355  1.00  0.00     0.018 C 
BRANCH   9  12
ATOM     12  C   UNL A   1      32.214  24.055  24.213  1.00  0.00     0.008 C 
ATOM     13  C   UNL A   1      33.188  23.837  23.020  1.00  0.00    -0.007 C 
ATOM     14  C   UNL A   1      33.294  25.055  22.083  1.00  0.00     0.004 C 
ATOM     15  C   UNL A   1      31.950  25.680  21.715  1.00  0.00     0.000 C 
ATOM     16  C   UNL A   1      30.877  24.677  23.763  1.00  0.00     0.005 C 
ATOM     17  C   UNL A   1      31.056  25.932  22.922  1.00  0.00     0.000 C 
BRANCH  13  18
ATOM     18  C   UNL A   1      32.738  22.575  22.223  1.00  0.00     0.000 C 
ATOM     19  C   UNL A   1      32.330  21.403  23.107  1.00  0.00     0.004 C 
ENDBRANCH  13  18
ENDBRANCH   9  12
ENDBRANCH   6   9
ENDBRANCH   4   5
ENDBRANCH   3   4
ENDBRANCH   2   3
ENDBRANCH   1   2
BRANCH   1  20
ATOM     20  C   UNL A   1      31.505  31.984  26.677  1.00  0.00     0.021 C 
BRANCH  20  21
ATOM     21  C   UNL A   1      32.819  32.518  27.222  1.00  0.00     0.116 C 
BRANCH  21  22
ATOM     22  N   UNL A   1      32.705  33.902  27.650  1.00  0.00    -0.352 N 
ATOM     23  C   UNL A   1      33.367  34.542  28.668  1.00  0.00     0.251 C 
ATOM     24  H   UNL A   1      32.068  34.454  27.141  1.00  0.00     0.163 HD
ATOM     25  O   UNL A   1      32.993  35.650  29.039  1.00  0.00    -0.269 OA
BRANCH  23  26
ATOM     26  C   UNL A   1      34.514  33.875  29.324  1.00  0.00     0.039 A 
ATOM     27  C   UNL A   1      35.810  34.276  28.997  1.00  0.00     0.014 A 
ATOM     28  C   UNL A   1      34.307  32.861  30.264  1.00  0.00     0.014 A 
ATOM     29  C   UNL A   1      36.899  33.693  29.650  1.00  0.00     0.010 A 
ATOM     30  C   UNL A   1      35.386  32.340  30.970  1.00  0.00     0.010 A 
ATOM     31  C   UNL A   1      36.696  32.741  30.662  1.00  0.00    -0.014 A 
BRANCH  31  32
ATOM     32  C   UNL A   1      37.840  32.126  31.384  1.00  0.00     0.031 A 
ATOM     33  C   UNL A   1      38.612  31.005  30.743  1.00  0.00     0.074 A 
ATOM     34  C   UNL A   1      38.148  32.539  32.629  1.00  0.00     0.049 A 
ATOM     35  N   UNL A   1      39.591  30.286  31.232  1.00  0.00    -0.248 NA
ATOM     36  C   UNL A   1      38.206  30.618  29.383  1.00  0.00     0.031 C 
ATOM     37  C   UNL A   1      37.447  33.592  33.368  1.00  0.00     0.029 A 
ATOM     38  N   UNL A   1      39.124  32.120  33.498  1.00  0.00    -0.354 N 
ATOM     39  C   UNL A   1      39.908  29.357  30.246  1.00  0.00     0.074 A 
ATOM     40  C   UNL A   1      38.971  29.560  29.163  1.00  0.00     0.031 C 
ATOM     41  C   UNL A   1      38.031  33.752  34.566  1.00  0.00     0.029 A 
ATOM     42  C   UNL A   1      39.117  32.784  34.703  1.00  0.00     0.049 A 
ATOM     43  H   UNL A   1      39.768  31.408  33.280  1.00  0.00     0.167 HD
ATOM     44  C   UNL A   1      40.906  28.439  30.235  1.00  0.00     0.034 A 
ATOM     45  C   UNL A   1      39.889  32.625  35.796  1.00  0.00     0.034 A 
ATOM     46  C   UNL A   1      41.839  28.260  31.320  1.00  0.00     0.049 A 
ATOM     47  C   UNL A   1      40.978  31.582  35.770  1.00  0.00     0.074 A 
ATOM     48  C   UNL A   1      42.916  27.394  31.398  1.00  0.00     0.029 A 
ATOM     49  N   UNL A   1      41.805  28.956  32.523  1.00  0.00    -0.354 N 
ATOM     50  N   UNL A   1      41.294  30.741  34.812  1.00  0.00    -0.248 NA
ATOM     51  C   UNL A   1      41.822  31.475  36.967  1.00  0.00     0.031 C 
ATOM     52  C   UNL A   1      43.487  27.516  32.669  1.00  0.00     0.029 A 
ATOM     53  C   UNL A   1      42.822  28.518  33.357  1.00  0.00     0.049 A 
ATOM     54  H   UNL A   1      41.153  29.658  32.749  1.00  0.00     0.167 HD
ATOM     55  C   UNL A   1      42.399  30.032  35.279  1.00  0.00     0.074 A 
ATOM     56  C   UNL A   1      42.699  30.554  36.597  1.00  0.00     0.031 C 
ATOM     57  C   UNL A   1      43.105  29.044  34.673  1.00  0.00     0.034 A 
BRANCH  44  58
ATOM     58  C   UNL A   1      41.015  27.546  29.019  1.00  0.00     0.023 A 
ATOM     59  C   UNL A   1      42.022  27.731  28.054  1.00  0.00     0.031 A 
ATOM     60  C   UNL A   1      40.082  26.517  28.804  1.00  0.00     0.131 A 
ATOM     61  C   UNL A   1      42.023  26.958  26.884  1.00  0.00     0.055 A 
ATOM     62  C   UNL A   1      40.142  25.691  27.679  1.00  0.00     0.041 A 
ATOM     63  F   UNL A   1      39.084  26.304  29.676  1.00  0.00    -0.206 F 
ATOM     64  C   UNL A   1      41.106  25.921  26.702  1.00  0.00     0.022 A 
BRANCH  61  65
ATOM     65  S   UNL A   1      43.141  27.430  25.536  1.00  0.00     0.124 S 
ATOM     66  O   UNL A   1      44.144  28.219  26.250  1.00  0.00    -0.237 OA
ATOM     67  O   UNL A   1      43.588  26.139  25.028  1.00  0.00    -0.237 OA
ATOM     68  O   UNL A   1      42.285  28.196  24.633  1.00  0.00    -0.744 OA
ENDBRANCH  61  65
ENDBRANCH  44  58
BRANCH  45  69
ATOM     69  C   UNL A   1      39.661  33.461  37.010  1.00  0.00     0.023 A 
ATOM     70  C   UNL A   1      40.440  34.602  37.261  1.00  0.00     0.031 A 
ATOM     71  C   UNL A   1      38.689  33.105  37.963  1.00  0.00     0.131 A 
ATOM     72  C   UNL A   1      40.270  35.318  38.456  1.00  0.00     0.055 A 
ATOM     73  C   UNL A   1      38.483  33.854  39.123  1.00  0.00     0.041 A 
ATOM     74  F   UNL A   1      37.912  32.028  37.771  1.00  0.00    -0.206 F 
ATOM     75  C   UNL A   1      39.287  34.960  39.382  1.00  0.00     0.022 A 
BRANCH  72  76
ATOM     76  S   UNL A   1      41.415  36.675  38.828  1.00  0.00     0.124 S 
ATOM     77  O   UNL A   1      42.234  36.090  39.883  1.00  0.00    -0.237 OA
ATOM     78  O   UNL A   1      42.072  36.877  37.541  1.00  0.00    -0.237 OA
ATOM     79  O   UNL A   1      40.531  37.759  39.251  1.00  0.00    -0.744 OA
ENDBRANCH  72  76
ENDBRANCH  45  69
BRANCH  57  80
ATOM     80  C   UNL A   1      44.306  28.503  35.412  1.00  0.00     0.023 A 
ATOM     81  C   UNL A   1      44.182  27.538  36.425  1.00  0.00     0.031 A 
ATOM     82  C   UNL A   1      45.595  28.972  35.099  1.00  0.00     0.131 A 
ATOM     83  C   UNL A   1      45.320  27.116  37.130  1.00  0.00     0.055 A 
ATOM     84  C   UNL A   1      46.729  28.501  35.758  1.00  0.00     0.041 A 
ATOM     85  F   UNL A   1      45.772  29.897  34.140  1.00  0.00    -0.206 F 
ATOM     86  C   UNL A   1      46.595  27.577  36.790  1.00  0.00     0.022 A 
BRANCH  83  87
ATOM     87  S   UNL A   1      45.102  26.027  38.564  1.00  0.00     0.124 S 
ATOM     88  O   UNL A   1      46.342  26.245  39.301  1.00  0.00    -0.237 OA
ATOM     89  O   UNL A   1      43.892  26.561  39.180  1.00  0.00    -0.237 OA
ATOM     90  O   UNL A   1      44.960  24.699  37.969  1.00  0.00    -0.744 OA
ENDBRANCH  83  87
ENDBRANCH  57  80
ENDBRANCH  31  32
ENDBRANCH  23  26
ENDBRANCH  21  22
ENDBRANCH  20  21
ENDBRANCH   1  20
TORSDOF 18
ENDMDL
MODEL 2
REMARK VINA RESULT:     -11.0      2.090      8.030
REMARK SMILES CC[C@H]1CCCC[C@@H]1C1(C(=O)NCCCCCCNC(=O)c2ccc(-c3c4nc(c(-c5cc(S(=O)(=O)[O-])ccc5F)c5ccc([nH]5)c(-c5cc(S(=O)(=O)[O-])ccc5F)c5nc(c(-c6cc(S(=O)(=O)[O-])ccc6F)c6ccc3[nH]6)C=C5)C=C4)cc2)CC1
REMARK SMILES IDX 16 1 15 2 14 3 13 4 12 5 10 6 11 7 9 9 85 10 86 11 8 12 3 13
REMARK SMILES IDX 4 14 5 15 7 16 6 17 2 18 1 19 17 20 18 21 19 22 20 23 21 25
REMARK SMILES IDX 22 26 23 27 84 28 24 29 83 30 25 31 26 32 27 33 77 34 28 35
REMARK SMILES IDX 82 36 76 37 78 38 29 39 81 40 75 41 74 42 30 44 62 45 42 46
REMARK SMILES IDX 61 47 43 48 46 49 60 50 79 51 44 52 45 53 59 55 80 56 47 57
REMARK SMILES IDX 31 58 32 59 40 60 33 61 39 62 41 63 38 64 34 65 35 66 36 67
REMARK SMILES IDX 37 68 63 69 64 70 72 71 65 72 71 73 73 74 70 75 66 76 67 77
REMARK SMILES IDX 68 78 69 79 48 80 49 81 57 82 50 83 56 84 58 85 55 86 51 87
REMARK SMILES IDX 52 88 53 89 54 90
REMARK H PARENT 12 8 19 24 78 43 46 54
REMARK Flexibility Score: inf
ROOT
ATOM      1  C   UNL A   1      31.512  30.227  25.971  1.00  0.00     0.002 C 
ENDROOT
BRANCH   1   2
ATOM      2  C   UNL A   1      32.224  29.211  26.872  1.00  0.00     0.002 C 
BRANCH   2   3
ATOM      3  C   UNL A   1      31.408  27.963  27.245  1.00  0.00     0.021 C 
BRANCH   3   4
ATOM      4  C   UNL A   1      31.118  27.025  26.073  1.00  0.00     0.116 C 
BRANCH   4   5
ATOM      5  N   UNL A   1      30.439  25.824  26.501  1.00  0.00    -0.356 N 
ATOM      6  C   UNL A   1      30.729  24.493  26.496  1.00  0.00     0.226 C 
ATOM      7  O   UNL A   1      29.907  23.768  27.051  1.00  0.00    -0.274 OA
ATOM      8  H   UNL A   1      29.555  26.012  26.890  1.00  0.00     0.163 HD
BRANCH   6   9
ATOM      9  C   UNL A   1      31.981  23.859  25.885  1.00  0.00     0.052 C 
ATOM     10  C   UNL A   1      32.951  23.302  26.935  1.00  0.00     0.018 C 
ATOM     11  C   UNL A   1      33.388  24.412  26.036  1.00  0.00     0.018 C 
BRANCH   9  12
ATOM     12  C   UNL A   1      31.670  23.080  24.559  1.00  0.00     0.008 C 
ATOM     13  C   UNL A   1      32.799  22.267  23.864  1.00  0.00    -0.007 C 
ATOM     14  C   UNL A   1      33.683  23.117  22.931  1.00  0.00     0.004 C 
ATOM     15  C   UNL A   1      32.903  24.054  22.012  1.00  0.00     0.000 C 
ATOM     16  C   UNL A   1      30.921  23.993  23.568  1.00  0.00     0.005 C 
ATOM     17  C   UNL A   1      31.851  24.875  22.747  1.00  0.00     0.000 C 
BRANCH  13  18
ATOM     18  C   UNL A   1      32.160  21.082  23.079  1.00  0.00     0.000 C 
ATOM     19  C   UNL A   1      32.529  19.710  23.629  1.00  0.00     0.004 C 
ENDBRANCH  13  18
ENDBRANCH   9  12
ENDBRANCH   6   9
ENDBRANCH   4   5
ENDBRANCH   3   4
ENDBRANCH   2   3
ENDBRANCH   1   2
BRANCH   1  20
ATOM     20  C   UNL A   1      31.475  31.661  26.502  1.00  0.00     0.021 C 
BRANCH  20  21
ATOM     21  C   UNL A   1      32.730  32.089  27.244  1.00  0.00     0.116 C 
BRANCH  21  22
ATOM     22  N   UNL A   1      32.726  33.513  27.536  1.00  0.00    -0.352 N 
ATOM     23  C   UNL A   1      33.493  34.205  28.441  1.00  0.00     0.251 C 
ATOM     24  H   UNL A   1      32.088  34.053  27.016  1.00  0.00     0.163 HD
ATOM     25  O   UNL A   1      33.210  35.365  28.721  1.00  0.00    -0.269 OA
BRANCH  23  26
ATOM     26  C   UNL A   1      34.642  33.532  29.087  1.00  0.00     0.039 A 
ATOM     27  C   UNL A   1      34.399  32.547  30.046  1.00  0.00     0.014 A 
ATOM     28  C   UNL A   1      35.954  33.869  28.741  1.00  0.00     0.014 A 
ATOM     29  C   UNL A   1      35.473  31.865  30.623  1.00  0.00     0.010 A 
ATOM     30  C   UNL A   1      37.017  33.135  29.256  1.00  0.00     0.010 A 
ATOM     31  C   UNL A   1      36.790  32.133  30.212  1.00  0.00    -0.014 A 
BRANCH  31  32
ATOM     32  C   UNL A   1      37.944  31.403  30.798  1.00  0.00     0.031 A 
ATOM     33  C   UNL A   1      38.423  31.748  32.182  1.00  0.00     0.074 A 
ATOM     34  C   UNL A   1      38.590  30.472  30.067  1.00  0.00     0.049 A 
ATOM     35  N   UNL A   1      39.454  31.286  32.843  1.00  0.00    -0.248 NA
ATOM     36  C   UNL A   1      37.660  32.777  32.906  1.00  0.00     0.031 C 
ATOM     37  C   UNL A   1      38.241  30.079  28.700  1.00  0.00     0.029 A 
ATOM     38  N   UNL A   1      39.679  29.693  30.367  1.00  0.00    -0.354 N 
ATOM     39  C   UNL A   1      39.469  31.973  34.052  1.00  0.00     0.074 A 
ATOM     40  C   UNL A   1      38.387  32.933  34.001  1.00  0.00     0.031 C 
ATOM     41  C   UNL A   1      39.083  29.117  28.291  1.00  0.00     0.029 A 
ATOM     42  C   UNL A   1      40.060  28.855  29.344  1.00  0.00     0.049 A 
ATOM     43  H   UNL A   1      40.145  29.730  31.233  1.00  0.00     0.167 HD
ATOM     44  C   UNL A   1      40.292  31.802  35.116  1.00  0.00     0.034 A 
ATOM     45  C   UNL A   1      41.086  27.986  29.260  1.00  0.00     0.034 A 
ATOM     46  C   UNL A   1      41.358  30.830  35.153  1.00  0.00     0.049 A 
ATOM     47  C   UNL A   1      42.003  27.827  30.447  1.00  0.00     0.074 A 
ATOM     48  C   UNL A   1      42.222  30.538  36.193  1.00  0.00     0.029 A 
ATOM     49  N   UNL A   1      41.710  29.995  34.099  1.00  0.00    -0.354 N 
ATOM     50  N   UNL A   1      41.976  28.453  31.601  1.00  0.00    -0.248 NA
ATOM     51  C   UNL A   1      43.079  26.835  30.325  1.00  0.00     0.031 C 
ATOM     52  C   UNL A   1      43.138  29.580  35.747  1.00  0.00     0.029 A 
ATOM     53  C   UNL A   1      42.796  29.209  34.456  1.00  0.00     0.049 A 
ATOM     54  H   UNL A   1      41.255  29.965  33.227  1.00  0.00     0.167 HD
ATOM     55  C   UNL A   1      43.010  27.903  32.356  1.00  0.00     0.074 A 
ATOM     56  C   UNL A   1      43.629  26.887  31.529  1.00  0.00     0.031 C 
ATOM     57  C   UNL A   1      43.408  28.204  33.618  1.00  0.00     0.034 A 
BRANCH  44  58
ATOM     58  C   UNL A   1      40.080  32.703  36.311  1.00  0.00     0.023 A 
ATOM     59  C   UNL A   1      39.250  32.328  37.382  1.00  0.00     0.031 A 
ATOM     60  C   UNL A   1      40.690  33.969  36.366  1.00  0.00     0.131 A 
ATOM     61  C   UNL A   1      38.987  33.238  38.418  1.00  0.00     0.055 A 
ATOM     62  C   UNL A   1      40.495  34.835  37.444  1.00  0.00     0.041 A 
ATOM     63  F   UNL A   1      41.475  34.395  35.364  1.00  0.00    -0.206 F 
ATOM     64  C   UNL A   1      39.625  34.478  38.471  1.00  0.00     0.022 A 
BRANCH  61  65
ATOM     65  S   UNL A   1      37.682  32.835  39.612  1.00  0.00     0.124 S 
ATOM     66  O   UNL A   1      37.711  34.007  40.486  1.00  0.00    -0.237 OA
ATOM     67  O   UNL A   1      36.506  32.702  38.761  1.00  0.00    -0.237 OA
ATOM     68  O   UNL A   1      38.152  31.596  40.228  1.00  0.00    -0.744 OA
ENDBRANCH  61  65
ENDBRANCH  44  58
BRANCH  45  69
ATOM     69  C   UNL A   1      41.312  27.201  28.011  1.00  0.00     0.023 A 
ATOM     70  C   UNL A   1      40.991  25.836  27.944  1.00  0.00     0.031 A 
ATOM     71  C   UNL A   1      41.894  27.798  26.877  1.00  0.00     0.131 A 
ATOM     72  C   UNL A   1      41.301  25.100  26.789  1.00  0.00     0.055 A 
ATOM     73  C   UNL A   1      42.146  27.074  25.710  1.00  0.00     0.041 A 
ATOM     74  F   UNL A   1      42.215  29.101  26.884  1.00  0.00    -0.206 F 
ATOM     75  C   UNL A   1      41.862  25.712  25.667  1.00  0.00     0.022 A 
BRANCH  72  76
ATOM     76  S   UNL A   1      41.040  23.305  26.808  1.00  0.00     0.124 S 
ATOM     77  O   UNL A   1      41.942  22.864  25.750  1.00  0.00    -0.237 OA
ATOM     78  O   UNL A   1      41.427  22.957  28.170  1.00  0.00    -0.237 OA
ATOM     79  O   UNL A   1      39.615  23.166  26.512  1.00  0.00    -0.744 OA
ENDBRANCH  72  76
ENDBRANCH  45  69
BRANCH  57  80
ATOM     80  C   UNL A   1      44.535  27.383  34.199  1.00  0.00     0.023 A 
ATOM     81  C   UNL A   1      44.316  26.111  34.756  1.00  0.00     0.031 A 
ATOM     82  C   UNL A   1      45.846  27.890  34.202  1.00  0.00     0.131 A 
ATOM     83  C   UNL A   1      45.383  25.415  35.345  1.00  0.00     0.055 A 
ATOM     84  C   UNL A   1      46.914  27.166  34.731  1.00  0.00     0.041 A 
ATOM     85  F   UNL A   1      46.112  29.102  33.686  1.00  0.00    -0.206 F 
ATOM     86  C   UNL A   1      46.684  25.926  35.320  1.00  0.00     0.022 A 
BRANCH  83  87
ATOM     87  S   UNL A   1      45.032  23.874  36.234  1.00  0.00     0.124 S 
ATOM     88  O   UNL A   1      43.741  23.489  35.676  1.00  0.00    -0.237 OA
ATOM     89  O   UNL A   1      46.165  23.033  35.860  1.00  0.00    -0.237 OA
ATOM     90  O   UNL A   1      45.004  24.285  37.636  1.00  0.00    -0.744 OA
ENDBRANCH  83  87
ENDBRANCH  57  80
ENDBRANCH  31  32
ENDBRANCH  23  26
ENDBRANCH  21  22
ENDBRANCH  20  21
ENDBRANCH   1  20
TORSDOF 18
ENDMDL
MODEL 3
REMARK VINA RESULT:     -11.0      2.031      2.372
REMARK SMILES CC[C@H]1CCCC[C@@H]1C1(C(=O)NCCCCCCNC(=O)c2ccc(-c3c4nc(c(-c5cc(S(=O)(=O)[O-])ccc5F)c5ccc([nH]5)c(-c5cc(S(=O)(=O)[O-])ccc5F)c5nc(c(-c6cc(S(=O)(=O)[O-])ccc6F)c6ccc3[nH]6)C=C5)C=C4)cc2)CC1
REMARK SMILES IDX 16 1 15 2 14 3 13 4 12 5 10 6 11 7 9 9 85 10 86 11 8 12 3 13
REMARK SMILES IDX 4 14 5 15 7 16 6 17 2 18 1 19 17 20 18 21 19 22 20 23 21 25
REMARK SMILES IDX 22 26 23 27 84 28 24 29 83 30 25 31 26 32 27 33 77 34 28 35
REMARK SMILES IDX 82 36 76 37 78 38 29 39 81 40 75 41 74 42 30 44 62 45 42 46
REMARK SMILES IDX 61 47 43 48 46 49 60 50 79 51 44 52 45 53 59 55 80 56 47 57
REMARK SMILES IDX 31 58 32 59 40 60 33 61 39 62 41 63 38 64 34 65 35 66 36 67
REMARK SMILES IDX 37 68 63 69 64 70 72 71 65 72 71 73 73 74 70 75 66 76 67 77
REMARK SMILES IDX 68 78 69 79 48 80 49 81 57 82 50 83 56 84 58 85 55 86 51 87
REMARK SMILES IDX 52 88 53 89 54 90
REMARK H PARENT 12 8 19 24 78 43 46 54
REMARK Flexibility Score: inf
ROOT
ATOM      1  C   UNL A   1      31.396  30.374  25.867  1.00  0.00     0.002 C 
ENDROOT
BRANCH   1   2
ATOM      2  C   UNL A   1      32.382  29.429  26.564  1.00  0.00     0.002 C 
BRANCH   2   3
ATOM      3  C   UNL A   1      31.780  28.130  27.123  1.00  0.00     0.021 C 
BRANCH   3   4
ATOM      4  C   UNL A   1      32.036  26.893  26.263  1.00  0.00     0.116 C 
BRANCH   4   5
ATOM      5  N   UNL A   1      31.260  25.759  26.706  1.00  0.00    -0.356 N 
ATOM      6  C   UNL A   1      31.411  24.405  26.667  1.00  0.00     0.226 C 
ATOM      7  O   UNL A   1      30.546  23.758  27.252  1.00  0.00    -0.274 OA
ATOM      8  H   UNL A   1      30.419  26.029  27.141  1.00  0.00     0.163 HD
BRANCH   6   9
ATOM      9  C   UNL A   1      32.561  23.660  25.986  1.00  0.00     0.052 C 
ATOM     10  C   UNL A   1      33.550  23.037  26.979  1.00  0.00     0.018 C 
ATOM     11  C   UNL A   1      34.016  24.093  26.032  1.00  0.00     0.018 C 
BRANCH   9  12
ATOM     12  C   UNL A   1      32.096  22.893  24.699  1.00  0.00     0.008 C 
ATOM     13  C   UNL A   1      33.147  22.147  23.828  1.00  0.00    -0.007 C 
ATOM     14  C   UNL A   1      33.849  23.055  22.800  1.00  0.00     0.004 C 
ATOM     15  C   UNL A   1      32.904  23.973  22.028  1.00  0.00     0.000 C 
ATOM     16  C   UNL A   1      31.172  23.789  23.849  1.00  0.00     0.005 C 
ATOM     17  C   UNL A   1      31.935  24.729  22.927  1.00  0.00     0.000 C 
BRANCH  13  18
ATOM     18  C   UNL A   1      32.454  20.949  23.112  1.00  0.00     0.000 C 
ATOM     19  C   UNL A   1      32.527  19.641  23.891  1.00  0.00     0.004 C 
ENDBRANCH  13  18
ENDBRANCH   9  12
ENDBRANCH   6   9
ENDBRANCH   4   5
ENDBRANCH   3   4
ENDBRANCH   2   3
ENDBRANCH   1   2
BRANCH   1  20
ATOM     20  C   UNL A   1      31.378  31.809  26.398  1.00  0.00     0.021 C 
BRANCH  20  21
ATOM     21  C   UNL A   1      32.683  32.261  27.032  1.00  0.00     0.116 C 
BRANCH  21  22
ATOM     22  N   UNL A   1      32.625  33.650  27.456  1.00  0.00    -0.352 N 
ATOM     23  C   UNL A   1      33.364  34.282  28.426  1.00  0.00     0.251 C 
ATOM     24  H   UNL A   1      31.968  34.212  26.985  1.00  0.00     0.163 HD
ATOM     25  O   UNL A   1      33.037  35.400  28.811  1.00  0.00    -0.269 OA
BRANCH  23  26
ATOM     26  C   UNL A   1      34.536  33.595  29.013  1.00  0.00     0.039 A 
ATOM     27  C   UNL A   1      35.817  34.054  28.703  1.00  0.00     0.014 A 
ATOM     28  C   UNL A   1      34.368  32.505  29.871  1.00  0.00     0.014 A 
ATOM     29  C   UNL A   1      36.929  33.450  29.293  1.00  0.00     0.010 A 
ATOM     30  C   UNL A   1      35.470  31.957  30.521  1.00  0.00     0.010 A 
ATOM     31  C   UNL A   1      36.764  32.415  30.229  1.00  0.00    -0.014 A 
BRANCH  31  32
ATOM     32  C   UNL A   1      37.934  31.775  30.886  1.00  0.00     0.031 A 
ATOM     33  C   UNL A   1      38.711  30.713  30.156  1.00  0.00     0.074 A 
ATOM     34  C   UNL A   1      38.260  32.109  32.150  1.00  0.00     0.049 A 
ATOM     35  N   UNL A   1      39.712  29.981  30.576  1.00  0.00    -0.248 NA
ATOM     36  C   UNL A   1      38.284  30.410  28.781  1.00  0.00     0.031 C 
ATOM     37  C   UNL A   1      37.556  33.097  32.971  1.00  0.00     0.029 A 
ATOM     38  N   UNL A   1      39.260  31.651  32.969  1.00  0.00    -0.354 N 
ATOM     39  C   UNL A   1      40.025  29.126  29.524  1.00  0.00     0.074 A 
ATOM     40  C   UNL A   1      39.062  29.383  28.476  1.00  0.00     0.031 C 
ATOM     41  C   UNL A   1      38.163  33.188  34.165  1.00  0.00     0.029 A 
ATOM     42  C   UNL A   1      39.267  32.234  34.216  1.00  0.00     0.049 A 
ATOM     43  H   UNL A   1      39.913  30.968  32.691  1.00  0.00     0.167 HD
ATOM     44  C   UNL A   1      41.037  28.229  29.432  1.00  0.00     0.034 A 
ATOM     45  C   UNL A   1      40.064  32.016  35.280  1.00  0.00     0.034 A 
ATOM     46  C   UNL A   1      41.996  27.996  30.485  1.00  0.00     0.049 A 
ATOM     47  C   UNL A   1      41.171  30.997  35.164  1.00  0.00     0.074 A 
ATOM     48  C   UNL A   1      43.089  27.146  30.483  1.00  0.00     0.029 A 
ATOM     49  N   UNL A   1      41.974  28.609  31.732  1.00  0.00    -0.354 N 
ATOM     50  N   UNL A   1      41.481  30.228  34.145  1.00  0.00    -0.248 NA
ATOM     51  C   UNL A   1      42.040  30.827  36.334  1.00  0.00     0.031 C 
ATOM     52  C   UNL A   1      43.684  27.194  31.748  1.00  0.00     0.029 A 
ATOM     53  C   UNL A   1      43.016  28.136  32.515  1.00  0.00     0.049 A 
ATOM     54  H   UNL A   1      41.316  29.283  32.017  1.00  0.00     0.167 HD
ATOM     55  C   UNL A   1      42.607  29.510  34.542  1.00  0.00     0.074 A 
ATOM     56  C   UNL A   1      42.925  29.948  35.886  1.00  0.00     0.031 C 
ATOM     57  C   UNL A   1      43.317  28.578  33.857  1.00  0.00     0.034 A 
BRANCH  44  58
ATOM     58  C   UNL A   1      41.137  27.422  28.158  1.00  0.00     0.023 A 
ATOM     59  C   UNL A   1      40.769  26.065  28.111  1.00  0.00     0.031 A 
ATOM     60  C   UNL A   1      41.636  28.006  26.981  1.00  0.00     0.131 A 
ATOM     61  C   UNL A   1      40.983  25.320  26.942  1.00  0.00     0.055 A 
ATOM     62  C   UNL A   1      41.764  27.281  25.794  1.00  0.00     0.041 A 
ATOM     63  F   UNL A   1      42.026  29.291  26.966  1.00  0.00    -0.206 F 
ATOM     64  C   UNL A   1      41.452  25.925  25.775  1.00  0.00     0.022 A 
BRANCH  61  65
ATOM     65  S   UNL A   1      40.786  23.518  27.017  1.00  0.00     0.124 S 
ATOM     66  O   UNL A   1      41.637  23.083  25.911  1.00  0.00    -0.237 OA
ATOM     67  O   UNL A   1      41.268  23.202  28.356  1.00  0.00    -0.237 OA
ATOM     68  O   UNL A   1      39.354  23.321  26.805  1.00  0.00    -0.744 OA
ENDBRANCH  61  65
ENDBRANCH  44  58
BRANCH  45  69
ATOM     69  C   UNL A   1      39.848  32.765  36.552  1.00  0.00     0.023 A 
ATOM     70  C   UNL A   1      38.909  32.328  37.501  1.00  0.00     0.031 A 
ATOM     71  C   UNL A   1      40.546  33.957  36.818  1.00  0.00     0.131 A 
ATOM     72  C   UNL A   1      38.657  33.101  38.645  1.00  0.00     0.055 A 
ATOM     73  C   UNL A   1      40.334  34.692  37.986  1.00  0.00     0.041 A 
ATOM     74  F   UNL A   1      41.459  34.418  35.949  1.00  0.00    -0.206 F 
ATOM     75  C   UNL A   1      39.373  34.272  38.901  1.00  0.00     0.022 A 
BRANCH  72  76
ATOM     76  S   UNL A   1      37.312  32.600  39.754  1.00  0.00     0.124 S 
ATOM     77  O   UNL A   1      37.775  31.294  40.209  1.00  0.00    -0.237 OA
ATOM     78  O   UNL A   1      37.324  33.668  40.746  1.00  0.00    -0.237 OA
ATOM     79  O   UNL A   1      36.142  32.577  38.879  1.00  0.00    -0.744 OA
ENDBRANCH  72  76
ENDBRANCH  45  69
BRANCH  57  80
ATOM     80  C   UNL A   1      44.542  28.011  34.534  1.00  0.00     0.023 A 
ATOM     81  C   UNL A   1      44.489  26.837  35.305  1.00  0.00     0.031 A 
ATOM     82  C   UNL A   1      45.781  28.666  34.412  1.00  0.00     0.131 A 
ATOM     83  C   UNL A   1      45.640  26.387  35.970  1.00  0.00     0.055 A 
ATOM     84  C   UNL A   1      46.935  28.178  35.023  1.00  0.00     0.041 A 
ATOM     85  F   UNL A   1      45.889  29.794  33.690  1.00  0.00    -0.206 F 
ATOM     86  C   UNL A   1      46.867  27.039  35.819  1.00  0.00     0.022 A 
BRANCH  83  87
ATOM     87  S   UNL A   1      45.492  24.990  37.119  1.00  0.00     0.124 S 
ATOM     88  O   UNL A   1      44.263  24.351  36.661  1.00  0.00    -0.237 OA
ATOM     89  O   UNL A   1      46.725  24.250  36.871  1.00  0.00    -0.237 OA
ATOM     90  O   UNL A   1      45.407  25.631  38.429  1.00  0.00    -0.744 OA
ENDBRANCH  83  87
ENDBRANCH  57  80
ENDBRANCH  31  32
ENDBRANCH  23  26
ENDBRANCH  21  22
ENDBRANCH  20  21
ENDBRANCH   1  20
TORSDOF 18
ENDMDL
