MODEL 1
REMARK VINA RESULT:     -11.4      0.000      0.000
REMARK SMILES O=C(NCCCCCCNC(=O)[C@@H](c1ccccc1)N1C(=O)/C(=C\c2ccc(-c3ccc(F)cc3)o2)SC1=S)c1ccc(-c2c3nc(c(-c4cc(S(=O)(=O)[O-])ccc4F)c4ccc([nH]4)c(-c4cc(S(=O)(=O)[O-])ccc4F)c4nc(c(-c5cc(S(=O)(=O)[O-])ccc5F)c5ccc2[nH]5)C=C4)C=C3)cc1
REMARK SMILES IDX 6 1 5 2 4 3 3 4 1 5 2 6 40 8 41 9 102 10 42 11 101 12 43 13
REMARK SMILES IDX 44 14 45 15 95 16 46 17 100 18 94 19 96 20 47 21 99 22 93 23
REMARK SMILES IDX 92 24 48 26 80 27 60 28 79 29 61 30 64 31 78 32 97 33 62 34
REMARK SMILES IDX 63 35 77 37 98 38 65 39 49 40 50 41 58 42 51 43 57 44 59 45
REMARK SMILES IDX 56 46 52 47 53 48 54 49 55 50 81 51 82 52 90 53 83 54 89 55
REMARK SMILES IDX 91 56 88 57 84 58 85 59 86 60 87 61 66 62 67 63 75 64 68 65
REMARK SMILES IDX 74 66 76 67 73 68 69 69 70 70 71 71 72 72 7 73 8 74 9 75
REMARK SMILES IDX 10 76 11 77 12 79 13 80 14 81 15 82 19 83 16 84 18 85 17 86
REMARK SMILES IDX 20 87 21 88 38 89 22 90 23 91 37 92 39 93 24 94 25 95 26 96
REMARK SMILES IDX 36 97 27 98 28 99 29 100 30 101 35 102 31 103 34 104 32 105
REMARK SMILES IDX 33 106
REMARK H PARENT 3 7 96 25 64 36 10 78
REMARK Flexibility Score: inf
ROOT
ATOM      1  C   UNL A   1      40.074  22.606  26.912  1.00  0.00     0.002 C 
ENDROOT
BRANCH   1   2
ATOM      2  C   UNL A   1      39.941  21.152  26.452  1.00  0.00     0.021 C 
BRANCH   2   3
ATOM      3  C   UNL A   1      40.778  20.170  27.262  1.00  0.00     0.116 C 
BRANCH   3   4
ATOM      4  N   UNL A   1      41.669  19.408  26.402  1.00  0.00    -0.352 N 
ATOM      5  O   UNL A   1      43.186  19.161  24.752  1.00  0.00    -0.269 OA
ATOM      6  C   UNL A   1      42.711  19.866  25.636  1.00  0.00     0.251 C 
ATOM      7  H   UNL A   1      41.504  18.438  26.365  1.00  0.00     0.163 HD
BRANCH   6   8
ATOM      8  C   UNL A   1      43.257  21.213  25.900  1.00  0.00     0.039 A 
ATOM      9  C   UNL A   1      43.252  22.176  24.886  1.00  0.00     0.014 A 
ATOM     10  C   UNL A   1      43.740  21.527  27.173  1.00  0.00     0.014 A 
ATOM     11  C   UNL A   1      43.812  23.425  25.117  1.00  0.00     0.010 A 
ATOM     12  C   UNL A   1      44.221  22.813  27.428  1.00  0.00     0.010 A 
ATOM     13  C   UNL A   1      44.255  23.772  26.402  1.00  0.00    -0.014 A 
BRANCH  13  14
ATOM     14  C   UNL A   1      44.596  25.186  26.686  1.00  0.00     0.031 A 
ATOM     15  C   UNL A   1      45.980  25.718  26.460  1.00  0.00     0.074 A 
ATOM     16  C   UNL A   1      43.618  25.980  27.171  1.00  0.00     0.049 A 
ATOM     17  N   UNL A   1      46.444  26.916  26.703  1.00  0.00    -0.248 NA
ATOM     18  C   UNL A   1      46.973  24.792  25.898  1.00  0.00     0.031 C 
ATOM     19  C   UNL A   1      42.239  25.549  27.430  1.00  0.00     0.029 A 
ATOM     20  N   UNL A   1      43.620  27.301  27.533  1.00  0.00    -0.354 N 
ATOM     21  C   UNL A   1      47.786  26.887  26.344  1.00  0.00     0.074 A 
ATOM     22  C   UNL A   1      48.066  25.545  25.876  1.00  0.00     0.031 C 
ATOM     23  C   UNL A   1      41.527  26.589  27.883  1.00  0.00     0.029 A 
ATOM     24  C   UNL A   1      42.413  27.735  28.033  1.00  0.00     0.049 A 
ATOM     25  H   UNL A   1      44.408  27.885  27.444  1.00  0.00     0.167 HD
ATOM     26  C   UNL A   1      48.692  27.893  26.410  1.00  0.00     0.034 A 
ATOM     27  C   UNL A   1      42.068  28.906  28.601  1.00  0.00     0.034 A 
ATOM     28  C   UNL A   1      48.379  29.224  26.876  1.00  0.00     0.049 A 
ATOM     29  C   UNL A   1      43.118  29.979  28.714  1.00  0.00     0.074 A 
ATOM     30  C   UNL A   1      49.202  30.336  26.908  1.00  0.00     0.029 A 
ATOM     31  N   UNL A   1      47.161  29.616  27.416  1.00  0.00    -0.354 N 
ATOM     32  N   UNL A   1      44.365  29.955  28.304  1.00  0.00    -0.248 NA
ATOM     33  C   UNL A   1      42.720  31.231  29.365  1.00  0.00     0.031 C 
ATOM     34  C   UNL A   1      48.514  31.371  27.549  1.00  0.00     0.029 A 
ATOM     35  C   UNL A   1      47.231  30.934  27.840  1.00  0.00     0.049 A 
ATOM     36  H   UNL A   1      46.364  29.042  27.487  1.00  0.00     0.167 HD
ATOM     37  C   UNL A   1      44.896  31.195  28.639  1.00  0.00     0.074 A 
ATOM     38  C   UNL A   1      43.824  31.955  29.250  1.00  0.00     0.031 C 
ATOM     39  C   UNL A   1      46.156  31.666  28.466  1.00  0.00     0.034 A 
BRANCH  26  40
ATOM     40  C   UNL A   1      50.121  27.598  26.025  1.00  0.00     0.023 A 
ATOM     41  C   UNL A   1      50.553  27.605  24.688  1.00  0.00     0.031 A 
ATOM     42  C   UNL A   1      51.078  27.359  27.028  1.00  0.00     0.131 A 
ATOM     43  C   UNL A   1      51.902  27.349  24.391  1.00  0.00     0.055 A 
ATOM     44  C   UNL A   1      52.428  27.169  26.729  1.00  0.00     0.041 A 
ATOM     45  F   UNL A   1      50.715  27.320  28.320  1.00  0.00    -0.206 F 
ATOM     46  C   UNL A   1      52.846  27.158  25.403  1.00  0.00     0.022 A 
BRANCH  43  47
ATOM     47  S   UNL A   1      52.396  27.186  22.652  1.00  0.00     0.124 S 
ATOM     48  O   UNL A   1      53.262  26.010  22.701  1.00  0.00    -0.237 OA
ATOM     49  O   UNL A   1      51.117  27.009  21.976  1.00  0.00    -0.237 OA
ATOM     50  O   UNL A   1      53.083  28.445  22.370  1.00  0.00    -0.744 OA
ENDBRANCH  43  47
ENDBRANCH  26  40
BRANCH  27  51
ATOM     51  C   UNL A   1      40.705  29.101  29.175  1.00  0.00     0.023 A 
ATOM     52  C   UNL A   1      40.488  29.045  30.559  1.00  0.00     0.031 A 
ATOM     53  C   UNL A   1      39.584  29.274  28.340  1.00  0.00     0.131 A 
ATOM     54  C   UNL A   1      39.179  29.094  31.062  1.00  0.00     0.055 A 
ATOM     55  C   UNL A   1      38.293  29.398  28.851  1.00  0.00     0.041 A 
ATOM     56  F   UNL A   1      39.731  29.331  27.007  1.00  0.00    -0.206 F 
ATOM     57  C   UNL A   1      38.081  29.287  30.220  1.00  0.00     0.022 A 
BRANCH  54  58
ATOM     58  S   UNL A   1      38.921  28.756  32.825  1.00  0.00     0.124 S 
ATOM     59  O   UNL A   1      39.085  30.083  33.408  1.00  0.00    -0.237 OA
ATOM     60  O   UNL A   1      37.566  28.214  32.833  1.00  0.00    -0.237 OA
ATOM     61  O   UNL A   1      39.977  27.797  33.145  1.00  0.00    -0.744 OA
ENDBRANCH  54  58
ENDBRANCH  27  51
BRANCH  39  62
ATOM     62  C   UNL A   1      46.426  33.074  28.932  1.00  0.00     0.023 A 
ATOM     63  C   UNL A   1      46.224  34.177  28.085  1.00  0.00     0.031 A 
ATOM     64  C   UNL A   1      46.901  33.314  30.234  1.00  0.00     0.131 A 
ATOM     65  C   UNL A   1      46.543  35.468  28.532  1.00  0.00     0.055 A 
ATOM     66  C   UNL A   1      47.155  34.606  30.694  1.00  0.00     0.041 A 
ATOM     67  F   UNL A   1      47.118  32.295  31.080  1.00  0.00    -0.206 F 
ATOM     68  C   UNL A   1      46.988  35.690  29.838  1.00  0.00     0.022 A 
BRANCH  65  69
ATOM     69  S   UNL A   1      46.449  36.843  27.355  1.00  0.00     0.124 S 
ATOM     70  O   UNL A   1      46.457  36.145  26.074  1.00  0.00    -0.237 OA
ATOM     71  O   UNL A   1      45.191  37.485  27.723  1.00  0.00    -0.237 OA
ATOM     72  O   UNL A   1      47.651  37.624  27.644  1.00  0.00    -0.744 OA
ENDBRANCH  65  69
ENDBRANCH  39  62
ENDBRANCH  13  14
ENDBRANCH   6   8
ENDBRANCH   3   4
ENDBRANCH   2   3
ENDBRANCH   1   2
BRANCH   1  73
ATOM     73  C   UNL A   1      38.911  23.519  26.504  1.00  0.00     0.002 C 
BRANCH  73  74
ATOM     74  C   UNL A   1      37.653  22.779  26.045  1.00  0.00     0.021 C 
BRANCH  74  75
ATOM     75  C   UNL A   1      36.407  23.665  25.985  1.00  0.00     0.116 C 
BRANCH  75  76
ATOM     76  N   UNL A   1      35.350  23.096  26.794  1.00  0.00    -0.354 N 
ATOM     77  C   UNL A   1      34.182  22.492  26.414  1.00  0.00     0.247 C 
ATOM     78  H   UNL A   1      35.493  23.153  27.767  1.00  0.00     0.163 HD
ATOM     79  O   UNL A   1      33.269  22.477  27.249  1.00  0.00    -0.272 OA
BRANCH  77  80
ATOM     80  C   UNL A   1      33.950  21.949  24.956  1.00  0.00     0.211 C 
BRANCH  80  81
ATOM     81  C   UNL A   1      34.026  20.424  25.007  1.00  0.00    -0.016 A 
ATOM     82  C   UNL A   1      35.124  19.668  24.573  1.00  0.00     0.006 A 
ATOM     83  C   UNL A   1      32.868  19.719  25.392  1.00  0.00     0.006 A 
ATOM     84  C   UNL A   1      35.081  18.271  24.541  1.00  0.00     0.000 A 
ATOM     85  C   UNL A   1      32.822  18.322  25.359  1.00  0.00     0.000 A 
ATOM     86  C   UNL A   1      33.930  17.599  24.932  1.00  0.00     0.000 A 
ENDBRANCH  80  81
BRANCH  80  87
ATOM     87  N   UNL A   1      32.824  22.663  24.300  1.00  0.00    -0.276 N 
ATOM     88  C   UNL A   1      32.876  24.051  24.430  1.00  0.00     0.267 C 
ATOM     89  C   UNL A   1      31.938  22.257  23.333  1.00  0.00     0.149 C 
ATOM     90  O   UNL A   1      33.791  24.667  24.961  1.00  0.00    -0.268 OA
ATOM     91  C   UNL A   1      31.703  24.707  23.791  1.00  0.00     0.084 C 
ATOM     92  S   UNL A   1      30.671  23.482  23.168  1.00  0.00    -0.054 SA
ATOM     93  S   UNL A   1      31.957  20.937  22.320  1.00  0.00    -0.052 S 
ATOM     94  C   UNL A   1      31.465  26.017  23.634  1.00  0.00     0.068 C 
BRANCH  94  95
ATOM     95  C   UNL A   1      32.431  27.021  23.911  1.00  0.00     0.128 A 
ATOM     96  C   UNL A   1      33.421  27.519  23.071  1.00  0.00     0.051 A 
ATOM     97  O   UNL A   1      32.485  27.734  25.089  1.00  0.00    -0.457 OA
ATOM     98  C   UNL A   1      34.103  28.543  23.759  1.00  0.00     0.051 A 
ATOM     99  C   UNL A   1      33.503  28.637  24.991  1.00  0.00     0.134 A 
BRANCH  99 100
ATOM    100  C   UNL A   1      33.731  29.497  26.138  1.00  0.00     0.017 A 
ATOM    101  C   UNL A   1      34.881  29.354  26.926  1.00  0.00     0.015 A 
ATOM    102  C   UNL A   1      32.822  30.525  26.431  1.00  0.00     0.015 A 
ATOM    103  C   UNL A   1      35.125  30.237  27.982  1.00  0.00     0.040 A 
ATOM    104  C   UNL A   1      33.059  31.398  27.495  1.00  0.00     0.040 A 
ATOM    105  C   UNL A   1      34.212  31.249  28.256  1.00  0.00     0.123 A 
ATOM    106  F   UNL A   1      34.449  32.098  29.264  1.00  0.00    -0.207 F 
ENDBRANCH  99 100
ENDBRANCH  94  95
ENDBRANCH  80  87
ENDBRANCH  77  80
ENDBRANCH  75  76
ENDBRANCH  74  75
ENDBRANCH  73  74
ENDBRANCH   1  73
TORSDOF 20
ENDMDL
MODEL 2
REMARK VINA RESULT:     -11.4      0.671      7.291
REMARK SMILES O=C(NCCCCCCNC(=O)[C@@H](c1ccccc1)N1C(=O)/C(=C\c2ccc(-c3ccc(F)cc3)o2)SC1=S)c1ccc(-c2c3nc(c(-c4cc(S(=O)(=O)[O-])ccc4F)c4ccc([nH]4)c(-c4cc(S(=O)(=O)[O-])ccc4F)c4nc(c(-c5cc(S(=O)(=O)[O-])ccc5F)c5ccc2[nH]5)C=C4)C=C3)cc1
REMARK SMILES IDX 6 1 5 2 4 3 3 4 1 5 2 6 40 8 41 9 102 10 42 11 101 12 43 13
REMARK SMILES IDX 44 14 45 15 95 16 46 17 100 18 94 19 96 20 47 21 99 22 93 23
REMARK SMILES IDX 92 24 48 26 80 27 60 28 79 29 61 30 64 31 78 32 97 33 62 34
REMARK SMILES IDX 63 35 77 37 98 38 65 39 49 40 50 41 58 42 51 43 57 44 59 45
REMARK SMILES IDX 56 46 52 47 53 48 54 49 55 50 81 51 82 52 90 53 83 54 89 55
REMARK SMILES IDX 91 56 88 57 84 58 85 59 86 60 87 61 66 62 67 63 75 64 68 65
REMARK SMILES IDX 74 66 76 67 73 68 69 69 70 70 71 71 72 72 7 73 8 74 9 75
REMARK SMILES IDX 10 76 11 77 12 79 13 80 14 81 15 82 19 83 16 84 18 85 17 86
REMARK SMILES IDX 20 87 21 88 38 89 22 90 23 91 37 92 39 93 24 94 25 95 26 96
REMARK SMILES IDX 36 97 27 98 28 99 29 100 30 101 35 102 31 103 34 104 32 105
REMARK SMILES IDX 33 106
REMARK H PARENT 3 7 96 25 64 36 10 78
REMARK Flexibility Score: inf
ROOT
ATOM      1  C   UNL A   1      39.804  21.939  26.854  1.00  0.00     0.002 C 
ENDROOT
BRANCH   1   2
ATOM      2  C   UNL A   1      39.990  20.603  26.132  1.00  0.00     0.021 C 
BRANCH   2   3
ATOM      3  C   UNL A   1      40.801  19.583  26.922  1.00  0.00     0.116 C 
BRANCH   3   4
ATOM      4  N   UNL A   1      41.941  19.111  26.152  1.00  0.00    -0.352 N 
ATOM      5  O   UNL A   1      43.669  19.345  24.722  1.00  0.00    -0.269 OA
ATOM      6  C   UNL A   1      42.941  19.849  25.571  1.00  0.00     0.251 C 
ATOM      7  H   UNL A   1      42.003  18.136  26.032  1.00  0.00     0.163 HD
BRANCH   6   8
ATOM      8  C   UNL A   1      43.135  21.252  25.993  1.00  0.00     0.039 A 
ATOM      9  C   UNL A   1      43.450  21.539  27.324  1.00  0.00     0.014 A 
ATOM     10  C   UNL A   1      43.038  22.277  25.050  1.00  0.00     0.014 A 
ATOM     11  C   UNL A   1      43.581  22.860  27.734  1.00  0.00     0.010 A 
ATOM     12  C   UNL A   1      43.258  23.598  25.446  1.00  0.00     0.010 A 
ATOM     13  C   UNL A   1      43.536  23.897  26.790  1.00  0.00    -0.014 A 
BRANCH  13  14
ATOM     14  C   UNL A   1      43.942  25.261  27.204  1.00  0.00     0.031 A 
ATOM     15  C   UNL A   1      42.964  26.216  27.820  1.00  0.00     0.074 A 
ATOM     16  C   UNL A   1      45.225  25.623  26.993  1.00  0.00     0.049 A 
ATOM     17  N   UNL A   1      43.155  27.455  28.192  1.00  0.00    -0.248 NA
ATOM     18  C   UNL A   1      41.596  25.726  28.044  1.00  0.00     0.031 C 
ATOM     19  C   UNL A   1      46.251  24.761  26.392  1.00  0.00     0.029 A 
ATOM     20  N   UNL A   1      45.891  26.791  27.252  1.00  0.00    -0.354 N 
ATOM     21  C   UNL A   1      41.932  27.903  28.675  1.00  0.00     0.074 A 
ATOM     22  C   UNL A   1      40.999  26.804  28.538  1.00  0.00     0.031 C 
ATOM     23  C   UNL A   1      47.416  25.422  26.352  1.00  0.00     0.029 A 
ATOM     24  C   UNL A   1      47.205  26.778  26.839  1.00  0.00     0.049 A 
ATOM     25  H   UNL A   1      45.472  27.566  27.691  1.00  0.00     0.167 HD
ATOM     26  C   UNL A   1      41.628  29.124  29.178  1.00  0.00     0.034 A 
ATOM     27  C   UNL A   1      48.124  27.761  26.804  1.00  0.00     0.034 A 
ATOM     28  C   UNL A   1      42.584  30.199  29.307  1.00  0.00     0.049 A 
ATOM     29  C   UNL A   1      47.731  29.122  27.313  1.00  0.00     0.074 A 
ATOM     30  C   UNL A   1      42.399  31.447  29.875  1.00  0.00     0.029 A 
ATOM     31  N   UNL A   1      43.891  30.166  28.839  1.00  0.00    -0.354 N 
ATOM     32  N   UNL A   1      46.587  29.506  27.831  1.00  0.00    -0.248 NA
ATOM     33  C   UNL A   1      48.743  30.179  27.232  1.00  0.00     0.031 C 
ATOM     34  C   UNL A   1      43.560  32.198  29.670  1.00  0.00     0.029 A 
ATOM     35  C   UNL A   1      44.503  31.392  29.051  1.00  0.00     0.049 A 
ATOM     36  H   UNL A   1      44.321  29.387  28.419  1.00  0.00     0.167 HD
ATOM     37  C   UNL A   1      46.750  30.850  28.147  1.00  0.00     0.074 A 
ATOM     38  C   UNL A   1      48.112  31.197  27.797  1.00  0.00     0.031 C 
ATOM     39  C   UNL A   1      45.856  31.724  28.675  1.00  0.00     0.034 A 
BRANCH  26  40
ATOM     40  C   UNL A   1      40.199  29.399  29.579  1.00  0.00     0.023 A 
ATOM     41  C   UNL A   1      39.796  29.458  30.923  1.00  0.00     0.031 A 
ATOM     42  C   UNL A   1      39.235  29.662  28.588  1.00  0.00     0.131 A 
ATOM     43  C   UNL A   1      38.458  29.744  31.238  1.00  0.00     0.055 A 
ATOM     44  C   UNL A   1      37.922  30.008  28.909  1.00  0.00     0.041 A 
ATOM     45  F   UNL A   1      39.560  29.598  27.287  1.00  0.00    -0.206 F 
ATOM     46  C   UNL A   1      37.525  30.045  30.242  1.00  0.00     0.022 A 
BRANCH  43  47
ATOM     47  S   UNL A   1      37.926  29.636  32.970  1.00  0.00     0.124 S 
ATOM     48  O   UNL A   1      39.159  29.967  33.679  1.00  0.00    -0.237 OA
ATOM     49  O   UNL A   1      36.864  30.633  33.037  1.00  0.00    -0.237 OA
ATOM     50  O   UNL A   1      37.488  28.248  33.110  1.00  0.00    -0.744 OA
ENDBRANCH  43  47
ENDBRANCH  26  40
BRANCH  27  51
ATOM     51  C   UNL A   1      49.467  27.524  26.199  1.00  0.00     0.023 A 
ATOM     52  C   UNL A   1      49.716  27.817  24.851  1.00  0.00     0.031 A 
ATOM     53  C   UNL A   1      50.504  26.933  26.946  1.00  0.00     0.131 A 
ATOM     54  C   UNL A   1      50.944  27.457  24.274  1.00  0.00     0.055 A 
ATOM     55  C   UNL A   1      51.750  26.648  26.387  1.00  0.00     0.041 A 
ATOM     56  F   UNL A   1      50.322  26.628  28.241  1.00  0.00    -0.206 F 
ATOM     57  C   UNL A   1      51.968  26.891  25.036  1.00  0.00     0.022 A 
BRANCH  54  58
ATOM     58  S   UNL A   1      51.128  27.611  22.476  1.00  0.00     0.124 S 
ATOM     59  O   UNL A   1      52.354  26.857  22.240  1.00  0.00    -0.237 OA
ATOM     60  O   UNL A   1      49.895  26.999  21.994  1.00  0.00    -0.237 OA
ATOM     61  O   UNL A   1      51.230  29.054  22.268  1.00  0.00    -0.744 OA
ENDBRANCH  54  58
ENDBRANCH  27  51
BRANCH  39  62
ATOM     62  C   UNL A   1      46.341  33.130  28.915  1.00  0.00     0.023 A 
ATOM     63  C   UNL A   1      46.183  34.135  27.945  1.00  0.00     0.031 A 
ATOM     64  C   UNL A   1      46.979  33.467  30.122  1.00  0.00     0.131 A 
ATOM     65  C   UNL A   1      46.701  35.417  28.177  1.00  0.00     0.055 A 
ATOM     66  C   UNL A   1      47.435  34.761  30.373  1.00  0.00     0.041 A 
ATOM     67  F   UNL A   1      47.163  32.544  31.079  1.00  0.00    -0.206 F 
ATOM     68  C   UNL A   1      47.307  35.741  29.394  1.00  0.00     0.022 A 
BRANCH  65  69
ATOM     69  S   UNL A   1      46.646  36.634  26.834  1.00  0.00     0.124 S 
ATOM     70  O   UNL A   1      45.516  37.469  27.229  1.00  0.00    -0.237 OA
ATOM     71  O   UNL A   1      47.961  37.258  26.922  1.00  0.00    -0.237 OA
ATOM     72  O   UNL A   1      46.426  35.816  25.642  1.00  0.00    -0.744 OA
ENDBRANCH  65  69
ENDBRANCH  39  62
ENDBRANCH  13  14
ENDBRANCH   6   8
ENDBRANCH   3   4
ENDBRANCH   2   3
ENDBRANCH   1   2
BRANCH   1  73
ATOM     73  C   UNL A   1      38.883  22.934  26.138  1.00  0.00     0.002 C 
BRANCH  73  74
ATOM     74  C   UNL A   1      37.464  22.421  25.887  1.00  0.00     0.021 C 
BRANCH  74  75
ATOM     75  C   UNL A   1      36.384  23.493  26.048  1.00  0.00     0.116 C 
BRANCH  75  76
ATOM     76  N   UNL A   1      35.276  22.973  26.822  1.00  0.00    -0.354 N 
ATOM     77  C   UNL A   1      34.101  22.411  26.403  1.00  0.00     0.247 C 
ATOM     78  H   UNL A   1      35.384  23.035  27.799  1.00  0.00     0.163 HD
ATOM     79  O   UNL A   1      33.157  22.440  27.202  1.00  0.00    -0.272 OA
BRANCH  77  80
ATOM     80  C   UNL A   1      33.903  21.862  24.942  1.00  0.00     0.211 C 
BRANCH  80  81
ATOM     81  C   UNL A   1      34.001  20.339  24.997  1.00  0.00    -0.016 A 
ATOM     82  C   UNL A   1      35.113  19.599  24.569  1.00  0.00     0.006 A 
ATOM     83  C   UNL A   1      32.853  19.617  25.378  1.00  0.00     0.006 A 
ATOM     84  C   UNL A   1      35.092  18.201  24.540  1.00  0.00     0.000 A 
ATOM     85  C   UNL A   1      32.828  18.220  25.348  1.00  0.00     0.000 A 
ATOM     86  C   UNL A   1      33.949  17.513  24.928  1.00  0.00     0.000 A 
ENDBRANCH  80  81
BRANCH  80  87
ATOM     87  N   UNL A   1      32.778  22.558  24.265  1.00  0.00    -0.276 N 
ATOM     88  C   UNL A   1      32.816  23.948  24.378  1.00  0.00     0.267 C 
ATOM     89  C   UNL A   1      31.905  22.132  23.294  1.00  0.00     0.149 C 
ATOM     90  O   UNL A   1      33.719  24.579  24.911  1.00  0.00    -0.268 OA
ATOM     91  C   UNL A   1      31.643  24.585  23.718  1.00  0.00     0.084 C 
ATOM     92  S   UNL A   1      30.630  23.343  23.099  1.00  0.00    -0.054 SA
ATOM     93  S   UNL A   1      31.948  20.800  22.298  1.00  0.00    -0.052 S 
ATOM     94  C   UNL A   1      31.396  25.890  23.542  1.00  0.00     0.068 C 
BRANCH  94  95
ATOM     95  C   UNL A   1      32.350  26.907  23.817  1.00  0.00     0.128 A 
ATOM     96  C   UNL A   1      33.382  27.362  23.004  1.00  0.00     0.051 A 
ATOM     97  O   UNL A   1      32.347  27.678  24.959  1.00  0.00    -0.457 OA
ATOM     98  C   UNL A   1      34.031  28.419  23.673  1.00  0.00     0.051 A 
ATOM     99  C   UNL A   1      33.370  28.575  24.867  1.00  0.00     0.134 A 
BRANCH  99 100
ATOM    100  C   UNL A   1      33.543  29.491  25.980  1.00  0.00     0.017 A 
ATOM    101  C   UNL A   1      34.707  29.462  26.760  1.00  0.00     0.015 A 
ATOM    102  C   UNL A   1      32.563  30.459  26.245  1.00  0.00     0.015 A 
ATOM    103  C   UNL A   1      34.893  30.398  27.782  1.00  0.00     0.040 A 
ATOM    104  C   UNL A   1      32.744  31.386  27.274  1.00  0.00     0.040 A 
ATOM    105  C   UNL A   1      33.910  31.350  28.028  1.00  0.00     0.123 A 
ATOM    106  F   UNL A   1      34.091  32.251  29.002  1.00  0.00    -0.207 F 
ENDBRANCH  99 100
ENDBRANCH  94  95
ENDBRANCH  80  87
ENDBRANCH  77  80
ENDBRANCH  75  76
ENDBRANCH  74  75
ENDBRANCH  73  74
ENDBRANCH   1  73
TORSDOF 20
ENDMDL
MODEL 3
REMARK VINA RESULT:     -11.2      6.033     11.456
REMARK SMILES O=C(NCCCCCCNC(=O)[C@@H](c1ccccc1)N1C(=O)/C(=C\c2ccc(-c3ccc(F)cc3)o2)SC1=S)c1ccc(-c2c3nc(c(-c4cc(S(=O)(=O)[O-])ccc4F)c4ccc([nH]4)c(-c4cc(S(=O)(=O)[O-])ccc4F)c4nc(c(-c5cc(S(=O)(=O)[O-])ccc5F)c5ccc2[nH]5)C=C4)C=C3)cc1
REMARK SMILES IDX 6 1 5 2 4 3 3 4 1 5 2 6 40 8 41 9 102 10 42 11 101 12 43 13
REMARK SMILES IDX 44 14 45 15 95 16 46 17 100 18 94 19 96 20 47 21 99 22 93 23
REMARK SMILES IDX 92 24 48 26 80 27 60 28 79 29 61 30 64 31 78 32 97 33 62 34
REMARK SMILES IDX 63 35 77 37 98 38 65 39 49 40 50 41 58 42 51 43 57 44 59 45
REMARK SMILES IDX 56 46 52 47 53 48 54 49 55 50 81 51 82 52 90 53 83 54 89 55
REMARK SMILES IDX 91 56 88 57 84 58 85 59 86 60 87 61 66 62 67 63 75 64 68 65
REMARK SMILES IDX 74 66 76 67 73 68 69 69 70 70 71 71 72 72 7 73 8 74 9 75
REMARK SMILES IDX 10 76 11 77 12 79 13 80 14 81 15 82 19 83 16 84 18 85 17 86
REMARK SMILES IDX 20 87 21 88 38 89 22 90 23 91 37 92 39 93 24 94 25 95 26 96
REMARK SMILES IDX 36 97 27 98 28 99 29 100 30 101 35 102 31 103 34 104 32 105
REMARK SMILES IDX 33 106
REMARK H PARENT 3 7 96 25 64 36 10 78
REMARK Flexibility Score: inf
ROOT
ATOM      1  C   UNL A   1      47.539  30.549  26.967  1.00  0.00     0.002 C 
ENDROOT
BRANCH   1   2
ATOM      2  C   UNL A   1      47.084  31.551  28.030  1.00  0.00     0.021 C 
BRANCH   2   3
ATOM      3  C   UNL A   1      47.129  33.003  27.569  1.00  0.00     0.116 C 
BRANCH   3   4
ATOM      4  N   UNL A   1      46.274  33.212  26.412  1.00  0.00    -0.352 N 
ATOM      5  O   UNL A   1      44.337  33.086  25.264  1.00  0.00    -0.269 OA
ATOM      6  C   UNL A   1      44.903  33.174  26.348  1.00  0.00     0.251 C 
ATOM      7  H   UNL A   1      46.737  33.406  25.566  1.00  0.00     0.163 HD
BRANCH   6   8
ATOM      8  C   UNL A   1      44.124  33.253  27.601  1.00  0.00     0.039 A 
ATOM      9  C   UNL A   1      43.645  32.082  28.195  1.00  0.00     0.014 A 
ATOM     10  C   UNL A   1      43.906  34.494  28.202  1.00  0.00     0.014 A 
ATOM     11  C   UNL A   1      42.869  32.157  29.344  1.00  0.00     0.010 A 
ATOM     12  C   UNL A   1      43.201  34.560  29.406  1.00  0.00     0.010 A 
ATOM     13  C   UNL A   1      42.683  33.390  29.987  1.00  0.00    -0.014 A 
BRANCH  13  14
ATOM     14  C   UNL A   1      42.084  33.409  31.344  1.00  0.00     0.031 A 
ATOM     15  C   UNL A   1      42.902  33.109  32.564  1.00  0.00     0.074 A 
ATOM     16  C   UNL A   1      40.768  33.691  31.443  1.00  0.00     0.049 A 
ATOM     17  N   UNL A   1      42.514  33.042  33.811  1.00  0.00    -0.248 NA
ATOM     18  C   UNL A   1      44.335  32.846  32.365  1.00  0.00     0.031 C 
ATOM     19  C   UNL A   1      39.887  33.990  30.307  1.00  0.00     0.029 A 
ATOM     20  N   UNL A   1      39.939  33.775  32.530  1.00  0.00    -0.354 N 
ATOM     21  C   UNL A   1      43.646  32.709  34.546  1.00  0.00     0.074 A 
ATOM     22  C   UNL A   1      44.735  32.576  33.602  1.00  0.00     0.031 C 
ATOM     23  C   UNL A   1      38.653  34.248  30.760  1.00  0.00     0.029 A 
ATOM     24  C   UNL A   1      38.630  34.046  32.202  1.00  0.00     0.049 A 
ATOM     25  H   UNL A   1      40.249  33.654  33.457  1.00  0.00     0.167 HD
ATOM     26  C   UNL A   1      43.749  32.527  35.885  1.00  0.00     0.034 A 
ATOM     27  C   UNL A   1      37.521  34.076  32.967  1.00  0.00     0.034 A 
ATOM     28  C   UNL A   1      42.643  32.674  36.802  1.00  0.00     0.049 A 
ATOM     29  C   UNL A   1      37.667  33.808  34.441  1.00  0.00     0.074 A 
ATOM     30  C   UNL A   1      42.657  32.590  38.183  1.00  0.00     0.029 A 
ATOM     31  N   UNL A   1      41.324  32.904  36.432  1.00  0.00    -0.354 N 
ATOM     32  N   UNL A   1      38.758  33.562  35.128  1.00  0.00    -0.248 NA
ATOM     33  C   UNL A   1      36.438  33.815  35.241  1.00  0.00     0.031 C 
ATOM     34  C   UNL A   1      41.339  32.678  38.641  1.00  0.00     0.029 A 
ATOM     35  C   UNL A   1      40.509  32.903  37.555  1.00  0.00     0.049 A 
ATOM     36  H   UNL A   1      41.013  33.047  35.510  1.00  0.00     0.167 HD
ATOM     37  C   UNL A   1      38.345  33.399  36.446  1.00  0.00     0.074 A 
ATOM     38  C   UNL A   1      36.912  33.610  36.461  1.00  0.00     0.031 C 
ATOM     39  C   UNL A   1      39.079  33.096  37.545  1.00  0.00     0.034 A 
BRANCH  26  40
ATOM     40  C   UNL A   1      45.081  32.098  36.450  1.00  0.00     0.023 A 
ATOM     41  C   UNL A   1      45.437  30.746  36.585  1.00  0.00     0.031 A 
ATOM     42  C   UNL A   1      46.033  33.070  36.808  1.00  0.00     0.131 A 
ATOM     43  C   UNL A   1      46.701  30.405  37.093  1.00  0.00     0.055 A 
ATOM     44  C   UNL A   1      47.310  32.725  37.252  1.00  0.00     0.041 A 
ATOM     45  F   UNL A   1      45.738  34.377  36.720  1.00  0.00    -0.206 F 
ATOM     46  C   UNL A   1      47.649  31.384  37.402  1.00  0.00     0.022 A 
BRANCH  43  47
ATOM     47  S   UNL A   1      47.066  28.659  37.426  1.00  0.00     0.124 S 
ATOM     48  O   UNL A   1      47.436  28.698  38.839  1.00  0.00    -0.237 OA
ATOM     49  O   UNL A   1      45.799  28.007  37.116  1.00  0.00    -0.237 OA
ATOM     50  O   UNL A   1      48.164  28.355  36.510  1.00  0.00    -0.744 OA
ENDBRANCH  43  47
ENDBRANCH  26  40
BRANCH  27  51
ATOM     51  C   UNL A   1      36.179  34.288  32.352  1.00  0.00     0.023 A 
ATOM     52  C   UNL A   1      35.542  35.535  32.417  1.00  0.00     0.031 A 
ATOM     53  C   UNL A   1      35.481  33.223  31.750  1.00  0.00     0.131 A 
ATOM     54  C   UNL A   1      34.224  35.670  31.953  1.00  0.00     0.055 A 
ATOM     55  C   UNL A   1      34.200  33.382  31.221  1.00  0.00     0.041 A 
ATOM     56  F   UNL A   1      36.040  32.006  31.662  1.00  0.00    -0.206 F 
ATOM     57  C   UNL A   1      33.555  34.608  31.340  1.00  0.00     0.022 A 
BRANCH  54  58
ATOM     58  S   UNL A   1      33.346  37.220  32.294  1.00  0.00     0.124 S 
ATOM     59  O   UNL A   1      34.392  38.021  32.920  1.00  0.00    -0.237 OA
ATOM     60  O   UNL A   1      32.934  37.633  30.956  1.00  0.00    -0.237 OA
ATOM     61  O   UNL A   1      32.259  36.806  33.179  1.00  0.00    -0.744 OA
ENDBRANCH  54  58
ENDBRANCH  27  51
BRANCH  39  62
ATOM     62  C   UNL A   1      38.334  32.994  38.852  1.00  0.00     0.023 A 
ATOM     63  C   UNL A   1      38.456  33.982  39.844  1.00  0.00     0.031 A 
ATOM     64  C   UNL A   1      37.503  31.890  39.113  1.00  0.00     0.131 A 
ATOM     65  C   UNL A   1      37.797  33.824  41.071  1.00  0.00     0.055 A 
ATOM     66  C   UNL A   1      36.799  31.770  40.311  1.00  0.00     0.041 A 
ATOM     67  F   UNL A   1      37.358  30.913  38.203  1.00  0.00    -0.206 F 
ATOM     68  C   UNL A   1      36.953  32.734  41.302  1.00  0.00     0.022 A 
BRANCH  65  69
ATOM     69  S   UNL A   1      38.124  35.020  42.394  1.00  0.00     0.124 S 
ATOM     70  O   UNL A   1      36.824  35.108  43.049  1.00  0.00    -0.237 OA
ATOM     71  O   UNL A   1      39.179  34.362  43.158  1.00  0.00    -0.237 OA
ATOM     72  O   UNL A   1      38.539  36.222  41.672  1.00  0.00    -0.744 OA
ENDBRANCH  65  69
ENDBRANCH  39  62
ENDBRANCH  13  14
ENDBRANCH   6   8
ENDBRANCH   3   4
ENDBRANCH   2   3
ENDBRANCH   1   2
BRANCH   1  73
ATOM     73  C   UNL A   1      46.446  29.595  26.472  1.00  0.00     0.002 C 
BRANCH  73  74
ATOM     74  C   UNL A   1      46.961  28.403  25.664  1.00  0.00     0.021 C 
BRANCH  74  75
ATOM     75  C   UNL A   1      45.930  27.286  25.489  1.00  0.00     0.116 C 
BRANCH  75  76
ATOM     76  N   UNL A   1      44.685  27.829  24.987  1.00  0.00    -0.354 N 
ATOM     77  C   UNL A   1      43.405  27.371  25.139  1.00  0.00     0.247 C 
ATOM     78  H   UNL A   1      44.774  28.653  24.455  1.00  0.00     0.163 HD
ATOM     79  O   UNL A   1      42.581  27.738  24.291  1.00  0.00    -0.272 OA
BRANCH  77  80
ATOM     80  C   UNL A   1      43.006  26.334  26.253  1.00  0.00     0.211 C 
BRANCH  80  81
ATOM     81  C   UNL A   1      43.491  24.956  25.803  1.00  0.00    -0.016 A 
ATOM     82  C   UNL A   1      44.699  24.720  25.132  1.00  0.00     0.006 A 
ATOM     83  C   UNL A   1      42.610  23.867  25.952  1.00  0.00     0.006 A 
ATOM     84  C   UNL A   1      45.027  23.450  24.646  1.00  0.00     0.000 A 
ATOM     85  C   UNL A   1      42.935  22.597  25.466  1.00  0.00     0.000 A 
ATOM     86  C   UNL A   1      44.143  22.390  24.812  1.00  0.00     0.000 A 
ENDBRANCH  80  81
BRANCH  80  87
ATOM     87  N   UNL A   1      43.301  26.873  27.606  1.00  0.00    -0.276 N 
ATOM     88  C   UNL A   1      42.213  27.490  28.223  1.00  0.00     0.267 C 
ATOM     89  C   UNL A   1      44.321  26.601  28.484  1.00  0.00     0.149 C 
ATOM     90  O   UNL A   1      41.081  27.535  27.758  1.00  0.00    -0.268 OA
ATOM     91  C   UNL A   1      42.580  28.047  29.554  1.00  0.00     0.084 C 
ATOM     92  S   UNL A   1      44.254  27.765  29.815  1.00  0.00    -0.054 SA
ATOM     93  S   UNL A   1      45.440  25.371  28.509  1.00  0.00    -0.052 S 
ATOM     94  C   UNL A   1      41.780  28.617  30.466  1.00  0.00     0.068 C 
BRANCH  94  95
ATOM     95  C   UNL A   1      40.363  28.615  30.367  1.00  0.00     0.128 A 
ATOM     96  C   UNL A   1      39.458  27.749  30.971  1.00  0.00     0.051 A 
ATOM     97  O   UNL A   1      39.637  29.564  29.680  1.00  0.00    -0.457 OA
ATOM     98  C   UNL A   1      38.157  28.168  30.629  1.00  0.00     0.051 A 
ATOM     99  C   UNL A   1      38.313  29.278  29.834  1.00  0.00     0.134 A 
BRANCH  99 100
ATOM    100  C   UNL A   1      37.368  30.166  29.182  1.00  0.00     0.017 A 
ATOM    101  C   UNL A   1      36.073  29.732  28.866  1.00  0.00     0.015 A 
ATOM    102  C   UNL A   1      37.730  31.495  28.915  1.00  0.00     0.015 A 
ATOM    103  C   UNL A   1      35.150  30.619  28.305  1.00  0.00     0.040 A 
ATOM    104  C   UNL A   1      36.811  32.378  28.343  1.00  0.00     0.040 A 
ATOM    105  C   UNL A   1      35.528  31.933  28.050  1.00  0.00     0.123 A 
ATOM    106  F   UNL A   1      34.642  32.785  27.518  1.00  0.00    -0.207 F 
ENDBRANCH  99 100
ENDBRANCH  94  95
ENDBRANCH  80  87
ENDBRANCH  77  80
ENDBRANCH  75  76
ENDBRANCH  74  75
ENDBRANCH  73  74
ENDBRANCH   1  73
TORSDOF 20
ENDMDL
