MODEL 1
REMARK VINA RESULT:     -12.0      0.000      0.000
REMARK SMILES Cc1n[nH]c(C)c1C(=O)N1CC(n2cc(C(=O)NCCCCCCNC(=O)c3ccc(-c4c5nc(c(-c6cc(S(=O)(=O)[O-])ccc6F)c6ccc([nH]6)c(-c6cc(S(=O)(=O)[O-])ccc6F)c6nc(c(-c7cc(S(=O)(=O)[O-])ccc7F)c7ccc4[nH]7)C=C6)C=C5)cc3)nn2)C1
REMARK SMILES IDX 22 1 21 2 20 3 19 4 18 5 16 6 17 7 15 9 13 10 14 11 92 12
REMARK SMILES IDX 91 13 12 14 8 15 9 16 10 17 11 18 93 19 7 20 1 21 2 22 3 23
REMARK SMILES IDX 4 24 5 25 6 27 23 28 24 29 25 30 26 31 27 33 28 34 29 35
REMARK SMILES IDX 90 36 30 37 89 38 31 39 32 40 33 41 83 42 34 43 88 44 82 45
REMARK SMILES IDX 84 46 35 47 87 48 81 49 80 50 36 52 68 53 48 54 67 55 49 56
REMARK SMILES IDX 52 57 66 58 85 59 50 60 51 61 65 63 86 64 53 65 37 66 38 67
REMARK SMILES IDX 46 68 39 69 45 70 47 71 44 72 40 73 41 74 42 75 43 76 69 77
REMARK SMILES IDX 70 78 78 79 71 80 77 81 79 82 76 83 72 84 73 85 74 86 75 87
REMARK SMILES IDX 54 88 55 89 63 90 56 91 62 92 64 93 61 94 57 95 58 96 59 97
REMARK SMILES IDX 60 98
REMARK H PARENT 18 8 4 26 25 32 84 51 52 62
REMARK Flexibility Score: inf
ROOT
ATOM      1  C   UNL A   1      37.657  23.132  25.700  1.00  0.00     0.002 C 
ENDROOT
BRANCH   1   2
ATOM      2  C   UNL A   1      36.141  22.887  25.678  1.00  0.00     0.002 C 
BRANCH   2   3
ATOM      3  C   UNL A   1      35.679  21.485  26.090  1.00  0.00     0.021 C 
BRANCH   3   4
ATOM      4  C   UNL A   1      35.325  20.569  24.922  1.00  0.00     0.116 C 
BRANCH   4   5
ATOM      5  N   UNL A   1      34.313  19.594  25.289  1.00  0.00    -0.351 N 
ATOM      6  C   UNL A   1      32.949  19.620  25.102  1.00  0.00     0.273 C 
ATOM      7  O   UNL A   1      32.324  18.575  25.272  1.00  0.00    -0.267 OA
ATOM      8  H   UNL A   1      34.656  18.790  25.742  1.00  0.00     0.163 HD
BRANCH   6   9
ATOM      9  C   UNL A   1      32.300  20.851  24.672  1.00  0.00     0.170 A 
ATOM     10  N   UNL A   1      31.303  22.770  24.512  1.00  0.00    -0.245 N 
ATOM     11  C   UNL A   1      31.614  21.794  25.416  1.00  0.00     0.145 A 
ATOM     12  N   UNL A   1      31.696  22.427  23.274  1.00  0.00    -0.066 NA
ATOM     13  N   UNL A   1      32.281  21.240  23.353  1.00  0.00    -0.125 NA
BRANCH  10  14
ATOM     14  C   UNL A   1      30.783  24.057  24.873  1.00  0.00     0.148 C 
ATOM     15  C   UNL A   1      31.242  27.324  24.511  1.00  0.00     0.257 C 
ATOM     16  O   UNL A   1      30.204  27.838  24.100  1.00  0.00    -0.269 OA
ATOM     17  N   UNL A   1      31.438  25.968  24.396  1.00  0.00    -0.334 N 
ATOM     18  C   UNL A   1      30.600  25.013  23.684  1.00  0.00     0.149 C 
ATOM     19  C   UNL A   1      31.923  24.990  25.349  1.00  0.00     0.149 C 
BRANCH  15  20
ATOM     20  C   UNL A   1      32.316  28.141  25.080  1.00  0.00     0.083 A 
ATOM     21  C   UNL A   1      31.517  28.196  27.585  1.00  0.00     0.069 C 
ATOM     22  C   UNL A   1      32.411  28.551  26.451  1.00  0.00     0.072 A 
ATOM     23  N   UNL A   1      33.451  29.367  26.666  1.00  0.00    -0.180 NA
ATOM     24  N   UNL A   1      34.005  29.504  25.460  1.00  0.00    -0.282 N 
ATOM     25  C   UNL A   1      33.377  28.802  24.469  1.00  0.00     0.045 A 
ATOM     26  H   UNL A   1      34.799  30.063  25.299  1.00  0.00     0.190 HD
ATOM     27  C   UNL A   1      33.858  28.920  23.073  1.00  0.00     0.067 C 
ENDBRANCH  15  20
ENDBRANCH  10  14
ENDBRANCH   6   9
ENDBRANCH   4   5
ENDBRANCH   3   4
ENDBRANCH   2   3
ENDBRANCH   1   2
BRANCH   1  28
ATOM     28  C   UNL A   1      38.549  21.883  25.721  1.00  0.00     0.021 C 
BRANCH  28  29
ATOM     29  C   UNL A   1      39.694  21.932  26.731  1.00  0.00     0.116 C 
BRANCH  29  30
ATOM     30  N   UNL A   1      40.995  21.980  26.080  1.00  0.00    -0.352 N 
ATOM     31  C   UNL A   1      41.838  23.057  25.917  1.00  0.00     0.251 C 
ATOM     32  H   UNL A   1      41.315  21.128  25.705  1.00  0.00     0.163 HD
ATOM     33  O   UNL A   1      42.738  23.003  25.084  1.00  0.00    -0.269 OA
BRANCH  31  34
ATOM     34  C   UNL A   1      41.625  24.283  26.713  1.00  0.00     0.039 A 
ATOM     35  C   UNL A   1      42.349  24.474  27.890  1.00  0.00     0.014 A 
ATOM     36  C   UNL A   1      40.716  25.249  26.287  1.00  0.00     0.014 A 
ATOM     37  C   UNL A   1      42.225  25.679  28.586  1.00  0.00     0.010 A 
ATOM     38  C   UNL A   1      40.642  26.473  26.946  1.00  0.00     0.010 A 
ATOM     39  C   UNL A   1      41.394  26.706  28.104  1.00  0.00    -0.014 A 
BRANCH  39  40
ATOM     40  C   UNL A   1      41.425  28.026  28.769  1.00  0.00     0.031 A 
ATOM     41  C   UNL A   1      42.450  29.016  28.304  1.00  0.00     0.074 A 
ATOM     42  C   UNL A   1      40.485  28.535  29.596  1.00  0.00     0.049 A 
ATOM     43  N   UNL A   1      43.337  29.638  29.011  1.00  0.00    -0.248 NA
ATOM     44  C   UNL A   1      42.477  29.369  26.878  1.00  0.00     0.031 C 
ATOM     45  C   UNL A   1      39.200  27.949  29.977  1.00  0.00     0.029 A 
ATOM     46  N   UNL A   1      40.440  29.781  30.172  1.00  0.00    -0.354 N 
ATOM     47  C   UNL A   1      43.913  30.597  28.179  1.00  0.00     0.074 A 
ATOM     48  C   UNL A   1      43.412  30.322  26.855  1.00  0.00     0.031 C 
ATOM     49  C   UNL A   1      38.409  28.915  30.488  1.00  0.00     0.029 A 
ATOM     50  C   UNL A   1      39.179  30.141  30.616  1.00  0.00     0.049 A 
ATOM     51  H   UNL A   1      41.229  30.364  30.258  1.00  0.00     0.167 HD
ATOM     52  C   UNL A   1      44.647  31.641  28.662  1.00  0.00     0.034 A 
ATOM     53  C   UNL A   1      38.755  31.357  31.037  1.00  0.00     0.034 A 
ATOM     54  C   UNL A   1      45.064  31.428  30.027  1.00  0.00     0.049 A 
ATOM     55  C   UNL A   1      39.927  32.123  31.512  1.00  0.00     0.074 A 
ATOM     56  C   UNL A   1      45.730  30.422  30.703  1.00  0.00     0.029 A 
ATOM     57  N   UNL A   1      44.572  32.248  31.014  1.00  0.00    -0.354 N 
ATOM     58  N   UNL A   1      40.612  31.819  32.578  1.00  0.00    -0.248 NA
ATOM     59  C   UNL A   1      40.551  33.105  30.637  1.00  0.00     0.031 C 
ATOM     60  C   UNL A   1      45.170  30.415  32.014  1.00  0.00     0.029 A 
ATOM     61  C   UNL A   1      44.210  31.426  32.052  1.00  0.00     0.049 A 
ATOM     62  H   UNL A   1      44.493  33.230  30.983  1.00  0.00     0.167 HD
ATOM     63  C   UNL A   1      41.901  32.236  32.307  1.00  0.00     0.074 A 
ATOM     64  C   UNL A   1      41.766  33.159  31.186  1.00  0.00     0.031 C 
ATOM     65  C   UNL A   1      42.981  31.566  32.806  1.00  0.00     0.034 A 
BRANCH  52  66
ATOM     66  C   UNL A   1      44.807  32.993  27.996  1.00  0.00     0.023 A 
ATOM     67  C   UNL A   1      43.942  34.035  28.394  1.00  0.00     0.031 A 
ATOM     68  C   UNL A   1      45.556  33.233  26.825  1.00  0.00     0.131 A 
ATOM     69  C   UNL A   1      43.794  35.198  27.617  1.00  0.00     0.055 A 
ATOM     70  C   UNL A   1      45.470  34.429  26.100  1.00  0.00     0.041 A 
ATOM     71  F   UNL A   1      46.332  32.293  26.271  1.00  0.00    -0.206 F 
ATOM     72  C   UNL A   1      44.566  35.410  26.479  1.00  0.00     0.022 A 
BRANCH  69  73
ATOM     73  S   UNL A   1      42.424  36.325  28.000  1.00  0.00     0.124 S 
ATOM     74  O   UNL A   1      42.935  37.026  29.173  1.00  0.00    -0.237 OA
ATOM     75  O   UNL A   1      42.330  37.109  26.772  1.00  0.00    -0.237 OA
ATOM     76  O   UNL A   1      41.304  35.422  28.254  1.00  0.00    -0.744 OA
ENDBRANCH  69  73
ENDBRANCH  52  66
BRANCH  53  77
ATOM     77  C   UNL A   1      37.386  31.919  30.959  1.00  0.00     0.023 A 
ATOM     78  C   UNL A   1      36.805  32.301  29.736  1.00  0.00     0.031 A 
ATOM     79  C   UNL A   1      36.539  31.902  32.090  1.00  0.00     0.131 A 
ATOM     80  C   UNL A   1      35.446  32.671  29.683  1.00  0.00     0.055 A 
ATOM     81  C   UNL A   1      35.203  32.297  32.038  1.00  0.00     0.041 A 
ATOM     82  F   UNL A   1      36.964  31.422  33.271  1.00  0.00    -0.206 F 
ATOM     83  C   UNL A   1      34.648  32.681  30.829  1.00  0.00     0.022 A 
BRANCH  80  84
ATOM     84  S   UNL A   1      34.650  33.005  28.083  1.00  0.00     0.124 S 
ATOM     85  O   UNL A   1      35.125  31.895  27.265  1.00  0.00    -0.237 OA
ATOM     86  O   UNL A   1      33.231  33.002  28.421  1.00  0.00    -0.237 OA
ATOM     87  O   UNL A   1      35.183  34.317  27.716  1.00  0.00    -0.744 OA
ENDBRANCH  80  84
ENDBRANCH  53  77
BRANCH  65  88
ATOM     88  C   UNL A   1      42.796  30.654  33.999  1.00  0.00     0.023 A 
ATOM     89  C   UNL A   1      42.738  29.246  33.921  1.00  0.00     0.031 A 
ATOM     90  C   UNL A   1      42.795  31.235  35.280  1.00  0.00     0.131 A 
ATOM     91  C   UNL A   1      42.659  28.475  35.094  1.00  0.00     0.055 A 
ATOM     92  C   UNL A   1      42.735  30.467  36.444  1.00  0.00     0.041 A 
ATOM     93  F   UNL A   1      42.885  32.568  35.425  1.00  0.00    -0.206 F 
ATOM     94  C   UNL A   1      42.657  29.081  36.354  1.00  0.00     0.022 A 
BRANCH  91  95
ATOM     95  S   UNL A   1      42.530  26.663  34.996  1.00  0.00     0.124 S 
ATOM     96  O   UNL A   1      41.102  26.406  35.129  1.00  0.00    -0.237 OA
ATOM     97  O   UNL A   1      43.110  26.381  33.685  1.00  0.00    -0.237 OA
ATOM     98  O   UNL A   1      43.339  26.208  36.128  1.00  0.00    -0.744 OA
ENDBRANCH  91  95
ENDBRANCH  65  88
ENDBRANCH  39  40
ENDBRANCH  31  34
ENDBRANCH  29  30
ENDBRANCH  28  29
ENDBRANCH   1  28
TORSDOF 18
ENDMDL
MODEL 2
REMARK VINA RESULT:     -12.0      2.978      9.165
REMARK SMILES Cc1n[nH]c(C)c1C(=O)N1CC(n2cc(C(=O)NCCCCCCNC(=O)c3ccc(-c4c5nc(c(-c6cc(S(=O)(=O)[O-])ccc6F)c6ccc([nH]6)c(-c6cc(S(=O)(=O)[O-])ccc6F)c6nc(c(-c7cc(S(=O)(=O)[O-])ccc7F)c7ccc4[nH]7)C=C6)C=C5)cc3)nn2)C1
REMARK SMILES IDX 22 1 21 2 20 3 19 4 18 5 16 6 17 7 15 9 13 10 14 11 92 12
REMARK SMILES IDX 91 13 12 14 8 15 9 16 10 17 11 18 93 19 7 20 1 21 2 22 3 23
REMARK SMILES IDX 4 24 5 25 6 27 23 28 24 29 25 30 26 31 27 33 28 34 29 35
REMARK SMILES IDX 90 36 30 37 89 38 31 39 32 40 33 41 83 42 34 43 88 44 82 45
REMARK SMILES IDX 84 46 35 47 87 48 81 49 80 50 36 52 68 53 48 54 67 55 49 56
REMARK SMILES IDX 52 57 66 58 85 59 50 60 51 61 65 63 86 64 53 65 37 66 38 67
REMARK SMILES IDX 46 68 39 69 45 70 47 71 44 72 40 73 41 74 42 75 43 76 69 77
REMARK SMILES IDX 70 78 78 79 71 80 77 81 79 82 76 83 72 84 73 85 74 86 75 87
REMARK SMILES IDX 54 88 55 89 63 90 56 91 62 92 64 93 61 94 57 95 58 96 59 97
REMARK SMILES IDX 60 98
REMARK H PARENT 18 8 4 26 25 32 84 51 52 62
REMARK Flexibility Score: inf
ROOT
ATOM      1  C   UNL A   1      32.766  29.162  26.155  1.00  0.00     0.002 C 
ENDROOT
BRANCH   1   2
ATOM      2  C   UNL A   1      32.820  29.485  24.655  1.00  0.00     0.002 C 
BRANCH   2   3
ATOM      3  C   UNL A   1      33.982  28.861  23.872  1.00  0.00     0.021 C 
BRANCH   3   4
ATOM      4  C   UNL A   1      33.572  27.729  22.934  1.00  0.00     0.116 C 
BRANCH   4   5
ATOM      5  N   UNL A   1      32.289  27.988  22.306  1.00  0.00    -0.351 N 
ATOM      6  C   UNL A   1      31.039  27.496  22.608  1.00  0.00     0.273 C 
ATOM      7  O   UNL A   1      30.065  28.046  22.099  1.00  0.00    -0.267 OA
ATOM      8  H   UNL A   1      32.317  28.614  21.546  1.00  0.00     0.163 HD
BRANCH   6   9
ATOM      9  C   UNL A   1      30.904  26.387  23.542  1.00  0.00     0.170 A 
ATOM     10  N   UNL A   1      31.054  24.533  24.657  1.00  0.00    -0.245 N 
ATOM     11  C   UNL A   1      31.431  25.110  23.477  1.00  0.00     0.145 A 
ATOM     12  N   UNL A   1      30.279  25.362  25.376  1.00  0.00    -0.066 NA
ATOM     13  N   UNL A   1      30.155  26.490  24.690  1.00  0.00    -0.125 NA
BRANCH  10  14
ATOM     14  C   UNL A   1      31.564  23.279  25.133  1.00  0.00     0.148 C 
ATOM     15  C   UNL A   1      34.229  21.797  26.440  1.00  0.00     0.257 C 
ATOM     16  O   UNL A   1      33.908  21.220  27.477  1.00  0.00    -0.269 OA
ATOM     17  N   UNL A   1      33.420  22.774  25.910  1.00  0.00    -0.334 N 
ATOM     18  C   UNL A   1      32.232  23.359  26.515  1.00  0.00     0.149 C 
ATOM     19  C   UNL A   1      32.972  23.009  24.552  1.00  0.00     0.149 C 
BRANCH  15  20
ATOM     20  C   UNL A   1      35.501  21.504  25.775  1.00  0.00     0.083 A 
ATOM     21  C   UNL A   1      36.669  23.843  26.059  1.00  0.00     0.069 C 
ATOM     22  C   UNL A   1      36.572  22.437  25.583  1.00  0.00     0.072 A 
ATOM     23  N   UNL A   1      37.575  21.918  24.864  1.00  0.00    -0.180 NA
ATOM     24  N   UNL A   1      37.157  20.685  24.575  1.00  0.00    -0.282 N 
ATOM     25  C   UNL A   1      35.927  20.374  25.085  1.00  0.00     0.045 A 
ATOM     26  H   UNL A   1      37.690  20.053  24.040  1.00  0.00     0.190 HD
ATOM     27  C   UNL A   1      35.323  19.056  24.782  1.00  0.00     0.067 C 
ENDBRANCH  15  20
ENDBRANCH  10  14
ENDBRANCH   6   9
ENDBRANCH   4   5
ENDBRANCH   3   4
ENDBRANCH   2   3
ENDBRANCH   1   2
BRANCH   1  28
ATOM     28  C   UNL A   1      32.797  30.362  27.112  1.00  0.00     0.021 C 
BRANCH  28  29
ATOM     29  C   UNL A   1      34.154  31.053  27.227  1.00  0.00     0.116 C 
BRANCH  29  30
ATOM     30  N   UNL A   1      34.202  31.977  28.351  1.00  0.00    -0.352 N 
ATOM     31  C   UNL A   1      35.088  32.007  29.405  1.00  0.00     0.251 C 
ATOM     32  H   UNL A   1      33.507  32.674  28.359  1.00  0.00     0.163 HD
ATOM     33  O   UNL A   1      34.807  32.643  30.417  1.00  0.00    -0.269 OA
BRANCH  31  34
ATOM     34  C   UNL A   1      36.348  31.240  29.327  1.00  0.00     0.039 A 
ATOM     35  C   UNL A   1      37.568  31.905  29.445  1.00  0.00     0.014 A 
ATOM     36  C   UNL A   1      36.320  29.858  29.149  1.00  0.00     0.014 A 
ATOM     37  C   UNL A   1      38.754  31.167  29.476  1.00  0.00     0.010 A 
ATOM     38  C   UNL A   1      37.496  29.120  29.246  1.00  0.00     0.010 A 
ATOM     39  C   UNL A   1      38.729  29.762  29.409  1.00  0.00    -0.014 A 
BRANCH  39  40
ATOM     40  C   UNL A   1      39.985  29.011  29.624  1.00  0.00     0.031 A 
ATOM     41  C   UNL A   1      40.391  28.723  31.037  1.00  0.00     0.074 A 
ATOM     42  C   UNL A   1      40.699  28.350  28.686  1.00  0.00     0.049 A 
ATOM     43  N   UNL A   1      41.512  29.005  31.619  1.00  0.00    -0.248 NA
ATOM     44  C   UNL A   1      39.437  28.016  31.903  1.00  0.00     0.031 C 
ATOM     45  C   UNL A   1      40.379  28.158  27.272  1.00  0.00     0.029 A 
ATOM     46  N   UNL A   1      41.824  27.580  28.856  1.00  0.00    -0.354 N 
ATOM     47  C   UNL A   1      41.496  28.360  32.854  1.00  0.00     0.074 A 
ATOM     48  C   UNL A   1      40.158  27.845  33.014  1.00  0.00     0.031 C 
ATOM     49  C   UNL A   1      41.120  27.141  26.785  1.00  0.00     0.029 A 
ATOM     50  C   UNL A   1      42.071  26.719  27.800  1.00  0.00     0.049 A 
ATOM     51  H   UNL A   1      42.399  27.635  29.654  1.00  0.00     0.167 HD
ATOM     52  C   UNL A   1      42.626  28.166  33.594  1.00  0.00     0.034 A 
ATOM     53  C   UNL A   1      42.963  25.701  27.743  1.00  0.00     0.034 A 
ATOM     54  C   UNL A   1      43.714  29.008  33.158  1.00  0.00     0.049 A 
ATOM     55  C   UNL A   1      44.043  25.968  28.717  1.00  0.00     0.074 A 
ATOM     56  C   UNL A   1      43.878  30.364  32.944  1.00  0.00     0.029 A 
ATOM     57  N   UNL A   1      44.833  28.427  32.610  1.00  0.00    -0.354 N 
ATOM     58  N   UNL A   1      44.905  26.938  28.600  1.00  0.00    -0.248 NA
ATOM     59  C   UNL A   1      44.017  25.319  30.019  1.00  0.00     0.031 C 
ATOM     60  C   UNL A   1      44.797  30.465  31.858  1.00  0.00     0.029 A 
ATOM     61  C   UNL A   1      45.140  29.164  31.493  1.00  0.00     0.049 A 
ATOM     62  H   UNL A   1      45.318  27.641  32.951  1.00  0.00     0.167 HD
ATOM     63  C   UNL A   1      45.223  27.293  29.897  1.00  0.00     0.074 A 
ATOM     64  C   UNL A   1      44.783  26.166  30.710  1.00  0.00     0.031 C 
ATOM     65  C   UNL A   1      45.526  28.584  30.223  1.00  0.00     0.034 A 
BRANCH  52  66
ATOM     66  C   UNL A   1      42.856  27.038  34.580  1.00  0.00     0.023 A 
ATOM     67  C   UNL A   1      43.627  25.934  34.156  1.00  0.00     0.031 A 
ATOM     68  C   UNL A   1      42.146  26.861  35.786  1.00  0.00     0.131 A 
ATOM     69  C   UNL A   1      43.614  24.719  34.865  1.00  0.00     0.055 A 
ATOM     70  C   UNL A   1      42.204  25.679  36.535  1.00  0.00     0.041 A 
ATOM     71  F   UNL A   1      41.290  27.781  36.249  1.00  0.00    -0.206 F 
ATOM     72  C   UNL A   1      42.919  24.589  36.064  1.00  0.00     0.022 A 
BRANCH  69  73
ATOM     73  S   UNL A   1      44.343  23.253  34.082  1.00  0.00     0.124 S 
ATOM     74  O   UNL A   1      44.255  22.268  35.155  1.00  0.00    -0.237 OA
ATOM     75  O   UNL A   1      43.452  23.048  32.944  1.00  0.00    -0.237 OA
ATOM     76  O   UNL A   1      45.697  23.687  33.745  1.00  0.00    -0.744 OA
ENDBRANCH  69  73
ENDBRANCH  52  66
BRANCH  53  77
ATOM     77  C   UNL A   1      42.871  24.458  26.942  1.00  0.00     0.023 A 
ATOM     78  C   UNL A   1      43.766  24.178  25.893  1.00  0.00     0.031 A 
ATOM     79  C   UNL A   1      42.004  23.413  27.336  1.00  0.00     0.131 A 
ATOM     80  C   UNL A   1      43.753  22.914  25.269  1.00  0.00     0.055 A 
ATOM     81  C   UNL A   1      41.974  22.175  26.696  1.00  0.00     0.041 A 
ATOM     82  F   UNL A   1      41.210  23.536  28.414  1.00  0.00    -0.206 F 
ATOM     83  C   UNL A   1      42.854  21.918  25.658  1.00  0.00     0.022 A 
BRANCH  80  84
ATOM     84  S   UNL A   1      45.014  22.492  24.029  1.00  0.00     0.124 S 
ATOM     85  O   UNL A   1      44.203  22.210  22.850  1.00  0.00    -0.237 OA
ATOM     86  O   UNL A   1      45.834  23.698  23.980  1.00  0.00    -0.237 OA
ATOM     87  O   UNL A   1      45.679  21.329  24.616  1.00  0.00    -0.744 OA
ENDBRANCH  80  84
ENDBRANCH  53  77
BRANCH  65  88
ATOM     88  C   UNL A   1      45.952  29.541  29.130  1.00  0.00     0.023 A 
ATOM     89  C   UNL A   1      45.058  30.301  28.347  1.00  0.00     0.031 A 
ATOM     90  C   UNL A   1      47.329  29.773  28.957  1.00  0.00     0.131 A 
ATOM     91  C   UNL A   1      45.550  31.235  27.418  1.00  0.00     0.055 A 
ATOM     92  C   UNL A   1      47.814  30.713  28.048  1.00  0.00     0.041 A 
ATOM     93  F   UNL A   1      48.232  29.108  29.697  1.00  0.00    -0.206 F 
ATOM     94  C   UNL A   1      46.925  31.442  27.266  1.00  0.00     0.022 A 
BRANCH  91  95
ATOM     95  S   UNL A   1      44.402  32.180  26.369  1.00  0.00     0.124 S 
ATOM     96  O   UNL A   1      43.927  33.245  27.243  1.00  0.00    -0.237 OA
ATOM     97  O   UNL A   1      45.263  32.596  25.265  1.00  0.00    -0.237 OA
ATOM     98  O   UNL A   1      43.387  31.189  26.008  1.00  0.00    -0.744 OA
ENDBRANCH  91  95
ENDBRANCH  65  88
ENDBRANCH  39  40
ENDBRANCH  31  34
ENDBRANCH  29  30
ENDBRANCH  28  29
ENDBRANCH   1  28
TORSDOF 18
ENDMDL
MODEL 3
REMARK VINA RESULT:     -12.0      4.950     10.843
REMARK SMILES Cc1n[nH]c(C)c1C(=O)N1CC(n2cc(C(=O)NCCCCCCNC(=O)c3ccc(-c4c5nc(c(-c6cc(S(=O)(=O)[O-])ccc6F)c6ccc([nH]6)c(-c6cc(S(=O)(=O)[O-])ccc6F)c6nc(c(-c7cc(S(=O)(=O)[O-])ccc7F)c7ccc4[nH]7)C=C6)C=C5)cc3)nn2)C1
REMARK SMILES IDX 22 1 21 2 20 3 19 4 18 5 16 6 17 7 15 9 13 10 14 11 92 12
REMARK SMILES IDX 91 13 12 14 8 15 9 16 10 17 11 18 93 19 7 20 1 21 2 22 3 23
REMARK SMILES IDX 4 24 5 25 6 27 23 28 24 29 25 30 26 31 27 33 28 34 29 35
REMARK SMILES IDX 90 36 30 37 89 38 31 39 32 40 33 41 83 42 34 43 88 44 82 45
REMARK SMILES IDX 84 46 35 47 87 48 81 49 80 50 36 52 68 53 48 54 67 55 49 56
REMARK SMILES IDX 52 57 66 58 85 59 50 60 51 61 65 63 86 64 53 65 37 66 38 67
REMARK SMILES IDX 46 68 39 69 45 70 47 71 44 72 40 73 41 74 42 75 43 76 69 77
REMARK SMILES IDX 70 78 78 79 71 80 77 81 79 82 76 83 72 84 73 85 74 86 75 87
REMARK SMILES IDX 54 88 55 89 63 90 56 91 62 92 64 93 61 94 57 95 58 96 59 97
REMARK SMILES IDX 60 98
REMARK H PARENT 18 8 4 26 25 32 84 51 52 62
REMARK Flexibility Score: inf
ROOT
ATOM      1  C   UNL A   1      36.661  33.835  29.927  1.00  0.00     0.002 C 
ENDROOT
BRANCH   1   2
ATOM      2  C   UNL A   1      37.890  33.594  29.038  1.00  0.00     0.002 C 
BRANCH   2   3
ATOM      3  C   UNL A   1      39.220  33.378  29.771  1.00  0.00     0.021 C 
BRANCH   3   4
ATOM      4  C   UNL A   1      39.194  32.258  30.807  1.00  0.00     0.116 C 
BRANCH   4   5
ATOM      5  N   UNL A   1      40.185  32.465  31.848  1.00  0.00    -0.351 N 
ATOM      6  C   UNL A   1      40.026  32.597  33.209  1.00  0.00     0.273 C 
ATOM      7  O   UNL A   1      41.027  32.516  33.917  1.00  0.00    -0.267 OA
ATOM      8  H   UNL A   1      41.116  32.519  31.531  1.00  0.00     0.163 HD
BRANCH   6   9
ATOM      9  C   UNL A   1      38.693  32.780  33.768  1.00  0.00     0.170 A 
ATOM     10  N   UNL A   1      36.700  33.444  34.306  1.00  0.00    -0.245 N 
ATOM     11  C   UNL A   1      37.832  33.857  33.664  1.00  0.00     0.145 A 
ATOM     12  N   UNL A   1      36.866  32.223  34.844  1.00  0.00    -0.066 NA
ATOM     13  N   UNL A   1      38.093  31.819  34.547  1.00  0.00    -0.125 NA
BRANCH  10  14
ATOM     14  C   UNL A   1      35.451  34.148  34.259  1.00  0.00     0.148 C 
ATOM     15  C   UNL A   1      33.041  35.189  32.230  1.00  0.00     0.257 C 
ATOM     16  O   UNL A   1      31.956  34.789  32.647  1.00  0.00    -0.269 OA
ATOM     17  N   UNL A   1      34.209  34.606  32.662  1.00  0.00    -0.334 N 
ATOM     18  C   UNL A   1      34.346  33.413  33.485  1.00  0.00     0.149 C 
ATOM     19  C   UNL A   1      35.456  35.188  33.114  1.00  0.00     0.149 C 
BRANCH  15  20
ATOM     20  C   UNL A   1      33.119  36.253  31.227  1.00  0.00     0.083 A 
ATOM     21  C   UNL A   1      32.709  34.818  29.063  1.00  0.00     0.069 C 
ATOM     22  C   UNL A   1      33.001  36.070  29.810  1.00  0.00     0.072 A 
ATOM     23  N   UNL A   1      33.203  37.206  29.132  1.00  0.00    -0.180 NA
ATOM     24  N   UNL A   1      33.471  38.103  30.082  1.00  0.00    -0.282 N 
ATOM     25  C   UNL A   1      33.440  37.602  31.354  1.00  0.00     0.045 A 
ATOM     26  H   UNL A   1      33.672  39.046  29.883  1.00  0.00     0.190 HD
ATOM     27  C   UNL A   1      33.781  38.482  32.495  1.00  0.00     0.067 C 
ENDBRANCH  15  20
ENDBRANCH  10  14
ENDBRANCH   6   9
ENDBRANCH   4   5
ENDBRANCH   3   4
ENDBRANCH   2   3
ENDBRANCH   1   2
BRANCH   1  28
ATOM     28  C   UNL A   1      35.437  32.952  29.652  1.00  0.00     0.021 C 
BRANCH  28  29
ATOM     29  C   UNL A   1      35.088  32.785  28.174  1.00  0.00     0.116 C 
BRANCH  29  30
ATOM     30  N   UNL A   1      34.328  31.569  27.927  1.00  0.00    -0.352 N 
ATOM     31  C   UNL A   1      34.788  30.278  27.789  1.00  0.00     0.251 C 
ATOM     32  H   UNL A   1      33.354  31.684  27.846  1.00  0.00     0.163 HD
ATOM     33  O   UNL A   1      34.065  29.427  27.279  1.00  0.00    -0.269 OA
BRANCH  31  34
ATOM     34  C   UNL A   1      36.161  29.939  28.215  1.00  0.00     0.039 A 
ATOM     35  C   UNL A   1      36.385  29.485  29.515  1.00  0.00     0.014 A 
ATOM     36  C   UNL A   1      37.224  30.059  27.323  1.00  0.00     0.014 A 
ATOM     37  C   UNL A   1      37.666  29.065  29.885  1.00  0.00     0.010 A 
ATOM     38  C   UNL A   1      38.483  29.580  27.673  1.00  0.00     0.010 A 
ATOM     39  C   UNL A   1      38.723  29.077  28.957  1.00  0.00    -0.014 A 
BRANCH  39  40
ATOM     40  C   UNL A   1      40.014  28.462  29.333  1.00  0.00     0.031 A 
ATOM     41  C   UNL A   1      40.352  28.386  30.791  1.00  0.00     0.074 A 
ATOM     42  C   UNL A   1      40.830  27.746  28.528  1.00  0.00     0.049 A 
ATOM     43  N   UNL A   1      41.410  28.828  31.389  1.00  0.00    -0.248 NA
ATOM     44  C   UNL A   1      39.398  27.721  31.690  1.00  0.00     0.031 C 
ATOM     45  C   UNL A   1      40.614  27.353  27.136  1.00  0.00     0.029 A 
ATOM     46  N   UNL A   1      41.995  27.096  28.856  1.00  0.00    -0.354 N 
ATOM     47  C   UNL A   1      41.365  28.344  32.695  1.00  0.00     0.074 A 
ATOM     48  C   UNL A   1      40.060  27.749  32.850  1.00  0.00     0.031 C 
ATOM     49  C   UNL A   1      41.455  26.345  26.825  1.00  0.00     0.029 A 
ATOM     50  C   UNL A   1      42.369  26.131  27.935  1.00  0.00     0.049 A 
ATOM     51  H   UNL A   1      42.514  27.295  29.668  1.00  0.00     0.167 HD
ATOM     52  C   UNL A   1      42.458  28.334  33.512  1.00  0.00     0.034 A 
ATOM     53  C   UNL A   1      43.334  25.187  28.057  1.00  0.00     0.034 A 
ATOM     54  C   UNL A   1      43.507  29.199  33.028  1.00  0.00     0.049 A 
ATOM     55  C   UNL A   1      44.329  25.660  29.044  1.00  0.00     0.074 A 
ATOM     56  C   UNL A   1      43.586  30.526  32.648  1.00  0.00     0.029 A 
ATOM     57  N   UNL A   1      44.697  28.644  32.620  1.00  0.00    -0.354 N 
ATOM     58  N   UNL A   1      45.125  26.673  28.847  1.00  0.00    -0.248 NA
ATOM     59  C   UNL A   1      44.269  25.180  30.416  1.00  0.00     0.031 C 
ATOM     60  C   UNL A   1      44.561  30.561  31.608  1.00  0.00     0.029 A 
ATOM     61  C   UNL A   1      45.019  29.256  31.434  1.00  0.00     0.049 A 
ATOM     62  H   UNL A   1      45.215  27.947  33.085  1.00  0.00     0.167 HD
ATOM     63  C   UNL A   1      45.335  27.212  30.102  1.00  0.00     0.074 A 
ATOM     64  C   UNL A   1      44.928  26.164  31.030  1.00  0.00     0.031 C 
ATOM     65  C   UNL A   1      45.523  28.554  30.272  1.00  0.00     0.034 A 
BRANCH  52  66
ATOM     66  C   UNL A   1      42.706  27.361  34.647  1.00  0.00     0.023 A 
ATOM     67  C   UNL A   1      43.453  26.196  34.370  1.00  0.00     0.031 A 
ATOM     68  C   UNL A   1      42.031  27.375  35.886  1.00  0.00     0.131 A 
ATOM     69  C   UNL A   1      43.451  25.100  35.251  1.00  0.00     0.055 A 
ATOM     70  C   UNL A   1      42.100  26.315  36.800  1.00  0.00     0.041 A 
ATOM     71  F   UNL A   1      41.198  28.365  36.232  1.00  0.00    -0.206 F 
ATOM     72  C   UNL A   1      42.791  25.158  36.475  1.00  0.00     0.022 A 
BRANCH  69  73
ATOM     73  S   UNL A   1      44.141  23.524  34.673  1.00  0.00     0.124 S 
ATOM     74  O   UNL A   1      44.539  22.896  35.928  1.00  0.00    -0.237 OA
ATOM     75  O   UNL A   1      42.997  22.929  33.989  1.00  0.00    -0.237 OA
ATOM     76  O   UNL A   1      45.243  23.935  33.806  1.00  0.00    -0.744 OA
ENDBRANCH  69  73
ENDBRANCH  52  66
BRANCH  53  77
ATOM     77  C   UNL A   1      43.382  23.850  27.421  1.00  0.00     0.023 A 
ATOM     78  C   UNL A   1      42.313  22.940  27.516  1.00  0.00     0.031 A 
ATOM     79  C   UNL A   1      44.424  23.520  26.525  1.00  0.00     0.131 A 
ATOM     80  C   UNL A   1      42.327  21.751  26.759  1.00  0.00     0.055 A 
ATOM     81  C   UNL A   1      44.447  22.328  25.801  1.00  0.00     0.041 A 
ATOM     82  F   UNL A   1      45.417  24.386  26.262  1.00  0.00    -0.206 F 
ATOM     83  C   UNL A   1      43.393  21.437  25.913  1.00  0.00     0.022 A 
BRANCH  80  84
ATOM     84  S   UNL A   1      40.876  20.654  26.752  1.00  0.00     0.124 S 
ATOM     85  O   UNL A   1      41.286  19.609  25.821  1.00  0.00    -0.237 OA
ATOM     86  O   UNL A   1      40.759  20.265  28.153  1.00  0.00    -0.237 OA
ATOM     87  O   UNL A   1      39.804  21.526  26.272  1.00  0.00    -0.744 OA
ENDBRANCH  80  84
ENDBRANCH  53  77
BRANCH  65  88
ATOM     88  C   UNL A   1      45.947  29.396  29.088  1.00  0.00     0.023 A 
ATOM     89  C   UNL A   1      47.289  29.651  28.735  1.00  0.00     0.031 A 
ATOM     90  C   UNL A   1      44.945  29.862  28.218  1.00  0.00     0.131 A 
ATOM     91  C   UNL A   1      47.588  30.367  27.562  1.00  0.00     0.055 A 
ATOM     92  C   UNL A   1      45.245  30.557  27.045  1.00  0.00     0.041 A 
ATOM     93  F   UNL A   1      43.649  29.622  28.477  1.00  0.00    -0.206 F 
ATOM     94  C   UNL A   1      46.570  30.820  26.717  1.00  0.00     0.022 A 
BRANCH  91  95
ATOM     95  S   UNL A   1      49.315  30.743  27.130  1.00  0.00     0.124 S 
ATOM     96  O   UNL A   1      49.997  30.780  28.418  1.00  0.00    -0.237 OA
ATOM     97  O   UNL A   1      49.666  29.628  26.254  1.00  0.00    -0.237 OA
ATOM     98  O   UNL A   1      49.217  32.038  26.455  1.00  0.00    -0.744 OA
ENDBRANCH  91  95
ENDBRANCH  65  88
ENDBRANCH  39  40
ENDBRANCH  31  34
ENDBRANCH  29  30
ENDBRANCH  28  29
ENDBRANCH   1  28
TORSDOF 18
ENDMDL
