MODEL 1
REMARK VINA RESULT:     -11.3      0.000      0.000
REMARK SMILES CC(C)(C)OC(=O)N1CCC[C@](Cc2ccccc2)(C(=O)NCCCCCCNC(=O)c2ccc(-c3c4nc(c(-c5cc(S(=O)(=O)[O-])ccc5F)c5ccc([nH]5)c(-c5cc(S(=O)(=O)[O-])ccc5F)c5nc(c(-c6cc(S(=O)(=O)[O-])ccc6F)c6ccc3[nH]6)C=C5)C=C4)cc2)C1
REMARK SMILES IDX 25 1 24 2 23 3 22 4 20 5 21 6 12 8 8 9 9 10 95 11 10 12
REMARK SMILES IDX 11 13 6 14 7 15 5 16 2 17 1 18 3 19 4 20 13 21 14 22 15 23
REMARK SMILES IDX 19 24 16 25 18 26 17 27 26 28 27 29 28 30 29 31 30 32 31 34
REMARK SMILES IDX 32 35 33 36 94 37 34 38 93 39 35 40 36 41 37 42 87 43 38 44
REMARK SMILES IDX 92 45 86 46 88 47 39 48 91 49 85 50 84 51 40 53 72 54 52 55
REMARK SMILES IDX 71 56 53 57 56 58 70 59 89 60 54 61 55 62 69 64 90 65 57 66
REMARK SMILES IDX 41 67 42 68 50 69 43 70 49 71 51 72 48 73 44 74 45 75 46 76
REMARK SMILES IDX 47 77 73 78 74 79 82 80 75 81 81 82 83 83 80 84 76 85 77 86
REMARK SMILES IDX 78 87 79 88 58 89 59 90 67 91 60 92 66 93 68 94 65 95 61 96
REMARK SMILES IDX 62 97 63 98 64 99
REMARK H PARENT 22 7 29 33 88 52 56 63
REMARK Flexibility Score: inf
ROOT
ATOM      1  C   UNL A   1      37.557  21.929  24.910  1.00  0.00     0.002 C 
ENDROOT
BRANCH   1   2
ATOM      2  C   UNL A   1      36.629  22.840  24.110  1.00  0.00     0.021 C 
BRANCH   2   3
ATOM      3  C   UNL A   1      35.860  23.834  24.972  1.00  0.00     0.116 C 
BRANCH   3   4
ATOM      4  N   UNL A   1      35.218  23.247  26.120  1.00  0.00    -0.356 N 
ATOM      5  C   UNL A   1      34.009  22.646  26.260  1.00  0.00     0.228 C 
ATOM      6  O   UNL A   1      33.931  21.914  27.256  1.00  0.00    -0.274 OA
ATOM      7  H   UNL A   1      35.748  23.291  26.949  1.00  0.00     0.163 HD
BRANCH   5   8
ATOM      8  C   UNL A   1      32.781  22.850  25.306  1.00  0.00     0.071 C 
ATOM      9  N   UNL A   1      31.643  25.073  25.815  1.00  0.00    -0.307 N 
ATOM     10  C   UNL A   1      30.365  24.423  26.082  1.00  0.00     0.123 C 
ATOM     11  C   UNL A   1      32.585  24.352  24.965  1.00  0.00     0.140 C 
ATOM     12  C   UNL A   1      30.529  23.025  26.661  1.00  0.00     0.023 C 
ATOM     13  C   UNL A   1      31.515  22.157  25.885  1.00  0.00     0.021 C 
BRANCH   9  14
ATOM     14  C   UNL A   1      31.877  26.352  26.318  1.00  0.00     0.410 C 
ATOM     15  O   UNL A   1      31.324  26.769  27.323  1.00  0.00    -0.224 OA
BRANCH  14  16
ATOM     16  O   UNL A   1      32.800  27.042  25.598  1.00  0.00    -0.444 OA
BRANCH  16  17
ATOM     17  C   UNL A   1      32.469  28.039  24.584  1.00  0.00     0.106 C 
ATOM     18  C   UNL A   1      30.946  27.964  24.399  1.00  0.00     0.056 C 
ATOM     19  C   UNL A   1      33.154  27.593  23.287  1.00  0.00     0.056 C 
ATOM     20  C   UNL A   1      32.841  29.495  24.892  1.00  0.00     0.056 C 
ENDBRANCH  16  17
ENDBRANCH  14  16
ENDBRANCH   9  14
BRANCH   8  21
ATOM     21  C   UNL A   1      33.219  22.084  23.976  1.00  0.00     0.054 C 
BRANCH  21  22
ATOM     22  C   UNL A   1      33.147  20.568  23.955  1.00  0.00    -0.047 A 
ATOM     23  C   UNL A   1      32.247  19.925  23.089  1.00  0.00     0.004 A 
ATOM     24  C   UNL A   1      33.975  19.780  24.761  1.00  0.00     0.004 A 
ATOM     25  C   UNL A   1      32.239  18.534  22.972  1.00  0.00     0.000 A 
ATOM     26  C   UNL A   1      33.982  18.391  24.629  1.00  0.00     0.000 A 
ATOM     27  C   UNL A   1      33.124  17.769  23.725  1.00  0.00     0.000 A 
ENDBRANCH  21  22
ENDBRANCH   8  21
ENDBRANCH   5   8
ENDBRANCH   3   4
ENDBRANCH   2   3
ENDBRANCH   1   2
BRANCH   1  28
ATOM     28  C   UNL A   1      37.305  20.424  24.742  1.00  0.00     0.002 C 
BRANCH  28  29
ATOM     29  C   UNL A   1      38.454  19.506  25.167  1.00  0.00     0.021 C 
BRANCH  29  30
ATOM     30  C   UNL A   1      39.498  20.168  26.061  1.00  0.00     0.116 C 
BRANCH  30  31
ATOM     31  N   UNL A   1      40.658  19.311  26.262  1.00  0.00    -0.352 N 
ATOM     32  C   UNL A   1      41.979  19.651  26.396  1.00  0.00     0.251 C 
ATOM     33  H   UNL A   1      40.465  18.347  26.310  1.00  0.00     0.163 HD
ATOM     34  O   UNL A   1      42.847  18.787  26.306  1.00  0.00    -0.269 OA
BRANCH  32  35
ATOM     35  C   UNL A   1      42.344  21.060  26.640  1.00  0.00     0.039 A 
ATOM     36  C   UNL A   1      42.442  21.939  25.560  1.00  0.00     0.014 A 
ATOM     37  C   UNL A   1      42.586  21.508  27.942  1.00  0.00     0.014 A 
ATOM     38  C   UNL A   1      42.720  23.287  25.794  1.00  0.00     0.010 A 
ATOM     39  C   UNL A   1      42.783  22.862  28.178  1.00  0.00     0.010 A 
ATOM     40  C   UNL A   1      42.858  23.767  27.107  1.00  0.00    -0.014 A 
BRANCH  40  41
ATOM     41  C   UNL A   1      43.105  25.202  27.395  1.00  0.00     0.031 A 
ATOM     42  C   UNL A   1      44.494  25.759  27.236  1.00  0.00     0.074 A 
ATOM     43  C   UNL A   1      42.108  25.978  27.863  1.00  0.00     0.049 A 
ATOM     44  N   UNL A   1      44.959  26.935  27.571  1.00  0.00    -0.248 NA
ATOM     45  C   UNL A   1      45.500  24.858  26.650  1.00  0.00     0.031 C 
ATOM     46  C   UNL A   1      40.726  25.544  28.073  1.00  0.00     0.029 A 
ATOM     47  N   UNL A   1      42.108  27.291  28.264  1.00  0.00    -0.354 N 
ATOM     48  C   UNL A   1      46.309  26.914  27.241  1.00  0.00     0.074 A 
ATOM     49  C   UNL A   1      46.602  25.584  26.750  1.00  0.00     0.031 C 
ATOM     50  C   UNL A   1      40.008  26.576  28.545  1.00  0.00     0.029 A 
ATOM     51  C   UNL A   1      40.888  27.727  28.733  1.00  0.00     0.049 A 
ATOM     52  H   UNL A   1      42.904  27.867  28.222  1.00  0.00     0.167 HD
ATOM     53  C   UNL A   1      47.215  27.920  27.312  1.00  0.00     0.034 A 
ATOM     54  C   UNL A   1      40.529  28.907  29.276  1.00  0.00     0.034 A 
ATOM     55  C   UNL A   1      46.905  29.240  27.803  1.00  0.00     0.049 A 
ATOM     56  C   UNL A   1      41.575  29.989  29.419  1.00  0.00     0.074 A 
ATOM     57  C   UNL A   1      47.739  30.339  27.908  1.00  0.00     0.029 A 
ATOM     58  N   UNL A   1      45.661  29.639  28.277  1.00  0.00    -0.354 N 
ATOM     59  N   UNL A   1      42.845  29.960  29.082  1.00  0.00    -0.248 NA
ATOM     60  C   UNL A   1      41.140  31.262  30.006  1.00  0.00     0.031 C 
ATOM     61  C   UNL A   1      47.022  31.378  28.507  1.00  0.00     0.029 A 
ATOM     62  C   UNL A   1      45.715  30.959  28.695  1.00  0.00     0.049 A 
ATOM     63  H   UNL A   1      44.860  29.070  28.309  1.00  0.00     0.167 HD
ATOM     64  C   UNL A   1      43.343  31.227  29.375  1.00  0.00     0.074 A 
ATOM     65  C   UNL A   1      42.239  31.996  29.908  1.00  0.00     0.031 C 
ATOM     66  C   UNL A   1      44.599  31.715  29.212  1.00  0.00     0.034 A 
BRANCH  53  67
ATOM     67  C   UNL A   1      48.624  27.621  26.861  1.00  0.00     0.023 A 
ATOM     68  C   UNL A   1      49.029  27.832  25.531  1.00  0.00     0.031 A 
ATOM     69  C   UNL A   1      49.570  27.101  27.761  1.00  0.00     0.131 A 
ATOM     70  C   UNL A   1      50.315  27.456  25.121  1.00  0.00     0.055 A 
ATOM     71  C   UNL A   1      50.878  26.811  27.367  1.00  0.00     0.041 A 
ATOM     72  F   UNL A   1      49.239  26.855  29.039  1.00  0.00    -0.206 F 
ATOM     73  C   UNL A   1      51.254  26.974  26.036  1.00  0.00     0.022 A 
BRANCH  70  74
ATOM     74  S   UNL A   1      50.694  27.469  23.349  1.00  0.00     0.124 S 
ATOM     75  O   UNL A   1      49.526  26.788  22.793  1.00  0.00    -0.237 OA
ATOM     76  O   UNL A   1      50.802  28.893  23.058  1.00  0.00    -0.237 OA
ATOM     77  O   UNL A   1      51.944  26.716  23.260  1.00  0.00    -0.744 OA
ENDBRANCH  70  74
ENDBRANCH  53  67
BRANCH  54  78
ATOM     78  C   UNL A   1      39.133  29.138  29.752  1.00  0.00     0.023 A 
ATOM     79  C   UNL A   1      38.237  29.918  29.005  1.00  0.00     0.031 A 
ATOM     80  C   UNL A   1      38.697  28.653  30.999  1.00  0.00     0.131 A 
ATOM     81  C   UNL A   1      36.982  30.251  29.539  1.00  0.00     0.055 A 
ATOM     82  C   UNL A   1      37.421  28.926  31.494  1.00  0.00     0.041 A 
ATOM     83  F   UNL A   1      39.511  27.903  31.759  1.00  0.00    -0.206 F 
ATOM     84  C   UNL A   1      36.562  29.747  30.770  1.00  0.00     0.022 A 
BRANCH  81  85
ATOM     85  S   UNL A   1      35.965  31.469  28.660  1.00  0.00     0.124 S 
ATOM     86  O   UNL A   1      34.987  31.828  29.681  1.00  0.00    -0.237 OA
ATOM     87  O   UNL A   1      36.944  32.494  28.320  1.00  0.00    -0.237 OA
ATOM     88  O   UNL A   1      35.435  30.714  27.527  1.00  0.00    -0.744 OA
ENDBRANCH  81  85
ENDBRANCH  54  78
BRANCH  66  89
ATOM     89  C   UNL A   1      44.827  33.171  29.543  1.00  0.00     0.023 A 
ATOM     90  C   UNL A   1      44.636  34.192  28.597  1.00  0.00     0.031 A 
ATOM     91  C   UNL A   1      45.226  33.537  30.842  1.00  0.00     0.131 A 
ATOM     92  C   UNL A   1      44.887  35.526  28.951  1.00  0.00     0.055 A 
ATOM     93  C   UNL A   1      45.413  34.871  31.205  1.00  0.00     0.041 A 
ATOM     94  F   UNL A   1      45.426  32.603  31.785  1.00  0.00    -0.206 F 
ATOM     95  C   UNL A   1      45.253  35.873  30.254  1.00  0.00     0.022 A 
BRANCH  92  96
ATOM     96  S   UNL A   1      44.804  36.801  27.664  1.00  0.00     0.124 S 
ATOM     97  O   UNL A   1      45.951  36.466  26.828  1.00  0.00    -0.237 OA
ATOM     98  O   UNL A   1      43.491  36.561  27.070  1.00  0.00    -0.237 OA
ATOM     99  O   UNL A   1      44.924  38.052  28.411  1.00  0.00    -0.744 OA
ENDBRANCH  92  96
ENDBRANCH  66  89
ENDBRANCH  40  41
ENDBRANCH  32  35
ENDBRANCH  30  31
ENDBRANCH  29  30
ENDBRANCH  28  29
ENDBRANCH   1  28
TORSDOF 21
ENDMDL
MODEL 2
REMARK VINA RESULT:     -11.3      1.968      7.579
REMARK SMILES CC(C)(C)OC(=O)N1CCC[C@](Cc2ccccc2)(C(=O)NCCCCCCNC(=O)c2ccc(-c3c4nc(c(-c5cc(S(=O)(=O)[O-])ccc5F)c5ccc([nH]5)c(-c5cc(S(=O)(=O)[O-])ccc5F)c5nc(c(-c6cc(S(=O)(=O)[O-])ccc6F)c6ccc3[nH]6)C=C5)C=C4)cc2)C1
REMARK SMILES IDX 25 1 24 2 23 3 22 4 20 5 21 6 12 8 8 9 9 10 95 11 10 12
REMARK SMILES IDX 11 13 6 14 7 15 5 16 2 17 1 18 3 19 4 20 13 21 14 22 15 23
REMARK SMILES IDX 19 24 16 25 18 26 17 27 26 28 27 29 28 30 29 31 30 32 31 34
REMARK SMILES IDX 32 35 33 36 94 37 34 38 93 39 35 40 36 41 37 42 87 43 38 44
REMARK SMILES IDX 92 45 86 46 88 47 39 48 91 49 85 50 84 51 40 53 72 54 52 55
REMARK SMILES IDX 71 56 53 57 56 58 70 59 89 60 54 61 55 62 69 64 90 65 57 66
REMARK SMILES IDX 41 67 42 68 50 69 43 70 49 71 51 72 48 73 44 74 45 75 46 76
REMARK SMILES IDX 47 77 73 78 74 79 82 80 75 81 81 82 83 83 80 84 76 85 77 86
REMARK SMILES IDX 78 87 79 88 58 89 59 90 67 91 60 92 66 93 68 94 65 95 61 96
REMARK SMILES IDX 62 97 63 98 64 99
REMARK H PARENT 22 7 29 33 88 52 56 63
REMARK Flexibility Score: inf
ROOT
ATOM      1  C   UNL A   1      37.530  22.128  25.145  1.00  0.00     0.002 C 
ENDROOT
BRANCH   1   2
ATOM      2  C   UNL A   1      36.801  23.255  24.417  1.00  0.00     0.021 C 
BRANCH   2   3
ATOM      3  C   UNL A   1      35.930  24.107  25.331  1.00  0.00     0.116 C 
BRANCH   3   4
ATOM      4  N   UNL A   1      35.260  23.365  26.368  1.00  0.00    -0.356 N 
ATOM      5  C   UNL A   1      34.152  22.581  26.335  1.00  0.00     0.228 C 
ATOM      6  O   UNL A   1      34.076  21.790  27.286  1.00  0.00    -0.274 OA
ATOM      7  H   UNL A   1      35.678  23.441  27.257  1.00  0.00     0.163 HD
BRANCH   5   8
ATOM      8  C   UNL A   1      33.025  22.651  25.247  1.00  0.00     0.071 C 
ATOM      9  N   UNL A   1      31.738  24.840  25.466  1.00  0.00    -0.307 N 
ATOM     10  C   UNL A   1      30.470  24.143  25.648  1.00  0.00     0.123 C 
ATOM     11  C   UNL A   1      32.798  24.113  24.775  1.00  0.00     0.140 C 
ATOM     12  C   UNL A   1      30.636  22.799  26.345  1.00  0.00     0.023 C 
ATOM     13  C   UNL A   1      31.738  21.934  25.742  1.00  0.00     0.021 C 
BRANCH   9  14
ATOM     14  C   UNL A   1      31.857  26.162  25.893  1.00  0.00     0.410 C 
ATOM     15  O   UNL A   1      31.715  26.486  27.061  1.00  0.00    -0.224 OA
BRANCH  14  16
ATOM     16  O   UNL A   1      32.184  27.014  24.886  1.00  0.00    -0.444 OA
BRANCH  16  17
ATOM     17  C   UNL A   1      32.963  28.236  25.069  1.00  0.00     0.106 C 
ATOM     18  C   UNL A   1      31.938  29.362  25.271  1.00  0.00     0.056 C 
ATOM     19  C   UNL A   1      33.720  28.477  23.759  1.00  0.00     0.056 C 
ATOM     20  C   UNL A   1      33.944  28.266  26.248  1.00  0.00     0.056 C 
ENDBRANCH  16  17
ENDBRANCH  14  16
ENDBRANCH   9  14
BRANCH   8  21
ATOM     21  C   UNL A   1      33.639  21.818  24.031  1.00  0.00     0.054 C 
BRANCH  21  22
ATOM     22  C   UNL A   1      33.367  20.326  23.964  1.00  0.00    -0.047 A 
ATOM     23  C   UNL A   1      32.349  19.840  23.126  1.00  0.00     0.004 A 
ATOM     24  C   UNL A   1      34.122  19.406  24.699  1.00  0.00     0.004 A 
ATOM     25  C   UNL A   1      32.154  18.468  22.964  1.00  0.00     0.000 A 
ATOM     26  C   UNL A   1      33.940  18.035  24.520  1.00  0.00     0.000 A 
ATOM     27  C   UNL A   1      32.966  17.565  23.643  1.00  0.00     0.000 A 
ENDBRANCH  21  22
ENDBRANCH   8  21
ENDBRANCH   5   8
ENDBRANCH   3   4
ENDBRANCH   2   3
ENDBRANCH   1   2
BRANCH   1  28
ATOM     28  C   UNL A   1      37.221  20.712  24.639  1.00  0.00     0.002 C 
BRANCH  28  29
ATOM     29  C   UNL A   1      38.238  19.633  25.022  1.00  0.00     0.021 C 
BRANCH  29  30
ATOM     30  C   UNL A   1      39.289  20.081  26.031  1.00  0.00     0.116 C 
BRANCH  30  31
ATOM     31  N   UNL A   1      40.450  19.202  26.028  1.00  0.00    -0.352 N 
ATOM     32  C   UNL A   1      41.783  19.518  26.074  1.00  0.00     0.251 C 
ATOM     33  H   UNL A   1      40.248  18.239  25.989  1.00  0.00     0.163 HD
ATOM     34  O   UNL A   1      42.625  18.665  25.809  1.00  0.00    -0.269 OA
BRANCH  32  35
ATOM     35  C   UNL A   1      42.190  20.890  26.434  1.00  0.00     0.039 A 
ATOM     36  C   UNL A   1      42.387  21.216  27.777  1.00  0.00     0.014 A 
ATOM     37  C   UNL A   1      42.378  21.852  25.438  1.00  0.00     0.014 A 
ATOM     38  C   UNL A   1      42.836  22.494  28.116  1.00  0.00     0.010 A 
ATOM     39  C   UNL A   1      42.901  23.095  25.770  1.00  0.00     0.010 A 
ATOM     40  C   UNL A   1      43.131  23.432  27.113  1.00  0.00    -0.014 A 
BRANCH  40  41
ATOM     41  C   UNL A   1      43.658  24.783  27.435  1.00  0.00     0.031 A 
ATOM     42  C   UNL A   1      42.708  25.857  27.890  1.00  0.00     0.074 A 
ATOM     43  C   UNL A   1      44.963  25.060  27.249  1.00  0.00     0.049 A 
ATOM     44  N   UNL A   1      42.928  27.132  28.080  1.00  0.00    -0.248 NA
ATOM     45  C   UNL A   1      41.317  25.443  28.135  1.00  0.00     0.031 C 
ATOM     46  C   UNL A   1      45.975  24.104  26.795  1.00  0.00     0.029 A 
ATOM     47  N   UNL A   1      45.661  26.233  27.402  1.00  0.00    -0.354 N 
ATOM     48  C   UNL A   1      41.705  27.673  28.461  1.00  0.00     0.074 A 
ATOM     49  C   UNL A   1      40.734  26.601  28.403  1.00  0.00     0.031 C 
ATOM     50  C   UNL A   1      47.164  24.723  26.726  1.00  0.00     0.029 A 
ATOM     51  C   UNL A   1      46.993  26.133  27.066  1.00  0.00     0.049 A 
ATOM     52  H   UNL A   1      45.248  27.067  27.720  1.00  0.00     0.167 HD
ATOM     53  C   UNL A   1      41.424  28.940  28.853  1.00  0.00     0.034 A 
ATOM     54  C   UNL A   1      47.956  27.074  27.014  1.00  0.00     0.034 A 
ATOM     55  C   UNL A   1      42.404  29.995  28.906  1.00  0.00     0.049 A 
ATOM     56  C   UNL A   1      47.601  28.498  27.379  1.00  0.00     0.074 A 
ATOM     57  C   UNL A   1      42.235  31.311  29.300  1.00  0.00     0.029 A 
ATOM     58  N   UNL A   1      43.740  29.857  28.551  1.00  0.00    -0.354 N 
ATOM     59  N   UNL A   1      46.443  28.989  27.759  1.00  0.00    -0.248 NA
ATOM     60  C   UNL A   1      48.681  29.490  27.318  1.00  0.00     0.031 C 
ATOM     61  C   UNL A   1      43.446  31.983  29.117  1.00  0.00     0.029 A 
ATOM     62  C   UNL A   1      44.397  31.069  28.694  1.00  0.00     0.049 A 
ATOM     63  H   UNL A   1      44.160  29.021  28.243  1.00  0.00     0.167 HD
ATOM     64  C   UNL A   1      46.672  30.337  28.024  1.00  0.00     0.074 A 
ATOM     65  C   UNL A   1      48.076  30.578  27.770  1.00  0.00     0.031 C 
ATOM     66  C   UNL A   1      45.802  31.289  28.448  1.00  0.00     0.034 A 
BRANCH  53  67
ATOM     67  C   UNL A   1      39.997  29.248  29.239  1.00  0.00     0.023 A 
ATOM     68  C   UNL A   1      39.600  29.318  30.586  1.00  0.00     0.031 A 
ATOM     69  C   UNL A   1      39.017  29.456  28.254  1.00  0.00     0.131 A 
ATOM     70  C   UNL A   1      38.251  29.512  30.910  1.00  0.00     0.055 A 
ATOM     71  C   UNL A   1      37.690  29.738  28.585  1.00  0.00     0.041 A 
ATOM     72  F   UNL A   1      39.328  29.380  26.950  1.00  0.00    -0.206 F 
ATOM     73  C   UNL A   1      37.296  29.752  29.920  1.00  0.00     0.022 A 
BRANCH  70  74
ATOM     74  S   UNL A   1      37.739  29.300  32.636  1.00  0.00     0.124 S 
ATOM     75  O   UNL A   1      36.418  29.924  32.631  1.00  0.00    -0.237 OA
ATOM     76  O   UNL A   1      37.759  27.851  32.796  1.00  0.00    -0.237 OA
ATOM     77  O   UNL A   1      38.760  30.027  33.388  1.00  0.00    -0.744 OA
ENDBRANCH  70  74
ENDBRANCH  53  67
BRANCH  54  78
ATOM     78  C   UNL A   1      49.341  26.729  26.579  1.00  0.00     0.023 A 
ATOM     79  C   UNL A   1      50.386  26.631  27.512  1.00  0.00     0.031 A 
ATOM     80  C   UNL A   1      49.662  26.573  25.218  1.00  0.00     0.131 A 
ATOM     81  C   UNL A   1      51.707  26.457  27.071  1.00  0.00     0.055 A 
ATOM     82  C   UNL A   1      50.968  26.327  24.789  1.00  0.00     0.041 A 
ATOM     83  F   UNL A   1      48.706  26.659  24.280  1.00  0.00    -0.206 F 
ATOM     84  C   UNL A   1      52.003  26.288  25.718  1.00  0.00     0.022 A 
BRANCH  81  85
ATOM     85  S   UNL A   1      53.048  26.596  28.284  1.00  0.00     0.124 S 
ATOM     86  O   UNL A   1      52.376  26.192  29.514  1.00  0.00    -0.237 OA
ATOM     87  O   UNL A   1      54.035  25.662  27.754  1.00  0.00    -0.237 OA
ATOM     88  O   UNL A   1      53.425  28.006  28.213  1.00  0.00    -0.744 OA
ENDBRANCH  81  85
ENDBRANCH  54  78
BRANCH  66  89
ATOM     89  C   UNL A   1      46.362  32.661  28.737  1.00  0.00     0.023 A 
ATOM     90  C   UNL A   1      46.446  33.658  27.751  1.00  0.00     0.031 A 
ATOM     91  C   UNL A   1      46.801  32.976  30.036  1.00  0.00     0.131 A 
ATOM     92  C   UNL A   1      46.998  34.909  28.068  1.00  0.00     0.055 A 
ATOM     93  C   UNL A   1      47.290  34.241  30.361  1.00  0.00     0.041 A 
ATOM     94  F   UNL A   1      46.746  32.061  31.017  1.00  0.00    -0.206 F 
ATOM     95  C   UNL A   1      47.401  35.213  29.371  1.00  0.00     0.022 A 
BRANCH  92  96
ATOM     96  S   UNL A   1      47.257  36.112  26.736  1.00  0.00     0.124 S 
ATOM     97  O   UNL A   1      47.157  35.275  25.545  1.00  0.00    -0.237 OA
ATOM     98  O   UNL A   1      46.160  37.053  26.947  1.00  0.00    -0.237 OA
ATOM     99  O   UNL A   1      48.590  36.646  27.009  1.00  0.00    -0.744 OA
ENDBRANCH  92  96
ENDBRANCH  66  89
ENDBRANCH  40  41
ENDBRANCH  32  35
ENDBRANCH  30  31
ENDBRANCH  29  30
ENDBRANCH  28  29
ENDBRANCH   1  28
TORSDOF 21
ENDMDL
MODEL 3
REMARK VINA RESULT:     -11.1      1.571      2.007
REMARK SMILES CC(C)(C)OC(=O)N1CCC[C@](Cc2ccccc2)(C(=O)NCCCCCCNC(=O)c2ccc(-c3c4nc(c(-c5cc(S(=O)(=O)[O-])ccc5F)c5ccc([nH]5)c(-c5cc(S(=O)(=O)[O-])ccc5F)c5nc(c(-c6cc(S(=O)(=O)[O-])ccc6F)c6ccc3[nH]6)C=C5)C=C4)cc2)C1
REMARK SMILES IDX 25 1 24 2 23 3 22 4 20 5 21 6 12 8 8 9 9 10 95 11 10 12
REMARK SMILES IDX 11 13 6 14 7 15 5 16 2 17 1 18 3 19 4 20 13 21 14 22 15 23
REMARK SMILES IDX 19 24 16 25 18 26 17 27 26 28 27 29 28 30 29 31 30 32 31 34
REMARK SMILES IDX 32 35 33 36 94 37 34 38 93 39 35 40 36 41 37 42 87 43 38 44
REMARK SMILES IDX 92 45 86 46 88 47 39 48 91 49 85 50 84 51 40 53 72 54 52 55
REMARK SMILES IDX 71 56 53 57 56 58 70 59 89 60 54 61 55 62 69 64 90 65 57 66
REMARK SMILES IDX 41 67 42 68 50 69 43 70 49 71 51 72 48 73 44 74 45 75 46 76
REMARK SMILES IDX 47 77 73 78 74 79 82 80 75 81 81 82 83 83 80 84 76 85 77 86
REMARK SMILES IDX 78 87 79 88 58 89 59 90 67 91 60 92 66 93 68 94 65 95 61 96
REMARK SMILES IDX 62 97 63 98 64 99
REMARK H PARENT 22 7 29 33 88 52 56 63
REMARK Flexibility Score: inf
ROOT
ATOM      1  C   UNL A   1      37.267  21.623  24.144  1.00  0.00     0.002 C 
ENDROOT
BRANCH   1   2
ATOM      2  C   UNL A   1      36.934  22.881  24.943  1.00  0.00     0.021 C 
BRANCH   2   3
ATOM      3  C   UNL A   1      35.455  23.245  24.918  1.00  0.00     0.116 C 
BRANCH   3   4
ATOM      4  N   UNL A   1      34.775  22.867  23.706  1.00  0.00    -0.356 N 
ATOM      5  C   UNL A   1      33.595  22.226  23.504  1.00  0.00     0.228 C 
ATOM      6  O   UNL A   1      33.117  22.409  22.376  1.00  0.00    -0.274 OA
ATOM      7  H   UNL A   1      35.248  23.117  22.880  1.00  0.00     0.163 HD
BRANCH   5   8
ATOM      8  C   UNL A   1      32.878  21.300  24.547  1.00  0.00     0.071 C 
ATOM      9  N   UNL A   1      31.914  22.706  26.441  1.00  0.00    -0.307 N 
ATOM     10  C   UNL A   1      32.674  21.974  27.448  1.00  0.00     0.123 C 
ATOM     11  C   UNL A   1      31.656  22.019  25.180  1.00  0.00     0.140 C 
ATOM     12  C   UNL A   1      34.009  21.467  26.920  1.00  0.00     0.023 C 
ATOM     13  C   UNL A   1      33.897  20.744  25.581  1.00  0.00     0.021 C 
BRANCH   9  14
ATOM     14  C   UNL A   1      31.424  23.975  26.746  1.00  0.00     0.410 C 
ATOM     15  O   UNL A   1      30.296  24.153  27.178  1.00  0.00    -0.224 OA
BRANCH  14  16
ATOM     16  O   UNL A   1      32.343  24.957  26.550  1.00  0.00    -0.444 OA
BRANCH  16  17
ATOM     17  C   UNL A   1      32.139  26.105  25.672  1.00  0.00     0.106 C 
ATOM     18  C   UNL A   1      33.537  26.525  25.194  1.00  0.00     0.056 C 
ATOM     19  C   UNL A   1      31.549  27.224  26.537  1.00  0.00     0.056 C 
ATOM     20  C   UNL A   1      31.258  25.888  24.435  1.00  0.00     0.056 C 
ENDBRANCH  16  17
ENDBRANCH  14  16
ENDBRANCH   9  14
BRANCH   8  21
ATOM     21  C   UNL A   1      32.344  20.089  23.654  1.00  0.00     0.054 C 
BRANCH  21  22
ATOM     22  C   UNL A   1      32.725  18.674  24.049  1.00  0.00    -0.047 A 
ATOM     23  C   UNL A   1      33.437  17.865  23.146  1.00  0.00     0.004 A 
ATOM     24  C   UNL A   1      32.409  18.150  25.307  1.00  0.00     0.004 A 
ATOM     25  C   UNL A   1      33.893  16.602  23.527  1.00  0.00     0.000 A 
ATOM     26  C   UNL A   1      32.883  16.896  25.694  1.00  0.00     0.000 A 
ATOM     27  C   UNL A   1      33.636  16.128  24.809  1.00  0.00     0.000 A 
ENDBRANCH  21  22
ENDBRANCH   8  21
ENDBRANCH   5   8
ENDBRANCH   3   4
ENDBRANCH   2   3
ENDBRANCH   1   2
BRANCH   1  28
ATOM     28  C   UNL A   1      36.955  20.295  24.849  1.00  0.00     0.002 C 
BRANCH  28  29
ATOM     29  C   UNL A   1      38.166  19.421  25.185  1.00  0.00     0.021 C 
BRANCH  29  30
ATOM     30  C   UNL A   1      39.306  20.156  25.881  1.00  0.00     0.116 C 
BRANCH  30  31
ATOM     31  N   UNL A   1      40.446  19.282  26.120  1.00  0.00    -0.352 N 
ATOM     32  C   UNL A   1      41.767  19.602  26.304  1.00  0.00     0.251 C 
ATOM     33  H   UNL A   1      40.238  18.320  26.157  1.00  0.00     0.163 HD
ATOM     34  O   UNL A   1      42.624  18.725  26.241  1.00  0.00    -0.269 OA
BRANCH  32  35
ATOM     35  C   UNL A   1      42.142  21.005  26.567  1.00  0.00     0.039 A 
ATOM     36  C   UNL A   1      42.355  21.870  25.493  1.00  0.00     0.014 A 
ATOM     37  C   UNL A   1      42.280  21.460  27.882  1.00  0.00     0.014 A 
ATOM     38  C   UNL A   1      42.644  23.214  25.739  1.00  0.00     0.010 A 
ATOM     39  C   UNL A   1      42.489  22.812  28.123  1.00  0.00     0.010 A 
ATOM     40  C   UNL A   1      42.678  23.703  27.056  1.00  0.00    -0.014 A 
BRANCH  40  41
ATOM     41  C   UNL A   1      42.934  25.136  27.352  1.00  0.00     0.031 A 
ATOM     42  C   UNL A   1      44.318  25.694  27.160  1.00  0.00     0.074 A 
ATOM     43  C   UNL A   1      41.951  25.906  27.858  1.00  0.00     0.049 A 
ATOM     44  N   UNL A   1      44.792  26.866  27.494  1.00  0.00    -0.248 NA
ATOM     45  C   UNL A   1      45.306  24.801  26.535  1.00  0.00     0.031 C 
ATOM     46  C   UNL A   1      40.575  25.469  28.103  1.00  0.00     0.029 A 
ATOM     47  N   UNL A   1      41.962  27.214  28.274  1.00  0.00    -0.354 N 
ATOM     48  C   UNL A   1      46.132  26.849  27.125  1.00  0.00     0.074 A 
ATOM     49  C   UNL A   1      46.410  25.526  26.611  1.00  0.00     0.031 C 
ATOM     50  C   UNL A   1      39.872  26.496  28.607  1.00  0.00     0.029 A 
ATOM     51  C   UNL A   1      40.756  27.644  28.782  1.00  0.00     0.049 A 
ATOM     52  H   UNL A   1      42.757  27.791  28.215  1.00  0.00     0.167 HD
ATOM     53  C   UNL A   1      47.040  27.855  27.181  1.00  0.00     0.034 A 
ATOM     54  C   UNL A   1      40.414  28.818  29.348  1.00  0.00     0.034 A 
ATOM     55  C   UNL A   1      46.744  29.169  27.696  1.00  0.00     0.049 A 
ATOM     56  C   UNL A   1      41.464  29.899  29.473  1.00  0.00     0.074 A 
ATOM     57  C   UNL A   1      47.581  30.267  27.788  1.00  0.00     0.029 A 
ATOM     58  N   UNL A   1      45.515  29.563  28.209  1.00  0.00    -0.354 N 
ATOM     59  N   UNL A   1      42.723  29.874  29.099  1.00  0.00    -0.248 NA
ATOM     60  C   UNL A   1      41.046  31.165  30.087  1.00  0.00     0.031 C 
ATOM     61  C   UNL A   1      46.882  31.299  28.420  1.00  0.00     0.029 A 
ATOM     62  C   UNL A   1      45.581  30.878  28.641  1.00  0.00     0.049 A 
ATOM     63  H   UNL A   1      44.714  28.993  28.259  1.00  0.00     0.167 HD
ATOM     64  C   UNL A   1      43.230  31.138  29.393  1.00  0.00     0.074 A 
ATOM     65  C   UNL A   1      42.141  31.900  29.965  1.00  0.00     0.031 C 
ATOM     66  C   UNL A   1      44.481  31.628  29.199  1.00  0.00     0.034 A 
BRANCH  53  67
ATOM     67  C   UNL A   1      48.435  27.561  26.686  1.00  0.00     0.023 A 
ATOM     68  C   UNL A   1      49.475  27.237  27.575  1.00  0.00     0.031 A 
ATOM     69  C   UNL A   1      48.738  27.623  25.315  1.00  0.00     0.131 A 
ATOM     70  C   UNL A   1      50.780  27.062  27.094  1.00  0.00     0.055 A 
ATOM     71  C   UNL A   1      50.022  27.359  24.833  1.00  0.00     0.041 A 
ATOM     72  F   UNL A   1      47.794  27.950  24.418  1.00  0.00    -0.206 F 
ATOM     73  C   UNL A   1      51.056  27.091  25.726  1.00  0.00     0.022 A 
BRANCH  70  74
ATOM     74  S   UNL A   1      52.134  26.942  28.294  1.00  0.00     0.124 S 
ATOM     75  O   UNL A   1      52.313  28.340  28.677  1.00  0.00    -0.237 OA
ATOM     76  O   UNL A   1      51.573  26.067  29.317  1.00  0.00    -0.237 OA
ATOM     77  O   UNL A   1      53.232  26.372  27.516  1.00  0.00    -0.744 OA
ENDBRANCH  70  74
ENDBRANCH  53  67
BRANCH  54  78
ATOM     78  C   UNL A   1      39.032  29.044  29.868  1.00  0.00     0.023 A 
ATOM     79  C   UNL A   1      38.065  29.693  29.084  1.00  0.00     0.031 A 
ATOM     80  C   UNL A   1      38.679  28.689  31.183  1.00  0.00     0.131 A 
ATOM     81  C   UNL A   1      36.822  30.032  29.641  1.00  0.00     0.055 A 
ATOM     82  C   UNL A   1      37.415  28.963  31.709  1.00  0.00     0.041 A 
ATOM     83  F   UNL A   1      39.563  28.068  31.980  1.00  0.00    -0.206 F 
ATOM     84  C   UNL A   1      36.485  29.657  30.942  1.00  0.00     0.022 A 
BRANCH  81  85
ATOM     85  S   UNL A   1      35.707  31.095  28.684  1.00  0.00     0.124 S 
ATOM     86  O   UNL A   1      35.054  31.863  29.739  1.00  0.00    -0.237 OA
ATOM     87  O   UNL A   1      36.641  31.831  27.839  1.00  0.00    -0.237 OA
ATOM     88  O   UNL A   1      34.849  30.143  27.982  1.00  0.00    -0.744 OA
ENDBRANCH  81  85
ENDBRANCH  54  78
BRANCH  66  89
ATOM     89  C   UNL A   1      44.718  33.080  29.539  1.00  0.00     0.023 A 
ATOM     90  C   UNL A   1      44.536  34.109  28.599  1.00  0.00     0.031 A 
ATOM     91  C   UNL A   1      45.118  33.435  30.841  1.00  0.00     0.131 A 
ATOM     92  C   UNL A   1      44.795  35.439  28.962  1.00  0.00     0.055 A 
ATOM     93  C   UNL A   1      45.313  34.765  31.213  1.00  0.00     0.041 A 
ATOM     94  F   UNL A   1      45.309  32.493  31.778  1.00  0.00    -0.206 F 
ATOM     95  C   UNL A   1      45.162  35.775  30.268  1.00  0.00     0.022 A 
BRANCH  92  96
ATOM     96  S   UNL A   1      44.723  36.722  27.683  1.00  0.00     0.124 S 
ATOM     97  O   UNL A   1      45.376  36.066  26.556  1.00  0.00    -0.237 OA
ATOM     98  O   UNL A   1      43.287  36.946  27.545  1.00  0.00    -0.237 OA
ATOM     99  O   UNL A   1      45.468  37.835  28.270  1.00  0.00    -0.744 OA
ENDBRANCH  92  96
ENDBRANCH  66  89
ENDBRANCH  40  41
ENDBRANCH  32  35
ENDBRANCH  30  31
ENDBRANCH  29  30
ENDBRANCH  28  29
ENDBRANCH   1  28
TORSDOF 21
ENDMDL
