MODEL 1
REMARK VINA RESULT:     -10.5      0.000      0.000
REMARK SMILES O=C(CCCNS(=O)(=O)c1ccc2c3c(cccc13)C(=O)N2)NCCCCCCNC(=O)c1ccc(-c2c3nc(c(-c4cc(S(=O)(=O)[O-])ccc4F)c4ccc([nH]4)c(-c4cc(S(=O)(=O)[O-])ccc4F)c4nc(c(-c5cc(S(=O)(=O)[O-])ccc5F)c5ccc2[nH]5)C=C4)C=C3)cc1
REMARK SMILES IDX 25 1 24 2 23 3 1 4 2 5 3 7 4 8 5 9 6 10 7 12 8 13 9 14 10 15
REMARK SMILES IDX 11 16 19 17 12 18 14 19 18 20 13 21 15 22 17 23 22 24 16 25
REMARK SMILES IDX 20 26 21 28 26 29 27 30 28 31 29 32 30 33 31 34 32 36 33 37
REMARK SMILES IDX 34 38 95 39 35 40 94 41 36 42 37 43 38 44 88 45 39 46 93 47
REMARK SMILES IDX 87 48 89 49 40 50 92 51 86 52 85 53 41 55 73 56 53 57 72 58
REMARK SMILES IDX 54 59 57 60 71 61 90 62 55 63 56 64 70 66 91 67 58 68 42 69
REMARK SMILES IDX 43 70 51 71 44 72 50 73 52 74 49 75 45 76 46 77 47 78 48 79
REMARK SMILES IDX 74 80 75 81 83 82 76 83 82 84 84 85 81 86 77 87 78 88 79 89
REMARK SMILES IDX 80 90 59 91 60 92 68 93 61 94 67 95 69 96 66 97 62 98 63 99
REMARK SMILES IDX 64 100 65 101
REMARK H PARENT 23 6 6 11 22 27 30 35 89 54 57 65
REMARK Flexibility Score: inf
ROOT
ATOM      1  C   UNL A   1      39.130  23.823  27.257  1.00  0.00     0.021 C 
ENDROOT
BRANCH   1   2
ATOM      2  C   UNL A   1      38.131  24.075  26.128  1.00  0.00     0.116 C 
BRANCH   2   3
ATOM      3  N   UNL A   1      36.941  23.259  26.277  1.00  0.00    -0.356 N 
ATOM      4  O   UNL A   1      37.648  21.503  24.971  1.00  0.00    -0.275 OA
ATOM      5  C   UNL A   1      36.799  22.033  25.678  1.00  0.00     0.220 C 
ATOM      6  H   UNL A   1      36.204  23.600  26.832  1.00  0.00     0.163 HD
BRANCH   5   7
ATOM      7  C   UNL A   1      35.481  21.355  25.979  1.00  0.00     0.101 C 
BRANCH   7   8
ATOM      8  C   UNL A   1      34.683  21.043  24.713  1.00  0.00     0.026 C 
BRANCH   8   9
ATOM      9  C   UNL A   1      34.248  22.269  23.913  1.00  0.00     0.099 C 
BRANCH   9  10
ATOM     10  N   UNL A   1      33.128  22.940  24.577  1.00  0.00    -0.211 NA
ATOM     11  H   UNL A   1      32.721  22.263  25.221  1.00  0.00     0.141 HD
BRANCH  10  12
ATOM     12  S   UNL A   1      33.379  24.348  25.455  1.00  0.00     0.241 S 
ATOM     13  O   UNL A   1      32.935  24.051  26.793  1.00  0.00    -0.207 OA
ATOM     14  O   UNL A   1      34.736  24.757  25.169  1.00  0.00    -0.207 OA
BRANCH  12  15
ATOM     15  C   UNL A   1      32.296  25.537  24.716  1.00  0.00     0.090 A 
ATOM     16  C   UNL A   1      31.328  25.067  23.790  1.00  0.00     0.024 A 
ATOM     17  C   UNL A   1      32.370  26.915  25.077  1.00  0.00     0.005 A 
ATOM     18  C   UNL A   1      30.376  25.926  23.216  1.00  0.00     0.028 A 
ATOM     19  C   UNL A   1      31.418  27.695  24.486  1.00  0.00     0.019 A 
ATOM     20  C   UNL A   1      33.254  27.631  25.930  1.00  0.00     0.010 A 
ATOM     21  C   UNL A   1      30.457  27.247  23.605  1.00  0.00     0.050 A 
ATOM     22  C   UNL A   1      31.244  29.060  24.659  1.00  0.00     0.050 A 
ATOM     23  C   UNL A   1      33.113  29.021  26.132  1.00  0.00     0.002 A 
ATOM     24  N   UNL A   1      29.687  28.337  23.246  1.00  0.00    -0.321 N 
ATOM     25  C   UNL A   1      32.100  29.764  25.501  1.00  0.00     0.014 A 
ATOM     26  C   UNL A   1      30.120  29.516  23.868  1.00  0.00     0.256 C 
ATOM     27  H   UNL A   1      28.923  28.290  22.628  1.00  0.00     0.170 HD
ATOM     28  O   UNL A   1      29.603  30.612  23.705  1.00  0.00    -0.269 OA
ENDBRANCH  12  15
ENDBRANCH  10  12
ENDBRANCH   9  10
ENDBRANCH   8   9
ENDBRANCH   7   8
ENDBRANCH   5   7
ENDBRANCH   2   3
ENDBRANCH   1   2
BRANCH   1  29
ATOM     29  C   UNL A   1      40.371  23.018  26.851  1.00  0.00     0.002 C 
BRANCH  29  30
ATOM     30  C   UNL A   1      40.978  22.158  27.965  1.00  0.00     0.002 C 
BRANCH  30  31
ATOM     31  C   UNL A   1      41.311  20.725  27.561  1.00  0.00     0.021 C 
BRANCH  31  32
ATOM     32  C   UNL A   1      41.206  20.462  26.066  1.00  0.00     0.116 C 
BRANCH  32  33
ATOM     33  N   UNL A   1      42.325  19.674  25.563  1.00  0.00    -0.352 N 
ATOM     34  C   UNL A   1      43.583  20.111  25.232  1.00  0.00     0.251 C 
ATOM     35  H   UNL A   1      42.157  18.711  25.445  1.00  0.00     0.163 HD
ATOM     36  O   UNL A   1      44.382  19.375  24.664  1.00  0.00    -0.269 OA
BRANCH  34  37
ATOM     37  C   UNL A   1      43.943  21.504  25.558  1.00  0.00     0.039 A 
ATOM     38  C   UNL A   1      43.583  22.526  24.680  1.00  0.00     0.014 A 
ATOM     39  C   UNL A   1      44.567  21.789  26.778  1.00  0.00     0.014 A 
ATOM     40  C   UNL A   1      43.802  23.853  25.052  1.00  0.00     0.010 A 
ATOM     41  C   UNL A   1      44.726  23.111  27.171  1.00  0.00     0.010 A 
ATOM     42  C   UNL A   1      44.354  24.153  26.309  1.00  0.00    -0.014 A 
BRANCH  42  43
ATOM     43  C   UNL A   1      44.574  25.554  26.733  1.00  0.00     0.031 A 
ATOM     44  C   UNL A   1      45.946  26.152  26.631  1.00  0.00     0.074 A 
ATOM     45  C   UNL A   1      43.562  26.260  27.272  1.00  0.00     0.049 A 
ATOM     46  N   UNL A   1      46.346  27.350  26.964  1.00  0.00    -0.248 NA
ATOM     47  C   UNL A   1      47.013  25.283  26.109  1.00  0.00     0.031 C 
ATOM     48  C   UNL A   1      42.203  25.758  27.475  1.00  0.00     0.029 A 
ATOM     49  N   UNL A   1      43.524  27.541  27.761  1.00  0.00    -0.354 N 
ATOM     50  C   UNL A   1      47.710  27.375  26.704  1.00  0.00     0.074 A 
ATOM     51  C   UNL A   1      48.079  26.058  26.236  1.00  0.00     0.031 C 
ATOM     52  C   UNL A   1      41.460  26.725  28.033  1.00  0.00     0.029 A 
ATOM     53  C   UNL A   1      42.293  27.907  28.252  1.00  0.00     0.049 A 
ATOM     54  H   UNL A   1      44.303  28.141  27.759  1.00  0.00     0.167 HD
ATOM     55  C   UNL A   1      48.570  28.412  26.821  1.00  0.00     0.034 A 
ATOM     56  C   UNL A   1      41.882  29.063  28.812  1.00  0.00     0.034 A 
ATOM     57  C   UNL A   1      48.183  29.725  27.265  1.00  0.00     0.049 A 
ATOM     58  C   UNL A   1      42.849  30.213  28.918  1.00  0.00     0.074 A 
ATOM     59  C   UNL A   1      48.961  30.865  27.330  1.00  0.00     0.029 A 
ATOM     60  N   UNL A   1      46.921  30.071  27.723  1.00  0.00    -0.354 N 
ATOM     61  N   UNL A   1      44.109  30.262  28.553  1.00  0.00    -0.248 NA
ATOM     62  C   UNL A   1      42.344  31.467  29.495  1.00  0.00     0.031 C 
ATOM     63  C   UNL A   1      48.188  31.886  27.883  1.00  0.00     0.029 A 
ATOM     64  C   UNL A   1      46.908  31.401  28.104  1.00  0.00     0.049 A 
ATOM     65  H   UNL A   1      46.150  29.461  27.771  1.00  0.00     0.167 HD
ATOM     66  C   UNL A   1      44.540  31.557  28.830  1.00  0.00     0.074 A 
ATOM     67  C   UNL A   1      43.403  32.262  29.385  1.00  0.00     0.031 C 
ATOM     68  C   UNL A   1      45.767  32.104  28.641  1.00  0.00     0.034 A 
BRANCH  55  69
ATOM     69  C   UNL A   1      50.010  28.189  26.448  1.00  0.00     0.023 A 
ATOM     70  C   UNL A   1      50.395  28.209  25.096  1.00  0.00     0.031 A 
ATOM     71  C   UNL A   1      50.978  27.865  27.415  1.00  0.00     0.131 A 
ATOM     72  C   UNL A   1      51.712  27.890  24.746  1.00  0.00     0.055 A 
ATOM     73  C   UNL A   1      52.298  27.583  27.064  1.00  0.00     0.041 A 
ATOM     74  F   UNL A   1      50.656  27.837  28.719  1.00  0.00    -0.206 F 
ATOM     75  C   UNL A   1      52.667  27.585  25.722  1.00  0.00     0.022 A 
BRANCH  72  76
ATOM     76  S   UNL A   1      52.227  27.819  23.009  1.00  0.00     0.124 S 
ATOM     77  O   UNL A   1      52.950  26.550  22.962  1.00  0.00    -0.237 OA
ATOM     78  O   UNL A   1      50.945  27.833  22.311  1.00  0.00    -0.237 OA
ATOM     79  O   UNL A   1      53.054  29.009  22.839  1.00  0.00    -0.744 OA
ENDBRANCH  72  76
ENDBRANCH  55  69
BRANCH  56  80
ATOM     80  C   UNL A   1      40.456  29.187  29.229  1.00  0.00     0.023 A 
ATOM     81  C   UNL A   1      40.085  29.071  30.580  1.00  0.00     0.031 A 
ATOM     82  C   UNL A   1      39.440  29.286  28.265  1.00  0.00     0.131 A 
ATOM     83  C   UNL A   1      38.728  28.987  30.922  1.00  0.00     0.055 A 
ATOM     84  C   UNL A   1      38.089  29.263  28.616  1.00  0.00     0.041 A 
ATOM     85  F   UNL A   1      39.750  29.385  26.963  1.00  0.00    -0.206 F 
ATOM     86  C   UNL A   1      37.728  29.098  29.951  1.00  0.00     0.022 A 
BRANCH  83  87
ATOM     87  S   UNL A   1      38.222  28.630  32.626  1.00  0.00     0.124 S 
ATOM     88  O   UNL A   1      36.917  29.279  32.705  1.00  0.00    -0.237 OA
ATOM     89  O   UNL A   1      38.201  27.170  32.625  1.00  0.00    -0.237 OA
ATOM     90  O   UNL A   1      39.274  29.239  33.433  1.00  0.00    -0.744 OA
ENDBRANCH  83  87
ENDBRANCH  56  80
BRANCH  68  91
ATOM     91  C   UNL A   1      45.984  33.549  29.016  1.00  0.00     0.023 A 
ATOM     92  C   UNL A   1      45.745  34.561  28.068  1.00  0.00     0.031 A 
ATOM     93  C   UNL A   1      46.594  33.903  30.232  1.00  0.00     0.131 A 
ATOM     94  C   UNL A   1      46.161  35.872  28.329  1.00  0.00     0.055 A 
ATOM     95  C   UNL A   1      46.966  35.220  30.506  1.00  0.00     0.041 A 
ATOM     96  F   UNL A   1      46.851  32.969  31.162  1.00  0.00    -0.206 F 
ATOM     97  C   UNL A   1      46.762  36.208  29.546  1.00  0.00     0.022 A 
BRANCH  94  98
ATOM     98  S   UNL A   1      46.006  37.170  27.072  1.00  0.00     0.124 S 
ATOM     99  O   UNL A   1      44.557  37.322  26.967  1.00  0.00    -0.237 OA
ATOM    100  O   UNL A   1      46.707  38.288  27.697  1.00  0.00    -0.237 OA
ATOM    101  O   UNL A   1      46.655  36.600  25.895  1.00  0.00    -0.744 OA
ENDBRANCH  94  98
ENDBRANCH  68  91
ENDBRANCH  42  43
ENDBRANCH  34  37
ENDBRANCH  32  33
ENDBRANCH  31  32
ENDBRANCH  30  31
ENDBRANCH  29  30
ENDBRANCH   1  29
TORSDOF 21
ENDMDL
MODEL 2
REMARK VINA RESULT:     -10.4      1.497      2.029
REMARK SMILES O=C(CCCNS(=O)(=O)c1ccc2c3c(cccc13)C(=O)N2)NCCCCCCNC(=O)c1ccc(-c2c3nc(c(-c4cc(S(=O)(=O)[O-])ccc4F)c4ccc([nH]4)c(-c4cc(S(=O)(=O)[O-])ccc4F)c4nc(c(-c5cc(S(=O)(=O)[O-])ccc5F)c5ccc2[nH]5)C=C4)C=C3)cc1
REMARK SMILES IDX 25 1 24 2 23 3 1 4 2 5 3 7 4 8 5 9 6 10 7 12 8 13 9 14 10 15
REMARK SMILES IDX 11 16 19 17 12 18 14 19 18 20 13 21 15 22 17 23 22 24 16 25
REMARK SMILES IDX 20 26 21 28 26 29 27 30 28 31 29 32 30 33 31 34 32 36 33 37
REMARK SMILES IDX 34 38 95 39 35 40 94 41 36 42 37 43 38 44 88 45 39 46 93 47
REMARK SMILES IDX 87 48 89 49 40 50 92 51 86 52 85 53 41 55 73 56 53 57 72 58
REMARK SMILES IDX 54 59 57 60 71 61 90 62 55 63 56 64 70 66 91 67 58 68 42 69
REMARK SMILES IDX 43 70 51 71 44 72 50 73 52 74 49 75 45 76 46 77 47 78 48 79
REMARK SMILES IDX 74 80 75 81 83 82 76 83 82 84 84 85 81 86 77 87 78 88 79 89
REMARK SMILES IDX 80 90 59 91 60 92 68 93 61 94 67 95 69 96 66 97 62 98 63 99
REMARK SMILES IDX 64 100 65 101
REMARK H PARENT 23 6 6 11 22 27 30 35 89 54 57 65
REMARK Flexibility Score: inf
ROOT
ATOM      1  C   UNL A   1      39.280  23.331  27.253  1.00  0.00     0.021 C 
ENDROOT
BRANCH   1   2
ATOM      2  C   UNL A   1      38.347  23.702  26.100  1.00  0.00     0.116 C 
BRANCH   2   3
ATOM      3  N   UNL A   1      37.023  23.139  26.283  1.00  0.00    -0.356 N 
ATOM      4  O   UNL A   1      37.017  21.835  24.388  1.00  0.00    -0.275 OA
ATOM      5  C   UNL A   1      36.465  22.248  25.401  1.00  0.00     0.220 C 
ATOM      6  H   UNL A   1      36.503  23.407  27.074  1.00  0.00     0.163 HD
BRANCH   5   7
ATOM      7  C   UNL A   1      35.081  21.784  25.797  1.00  0.00     0.101 C 
BRANCH   7   8
ATOM      8  C   UNL A   1      34.155  21.620  24.591  1.00  0.00     0.026 C 
BRANCH   8   9
ATOM      9  C   UNL A   1      32.952  22.561  24.576  1.00  0.00     0.099 C 
BRANCH   9  10
ATOM     10  N   UNL A   1      33.370  23.920  24.226  1.00  0.00    -0.211 NA
ATOM     11  H   UNL A   1      32.816  24.197  23.416  1.00  0.00     0.141 HD
BRANCH  10  12
ATOM     12  S   UNL A   1      33.242  25.165  25.345  1.00  0.00     0.241 S 
ATOM     13  O   UNL A   1      32.181  24.772  26.238  1.00  0.00    -0.207 OA
ATOM     14  O   UNL A   1      34.586  25.417  25.813  1.00  0.00    -0.207 OA
BRANCH  12  15
ATOM     15  C   UNL A   1      32.734  26.570  24.396  1.00  0.00     0.090 A 
ATOM     16  C   UNL A   1      33.745  27.430  23.890  1.00  0.00     0.024 A 
ATOM     17  C   UNL A   1      31.355  26.801  24.115  1.00  0.00     0.005 A 
ATOM     18  C   UNL A   1      33.440  28.522  23.061  1.00  0.00     0.028 A 
ATOM     19  C   UNL A   1      31.126  27.877  23.305  1.00  0.00     0.019 A 
ATOM     20  C   UNL A   1      30.172  26.128  24.527  1.00  0.00     0.010 A 
ATOM     21  C   UNL A   1      32.099  28.703  22.787  1.00  0.00     0.050 A 
ATOM     22  C   UNL A   1      29.892  28.329  22.861  1.00  0.00     0.050 A 
ATOM     23  C   UNL A   1      28.897  26.558  24.100  1.00  0.00     0.002 A 
ATOM     24  N   UNL A   1      31.463  29.657  22.015  1.00  0.00    -0.321 N 
ATOM     25  C   UNL A   1      28.733  27.667  23.253  1.00  0.00     0.014 A 
ATOM     26  C   UNL A   1      30.072  29.489  22.013  1.00  0.00     0.256 C 
ATOM     27  H   UNL A   1      31.932  30.369  21.525  1.00  0.00     0.170 HD
ATOM     28  O   UNL A   1      29.290  30.210  21.409  1.00  0.00    -0.269 OA
ENDBRANCH  12  15
ENDBRANCH  10  12
ENDBRANCH   9  10
ENDBRANCH   8   9
ENDBRANCH   7   8
ENDBRANCH   5   7
ENDBRANCH   2   3
ENDBRANCH   1   2
BRANCH   1  29
ATOM     29  C   UNL A   1      40.449  22.416  26.867  1.00  0.00     0.002 C 
BRANCH  29  30
ATOM     30  C   UNL A   1      40.855  21.397  27.937  1.00  0.00     0.002 C 
BRANCH  30  31
ATOM     31  C   UNL A   1      41.270  20.032  27.399  1.00  0.00     0.021 C 
BRANCH  31  32
ATOM     32  C   UNL A   1      41.282  19.941  25.880  1.00  0.00     0.116 C 
BRANCH  32  33
ATOM     33  N   UNL A   1      42.552  19.443  25.366  1.00  0.00    -0.352 N 
ATOM     34  C   UNL A   1      43.708  20.150  25.143  1.00  0.00     0.251 C 
ATOM     35  H   UNL A   1      42.585  18.482  25.151  1.00  0.00     0.163 HD
ATOM     36  O   UNL A   1      44.656  19.645  24.552  1.00  0.00    -0.269 OA
BRANCH  34  37
ATOM     37  C   UNL A   1      43.770  21.546  25.615  1.00  0.00     0.039 A 
ATOM     38  C   UNL A   1      44.234  21.811  26.903  1.00  0.00     0.014 A 
ATOM     39  C   UNL A   1      43.442  22.587  24.739  1.00  0.00     0.014 A 
ATOM     40  C   UNL A   1      44.421  23.135  27.302  1.00  0.00     0.010 A 
ATOM     41  C   UNL A   1      43.689  23.900  25.117  1.00  0.00     0.010 A 
ATOM     42  C   UNL A   1      44.172  24.185  26.402  1.00  0.00    -0.014 A 
BRANCH  42  43
ATOM     43  C   UNL A   1      44.385  25.596  26.796  1.00  0.00     0.031 A 
ATOM     44  C   UNL A   1      45.754  26.200  26.681  1.00  0.00     0.074 A 
ATOM     45  C   UNL A   1      43.370  26.308  27.321  1.00  0.00     0.049 A 
ATOM     46  N   UNL A   1      46.147  27.406  26.988  1.00  0.00    -0.248 NA
ATOM     47  C   UNL A   1      46.824  25.326  26.176  1.00  0.00     0.031 C 
ATOM     48  C   UNL A   1      42.013  25.803  27.535  1.00  0.00     0.029 A 
ATOM     49  N   UNL A   1      43.324  27.599  27.783  1.00  0.00    -0.354 N 
ATOM     50  C   UNL A   1      47.511  27.433  26.727  1.00  0.00     0.074 A 
ATOM     51  C   UNL A   1      47.887  26.109  26.287  1.00  0.00     0.031 C 
ATOM     52  C   UNL A   1      41.265  26.778  28.073  1.00  0.00     0.029 A 
ATOM     53  C   UNL A   1      42.092  27.968  28.267  1.00  0.00     0.049 A 
ATOM     54  H   UNL A   1      44.101  28.203  27.768  1.00  0.00     0.167 HD
ATOM     55  C   UNL A   1      48.365  28.477  26.821  1.00  0.00     0.034 A 
ATOM     56  C   UNL A   1      41.675  29.134  28.803  1.00  0.00     0.034 A 
ATOM     57  C   UNL A   1      47.971  29.796  27.238  1.00  0.00     0.049 A 
ATOM     58  C   UNL A   1      42.636  30.291  28.884  1.00  0.00     0.074 A 
ATOM     59  C   UNL A   1      48.744  30.942  27.279  1.00  0.00     0.029 A 
ATOM     60  N   UNL A   1      46.708  30.146  27.690  1.00  0.00    -0.354 N 
ATOM     61  N   UNL A   1      43.895  30.339  28.518  1.00  0.00    -0.248 NA
ATOM     62  C   UNL A   1      42.125  31.554  29.435  1.00  0.00     0.031 C 
ATOM     63  C   UNL A   1      47.965  31.970  27.811  1.00  0.00     0.029 A 
ATOM     64  C   UNL A   1      46.688  31.483  28.043  1.00  0.00     0.049 A 
ATOM     65  H   UNL A   1      45.940  29.532  27.751  1.00  0.00     0.167 HD
ATOM     66  C   UNL A   1      44.319  31.641  28.767  1.00  0.00     0.074 A 
ATOM     67  C   UNL A   1      43.179  32.352  29.307  1.00  0.00     0.031 C 
ATOM     68  C   UNL A   1      45.543  32.191  28.566  1.00  0.00     0.034 A 
BRANCH  55  69
ATOM     69  C   UNL A   1      49.806  28.254  26.452  1.00  0.00     0.023 A 
ATOM     70  C   UNL A   1      50.182  28.200  25.098  1.00  0.00     0.031 A 
ATOM     71  C   UNL A   1      50.784  28.002  27.430  1.00  0.00     0.131 A 
ATOM     72  C   UNL A   1      51.502  27.880  24.759  1.00  0.00     0.055 A 
ATOM     73  C   UNL A   1      52.107  27.719  27.087  1.00  0.00     0.041 A 
ATOM     74  F   UNL A   1      50.472  28.046  28.736  1.00  0.00    -0.206 F 
ATOM     75  C   UNL A   1      52.467  27.647  25.744  1.00  0.00     0.022 A 
BRANCH  72  76
ATOM     76  S   UNL A   1      52.008  27.715  23.025  1.00  0.00     0.124 S 
ATOM     77  O   UNL A   1      52.758  28.951  22.813  1.00  0.00    -0.237 OA
ATOM     78  O   UNL A   1      52.811  26.496  23.058  1.00  0.00    -0.237 OA
ATOM     79  O   UNL A   1      50.747  27.622  22.298  1.00  0.00    -0.744 OA
ENDBRANCH  72  76
ENDBRANCH  55  69
BRANCH  56  80
ATOM     80  C   UNL A   1      40.249  29.259  29.218  1.00  0.00     0.023 A 
ATOM     81  C   UNL A   1      39.886  29.235  30.576  1.00  0.00     0.031 A 
ATOM     82  C   UNL A   1      39.227  29.266  28.256  1.00  0.00     0.131 A 
ATOM     83  C   UNL A   1      38.533  29.149  30.932  1.00  0.00     0.055 A 
ATOM     84  C   UNL A   1      37.878  29.241  28.616  1.00  0.00     0.041 A 
ATOM     85  F   UNL A   1      39.529  29.274  26.948  1.00  0.00    -0.206 F 
ATOM     86  C   UNL A   1      37.526  29.167  29.961  1.00  0.00     0.022 A 
BRANCH  83  87
ATOM     87  S   UNL A   1      38.043  28.908  32.661  1.00  0.00     0.124 S 
ATOM     88  O   UNL A   1      39.021  29.721  33.377  1.00  0.00    -0.237 OA
ATOM     89  O   UNL A   1      36.678  29.427  32.652  1.00  0.00    -0.237 OA
ATOM     90  O   UNL A   1      38.163  27.468  32.855  1.00  0.00    -0.744 OA
ENDBRANCH  83  87
ENDBRANCH  56  80
BRANCH  68  91
ATOM     91  C   UNL A   1      45.753  33.645  28.910  1.00  0.00     0.023 A 
ATOM     92  C   UNL A   1      46.039  34.015  30.238  1.00  0.00     0.031 A 
ATOM     93  C   UNL A   1      45.492  34.661  27.975  1.00  0.00     0.131 A 
ATOM     94  C   UNL A   1      46.007  35.365  30.607  1.00  0.00     0.055 A 
ATOM     95  C   UNL A   1      45.506  36.008  28.338  1.00  0.00     0.041 A 
ATOM     96  F   UNL A   1      45.205  34.354  26.700  1.00  0.00    -0.206 F 
ATOM     97  C   UNL A   1      45.749  36.363  29.662  1.00  0.00     0.022 A 
BRANCH  94  98
ATOM     98  S   UNL A   1      46.220  35.866  32.336  1.00  0.00     0.124 S 
ATOM     99  O   UNL A   1      44.838  35.971  32.796  1.00  0.00    -0.237 OA
ATOM    100  O   UNL A   1      46.978  34.746  32.889  1.00  0.00    -0.237 OA
ATOM    101  O   UNL A   1      46.942  37.132  32.251  1.00  0.00    -0.744 OA
ENDBRANCH  94  98
ENDBRANCH  68  91
ENDBRANCH  42  43
ENDBRANCH  34  37
ENDBRANCH  32  33
ENDBRANCH  31  32
ENDBRANCH  30  31
ENDBRANCH  29  30
ENDBRANCH   1  29
TORSDOF 21
ENDMDL
MODEL 3
REMARK VINA RESULT:     -10.0      1.760      2.291
REMARK SMILES O=C(CCCNS(=O)(=O)c1ccc2c3c(cccc13)C(=O)N2)NCCCCCCNC(=O)c1ccc(-c2c3nc(c(-c4cc(S(=O)(=O)[O-])ccc4F)c4ccc([nH]4)c(-c4cc(S(=O)(=O)[O-])ccc4F)c4nc(c(-c5cc(S(=O)(=O)[O-])ccc5F)c5ccc2[nH]5)C=C4)C=C3)cc1
REMARK SMILES IDX 25 1 24 2 23 3 1 4 2 5 3 7 4 8 5 9 6 10 7 12 8 13 9 14 10 15
REMARK SMILES IDX 11 16 19 17 12 18 14 19 18 20 13 21 15 22 17 23 22 24 16 25
REMARK SMILES IDX 20 26 21 28 26 29 27 30 28 31 29 32 30 33 31 34 32 36 33 37
REMARK SMILES IDX 34 38 95 39 35 40 94 41 36 42 37 43 38 44 88 45 39 46 93 47
REMARK SMILES IDX 87 48 89 49 40 50 92 51 86 52 85 53 41 55 73 56 53 57 72 58
REMARK SMILES IDX 54 59 57 60 71 61 90 62 55 63 56 64 70 66 91 67 58 68 42 69
REMARK SMILES IDX 43 70 51 71 44 72 50 73 52 74 49 75 45 76 46 77 47 78 48 79
REMARK SMILES IDX 74 80 75 81 83 82 76 83 82 84 84 85 81 86 77 87 78 88 79 89
REMARK SMILES IDX 80 90 59 91 60 92 68 93 61 94 67 95 69 96 66 97 62 98 63 99
REMARK SMILES IDX 64 100 65 101
REMARK H PARENT 23 6 6 11 22 27 30 35 89 54 57 65
REMARK Flexibility Score: inf
ROOT
ATOM      1  C   UNL A   1      39.201  23.650  26.853  1.00  0.00     0.021 C 
ENDROOT
BRANCH   1   2
ATOM      2  C   UNL A   1      37.918  24.014  26.105  1.00  0.00     0.116 C 
BRANCH   2   3
ATOM      3  N   UNL A   1      36.872  23.036  26.333  1.00  0.00    -0.356 N 
ATOM      4  O   UNL A   1      36.463  22.551  24.122  1.00  0.00    -0.275 OA
ATOM      5  C   UNL A   1      36.226  22.385  25.312  1.00  0.00     0.220 C 
ATOM      6  H   UNL A   1      36.614  22.831  27.260  1.00  0.00     0.163 HD
BRANCH   5   7
ATOM      7  C   UNL A   1      35.178  21.401  25.783  1.00  0.00     0.101 C 
BRANCH   7   8
ATOM      8  C   UNL A   1      34.164  21.062  24.690  1.00  0.00     0.026 C 
BRANCH   8   9
ATOM      9  C   UNL A   1      33.003  22.047  24.567  1.00  0.00     0.099 C 
BRANCH   9  10
ATOM     10  N   UNL A   1      33.412  23.226  23.801  1.00  0.00    -0.211 NA
ATOM     11  H   UNL A   1      33.957  22.886  23.009  1.00  0.00     0.141 HD
BRANCH  10  12
ATOM     12  S   UNL A   1      32.261  24.277  23.178  1.00  0.00     0.241 S 
ATOM     13  O   UNL A   1      32.704  24.583  21.841  1.00  0.00    -0.207 OA
ATOM     14  O   UNL A   1      30.980  23.662  23.441  1.00  0.00    -0.207 OA
BRANCH  12  15
ATOM     15  C   UNL A   1      32.378  25.723  24.191  1.00  0.00     0.090 A 
ATOM     16  C   UNL A   1      33.322  25.715  25.253  1.00  0.00     0.024 A 
ATOM     17  C   UNL A   1      31.579  26.872  23.918  1.00  0.00     0.005 A 
ATOM     18  C   UNL A   1      33.541  26.846  26.056  1.00  0.00     0.028 A 
ATOM     19  C   UNL A   1      31.839  27.936  24.734  1.00  0.00     0.019 A 
ATOM     20  C   UNL A   1      30.555  27.116  22.962  1.00  0.00     0.010 A 
ATOM     21  C   UNL A   1      32.770  27.949  25.750  1.00  0.00     0.050 A 
ATOM     22  C   UNL A   1      31.226  29.179  24.692  1.00  0.00     0.050 A 
ATOM     23  C   UNL A   1      29.904  28.367  22.888  1.00  0.00     0.002 A 
ATOM     24  N   UNL A   1      32.735  29.206  26.325  1.00  0.00    -0.321 N 
ATOM     25  C   UNL A   1      30.231  29.426  23.751  1.00  0.00     0.014 A 
ATOM     26  C   UNL A   1      31.787  30.038  25.714  1.00  0.00     0.256 C 
ATOM     27  H   UNL A   1      33.309  29.483  27.074  1.00  0.00     0.170 HD
ATOM     28  O   UNL A   1      31.565  31.193  26.049  1.00  0.00    -0.269 OA
ENDBRANCH  12  15
ENDBRANCH  10  12
ENDBRANCH   9  10
ENDBRANCH   8   9
ENDBRANCH   7   8
ENDBRANCH   5   7
ENDBRANCH   2   3
ENDBRANCH   1   2
BRANCH   1  29
ATOM     29  C   UNL A   1      39.726  22.236  26.579  1.00  0.00     0.002 C 
BRANCH  29  30
ATOM     30  C   UNL A   1      40.611  21.648  27.684  1.00  0.00     0.002 C 
BRANCH  30  31
ATOM     31  C   UNL A   1      41.234  20.295  27.356  1.00  0.00     0.021 C 
BRANCH  31  32
ATOM     32  C   UNL A   1      41.342  20.006  25.866  1.00  0.00     0.116 C 
BRANCH  32  33
ATOM     33  N   UNL A   1      42.683  19.589  25.478  1.00  0.00    -0.352 N 
ATOM     34  C   UNL A   1      43.820  20.356  25.411  1.00  0.00     0.251 C 
ATOM     35  H   UNL A   1      42.788  18.640  25.235  1.00  0.00     0.163 HD
ATOM     36  O   UNL A   1      44.851  19.920  24.911  1.00  0.00    -0.269 OA
BRANCH  34  37
ATOM     37  C   UNL A   1      43.760  21.733  25.936  1.00  0.00     0.039 A 
ATOM     38  C   UNL A   1      44.179  21.984  27.243  1.00  0.00     0.014 A 
ATOM     39  C   UNL A   1      43.363  22.778  25.094  1.00  0.00     0.014 A 
ATOM     40  C   UNL A   1      44.251  23.302  27.695  1.00  0.00     0.010 A 
ATOM     41  C   UNL A   1      43.496  24.091  25.526  1.00  0.00     0.010 A 
ATOM     42  C   UNL A   1      43.931  24.363  26.831  1.00  0.00    -0.014 A 
BRANCH  42  43
ATOM     43  C   UNL A   1      44.022  25.770  27.282  1.00  0.00     0.031 A 
ATOM     44  C   UNL A   1      45.344  26.479  27.241  1.00  0.00     0.074 A 
ATOM     45  C   UNL A   1      42.938  26.383  27.792  1.00  0.00     0.049 A 
ATOM     46  N   UNL A   1      45.633  27.698  27.605  1.00  0.00    -0.248 NA
ATOM     47  C   UNL A   1      46.496  25.707  26.747  1.00  0.00     0.031 C 
ATOM     48  C   UNL A   1      41.616  25.770  27.936  1.00  0.00     0.029 A 
ATOM     49  N   UNL A   1      42.777  27.649  28.297  1.00  0.00    -0.354 N 
ATOM     50  C   UNL A   1      46.999  27.838  27.397  1.00  0.00     0.074 A 
ATOM     51  C   UNL A   1      47.491  26.563  26.926  1.00  0.00     0.031 C 
ATOM     52  C   UNL A   1      40.778  26.666  28.478  1.00  0.00     0.029 A 
ATOM     53  C   UNL A   1      41.504  27.907  28.746  1.00  0.00     0.049 A 
ATOM     54  H   UNL A   1      43.506  28.310  28.333  1.00  0.00     0.167 HD
ATOM     55  C   UNL A   1      47.768  28.938  27.561  1.00  0.00     0.034 A 
ATOM     56  C   UNL A   1      40.980  29.016  29.306  1.00  0.00     0.034 A 
ATOM     57  C   UNL A   1      47.260  30.207  28.009  1.00  0.00     0.049 A 
ATOM     58  C   UNL A   1      41.847  30.239  29.465  1.00  0.00     0.074 A 
ATOM     59  C   UNL A   1      47.941  31.406  28.119  1.00  0.00     0.029 A 
ATOM     60  N   UNL A   1      45.958  30.444  28.424  1.00  0.00    -0.354 N 
ATOM     61  N   UNL A   1      43.111  30.395  29.149  1.00  0.00    -0.248 NA
ATOM     62  C   UNL A   1      41.222  31.438  30.039  1.00  0.00     0.031 C 
ATOM     63  C   UNL A   1      47.067  32.352  28.656  1.00  0.00     0.029 A 
ATOM     64  C   UNL A   1      45.824  31.762  28.822  1.00  0.00     0.049 A 
ATOM     65  H   UNL A   1      45.237  29.773  28.433  1.00  0.00     0.167 HD
ATOM     66  C   UNL A   1      43.426  31.714  29.460  1.00  0.00     0.074 A 
ATOM     67  C   UNL A   1      42.216  32.317  29.980  1.00  0.00     0.031 C 
ATOM     68  C   UNL A   1      44.610  32.362  29.325  1.00  0.00     0.034 A 
BRANCH  55  69
ATOM     69  C   UNL A   1      49.234  28.838  27.240  1.00  0.00     0.023 A 
ATOM     70  C   UNL A   1      49.658  28.811  25.900  1.00  0.00     0.031 A 
ATOM     71  C   UNL A   1      50.198  28.674  28.251  1.00  0.00     0.131 A 
ATOM     72  C   UNL A   1      51.010  28.604  25.605  1.00  0.00     0.055 A 
ATOM     73  C   UNL A   1      51.550  28.504  27.952  1.00  0.00     0.041 A 
ATOM     74  F   UNL A   1      49.840  28.696  29.545  1.00  0.00    -0.206 F 
ATOM     75  C   UNL A   1      51.959  28.458  26.623  1.00  0.00     0.022 A 
BRANCH  72  76
ATOM     76  S   UNL A   1      51.585  28.476  23.890  1.00  0.00     0.124 S 
ATOM     77  O   UNL A   1      50.326  28.329  23.162  1.00  0.00    -0.237 OA
ATOM     78  O   UNL A   1      52.268  29.752  23.703  1.00  0.00    -0.237 OA
ATOM     79  O   UNL A   1      52.440  27.295  23.893  1.00  0.00    -0.744 OA
ENDBRANCH  72  76
ENDBRANCH  55  69
BRANCH  56  80
ATOM     80  C   UNL A   1      39.535  29.019  29.670  1.00  0.00     0.023 A 
ATOM     81  C   UNL A   1      38.577  29.605  28.824  1.00  0.00     0.031 A 
ATOM     82  C   UNL A   1      39.118  28.557  30.928  1.00  0.00     0.131 A 
ATOM     83  C   UNL A   1      37.262  29.776  29.278  1.00  0.00     0.055 A 
ATOM     84  C   UNL A   1      37.794  28.675  31.353  1.00  0.00     0.041 A 
ATOM     85  F   UNL A   1      40.003  28.004  31.772  1.00  0.00    -0.206 F 
ATOM     86  C   UNL A   1      36.861  29.301  30.531  1.00  0.00     0.022 A 
BRANCH  83  87
ATOM     87  S   UNL A   1      36.057  30.711  28.297  1.00  0.00     0.124 S 
ATOM     88  O   UNL A   1      35.594  29.711  27.339  1.00  0.00    -0.237 OA
ATOM     89  O   UNL A   1      35.089  31.101  29.319  1.00  0.00    -0.237 OA
ATOM     90  O   UNL A   1      36.844  31.801  27.732  1.00  0.00    -0.744 OA
ENDBRANCH  83  87
ENDBRANCH  56  80
BRANCH  68  91
ATOM     91  C   UNL A   1      44.696  33.813  29.728  1.00  0.00     0.023 A 
ATOM     92  C   UNL A   1      44.412  34.819  28.785  1.00  0.00     0.031 A 
ATOM     93  C   UNL A   1      45.230  34.194  30.971  1.00  0.00     0.131 A 
ATOM     94  C   UNL A   1      44.710  36.154  29.081  1.00  0.00     0.055 A 
ATOM     95  C   UNL A   1      45.484  35.531  31.277  1.00  0.00     0.041 A 
ATOM     96  F   UNL A   1      45.527  33.268  31.897  1.00  0.00    -0.206 F 
ATOM     97  C   UNL A   1      45.237  36.516  30.324  1.00  0.00     0.022 A 
BRANCH  94  98
ATOM     98  S   UNL A   1      44.498  37.456  27.836  1.00  0.00     0.124 S 
ATOM     99  O   UNL A   1      43.431  36.909  27.002  1.00  0.00    -0.237 OA
ATOM    100  O   UNL A   1      44.122  38.605  28.656  1.00  0.00    -0.237 OA
ATOM    101  O   UNL A   1      45.805  37.544  27.192  1.00  0.00    -0.744 OA
ENDBRANCH  94  98
ENDBRANCH  68  91
ENDBRANCH  42  43
ENDBRANCH  34  37
ENDBRANCH  32  33
ENDBRANCH  31  32
ENDBRANCH  30  31
ENDBRANCH  29  30
ENDBRANCH   1  29
TORSDOF 21
ENDMDL
