MODEL 1
REMARK VINA RESULT:     -11.0      0.000      0.000
REMARK SMILES CCS(=O)(=O)N[C@H]1C=C[C@@H](C(=O)NCCCCCCNC(=O)c2ccc(-c3c4nc(c(-c5cc(S(=O)(=O)[O-])ccc5F)c5ccc([nH]5)c(-c5cc(S(=O)(=O)[O-])ccc5F)c5nc(c(-c6cc(S(=O)(=O)[O-])ccc6F)c6ccc3[nH]6)C=C5)C=C4)cc2)C1
REMARK SMILES IDX 16 1 15 2 14 3 13 4 11 5 12 6 10 8 7 9 8 10 86 11 9 12 6 13
REMARK SMILES IDX 3 15 4 16 5 17 2 18 1 19 17 20 18 21 19 22 20 23 21 24 22 26
REMARK SMILES IDX 23 27 24 28 85 29 25 30 84 31 26 32 27 33 28 34 78 35 29 36
REMARK SMILES IDX 83 37 77 38 79 39 30 40 82 41 76 42 75 43 31 45 63 46 43 47
REMARK SMILES IDX 62 48 44 49 47 50 61 51 80 52 45 53 46 54 60 56 81 57 48 58
REMARK SMILES IDX 32 59 33 60 41 61 34 62 40 63 42 64 39 65 35 66 36 67 37 68
REMARK SMILES IDX 38 69 64 70 65 71 73 72 66 73 72 74 74 75 71 76 67 77 68 78
REMARK SMILES IDX 69 79 70 80 49 81 50 82 58 83 51 84 57 85 59 86 56 87 52 88
REMARK SMILES IDX 53 89 54 90 55 91
REMARK H PARENT 13 7 6 14 20 25 79 44 47 55
REMARK Flexibility Score: inf
ROOT
ATOM      1  C   UNL A   1      31.515  28.713  25.998  1.00  0.00     0.002 C 
ENDROOT
BRANCH   1   2
ATOM      2  C   UNL A   1      32.543  27.764  26.622  1.00  0.00     0.021 C 
BRANCH   2   3
ATOM      3  C   UNL A   1      32.590  26.372  25.995  1.00  0.00     0.116 C 
BRANCH   3   4
ATOM      4  N   UNL A   1      31.610  25.466  26.545  1.00  0.00    -0.356 N 
ATOM      5  C   UNL A   1      31.589  24.111  26.610  1.00  0.00     0.226 C 
ATOM      6  O   UNL A   1      30.740  23.621  27.369  1.00  0.00    -0.274 OA
ATOM      7  H   UNL A   1      30.823  25.906  26.941  1.00  0.00     0.163 HD
BRANCH   5   8
ATOM      8  C   UNL A   1      32.561  23.163  25.880  1.00  0.00     0.103 C 
ATOM      9  C   UNL A   1      33.120  20.818  25.406  1.00  0.00     0.093 C 
ATOM     10  C   UNL A   1      32.436  21.473  24.259  1.00  0.00    -0.011 C 
ATOM     11  C   UNL A   1      33.077  21.866  26.529  1.00  0.00     0.042 C 
ATOM     12  C   UNL A   1      32.081  22.733  24.527  1.00  0.00    -0.016 C 
BRANCH   9  13
ATOM     13  N   UNL A   1      32.557  19.483  25.575  1.00  0.00    -0.208 NA
ATOM     14  H   UNL A   1      32.948  19.166  26.462  1.00  0.00     0.141 HD
BRANCH  13  15
ATOM     15  S   UNL A   1      32.618  18.142  24.622  1.00  0.00     0.211 S 
ATOM     16  O   UNL A   1      32.054  18.453  23.329  1.00  0.00    -0.212 OA
ATOM     17  O   UNL A   1      31.987  17.126  25.436  1.00  0.00    -0.212 OA
BRANCH  15  18
ATOM     18  C   UNL A   1      34.335  17.633  24.432  1.00  0.00     0.150 C 
ATOM     19  C   UNL A   1      34.779  16.322  25.031  1.00  0.00     0.022 C 
ENDBRANCH  15  18
ENDBRANCH  13  15
ENDBRANCH   9  13
ENDBRANCH   5   8
ENDBRANCH   3   4
ENDBRANCH   2   3
ENDBRANCH   1   2
BRANCH   1  20
ATOM     20  C   UNL A   1      32.047  30.093  25.587  1.00  0.00     0.002 C 
BRANCH  20  21
ATOM     21  C   UNL A   1      31.693  31.260  26.514  1.00  0.00     0.021 C 
BRANCH  21  22
ATOM     22  C   UNL A   1      32.877  31.978  27.158  1.00  0.00     0.116 C 
BRANCH  22  23
ATOM     23  N   UNL A   1      32.590  33.378  27.425  1.00  0.00    -0.352 N 
ATOM     24  C   UNL A   1      33.134  34.221  28.365  1.00  0.00     0.251 C 
ATOM     25  H   UNL A   1      31.904  33.782  26.847  1.00  0.00     0.163 HD
ATOM     26  O   UNL A   1      32.616  35.315  28.571  1.00  0.00    -0.269 OA
BRANCH  24  27
ATOM     27  C   UNL A   1      34.323  33.801  29.140  1.00  0.00     0.039 A 
ATOM     28  C   UNL A   1      34.155  32.967  30.249  1.00  0.00     0.014 A 
ATOM     29  C   UNL A   1      35.601  34.233  28.777  1.00  0.00     0.014 A 
ATOM     30  C   UNL A   1      35.275  32.506  30.950  1.00  0.00     0.010 A 
ATOM     31  C   UNL A   1      36.718  33.717  29.433  1.00  0.00     0.010 A 
ATOM     32  C   UNL A   1      36.568  32.845  30.524  1.00  0.00    -0.014 A 
BRANCH  32  33
ATOM     33  C   UNL A   1      37.786  32.315  31.196  1.00  0.00     0.031 A 
ATOM     34  C   UNL A   1      38.540  31.170  30.571  1.00  0.00     0.074 A 
ATOM     35  C   UNL A   1      38.157  32.795  32.400  1.00  0.00     0.049 A 
ATOM     36  N   UNL A   1      39.520  30.458  31.064  1.00  0.00    -0.248 NA
ATOM     37  C   UNL A   1      38.115  30.757  29.224  1.00  0.00     0.031 C 
ATOM     38  C   UNL A   1      37.506  33.899  33.109  1.00  0.00     0.029 A 
ATOM     39  N   UNL A   1      39.159  32.403  33.254  1.00  0.00    -0.354 N 
ATOM     40  C   UNL A   1      39.807  29.492  30.104  1.00  0.00     0.074 A 
ATOM     41  C   UNL A   1      38.874  29.691  29.016  1.00  0.00     0.031 C 
ATOM     42  C   UNL A   1      38.133  34.102  34.280  1.00  0.00     0.029 A 
ATOM     43  C   UNL A   1      39.187  33.106  34.440  1.00  0.00     0.049 A 
ATOM     44  H   UNL A   1      39.801  31.687  33.040  1.00  0.00     0.167 HD
ATOM     45  C   UNL A   1      40.766  28.535  30.130  1.00  0.00     0.034 A 
ATOM     46  C   UNL A   1      39.952  32.945  35.540  1.00  0.00     0.034 A 
ATOM     47  C   UNL A   1      41.703  28.367  31.213  1.00  0.00     0.049 A 
ATOM     48  C   UNL A   1      40.976  31.833  35.560  1.00  0.00     0.074 A 
ATOM     49  C   UNL A   1      42.758  27.476  31.303  1.00  0.00     0.029 A 
ATOM     50  N   UNL A   1      41.691  29.092  32.397  1.00  0.00    -0.354 N 
ATOM     51  N   UNL A   1      41.265  30.958  34.624  1.00  0.00    -0.248 NA
ATOM     52  C   UNL A   1      41.779  31.686  36.783  1.00  0.00     0.031 C 
ATOM     53  C   UNL A   1      43.327  27.599  32.572  1.00  0.00     0.029 A 
ATOM     54  C   UNL A   1      42.693  28.635  33.239  1.00  0.00     0.049 A 
ATOM     55  H   UNL A   1      41.064  29.821  32.608  1.00  0.00     0.167 HD
ATOM     56  C   UNL A   1      42.317  30.196  35.128  1.00  0.00     0.074 A 
ATOM     57  C   UNL A   1      42.612  30.711  36.447  1.00  0.00     0.031 C 
ATOM     58  C   UNL A   1      42.987  29.169  34.548  1.00  0.00     0.034 A 
BRANCH  45  59
ATOM     59  C   UNL A   1      40.828  27.564  28.975  1.00  0.00     0.023 A 
ATOM     60  C   UNL A   1      41.761  27.700  27.933  1.00  0.00     0.031 A 
ATOM     61  C   UNL A   1      39.945  26.469  28.930  1.00  0.00     0.131 A 
ATOM     62  C   UNL A   1      41.752  26.791  26.865  1.00  0.00     0.055 A 
ATOM     63  C   UNL A   1      39.994  25.523  27.906  1.00  0.00     0.041 A 
ATOM     64  F   UNL A   1      39.017  26.301  29.885  1.00  0.00    -0.206 F 
ATOM     65  C   UNL A   1      40.895  25.688  26.858  1.00  0.00     0.022 A 
BRANCH  62  66
ATOM     66  S   UNL A   1      42.797  27.135  25.423  1.00  0.00     0.124 S 
ATOM     67  O   UNL A   1      42.119  28.288  24.836  1.00  0.00    -0.237 OA
ATOM     68  O   UNL A   1      44.097  27.400  26.030  1.00  0.00    -0.237 OA
ATOM     69  O   UNL A   1      42.715  25.905  24.637  1.00  0.00    -0.744 OA
ENDBRANCH  62  66
ENDBRANCH  45  59
BRANCH  46  70
ATOM     70  C   UNL A   1      39.778  33.825  36.734  1.00  0.00     0.023 A 
ATOM     71  C   UNL A   1      40.673  34.877  36.987  1.00  0.00     0.031 A 
ATOM     72  C   UNL A   1      38.773  33.577  37.688  1.00  0.00     0.131 A 
ATOM     73  C   UNL A   1      40.596  35.591  38.192  1.00  0.00     0.055 A 
ATOM     74  C   UNL A   1      38.656  34.339  38.854  1.00  0.00     0.041 A 
ATOM     75  F   UNL A   1      37.890  32.584  37.504  1.00  0.00    -0.206 F 
ATOM     76  C   UNL A   1      39.583  35.340  39.120  1.00  0.00     0.022 A 
BRANCH  73  77
ATOM     77  S   UNL A   1      41.925  36.760  38.592  1.00  0.00     0.124 S 
ATOM     78  O   UNL A   1      42.350  37.186  37.263  1.00  0.00    -0.237 OA
ATOM     79  O   UNL A   1      41.221  37.756  39.393  1.00  0.00    -0.237 OA
ATOM     80  O   UNL A   1      42.889  35.941  39.324  1.00  0.00    -0.744 OA
ENDBRANCH  73  77
ENDBRANCH  46  70
BRANCH  58  81
ATOM     81  C   UNL A   1      44.161  28.586  35.296  1.00  0.00     0.023 A 
ATOM     82  C   UNL A   1      44.013  27.562  36.247  1.00  0.00     0.031 A 
ATOM     83  C   UNL A   1      45.461  29.051  35.022  1.00  0.00     0.131 A 
ATOM     84  C   UNL A   1      45.142  27.061  36.914  1.00  0.00     0.055 A 
ATOM     85  C   UNL A   1      46.585  28.508  35.643  1.00  0.00     0.041 A 
ATOM     86  F   UNL A   1      45.661  30.032  34.126  1.00  0.00    -0.206 F 
ATOM     87  C   UNL A   1      46.428  27.512  36.601  1.00  0.00     0.022 A 
BRANCH  84  88
ATOM     88  S   UNL A   1      44.907  25.855  38.248  1.00  0.00     0.124 S 
ATOM     89  O   UNL A   1      44.322  26.678  39.302  1.00  0.00    -0.237 OA
ATOM     90  O   UNL A   1      44.016  24.877  37.633  1.00  0.00    -0.237 OA
ATOM     91  O   UNL A   1      46.261  25.373  38.518  1.00  0.00    -0.744 OA
ENDBRANCH  84  88
ENDBRANCH  58  81
ENDBRANCH  32  33
ENDBRANCH  24  27
ENDBRANCH  22  23
ENDBRANCH  21  22
ENDBRANCH  20  21
ENDBRANCH   1  20
TORSDOF 19
ENDMDL
MODEL 2
REMARK VINA RESULT:     -10.6      2.030      2.351
REMARK SMILES CCS(=O)(=O)N[C@H]1C=C[C@@H](C(=O)NCCCCCCNC(=O)c2ccc(-c3c4nc(c(-c5cc(S(=O)(=O)[O-])ccc5F)c5ccc([nH]5)c(-c5cc(S(=O)(=O)[O-])ccc5F)c5nc(c(-c6cc(S(=O)(=O)[O-])ccc6F)c6ccc3[nH]6)C=C5)C=C4)cc2)C1
REMARK SMILES IDX 16 1 15 2 14 3 13 4 11 5 12 6 10 8 7 9 8 10 86 11 9 12 6 13
REMARK SMILES IDX 3 15 4 16 5 17 2 18 1 19 17 20 18 21 19 22 20 23 21 24 22 26
REMARK SMILES IDX 23 27 24 28 85 29 25 30 84 31 26 32 27 33 28 34 78 35 29 36
REMARK SMILES IDX 83 37 77 38 79 39 30 40 82 41 76 42 75 43 31 45 63 46 43 47
REMARK SMILES IDX 62 48 44 49 47 50 61 51 80 52 45 53 46 54 60 56 81 57 48 58
REMARK SMILES IDX 32 59 33 60 41 61 34 62 40 63 42 64 39 65 35 66 36 67 37 68
REMARK SMILES IDX 38 69 64 70 65 71 73 72 66 73 72 74 74 75 71 76 67 77 68 78
REMARK SMILES IDX 69 79 70 80 49 81 50 82 58 83 51 84 57 85 59 86 56 87 52 88
REMARK SMILES IDX 53 89 54 90 55 91
REMARK H PARENT 13 7 6 14 20 25 79 44 47 55
REMARK Flexibility Score: inf
ROOT
ATOM      1  C   UNL A   1      31.554  28.664  26.001  1.00  0.00     0.002 C 
ENDROOT
BRANCH   1   2
ATOM      2  C   UNL A   1      31.283  27.237  26.485  1.00  0.00     0.021 C 
BRANCH   2   3
ATOM      3  C   UNL A   1      30.259  26.464  25.657  1.00  0.00     0.116 C 
BRANCH   3   4
ATOM      4  N   UNL A   1      29.788  25.265  26.307  1.00  0.00    -0.356 N 
ATOM      5  C   UNL A   1      30.339  24.028  26.399  1.00  0.00     0.226 C 
ATOM      6  O   UNL A   1      29.827  23.272  27.238  1.00  0.00    -0.274 OA
ATOM      7  H   UNL A   1      28.920  25.360  26.762  1.00  0.00     0.163 HD
BRANCH   5   8
ATOM      8  C   UNL A   1      31.562  23.529  25.603  1.00  0.00     0.103 C 
ATOM      9  C   UNL A   1      32.641  21.577  24.575  1.00  0.00     0.093 C 
ATOM     10  C   UNL A   1      31.972  22.443  23.566  1.00  0.00    -0.011 C 
ATOM     11  C   UNL A   1      32.256  22.193  25.927  1.00  0.00     0.042 C 
ATOM     12  C   UNL A   1      31.337  23.479  24.123  1.00  0.00    -0.016 C 
BRANCH   9  13
ATOM     13  N   UNL A   1      32.349  20.185  24.249  1.00  0.00    -0.208 NA
ATOM     14  H   UNL A   1      31.396  20.053  24.589  1.00  0.00     0.141 HD
BRANCH  13  15
ATOM     15  S   UNL A   1      33.108  18.783  24.661  1.00  0.00     0.211 S 
ATOM     16  O   UNL A   1      32.482  18.233  25.840  1.00  0.00    -0.212 OA
ATOM     17  O   UNL A   1      34.502  19.166  24.720  1.00  0.00    -0.212 OA
BRANCH  15  18
ATOM     18  C   UNL A   1      32.969  17.617  23.295  1.00  0.00     0.150 C 
ATOM     19  C   UNL A   1      34.020  16.548  23.138  1.00  0.00     0.022 C 
ENDBRANCH  15  18
ENDBRANCH  13  15
ENDBRANCH   9  13
ENDBRANCH   5   8
ENDBRANCH   3   4
ENDBRANCH   2   3
ENDBRANCH   1   2
BRANCH   1  20
ATOM     20  C   UNL A   1      32.370  29.547  26.955  1.00  0.00     0.002 C 
BRANCH  20  21
ATOM     21  C   UNL A   1      32.031  31.041  26.954  1.00  0.00     0.021 C 
BRANCH  21  22
ATOM     22  C   UNL A   1      33.219  31.989  27.098  1.00  0.00     0.116 C 
BRANCH  22  23
ATOM     23  N   UNL A   1      32.811  33.318  27.528  1.00  0.00    -0.352 N 
ATOM     24  C   UNL A   1      33.259  34.073  28.585  1.00  0.00     0.251 C 
ATOM     25  H   UNL A   1      32.111  33.737  26.979  1.00  0.00     0.163 HD
ATOM     26  O   UNL A   1      32.647  35.088  28.907  1.00  0.00    -0.269 OA
BRANCH  24  27
ATOM     27  C   UNL A   1      34.456  33.651  29.346  1.00  0.00     0.039 A 
ATOM     28  C   UNL A   1      34.305  32.772  30.423  1.00  0.00     0.014 A 
ATOM     29  C   UNL A   1      35.725  34.125  29.002  1.00  0.00     0.014 A 
ATOM     30  C   UNL A   1      35.435  32.311  31.108  1.00  0.00     0.010 A 
ATOM     31  C   UNL A   1      36.851  33.610  29.640  1.00  0.00     0.010 A 
ATOM     32  C   UNL A   1      36.720  32.694  30.697  1.00  0.00    -0.014 A 
BRANCH  32  33
ATOM     33  C   UNL A   1      37.950  32.167  31.351  1.00  0.00     0.031 A 
ATOM     34  C   UNL A   1      38.734  31.069  30.681  1.00  0.00     0.074 A 
ATOM     35  C   UNL A   1      38.304  32.603  32.576  1.00  0.00     0.049 A 
ATOM     36  N   UNL A   1      39.730  30.361  31.147  1.00  0.00    -0.248 NA
ATOM     37  C   UNL A   1      38.324  30.703  29.316  1.00  0.00     0.031 C 
ATOM     38  C   UNL A   1      37.624  33.660  33.329  1.00  0.00     0.029 A 
ATOM     39  N   UNL A   1      39.314  32.201  33.417  1.00  0.00    -0.354 N 
ATOM     40  C   UNL A   1      40.044  29.444  30.148  1.00  0.00     0.074 A 
ATOM     41  C   UNL A   1      39.110  29.666  29.066  1.00  0.00     0.031 C 
ATOM     42  C   UNL A   1      38.242  33.829  34.509  1.00  0.00     0.029 A 
ATOM     43  C   UNL A   1      39.320  32.853  34.631  1.00  0.00     0.049 A 
ATOM     44  H   UNL A   1      39.974  31.511  33.174  1.00  0.00     0.167 HD
ATOM     45  C   UNL A   1      41.027  28.511  30.137  1.00  0.00     0.034 A 
ATOM     46  C   UNL A   1      40.085  32.664  35.727  1.00  0.00     0.034 A 
ATOM     47  C   UNL A   1      41.964  28.321  31.215  1.00  0.00     0.049 A 
ATOM     48  C   UNL A   1      41.137  31.578  35.703  1.00  0.00     0.074 A 
ATOM     49  C   UNL A   1      43.042  27.453  31.271  1.00  0.00     0.029 A 
ATOM     50  N   UNL A   1      41.931  28.994  32.429  1.00  0.00    -0.354 N 
ATOM     51  N   UNL A   1      41.451  30.752  34.732  1.00  0.00    -0.248 NA
ATOM     52  C   UNL A   1      41.940  31.399  36.922  1.00  0.00     0.031 C 
ATOM     53  C   UNL A   1      43.603  27.536  32.547  1.00  0.00     0.029 A 
ATOM     54  C   UNL A   1      42.942  28.527  33.255  1.00  0.00     0.049 A 
ATOM     55  H   UNL A   1      41.285  29.697  32.668  1.00  0.00     0.167 HD
ATOM     56  C   UNL A   1      42.521  29.995  35.207  1.00  0.00     0.074 A 
ATOM     57  C   UNL A   1      42.798  30.461  36.549  1.00  0.00     0.031 C 
ATOM     58  C   UNL A   1      43.218  29.012  34.587  1.00  0.00     0.034 A 
BRANCH  45  59
ATOM     59  C   UNL A   1      41.117  27.592  28.942  1.00  0.00     0.023 A 
ATOM     60  C   UNL A   1      42.087  27.763  27.940  1.00  0.00     0.031 A 
ATOM     61  C   UNL A   1      40.223  26.514  28.817  1.00  0.00     0.131 A 
ATOM     62  C   UNL A   1      42.104  26.902  26.831  1.00  0.00     0.055 A 
ATOM     63  C   UNL A   1      40.295  25.614  27.753  1.00  0.00     0.041 A 
ATOM     64  F   UNL A   1      39.259  26.315  29.731  1.00  0.00    -0.206 F 
ATOM     65  C   UNL A   1      41.234  25.812  26.745  1.00  0.00     0.022 A 
BRANCH  62  66
ATOM     66  S   UNL A   1      43.202  27.296  25.443  1.00  0.00     0.124 S 
ATOM     67  O   UNL A   1      43.533  25.965  24.942  1.00  0.00    -0.237 OA
ATOM     68  O   UNL A   1      42.348  28.108  24.584  1.00  0.00    -0.237 OA
ATOM     69  O   UNL A   1      44.311  28.010  26.074  1.00  0.00    -0.744 OA
ENDBRANCH  62  66
ENDBRANCH  45  59
BRANCH  46  70
ATOM     70  C   UNL A   1      39.886  33.488  36.956  1.00  0.00     0.023 A 
ATOM     71  C   UNL A   1      39.320  32.926  38.112  1.00  0.00     0.031 A 
ATOM     72  C   UNL A   1      40.171  34.866  36.971  1.00  0.00     0.131 A 
ATOM     73  C   UNL A   1      38.988  33.745  39.202  1.00  0.00     0.055 A 
ATOM     74  C   UNL A   1      39.905  35.665  38.087  1.00  0.00     0.041 A 
ATOM     75  F   UNL A   1      40.710  35.461  35.896  1.00  0.00    -0.206 F 
ATOM     76  C   UNL A   1      39.292  35.108  39.204  1.00  0.00     0.022 A 
BRANCH  73  77
ATOM     77  S   UNL A   1      38.026  33.028  40.563  1.00  0.00     0.124 S 
ATOM     78  O   UNL A   1      36.670  33.429  40.207  1.00  0.00    -0.237 OA
ATOM     79  O   UNL A   1      38.333  31.607  40.435  1.00  0.00    -0.237 OA
ATOM     80  O   UNL A   1      38.579  33.679  41.749  1.00  0.00    -0.744 OA
ENDBRANCH  73  77
ENDBRANCH  46  70
BRANCH  58  81
ATOM     81  C   UNL A   1      44.404  28.427  35.314  1.00  0.00     0.023 A 
ATOM     82  C   UNL A   1      45.697  28.965  35.199  1.00  0.00     0.031 A 
ATOM     83  C   UNL A   1      44.221  27.322  36.166  1.00  0.00     0.131 A 
ATOM     84  C   UNL A   1      46.763  28.375  35.897  1.00  0.00     0.055 A 
ATOM     85  C   UNL A   1      45.272  26.778  36.904  1.00  0.00     0.041 A 
ATOM     86  F   UNL A   1      43.008  26.764  36.310  1.00  0.00    -0.206 F 
ATOM     87  C   UNL A   1      46.553  27.300  36.766  1.00  0.00     0.022 A 
BRANCH  84  88
ATOM     88  S   UNL A   1      48.446  28.988  35.607  1.00  0.00     0.124 S 
ATOM     89  O   UNL A   1      49.128  28.592  36.835  1.00  0.00    -0.237 OA
ATOM     90  O   UNL A   1      48.838  28.269  34.399  1.00  0.00    -0.237 OA
ATOM     91  O   UNL A   1      48.261  30.428  35.436  1.00  0.00    -0.744 OA
ENDBRANCH  84  88
ENDBRANCH  58  81
ENDBRANCH  32  33
ENDBRANCH  24  27
ENDBRANCH  22  23
ENDBRANCH  21  22
ENDBRANCH  20  21
ENDBRANCH   1  20
TORSDOF 19
ENDMDL
MODEL 3
REMARK VINA RESULT:     -10.5      4.647     11.183
REMARK SMILES CCS(=O)(=O)N[C@H]1C=C[C@@H](C(=O)NCCCCCCNC(=O)c2ccc(-c3c4nc(c(-c5cc(S(=O)(=O)[O-])ccc5F)c5ccc([nH]5)c(-c5cc(S(=O)(=O)[O-])ccc5F)c5nc(c(-c6cc(S(=O)(=O)[O-])ccc6F)c6ccc3[nH]6)C=C5)C=C4)cc2)C1
REMARK SMILES IDX 16 1 15 2 14 3 13 4 11 5 12 6 10 8 7 9 8 10 86 11 9 12 6 13
REMARK SMILES IDX 3 15 4 16 5 17 2 18 1 19 17 20 18 21 19 22 20 23 21 24 22 26
REMARK SMILES IDX 23 27 24 28 85 29 25 30 84 31 26 32 27 33 28 34 78 35 29 36
REMARK SMILES IDX 83 37 77 38 79 39 30 40 82 41 76 42 75 43 31 45 63 46 43 47
REMARK SMILES IDX 62 48 44 49 47 50 61 51 80 52 45 53 46 54 60 56 81 57 48 58
REMARK SMILES IDX 32 59 33 60 41 61 34 62 40 63 42 64 39 65 35 66 36 67 37 68
REMARK SMILES IDX 38 69 64 70 65 71 73 72 66 73 72 74 74 75 71 76 67 77 68 78
REMARK SMILES IDX 69 79 70 80 49 81 50 82 58 83 51 84 57 85 59 86 56 87 52 88
REMARK SMILES IDX 53 89 54 90 55 91
REMARK H PARENT 13 7 6 14 20 25 79 44 47 55
REMARK Flexibility Score: inf
ROOT
ATOM      1  C   UNL A   1      37.436  33.308  29.482  1.00  0.00     0.002 C 
ENDROOT
BRANCH   1   2
ATOM      2  C   UNL A   1      38.628  33.726  30.348  1.00  0.00     0.021 C 
BRANCH   2   3
ATOM      3  C   UNL A   1      38.275  34.624  31.532  1.00  0.00     0.116 C 
BRANCH   3   4
ATOM      4  N   UNL A   1      38.917  34.225  32.761  1.00  0.00    -0.356 N 
ATOM      5  C   UNL A   1      38.399  33.754  33.924  1.00  0.00     0.226 C 
ATOM      6  O   UNL A   1      39.213  33.254  34.713  1.00  0.00    -0.274 OA
ATOM      7  H   UNL A   1      39.898  34.308  32.756  1.00  0.00     0.163 HD
BRANCH   5   8
ATOM      8  C   UNL A   1      36.903  33.737  34.296  1.00  0.00     0.103 C 
ATOM      9  C   UNL A   1      34.640  34.384  33.591  1.00  0.00     0.093 C 
ATOM     10  C   UNL A   1      34.901  32.936  33.374  1.00  0.00    -0.011 C 
ATOM     11  C   UNL A   1      35.989  34.953  34.055  1.00  0.00     0.042 C 
ATOM     12  C   UNL A   1      36.148  32.586  33.706  1.00  0.00    -0.016 C 
BRANCH   9  13
ATOM     13  N   UNL A   1      33.944  34.905  32.419  1.00  0.00    -0.208 NA
ATOM     14  H   UNL A   1      34.700  35.151  31.780  1.00  0.00     0.141 HD
BRANCH  13  15
ATOM     15  S   UNL A   1      32.869  36.139  32.244  1.00  0.00     0.211 S 
ATOM     16  O   UNL A   1      32.951  37.006  33.395  1.00  0.00    -0.212 OA
ATOM     17  O   UNL A   1      31.624  35.457  31.966  1.00  0.00    -0.212 OA
BRANCH  15  18
ATOM     18  C   UNL A   1      33.274  37.064  30.752  1.00  0.00     0.150 C 
ATOM     19  C   UNL A   1      32.892  36.491  29.411  1.00  0.00     0.022 C 
ENDBRANCH  15  18
ENDBRANCH  13  15
ENDBRANCH   9  13
ENDBRANCH   5   8
ENDBRANCH   3   4
ENDBRANCH   2   3
ENDBRANCH   1   2
BRANCH   1  20
ATOM     20  C   UNL A   1      36.069  33.323  30.181  1.00  0.00     0.002 C 
BRANCH  20  21
ATOM     21  C   UNL A   1      34.859  33.639  29.296  1.00  0.00     0.021 C 
BRANCH  21  22
ATOM     22  C   UNL A   1      34.956  33.166  27.848  1.00  0.00     0.116 C 
BRANCH  22  23
ATOM     23  N   UNL A   1      34.107  32.013  27.590  1.00  0.00    -0.352 N 
ATOM     24  C   UNL A   1      34.404  30.673  27.651  1.00  0.00     0.251 C 
ATOM     25  H   UNL A   1      33.182  32.226  27.332  1.00  0.00     0.163 HD
ATOM     26  O   UNL A   1      33.610  29.854  27.199  1.00  0.00    -0.269 OA
BRANCH  24  27
ATOM     27  C   UNL A   1      35.687  30.223  28.237  1.00  0.00     0.039 A 
ATOM     28  C   UNL A   1      35.716  29.793  29.567  1.00  0.00     0.014 A 
ATOM     29  C   UNL A   1      36.861  30.231  27.478  1.00  0.00     0.014 A 
ATOM     30  C   UNL A   1      36.907  29.301  30.113  1.00  0.00     0.010 A 
ATOM     31  C   UNL A   1      38.026  29.675  28.002  1.00  0.00     0.010 A 
ATOM     32  C   UNL A   1      38.062  29.200  29.323  1.00  0.00    -0.014 A 
BRANCH  32  33
ATOM     33  C   UNL A   1      39.327  28.612  29.844  1.00  0.00     0.031 A 
ATOM     34  C   UNL A   1      40.021  29.260  31.014  1.00  0.00     0.074 A 
ATOM     35  C   UNL A   1      39.895  27.564  29.215  1.00  0.00     0.049 A 
ATOM     36  N   UNL A   1      41.202  29.011  31.517  1.00  0.00    -0.248 NA
ATOM     37  C   UNL A   1      39.298  30.351  31.688  1.00  0.00     0.031 C 
ATOM     38  C   UNL A   1      39.322  26.851  28.070  1.00  0.00     0.029 A 
ATOM     39  N   UNL A   1      41.091  26.924  29.433  1.00  0.00    -0.354 N 
ATOM     40  C   UNL A   1      41.380  29.934  32.543  1.00  0.00     0.074 A 
ATOM     41  C   UNL A   1      40.198  30.769  32.567  1.00  0.00     0.031 C 
ATOM     42  C   UNL A   1      40.159  25.869  27.698  1.00  0.00     0.029 A 
ATOM     43  C   UNL A   1      41.358  25.918  28.530  1.00  0.00     0.049 A 
ATOM     44  H   UNL A   1      41.702  27.161  30.168  1.00  0.00     0.167 HD
ATOM     45  C   UNL A   1      42.431  30.065  33.389  1.00  0.00     0.034 A 
ATOM     46  C   UNL A   1      42.454  25.147  28.369  1.00  0.00     0.034 A 
ATOM     47  C   UNL A   1      43.590  29.208  33.366  1.00  0.00     0.049 A 
ATOM     48  C   UNL A   1      43.632  25.353  29.295  1.00  0.00     0.074 A 
ATOM     49  C   UNL A   1      44.674  29.210  34.226  1.00  0.00     0.029 A 
ATOM     50  N   UNL A   1      43.825  28.209  32.431  1.00  0.00    -0.354 N 
ATOM     51  N   UNL A   1      43.763  26.200  30.290  1.00  0.00    -0.248 NA
ATOM     52  C   UNL A   1      44.809  24.500  29.077  1.00  0.00     0.031 C 
ATOM     53  C   UNL A   1      45.603  28.277  33.760  1.00  0.00     0.029 A 
ATOM     54  C   UNL A   1      45.057  27.621  32.669  1.00  0.00     0.049 A 
ATOM     55  H   UNL A   1      43.208  27.957  31.706  1.00  0.00     0.167 HD
ATOM     56  C   UNL A   1      45.014  25.941  30.846  1.00  0.00     0.074 A 
ATOM     57  C   UNL A   1      45.598  24.863  30.078  1.00  0.00     0.031 C 
ATOM     58  C   UNL A   1      45.621  26.534  31.904  1.00  0.00     0.034 A 
BRANCH  45  59
ATOM     59  C   UNL A   1      42.401  31.199  34.385  1.00  0.00     0.023 A 
ATOM     60  C   UNL A   1      42.883  32.481  34.073  1.00  0.00     0.031 A 
ATOM     61  C   UNL A   1      41.860  30.993  35.667  1.00  0.00     0.131 A 
ATOM     62  C   UNL A   1      42.865  33.490  35.048  1.00  0.00     0.055 A 
ATOM     63  C   UNL A   1      41.773  32.021  36.606  1.00  0.00     0.041 A 
ATOM     64  F   UNL A   1      41.406  29.782  36.031  1.00  0.00    -0.206 F 
ATOM     65  C   UNL A   1      42.287  33.278  36.302  1.00  0.00     0.022 A 
BRANCH  62  66
ATOM     66  S   UNL A   1      43.714  35.053  34.695  1.00  0.00     0.124 S 
ATOM     67  O   UNL A   1      43.337  35.862  35.851  1.00  0.00    -0.237 OA
ATOM     68  O   UNL A   1      45.114  34.646  34.630  1.00  0.00    -0.237 OA
ATOM     69  O   UNL A   1      43.131  35.483  33.426  1.00  0.00    -0.744 OA
ENDBRANCH  62  66
ENDBRANCH  45  59
BRANCH  46  70
ATOM     70  C   UNL A   1      42.524  24.125  27.283  1.00  0.00     0.023 A 
ATOM     71  C   UNL A   1      41.867  22.891  27.415  1.00  0.00     0.031 A 
ATOM     72  C   UNL A   1      43.318  24.324  26.138  1.00  0.00     0.131 A 
ATOM     73  C   UNL A   1      42.073  21.880  26.464  1.00  0.00     0.055 A 
ATOM     74  C   UNL A   1      43.462  23.339  25.157  1.00  0.00     0.041 A 
ATOM     75  F   UNL A   1      43.972  25.482  25.957  1.00  0.00    -0.206 F 
ATOM     76  C   UNL A   1      42.853  22.101  25.327  1.00  0.00     0.022 A 
BRANCH  73  77
ATOM     77  S   UNL A   1      41.418  20.223  26.807  1.00  0.00     0.124 S 
ATOM     78  O   UNL A   1      40.785  20.421  28.106  1.00  0.00    -0.237 OA
ATOM     79  O   UNL A   1      40.518  20.013  25.677  1.00  0.00    -0.237 OA
ATOM     80  O   UNL A   1      42.612  19.381  26.815  1.00  0.00    -0.744 OA
ENDBRANCH  73  77
ENDBRANCH  46  70
BRANCH  58  81
ATOM     81  C   UNL A   1      46.951  25.978  32.352  1.00  0.00     0.023 A 
ATOM     82  C   UNL A   1      47.053  24.897  33.244  1.00  0.00     0.031 A 
ATOM     83  C   UNL A   1      48.142  26.529  31.843  1.00  0.00     0.131 A 
ATOM     84  C   UNL A   1      48.318  24.425  33.628  1.00  0.00     0.055 A 
ATOM     85  C   UNL A   1      49.394  26.017  32.180  1.00  0.00     0.041 A 
ATOM     86  F   UNL A   1      48.105  27.567  30.990  1.00  0.00    -0.206 F 
ATOM     87  C   UNL A   1      49.488  24.964  33.083  1.00  0.00     0.022 A 
BRANCH  84  88
ATOM     88  S   UNL A   1      48.423  23.137  34.901  1.00  0.00     0.124 S 
ATOM     89  O   UNL A   1      47.112  22.505  34.801  1.00  0.00    -0.237 OA
ATOM     90  O   UNL A   1      49.554  22.336  34.444  1.00  0.00    -0.237 OA
ATOM     91  O   UNL A   1      48.657  23.890  36.132  1.00  0.00    -0.744 OA
ENDBRANCH  84  88
ENDBRANCH  58  81
ENDBRANCH  32  33
ENDBRANCH  24  27
ENDBRANCH  22  23
ENDBRANCH  21  22
ENDBRANCH  20  21
ENDBRANCH   1  20
TORSDOF 19
ENDMDL
