MODEL 1
REMARK VINA RESULT:     -11.7      0.000      0.000
REMARK SMILES O=C(C[NH+]1CCN(c2ncc(C(F)(F)F)cc2Cl)CC1)NCCCCCCNC(=O)c1ccc(-c2c3nc(c(-c4cc(S(=O)(=O)[O-])ccc4F)c4ccc([nH]4)c(-c4cc(S(=O)(=O)[O-])ccc4F)c4nc(c(-c5cc(S(=O)(=O)[O-])ccc5F)c5ccc2[nH]5)C=C4)C=C3)cc1
REMARK SMILES IDX 24 1 23 2 22 3 21 4 1 5 2 6 3 8 4 9 5 10 20 11 6 13 19 14
REMARK SMILES IDX 7 15 8 16 9 17 17 18 10 19 16 20 18 21 11 22 12 23 13 24
REMARK SMILES IDX 14 25 15 26 25 27 26 28 27 29 28 30 29 31 30 33 31 34 32 35
REMARK SMILES IDX 93 36 33 37 92 38 34 39 35 40 36 41 86 42 37 43 91 44 85 45
REMARK SMILES IDX 87 46 38 47 90 48 84 49 83 50 39 52 71 53 51 54 70 55 52 56
REMARK SMILES IDX 55 57 69 58 88 59 53 60 54 61 68 63 89 64 56 65 40 66 41 67
REMARK SMILES IDX 49 68 42 69 48 70 50 71 47 72 43 73 44 74 45 75 46 76 72 77
REMARK SMILES IDX 73 78 81 79 74 80 80 81 82 82 79 83 75 84 76 85 77 86 78 87
REMARK SMILES IDX 57 88 58 89 66 90 59 91 65 92 67 93 64 94 60 95 61 96 62 97
REMARK SMILES IDX 63 98
REMARK H PARENT 21 7 4 12 28 32 87 51 55 62
REMARK Flexibility Score: inf
ROOT
ATOM      1  C   UNL A   1      31.193  29.077  24.834  1.00  0.00     0.002 C 
ENDROOT
BRANCH   1   2
ATOM      2  C   UNL A   1      30.297  29.685  23.751  1.00  0.00     0.021 C 
BRANCH   2   3
ATOM      3  C   UNL A   1      29.617  28.650  22.856  1.00  0.00     0.116 C 
BRANCH   3   4
ATOM      4  N   UNL A   1      29.689  27.318  23.418  1.00  0.00    -0.351 N 
ATOM      5  O   UNL A   1      31.364  26.599  22.034  1.00  0.00    -0.269 OA
ATOM      6  C   UNL A   1      30.580  26.380  22.954  1.00  0.00     0.275 C 
ATOM      7  H   UNL A   1      29.081  27.077  24.154  1.00  0.00     0.163 HD
BRANCH   6   8
ATOM      8  C   UNL A   1      30.478  25.015  23.633  1.00  0.00     0.363 C 
BRANCH   8   9
ATOM      9  N   UNL A   1      31.660  24.566  24.376  1.00  0.00    -0.324 N 
ATOM     10  C   UNL A   1      31.498  23.851  25.648  1.00  0.00     0.284 C 
ATOM     11  C   UNL A   1      32.784  24.065  23.586  1.00  0.00     0.284 C 
ATOM     12  H   UNL A   1      31.925  25.498  24.696  1.00  0.00     0.348 HD
ATOM     13  C   UNL A   1      31.645  22.304  25.594  1.00  0.00     0.179 C 
ATOM     14  C   UNL A   1      32.824  22.534  23.430  1.00  0.00     0.179 C 
ATOM     15  N   UNL A   1      32.788  21.888  24.749  1.00  0.00    -0.344 N 
BRANCH  15  16
ATOM     16  C   UNL A   1      33.139  20.536  24.799  1.00  0.00     0.147 A 
ATOM     17  N   UNL A   1      32.132  19.634  24.914  1.00  0.00    -0.237 NA
ATOM     18  C   UNL A   1      34.467  20.076  24.718  1.00  0.00     0.084 A 
ATOM     19  C   UNL A   1      32.411  18.306  24.860  1.00  0.00     0.126 A 
ATOM     20  C   UNL A   1      34.725  18.702  24.624  1.00  0.00     0.039 A 
ATOM     21  Cl  UNL A   1      35.851  21.112  24.816  1.00  0.00    -0.080 Cl
ATOM     22  C   UNL A   1      33.676  17.788  24.678  1.00  0.00     0.075 A 
BRANCH  22  23
ATOM     23  C   UNL A   1      33.875  16.313  24.503  1.00  0.00     0.417 C 
ATOM     24  F   UNL A   1      32.716  15.609  24.570  1.00  0.00    -0.166 F 
ATOM     25  F   UNL A   1      34.454  16.022  23.310  1.00  0.00    -0.166 F 
ATOM     26  F   UNL A   1      34.693  15.779  25.454  1.00  0.00    -0.166 F 
ENDBRANCH  22  23
ENDBRANCH  15  16
ENDBRANCH   8   9
ENDBRANCH   6   8
ENDBRANCH   3   4
ENDBRANCH   2   3
ENDBRANCH   1   2
BRANCH   1  27
ATOM     27  C   UNL A   1      32.690  29.156  24.533  1.00  0.00     0.002 C 
BRANCH  27  28
ATOM     28  C   UNL A   1      33.577  28.220  25.346  1.00  0.00     0.021 C 
BRANCH  28  29
ATOM     29  C   UNL A   1      34.424  28.902  26.415  1.00  0.00     0.116 C 
BRANCH  29  30
ATOM     30  N   UNL A   1      34.012  30.273  26.696  1.00  0.00    -0.352 N 
ATOM     31  C   UNL A   1      34.504  31.163  27.624  1.00  0.00     0.251 C 
ATOM     32  H   UNL A   1      33.275  30.613  26.138  1.00  0.00     0.163 HD
ATOM     33  O   UNL A   1      33.918  32.224  27.823  1.00  0.00    -0.269 OA
BRANCH  31  34
ATOM     34  C   UNL A   1      35.709  30.804  28.404  1.00  0.00     0.039 A 
ATOM     35  C   UNL A   1      35.605  29.888  29.453  1.00  0.00     0.014 A 
ATOM     36  C   UNL A   1      36.957  31.315  28.041  1.00  0.00     0.014 A 
ATOM     37  C   UNL A   1      36.766  29.394  30.054  1.00  0.00     0.010 A 
ATOM     38  C   UNL A   1      38.110  30.745  28.565  1.00  0.00     0.010 A 
ATOM     39  C   UNL A   1      38.031  29.767  29.569  1.00  0.00    -0.014 A 
BRANCH  39  40
ATOM     40  C   UNL A   1      39.287  29.144  30.070  1.00  0.00     0.031 A 
ATOM     41  C   UNL A   1      39.981  29.720  31.276  1.00  0.00     0.074 A 
ATOM     42  C   UNL A   1      39.862  28.141  29.377  1.00  0.00     0.049 A 
ATOM     43  N   UNL A   1      41.151  29.427  31.781  1.00  0.00    -0.248 NA
ATOM     44  C   UNL A   1      39.280  30.808  31.976  1.00  0.00     0.031 C 
ATOM     45  C   UNL A   1      39.324  27.532  28.158  1.00  0.00     0.029 A 
ATOM     46  N   UNL A   1      41.037  27.462  29.591  1.00  0.00    -0.354 N 
ATOM     47  C   UNL A   1      41.343  30.318  32.833  1.00  0.00     0.074 A 
ATOM     48  C   UNL A   1      40.198  31.203  32.842  1.00  0.00     0.031 C 
ATOM     49  C   UNL A   1      40.145  26.548  27.756  1.00  0.00     0.029 A 
ATOM     50  C   UNL A   1      41.293  26.487  28.653  1.00  0.00     0.049 A 
ATOM     51  H   UNL A   1      41.639  27.654  30.345  1.00  0.00     0.167 HD
ATOM     52  C   UNL A   1      42.364  30.374  33.725  1.00  0.00     0.034 A 
ATOM     53  C   UNL A   1      42.338  25.647  28.525  1.00  0.00     0.034 A 
ATOM     54  C   UNL A   1      43.480  29.459  33.722  1.00  0.00     0.049 A 
ATOM     55  C   UNL A   1      43.460  25.723  29.528  1.00  0.00     0.074 A 
ATOM     56  C   UNL A   1      44.527  29.370  34.623  1.00  0.00     0.029 A 
ATOM     57  N   UNL A   1      43.693  28.472  32.768  1.00  0.00    -0.354 N 
ATOM     58  N   UNL A   1      43.601  26.534  30.551  1.00  0.00    -0.248 NA
ATOM     59  C   UNL A   1      44.561  24.765  29.362  1.00  0.00     0.031 C 
ATOM     60  C   UNL A   1      45.403  28.371  34.181  1.00  0.00     0.029 A 
ATOM     61  C   UNL A   1      44.868  27.789  33.043  1.00  0.00     0.049 A 
ATOM     62  H   UNL A   1      43.098  28.284  32.007  1.00  0.00     0.167 HD
ATOM     63  C   UNL A   1      44.790  26.160  31.170  1.00  0.00     0.074 A 
ATOM     64  C   UNL A   1      45.321  25.046  30.410  1.00  0.00     0.031 C 
ATOM     65  C   UNL A   1      45.388  26.685  32.270  1.00  0.00     0.034 A 
BRANCH  52  66
ATOM     66  C   UNL A   1      42.320  31.479  34.757  1.00  0.00     0.023 A 
ATOM     67  C   UNL A   1      41.369  31.484  35.793  1.00  0.00     0.031 A 
ATOM     68  C   UNL A   1      43.198  32.574  34.671  1.00  0.00     0.131 A 
ATOM     69  C   UNL A   1      41.248  32.602  36.631  1.00  0.00     0.055 A 
ATOM     70  C   UNL A   1      43.137  33.641  35.571  1.00  0.00     0.041 A 
ATOM     71  F   UNL A   1      44.118  32.638  33.696  1.00  0.00    -0.206 F 
ATOM     72  C   UNL A   1      42.143  33.670  36.544  1.00  0.00     0.022 A 
BRANCH  69  73
ATOM     73  S   UNL A   1      39.793  32.717  37.708  1.00  0.00     0.124 S 
ATOM     74  O   UNL A   1      40.396  32.576  39.032  1.00  0.00    -0.237 OA
ATOM     75  O   UNL A   1      39.262  34.035  37.384  1.00  0.00    -0.237 OA
ATOM     76  O   UNL A   1      38.965  31.587  37.287  1.00  0.00    -0.744 OA
ENDBRANCH  69  73
ENDBRANCH  52  66
BRANCH  53  77
ATOM     77  C   UNL A   1      42.379  24.651  27.417  1.00  0.00     0.023 A 
ATOM     78  C   UNL A   1      41.656  23.450  27.508  1.00  0.00     0.031 A 
ATOM     79  C   UNL A   1      43.166  24.862  26.271  1.00  0.00     0.131 A 
ATOM     80  C   UNL A   1      41.767  22.487  26.494  1.00  0.00     0.055 A 
ATOM     81  C   UNL A   1      43.235  23.920  25.243  1.00  0.00     0.041 A 
ATOM     82  F   UNL A   1      43.870  25.996  26.131  1.00  0.00    -0.206 F 
ATOM     83  C   UNL A   1      42.543  22.719  25.356  1.00  0.00     0.022 A 
BRANCH  80  84
ATOM     84  S   UNL A   1      40.936  20.891  26.721  1.00  0.00     0.124 S 
ATOM     85  O   UNL A   1      40.711  20.875  28.162  1.00  0.00    -0.237 OA
ATOM     86  O   UNL A   1      39.750  21.045  25.887  1.00  0.00    -0.237 OA
ATOM     87  O   UNL A   1      41.918  19.925  26.231  1.00  0.00    -0.744 OA
ENDBRANCH  80  84
ENDBRANCH  53  77
BRANCH  65  88
ATOM     88  C   UNL A   1      46.657  26.018  32.739  1.00  0.00     0.023 A 
ATOM     89  C   UNL A   1      46.640  24.964  33.669  1.00  0.00     0.031 A 
ATOM     90  C   UNL A   1      47.903  26.460  32.260  1.00  0.00     0.131 A 
ATOM     91  C   UNL A   1      47.850  24.423  34.132  1.00  0.00     0.055 A 
ATOM     92  C   UNL A   1      49.100  25.880  32.681  1.00  0.00     0.041 A 
ATOM     93  F   UNL A   1      47.976  27.466  31.373  1.00  0.00    -0.206 F 
ATOM     94  C   UNL A   1      49.078  24.864  33.632  1.00  0.00     0.022 A 
BRANCH  91  95
ATOM     95  S   UNL A   1      47.802  23.194  35.465  1.00  0.00     0.124 S 
ATOM     96  O   UNL A   1      48.785  23.725  36.404  1.00  0.00    -0.237 OA
ATOM     97  O   UNL A   1      46.409  23.258  35.897  1.00  0.00    -0.237 OA
ATOM     98  O   UNL A   1      48.186  21.950  34.799  1.00  0.00    -0.744 OA
ENDBRANCH  91  95
ENDBRANCH  65  88
ENDBRANCH  39  40
ENDBRANCH  31  34
ENDBRANCH  29  30
ENDBRANCH  28  29
ENDBRANCH  27  28
ENDBRANCH   1  27
TORSDOF 19
ENDMDL
MODEL 2
REMARK VINA RESULT:     -11.3      5.204     10.221
REMARK SMILES O=C(C[NH+]1CCN(c2ncc(C(F)(F)F)cc2Cl)CC1)NCCCCCCNC(=O)c1ccc(-c2c3nc(c(-c4cc(S(=O)(=O)[O-])ccc4F)c4ccc([nH]4)c(-c4cc(S(=O)(=O)[O-])ccc4F)c4nc(c(-c5cc(S(=O)(=O)[O-])ccc5F)c5ccc2[nH]5)C=C4)C=C3)cc1
REMARK SMILES IDX 24 1 23 2 22 3 21 4 1 5 2 6 3 8 4 9 5 10 20 11 6 13 19 14
REMARK SMILES IDX 7 15 8 16 9 17 17 18 10 19 16 20 18 21 11 22 12 23 13 24
REMARK SMILES IDX 14 25 15 26 25 27 26 28 27 29 28 30 29 31 30 33 31 34 32 35
REMARK SMILES IDX 93 36 33 37 92 38 34 39 35 40 36 41 86 42 37 43 91 44 85 45
REMARK SMILES IDX 87 46 38 47 90 48 84 49 83 50 39 52 71 53 51 54 70 55 52 56
REMARK SMILES IDX 55 57 69 58 88 59 53 60 54 61 68 63 89 64 56 65 40 66 41 67
REMARK SMILES IDX 49 68 42 69 48 70 50 71 47 72 43 73 44 74 45 75 46 76 72 77
REMARK SMILES IDX 73 78 81 79 74 80 80 81 82 82 79 83 75 84 76 85 77 86 78 87
REMARK SMILES IDX 57 88 58 89 66 90 59 91 65 92 67 93 64 94 60 95 61 96 62 97
REMARK SMILES IDX 63 98
REMARK H PARENT 21 7 4 12 28 32 87 51 55 62
REMARK Flexibility Score: inf
ROOT
ATOM      1  C   UNL A   1      34.482  22.105  24.584  1.00  0.00     0.002 C 
ENDROOT
BRANCH   1   2
ATOM      2  C   UNL A   1      33.145  21.735  23.935  1.00  0.00     0.021 C 
BRANCH   2   3
ATOM      3  C   UNL A   1      32.745  22.647  22.777  1.00  0.00     0.116 C 
BRANCH   3   4
ATOM      4  N   UNL A   1      31.427  23.214  22.966  1.00  0.00    -0.351 N 
ATOM      5  O   UNL A   1      32.108  25.391  22.772  1.00  0.00    -0.269 OA
ATOM      6  C   UNL A   1      31.209  24.572  22.943  1.00  0.00     0.275 C 
ATOM      7  H   UNL A   1      30.664  22.611  23.116  1.00  0.00     0.163 HD
BRANCH   6   8
ATOM      8  C   UNL A   1      29.764  24.989  23.212  1.00  0.00     0.363 C 
BRANCH   8   9
ATOM      9  N   UNL A   1      29.548  25.903  24.338  1.00  0.00    -0.324 N 
ATOM     10  C   UNL A   1      30.095  25.578  25.661  1.00  0.00     0.284 C 
ATOM     11  C   UNL A   1      29.597  27.335  24.043  1.00  0.00     0.284 C 
ATOM     12  H   UNL A   1      28.563  25.667  24.459  1.00  0.00     0.348 HD
ATOM     13  C   UNL A   1      31.412  26.302  26.060  1.00  0.00     0.179 C 
ATOM     14  C   UNL A   1      30.960  27.997  24.315  1.00  0.00     0.179 C 
ATOM     15  N   UNL A   1      31.384  27.737  25.698  1.00  0.00    -0.344 N 
BRANCH  15  16
ATOM     16  C   UNL A   1      32.425  28.525  26.196  1.00  0.00     0.147 A 
ATOM     17  N   UNL A   1      32.113  29.776  26.618  1.00  0.00    -0.237 NA
ATOM     18  C   UNL A   1      33.758  28.080  26.294  1.00  0.00     0.084 A 
ATOM     19  C   UNL A   1      33.066  30.544  27.207  1.00  0.00     0.126 A 
ATOM     20  C   UNL A   1      34.713  28.874  26.942  1.00  0.00     0.039 A 
ATOM     21  Cl  UNL A   1      34.337  26.615  25.575  1.00  0.00    -0.080 Cl
ATOM     22  C   UNL A   1      34.363  30.131  27.429  1.00  0.00     0.075 A 
BRANCH  22  23
ATOM     23  C   UNL A   1      35.314  30.995  28.200  1.00  0.00     0.417 C 
ATOM     24  F   UNL A   1      35.705  32.099  27.513  1.00  0.00    -0.166 F 
ATOM     25  F   UNL A   1      34.771  31.422  29.369  1.00  0.00    -0.166 F 
ATOM     26  F   UNL A   1      36.459  30.340  28.540  1.00  0.00    -0.166 F 
ENDBRANCH  22  23
ENDBRANCH  15  16
ENDBRANCH   8   9
ENDBRANCH   6   8
ENDBRANCH   3   4
ENDBRANCH   2   3
ENDBRANCH   1   2
BRANCH   1  27
ATOM     27  C   UNL A   1      35.469  22.802  23.647  1.00  0.00     0.002 C 
BRANCH  27  28
ATOM     28  C   UNL A   1      36.916  22.843  24.124  1.00  0.00     0.021 C 
BRANCH  28  29
ATOM     29  C   UNL A   1      37.108  22.619  25.619  1.00  0.00     0.116 C 
BRANCH  29  30
ATOM     30  N   UNL A   1      38.126  21.621  25.932  1.00  0.00    -0.352 N 
ATOM     31  C   UNL A   1      39.383  21.790  26.467  1.00  0.00     0.251 C 
ATOM     32  H   UNL A   1      37.877  20.689  25.731  1.00  0.00     0.163 HD
ATOM     33  O   UNL A   1      40.162  20.841  26.508  1.00  0.00    -0.269 OA
BRANCH  31  34
ATOM     34  C   UNL A   1      39.793  23.129  26.944  1.00  0.00     0.039 A 
ATOM     35  C   UNL A   1      40.743  23.238  27.962  1.00  0.00     0.014 A 
ATOM     36  C   UNL A   1      39.295  24.277  26.325  1.00  0.00     0.014 A 
ATOM     37  C   UNL A   1      41.281  24.491  28.272  1.00  0.00     0.010 A 
ATOM     38  C   UNL A   1      39.906  25.502  26.559  1.00  0.00     0.010 A 
ATOM     39  C   UNL A   1      40.916  25.624  27.525  1.00  0.00    -0.014 A 
BRANCH  39  40
ATOM     40  C   UNL A   1      41.581  26.943  27.712  1.00  0.00     0.031 A 
ATOM     41  C   UNL A   1      42.961  27.174  27.155  1.00  0.00     0.074 A 
ATOM     42  C   UNL A   1      40.997  27.887  28.479  1.00  0.00     0.049 A 
ATOM     43  N   UNL A   1      43.771  28.185  27.334  1.00  0.00    -0.248 NA
ATOM     44  C   UNL A   1      43.520  26.095  26.327  1.00  0.00     0.031 C 
ATOM     45  C   UNL A   1      39.689  27.765  29.127  1.00  0.00     0.029 A 
ATOM     46  N   UNL A   1      41.434  29.133  28.854  1.00  0.00    -0.354 N 
ATOM     47  C   UNL A   1      44.947  27.848  26.671  1.00  0.00     0.074 A 
ATOM     48  C   UNL A   1      44.764  26.510  26.151  1.00  0.00     0.031 C 
ATOM     49  C   UNL A   1      39.414  28.903  29.786  1.00  0.00     0.029 A 
ATOM     50  C   UNL A   1      40.544  29.815  29.655  1.00  0.00     0.049 A 
ATOM     51  H   UNL A   1      42.301  29.504  28.576  1.00  0.00     0.167 HD
ATOM     52  C   UNL A   1      46.066  28.595  26.489  1.00  0.00     0.034 A 
ATOM     53  C   UNL A   1      40.634  31.032  30.225  1.00  0.00     0.034 A 
ATOM     54  C   UNL A   1      46.217  29.942  26.985  1.00  0.00     0.049 A 
ATOM     55  C   UNL A   1      41.883  31.847  30.008  1.00  0.00     0.074 A 
ATOM     56  C   UNL A   1      47.269  30.821  26.792  1.00  0.00     0.029 A 
ATOM     57  N   UNL A   1      45.286  30.606  27.774  1.00  0.00    -0.354 N 
ATOM     58  N   UNL A   1      42.965  31.538  29.332  1.00  0.00    -0.248 NA
ATOM     59  C   UNL A   1      41.918  33.179  30.625  1.00  0.00     0.031 C 
ATOM     60  C   UNL A   1      47.001  31.991  27.513  1.00  0.00     0.029 A 
ATOM     61  C   UNL A   1      45.751  31.871  28.099  1.00  0.00     0.049 A 
ATOM     62  H   UNL A   1      44.421  30.233  28.062  1.00  0.00     0.167 HD
ATOM     63  C   UNL A   1      43.796  32.652  29.416  1.00  0.00     0.074 A 
ATOM     64  C   UNL A   1      43.084  33.642  30.199  1.00  0.00     0.031 C 
ATOM     65  C   UNL A   1      45.032  32.844  28.889  1.00  0.00     0.034 A 
BRANCH  52  66
ATOM     66  C   UNL A   1      47.212  27.952  25.742  1.00  0.00     0.023 A 
ATOM     67  C   UNL A   1      47.451  28.223  24.383  1.00  0.00     0.031 A 
ATOM     68  C   UNL A   1      48.041  27.011  26.376  1.00  0.00     0.131 A 
ATOM     69  C   UNL A   1      48.416  27.487  23.679  1.00  0.00     0.055 A 
ATOM     70  C   UNL A   1      49.066  26.352  25.693  1.00  0.00     0.041 A 
ATOM     71  F   UNL A   1      47.855  26.695  27.668  1.00  0.00    -0.206 F 
ATOM     72  C   UNL A   1      49.244  26.572  24.331  1.00  0.00     0.022 A 
BRANCH  69  73
ATOM     73  S   UNL A   1      48.444  27.614  21.869  1.00  0.00     0.124 S 
ATOM     74  O   UNL A   1      49.536  28.561  21.658  1.00  0.00    -0.237 OA
ATOM     75  O   UNL A   1      48.701  26.238  21.460  1.00  0.00    -0.237 OA
ATOM     76  O   UNL A   1      47.114  28.126  21.541  1.00  0.00    -0.744 OA
ENDBRANCH  69  73
ENDBRANCH  52  66
BRANCH  53  77
ATOM     77  C   UNL A   1      39.513  31.569  31.048  1.00  0.00     0.023 A 
ATOM     78  C   UNL A   1      39.520  31.426  32.445  1.00  0.00     0.031 A 
ATOM     79  C   UNL A   1      38.404  32.196  30.454  1.00  0.00     0.131 A 
ATOM     80  C   UNL A   1      38.420  31.864  33.199  1.00  0.00     0.055 A 
ATOM     81  C   UNL A   1      37.335  32.673  31.214  1.00  0.00     0.041 A 
ATOM     82  F   UNL A   1      38.352  32.365  29.123  1.00  0.00    -0.206 F 
ATOM     83  C   UNL A   1      37.333  32.497  32.594  1.00  0.00     0.022 A 
BRANCH  80  84
ATOM     84  S   UNL A   1      38.403  31.526  34.981  1.00  0.00     0.124 S 
ATOM     85  O   UNL A   1      37.186  32.213  35.402  1.00  0.00    -0.237 OA
ATOM     86  O   UNL A   1      38.362  30.069  35.013  1.00  0.00    -0.237 OA
ATOM     87  O   UNL A   1      39.652  32.122  35.451  1.00  0.00    -0.744 OA
ENDBRANCH  80  84
ENDBRANCH  53  77
BRANCH  65  88
ATOM     88  C   UNL A   1      45.663  34.196  29.105  1.00  0.00     0.023 A 
ATOM     89  C   UNL A   1      46.488  34.461  30.211  1.00  0.00     0.031 A 
ATOM     90  C   UNL A   1      45.417  35.241  28.195  1.00  0.00     0.131 A 
ATOM     91  C   UNL A   1      46.994  35.755  30.410  1.00  0.00     0.055 A 
ATOM     92  C   UNL A   1      45.969  36.510  28.368  1.00  0.00     0.041 A 
ATOM     93  F   UNL A   1      44.633  35.043  27.123  1.00  0.00    -0.206 F 
ATOM     94  C   UNL A   1      46.752  36.777  29.487  1.00  0.00     0.022 A 
BRANCH  91  95
ATOM     95  S   UNL A   1      47.901  36.110  31.940  1.00  0.00     0.124 S 
ATOM     96  O   UNL A   1      47.595  34.937  32.753  1.00  0.00    -0.237 OA
ATOM     97  O   UNL A   1      49.278  36.217  31.469  1.00  0.00    -0.237 OA
ATOM     98  O   UNL A   1      47.310  37.362  32.408  1.00  0.00    -0.744 OA
ENDBRANCH  91  95
ENDBRANCH  65  88
ENDBRANCH  39  40
ENDBRANCH  31  34
ENDBRANCH  29  30
ENDBRANCH  28  29
ENDBRANCH  27  28
ENDBRANCH   1  27
TORSDOF 19
ENDMDL
MODEL 3
REMARK VINA RESULT:     -11.2      2.962      4.229
REMARK SMILES O=C(C[NH+]1CCN(c2ncc(C(F)(F)F)cc2Cl)CC1)NCCCCCCNC(=O)c1ccc(-c2c3nc(c(-c4cc(S(=O)(=O)[O-])ccc4F)c4ccc([nH]4)c(-c4cc(S(=O)(=O)[O-])ccc4F)c4nc(c(-c5cc(S(=O)(=O)[O-])ccc5F)c5ccc2[nH]5)C=C4)C=C3)cc1
REMARK SMILES IDX 24 1 23 2 22 3 21 4 1 5 2 6 3 8 4 9 5 10 20 11 6 13 19 14
REMARK SMILES IDX 7 15 8 16 9 17 17 18 10 19 16 20 18 21 11 22 12 23 13 24
REMARK SMILES IDX 14 25 15 26 25 27 26 28 27 29 28 30 29 31 30 33 31 34 32 35
REMARK SMILES IDX 93 36 33 37 92 38 34 39 35 40 36 41 86 42 37 43 91 44 85 45
REMARK SMILES IDX 87 46 38 47 90 48 84 49 83 50 39 52 71 53 51 54 70 55 52 56
REMARK SMILES IDX 55 57 69 58 88 59 53 60 54 61 68 63 89 64 56 65 40 66 41 67
REMARK SMILES IDX 49 68 42 69 48 70 50 71 47 72 43 73 44 74 45 75 46 76 72 77
REMARK SMILES IDX 73 78 81 79 74 80 80 81 82 82 79 83 75 84 76 85 77 86 78 87
REMARK SMILES IDX 57 88 58 89 66 90 59 91 65 92 67 93 64 94 60 95 61 96 62 97
REMARK SMILES IDX 63 98
REMARK H PARENT 21 7 4 12 28 32 87 51 55 62
REMARK Flexibility Score: inf
ROOT
ATOM      1  C   UNL A   1      35.741  30.762  27.569  1.00  0.00     0.002 C 
ENDROOT
BRANCH   1   2
ATOM      2  C   UNL A   1      34.314  30.319  27.230  1.00  0.00     0.021 C 
BRANCH   2   3
ATOM      3  C   UNL A   1      34.240  29.004  26.457  1.00  0.00     0.116 C 
BRANCH   3   4
ATOM      4  N   UNL A   1      33.652  29.178  25.146  1.00  0.00    -0.351 N 
ATOM      5  O   UNL A   1      31.675  28.149  25.668  1.00  0.00    -0.269 OA
ATOM      6  C   UNL A   1      32.385  28.731  24.852  1.00  0.00     0.275 C 
ATOM      7  H   UNL A   1      34.173  29.631  24.445  1.00  0.00     0.163 HD
BRANCH   6   8
ATOM      8  C   UNL A   1      31.951  28.958  23.405  1.00  0.00     0.363 C 
BRANCH   8   9
ATOM      9  N   UNL A   1      32.148  27.835  22.481  1.00  0.00    -0.324 N 
ATOM     10  C   UNL A   1      33.462  27.190  22.384  1.00  0.00     0.284 C 
ATOM     11  C   UNL A   1      31.042  26.888  22.352  1.00  0.00     0.284 C 
ATOM     12  H   UNL A   1      32.137  28.409  21.638  1.00  0.00     0.348 HD
ATOM     13  C   UNL A   1      33.632  25.849  23.154  1.00  0.00     0.179 C 
ATOM     14  C   UNL A   1      31.168  25.633  23.235  1.00  0.00     0.179 C 
ATOM     15  N   UNL A   1      32.455  24.967  22.990  1.00  0.00    -0.344 N 
BRANCH  15  16
ATOM     16  C   UNL A   1      32.587  23.659  23.463  1.00  0.00     0.147 A 
ATOM     17  N   UNL A   1      32.019  22.669  22.729  1.00  0.00    -0.237 NA
ATOM     18  C   UNL A   1      33.287  23.325  24.639  1.00  0.00     0.084 A 
ATOM     19  C   UNL A   1      32.208  21.373  23.089  1.00  0.00     0.126 A 
ATOM     20  C   UNL A   1      33.501  21.980  24.966  1.00  0.00     0.039 A 
ATOM     21  Cl  UNL A   1      33.843  24.494  25.790  1.00  0.00    -0.080 Cl
ATOM     22  C   UNL A   1      32.967  20.972  24.167  1.00  0.00     0.075 A 
BRANCH  22  23
ATOM     23  C   UNL A   1      33.226  19.517  24.415  1.00  0.00     0.417 C 
ATOM     24  F   UNL A   1      32.875  18.729  23.368  1.00  0.00    -0.166 F 
ATOM     25  F   UNL A   1      34.537  19.278  24.677  1.00  0.00    -0.166 F 
ATOM     26  F   UNL A   1      32.539  19.040  25.491  1.00  0.00    -0.166 F 
ENDBRANCH  22  23
ENDBRANCH  15  16
ENDBRANCH   8   9
ENDBRANCH   6   8
ENDBRANCH   3   4
ENDBRANCH   2   3
ENDBRANCH   1   2
BRANCH   1  27
ATOM     27  C   UNL A   1      35.866  32.229  27.981  1.00  0.00     0.002 C 
BRANCH  27  28
ATOM     28  C   UNL A   1      34.590  33.057  27.869  1.00  0.00     0.021 C 
BRANCH  28  29
ATOM     29  C   UNL A   1      34.759  34.544  28.156  1.00  0.00     0.116 C 
BRANCH  29  30
ATOM     30  N   UNL A   1      33.754  35.079  29.068  1.00  0.00    -0.352 N 
ATOM     31  C   UNL A   1      33.624  34.907  30.427  1.00  0.00     0.251 C 
ATOM     32  H   UNL A   1      33.067  35.647  28.649  1.00  0.00     0.163 HD
ATOM     33  O   UNL A   1      32.614  35.306  31.000  1.00  0.00    -0.269 OA
BRANCH  31  34
ATOM     34  C   UNL A   1      34.688  34.198  31.172  1.00  0.00     0.039 A 
ATOM     35  C   UNL A   1      34.453  32.907  31.650  1.00  0.00     0.014 A 
ATOM     36  C   UNL A   1      35.947  34.783  31.325  1.00  0.00     0.014 A 
ATOM     37  C   UNL A   1      35.515  32.161  32.170  1.00  0.00     0.010 A 
ATOM     38  C   UNL A   1      37.019  34.005  31.741  1.00  0.00     0.010 A 
ATOM     39  C   UNL A   1      36.821  32.680  32.157  1.00  0.00    -0.014 A 
BRANCH  39  40
ATOM     40  C   UNL A   1      38.001  31.862  32.550  1.00  0.00     0.031 A 
ATOM     41  C   UNL A   1      38.713  32.146  33.846  1.00  0.00     0.074 A 
ATOM     42  C   UNL A   1      38.501  30.949  31.692  1.00  0.00     0.049 A 
ATOM     43  N   UNL A   1      39.839  31.658  34.301  1.00  0.00    -0.248 NA
ATOM     44  C   UNL A   1      38.097  33.152  34.723  1.00  0.00     0.031 C 
ATOM     45  C   UNL A   1      37.942  30.621  30.378  1.00  0.00     0.029 A 
ATOM     46  N   UNL A   1      39.603  30.135  31.791  1.00  0.00    -0.354 N 
ATOM     47  C   UNL A   1      40.083  32.325  35.497  1.00  0.00     0.074 A 
ATOM     48  C   UNL A   1      39.024  33.298  35.655  1.00  0.00     0.031 C 
ATOM     49  C   UNL A   1      38.680  29.651  29.813  1.00  0.00     0.029 A 
ATOM     50  C   UNL A   1      39.794  29.324  30.695  1.00  0.00     0.049 A 
ATOM     51  H   UNL A   1      40.200  30.132  32.573  1.00  0.00     0.167 HD
ATOM     52  C   UNL A   1      41.082  32.125  36.395  1.00  0.00     0.034 A 
ATOM     53  C   UNL A   1      40.762  28.426  30.427  1.00  0.00     0.034 A 
ATOM     54  C   UNL A   1      42.110  31.124  36.237  1.00  0.00     0.049 A 
ATOM     55  C   UNL A   1      41.859  28.215  31.438  1.00  0.00     0.074 A 
ATOM     56  C   UNL A   1      43.121  30.778  37.116  1.00  0.00     0.029 A 
ATOM     57  N   UNL A   1      42.257  30.307  35.123  1.00  0.00    -0.354 N 
ATOM     58  N   UNL A   1      42.047  28.814  32.592  1.00  0.00    -0.248 NA
ATOM     59  C   UNL A   1      42.872  27.204  31.113  1.00  0.00     0.031 C 
ATOM     60  C   UNL A   1      43.913  29.796  36.510  1.00  0.00     0.029 A 
ATOM     61  C   UNL A   1      43.358  29.480  35.280  1.00  0.00     0.049 A 
ATOM     62  H   UNL A   1      41.668  30.316  34.335  1.00  0.00     0.167 HD
ATOM     63  C   UNL A   1      43.181  28.226  33.144  1.00  0.00     0.074 A 
ATOM     64  C   UNL A   1      43.627  27.220  32.201  1.00  0.00     0.031 C 
ATOM     65  C   UNL A   1      43.795  28.487  34.326  1.00  0.00     0.034 A 
BRANCH  52  66
ATOM     66  C   UNL A   1      41.111  33.027  37.608  1.00  0.00     0.023 A 
ATOM     67  C   UNL A   1      40.445  32.685  38.798  1.00  0.00     0.031 A 
ATOM     68  C   UNL A   1      41.762  34.272  37.558  1.00  0.00     0.131 A 
ATOM     69  C   UNL A   1      40.353  33.615  39.844  1.00  0.00     0.055 A 
ATOM     70  C   UNL A   1      41.750  35.155  38.641  1.00  0.00     0.041 A 
ATOM     71  F   UNL A   1      42.402  34.665  36.445  1.00  0.00    -0.206 F 
ATOM     72  C   UNL A   1      41.023  34.838  39.784  1.00  0.00     0.022 A 
BRANCH  69  73
ATOM     73  S   UNL A   1      39.195  33.275  41.199  1.00  0.00     0.124 S 
ATOM     74  O   UNL A   1      38.173  34.295  40.974  1.00  0.00    -0.237 OA
ATOM     75  O   UNL A   1      38.795  31.899  40.935  1.00  0.00    -0.237 OA
ATOM     76  O   UNL A   1      40.007  33.472  42.399  1.00  0.00    -0.744 OA
ENDBRANCH  69  73
ENDBRANCH  52  66
BRANCH  53  77
ATOM     77  C   UNL A   1      40.741  27.644  29.158  1.00  0.00     0.023 A 
ATOM     78  C   UNL A   1      41.638  27.942  28.120  1.00  0.00     0.031 A 
ATOM     79  C   UNL A   1      39.806  26.616  28.947  1.00  0.00     0.131 A 
ATOM     80  C   UNL A   1      41.555  27.252  26.902  1.00  0.00     0.055 A 
ATOM     81  C   UNL A   1      39.758  25.900  27.750  1.00  0.00     0.041 A 
ATOM     82  F   UNL A   1      38.931  26.286  29.910  1.00  0.00    -0.206 F 
ATOM     83  C   UNL A   1      40.628  26.225  26.714  1.00  0.00     0.022 A 
BRANCH  80  84
ATOM     84  S   UNL A   1      42.631  27.769  25.538  1.00  0.00     0.124 S 
ATOM     85  O   UNL A   1      41.924  28.939  25.027  1.00  0.00    -0.237 OA
ATOM     86  O   UNL A   1      43.890  28.030  26.226  1.00  0.00    -0.237 OA
ATOM     87  O   UNL A   1      42.638  26.607  24.651  1.00  0.00    -0.744 OA
ENDBRANCH  80  84
ENDBRANCH  53  77
BRANCH  65  88
ATOM     88  C   UNL A   1      44.985  27.631  34.679  1.00  0.00     0.023 A 
ATOM     89  C   UNL A   1      44.847  26.424  35.385  1.00  0.00     0.031 A 
ATOM     90  C   UNL A   1      46.281  28.043  34.317  1.00  0.00     0.131 A 
ATOM     91  C   UNL A   1      45.990  25.697  35.756  1.00  0.00     0.055 A 
ATOM     92  C   UNL A   1      47.408  27.287  34.639  1.00  0.00     0.041 A 
ATOM     93  F   UNL A   1      46.470  29.190  33.645  1.00  0.00    -0.206 F 
ATOM     94  C   UNL A   1      47.268  26.114  35.373  1.00  0.00     0.022 A 
BRANCH  91  95
ATOM     95  S   UNL A   1      45.790  24.244  36.822  1.00  0.00     0.124 S 
ATOM     96  O   UNL A   1      45.305  23.240  35.880  1.00  0.00    -0.237 OA
ATOM     97  O   UNL A   1      47.143  24.040  37.329  1.00  0.00    -0.237 OA
ATOM     98  O   UNL A   1      44.816  24.681  37.820  1.00  0.00    -0.744 OA
ENDBRANCH  91  95
ENDBRANCH  65  88
ENDBRANCH  39  40
ENDBRANCH  31  34
ENDBRANCH  29  30
ENDBRANCH  28  29
ENDBRANCH  27  28
ENDBRANCH   1  27
TORSDOF 19
ENDMDL
