MODEL 1
REMARK VINA RESULT:     -10.9      0.000      0.000
REMARK SMILES CC(C)Cc1ccc(-c2cc(Cl)cc3c2O[C@H](C(F)(F)F)C(C(=O)NCCCCCCNC(=O)c2ccc(-c4c5nc(c(-c6cc(S(=O)(=O)[O-])ccc6F)c6ccc([nH]6)c(-c6cc(S(=O)(=O)[O-])ccc6F)c6nc(c(-c7cc(S(=O)(=O)[O-])ccc7F)c7ccc4[nH]7)C=C6)C=C5)cc2)=C3)cc1
REMARK SMILES IDX 28 1 27 2 26 3 25 4 23 5 24 6 22 8 9 9 10 10 15 11 11 12
REMARK SMILES IDX 14 13 16 14 12 15 13 16 98 17 17 18 8 19 5 20 6 21 100 22
REMARK SMILES IDX 7 23 99 24 4 25 2 26 1 27 3 28 18 29 19 30 20 31 21 32 29 33
REMARK SMILES IDX 30 34 31 35 32 36 33 37 34 39 35 40 36 41 97 42 37 43 96 44
REMARK SMILES IDX 38 45 39 46 40 47 90 48 41 49 95 50 89 51 91 52 42 53 94 54
REMARK SMILES IDX 88 55 87 56 43 58 75 59 55 60 74 61 56 62 59 63 73 64 92 65
REMARK SMILES IDX 57 66 58 67 72 69 93 70 60 71 44 72 45 73 53 74 46 75 52 76
REMARK SMILES IDX 54 77 51 78 47 79 48 80 49 81 50 82 76 83 77 84 85 85 78 86
REMARK SMILES IDX 84 87 86 88 83 89 79 90 80 91 81 92 82 93 61 94 62 95 70 96
REMARK SMILES IDX 63 97 69 98 71 99 68 100 64 101 65 102 66 103 67 104
REMARK H PARENT 25 7 32 38 91 57 59 68
REMARK Flexibility Score: inf
ROOT
ATOM      1  C   UNL A   1      47.352  25.857  37.102  1.00  0.00     0.002 C 
ENDROOT
BRANCH   1   2
ATOM      2  C   UNL A   1      48.104  25.270  35.896  1.00  0.00     0.021 C 
BRANCH   2   3
ATOM      3  C   UNL A   1      48.018  23.742  35.770  1.00  0.00     0.116 C 
BRANCH   3   4
ATOM      4  N   UNL A   1      48.045  23.143  37.089  1.00  0.00    -0.352 N 
ATOM      5  C   UNL A   1      47.251  22.123  37.497  1.00  0.00     0.251 C 
ATOM      6  O   UNL A   1      46.636  22.203  38.553  1.00  0.00    -0.270 OA
ATOM      7  H   UNL A   1      48.691  23.503  37.739  1.00  0.00     0.163 HD
BRANCH   5   8
ATOM      8  C   UNL A   1      47.317  20.873  36.683  1.00  0.00     0.067 C 
ATOM      9  C   UNL A   1      46.798  18.243  39.716  1.00  0.00     0.026 A 
ATOM     10  C   UNL A   1      47.674  18.641  40.762  1.00  0.00     0.033 A 
ATOM     11  C   UNL A   1      47.027  18.823  38.457  1.00  0.00     0.135 A 
ATOM     12  C   UNL A   1      48.793  19.439  40.547  1.00  0.00     0.042 A 
ATOM     13  C   UNL A   1      48.235  19.532  38.236  1.00  0.00     0.019 A 
ATOM     14  O   UNL A   1      46.097  18.794  37.423  1.00  0.00    -0.475 OA
ATOM     15  Cl  UNL A   1      49.771  19.916  41.877  1.00  0.00    -0.084 Cl
ATOM     16  C   UNL A   1      49.123  19.832  39.266  1.00  0.00     0.032 A 
ATOM     17  C   UNL A   1      48.435  20.158  36.912  1.00  0.00     0.025 C 
ATOM     18  C   UNL A   1      46.028  20.069  36.643  1.00  0.00     0.314 C 
BRANCH   9  19
ATOM     19  C   UNL A   1      45.882  17.132  40.075  1.00  0.00    -0.015 A 
ATOM     20  C   UNL A   1      43.385  15.827  40.516  1.00  0.00    -0.048 A 
ATOM     21  C   UNL A   1      44.010  15.768  39.267  1.00  0.00     0.004 A 
ATOM     22  C   UNL A   1      44.061  16.459  41.567  1.00  0.00     0.004 A 
ATOM     23  C   UNL A   1      45.253  16.381  39.060  1.00  0.00     0.009 A 
ATOM     24  C   UNL A   1      45.296  17.096  41.352  1.00  0.00     0.009 A 
BRANCH  20  25
ATOM     25  C   UNL A   1      42.008  15.224  40.715  1.00  0.00     0.038 C 
BRANCH  25  26
ATOM     26  C   UNL A   1      42.048  13.730  41.089  1.00  0.00    -0.013 C 
ATOM     27  C   UNL A   1      42.140  13.540  42.604  1.00  0.00     0.008 C 
ATOM     28  C   UNL A   1      40.822  12.991  40.548  1.00  0.00     0.008 C 
ENDBRANCH  25  26
ENDBRANCH  20  25
ENDBRANCH   9  19
BRANCH  18  29
ATOM     29  C   UNL A   1      45.666  19.833  35.158  1.00  0.00     0.429 C 
ATOM     30  F   UNL A   1      46.669  20.170  34.317  1.00  0.00    -0.167 F 
ATOM     31  F   UNL A   1      45.353  18.535  34.929  1.00  0.00    -0.167 F 
ATOM     32  F   UNL A   1      44.581  20.555  34.770  1.00  0.00    -0.167 F 
ENDBRANCH  18  29
ENDBRANCH   5   8
ENDBRANCH   3   4
ENDBRANCH   2   3
ENDBRANCH   1   2
BRANCH   1  33
ATOM     33  C   UNL A   1      46.214  26.816  36.743  1.00  0.00     0.002 C 
BRANCH  33  34
ATOM     34  C   UNL A   1      44.949  26.635  37.581  1.00  0.00     0.021 C 
BRANCH  34  35
ATOM     35  C   UNL A   1      44.597  25.184  37.889  1.00  0.00     0.116 C 
BRANCH  35  36
ATOM     36  N   UNL A   1      43.192  24.895  37.652  1.00  0.00    -0.352 N 
ATOM     37  C   UNL A   1      42.501  24.908  36.467  1.00  0.00     0.251 C 
ATOM     38  H   UNL A   1      42.666  24.658  38.450  1.00  0.00     0.163 HD
ATOM     39  O   UNL A   1      41.274  24.819  36.471  1.00  0.00    -0.269 OA
BRANCH  37  40
ATOM     40  C   UNL A   1      43.238  25.059  35.195  1.00  0.00     0.039 A 
ATOM     41  C   UNL A   1      43.054  26.219  34.440  1.00  0.00     0.014 A 
ATOM     42  C   UNL A   1      44.125  24.068  34.761  1.00  0.00     0.014 A 
ATOM     43  C   UNL A   1      43.803  26.411  33.279  1.00  0.00     0.010 A 
ATOM     44  C   UNL A   1      44.927  24.298  33.647  1.00  0.00     0.010 A 
ATOM     45  C   UNL A   1      44.773  25.470  32.891  1.00  0.00    -0.014 A 
BRANCH  45  46
ATOM     46  C   UNL A   1      45.626  25.695  31.696  1.00  0.00     0.031 A 
ATOM     47  C   UNL A   1      45.330  24.970  30.410  1.00  0.00     0.074 A 
ATOM     48  C   UNL A   1      46.698  26.510  31.785  1.00  0.00     0.049 A 
ATOM     49  N   UNL A   1      45.991  24.984  29.282  1.00  0.00    -0.248 NA
ATOM     50  C   UNL A   1      44.151  24.091  30.404  1.00  0.00     0.031 C 
ATOM     51  C   UNL A   1      47.108  27.236  32.989  1.00  0.00     0.029 A 
ATOM     52  N   UNL A   1      47.641  26.861  30.851  1.00  0.00    -0.354 N 
ATOM     53  C   UNL A   1      45.317  24.109  28.436  1.00  0.00     0.074 A 
ATOM     54  C   UNL A   1      44.232  23.537  29.203  1.00  0.00     0.031 C 
ATOM     55  C   UNL A   1      48.201  27.965  32.713  1.00  0.00     0.029 A 
ATOM     56  C   UNL A   1      48.603  27.719  31.331  1.00  0.00     0.049 A 
ATOM     57  H   UNL A   1      47.630  26.529  29.924  1.00  0.00     0.167 HD
ATOM     58  C   UNL A   1      45.568  23.827  27.133  1.00  0.00     0.034 A 
ATOM     59  C   UNL A   1      49.694  28.239  30.733  1.00  0.00     0.034 A 
ATOM     60  C   UNL A   1      46.647  24.418  26.381  1.00  0.00     0.049 A 
ATOM     61  C   UNL A   1      49.967  27.888  29.290  1.00  0.00     0.074 A 
ATOM     62  C   UNL A   1      46.955  24.249  25.041  1.00  0.00     0.029 A 
ATOM     63  N   UNL A   1      47.603  25.283  26.900  1.00  0.00    -0.354 N 
ATOM     64  N   UNL A   1      49.284  27.104  28.488  1.00  0.00    -0.248 NA
ATOM     65  C   UNL A   1      51.147  28.503  28.670  1.00  0.00     0.031 C 
ATOM     66  C   UNL A   1      48.139  24.944  24.772  1.00  0.00     0.029 A 
ATOM     67  C   UNL A   1      48.521  25.622  25.918  1.00  0.00     0.049 A 
ATOM     68  H   UNL A   1      47.626  25.605  27.829  1.00  0.00     0.167 HD
ATOM     69  C   UNL A   1      49.936  27.160  27.257  1.00  0.00     0.074 A 
ATOM     70  C   UNL A   1      51.052  28.068  27.423  1.00  0.00     0.031 C 
ATOM     71  C   UNL A   1      49.637  26.523  26.097  1.00  0.00     0.034 A 
BRANCH  58  72
ATOM     72  C   UNL A   1      44.676  22.816  26.451  1.00  0.00     0.023 A 
ATOM     73  C   UNL A   1      45.152  21.556  26.049  1.00  0.00     0.031 A 
ATOM     74  C   UNL A   1      43.328  23.123  26.190  1.00  0.00     0.131 A 
ATOM     75  C   UNL A   1      44.308  20.679  25.351  1.00  0.00     0.055 A 
ATOM     76  C   UNL A   1      42.472  22.211  25.568  1.00  0.00     0.041 A 
ATOM     77  F   UNL A   1      42.821  24.319  26.527  1.00  0.00    -0.206 F 
ATOM     78  C   UNL A   1      42.964  20.985  25.132  1.00  0.00     0.022 A 
BRANCH  75  79
ATOM     79  S   UNL A   1      45.032  19.189  24.609  1.00  0.00     0.124 S 
ATOM     80  O   UNL A   1      44.592  19.309  23.220  1.00  0.00    -0.237 OA
ATOM     81  O   UNL A   1      46.458  19.378  24.847  1.00  0.00    -0.237 OA
ATOM     82  O   UNL A   1      44.412  18.098  25.357  1.00  0.00    -0.744 OA
ENDBRANCH  75  79
ENDBRANCH  58  72
BRANCH  59  83
ATOM     83  C   UNL A   1      50.627  29.126  31.489  1.00  0.00     0.023 A 
ATOM     84  C   UNL A   1      50.468  30.521  31.484  1.00  0.00     0.031 A 
ATOM     85  C   UNL A   1      51.726  28.592  32.187  1.00  0.00     0.131 A 
ATOM     86  C   UNL A   1      51.423  31.337  32.111  1.00  0.00     0.055 A 
ATOM     87  C   UNL A   1      52.638  29.406  32.862  1.00  0.00     0.041 A 
ATOM     88  F   UNL A   1      51.927  27.266  32.227  1.00  0.00    -0.206 F 
ATOM     89  C   UNL A   1      52.497  30.788  32.813  1.00  0.00     0.022 A 
BRANCH  86  90
ATOM     90  S   UNL A   1      51.297  33.136  31.905  1.00  0.00     0.124 S 
ATOM     91  O   UNL A   1      52.579  33.584  32.436  1.00  0.00    -0.237 OA
ATOM     92  O   UNL A   1      51.119  33.263  30.462  1.00  0.00    -0.237 OA
ATOM     93  O   UNL A   1      50.130  33.488  32.709  1.00  0.00    -0.744 OA
ENDBRANCH  86  90
ENDBRANCH  59  83
BRANCH  71  94
ATOM     94  C   UNL A   1      50.506  26.829  24.900  1.00  0.00     0.023 A 
ATOM     95  C   UNL A   1      50.075  27.679  23.867  1.00  0.00     0.031 A 
ATOM     96  C   UNL A   1      51.782  26.249  24.787  1.00  0.00     0.131 A 
ATOM     97  C   UNL A   1      50.887  27.877  22.739  1.00  0.00     0.055 A 
ATOM     98  C   UNL A   1      52.614  26.505  23.697  1.00  0.00     0.041 A 
ATOM     99  F   UNL A   1      52.246  25.425  25.741  1.00  0.00    -0.206 F 
ATOM    100  C   UNL A   1      52.162  27.312  22.657  1.00  0.00     0.022 A 
BRANCH  97 101
ATOM    101  S   UNL A   1      50.212  28.801  21.332  1.00  0.00     0.124 S 
ATOM    102  O   UNL A   1      50.644  27.989  20.200  1.00  0.00    -0.237 OA
ATOM    103  O   UNL A   1      48.780  28.794  21.612  1.00  0.00    -0.237 OA
ATOM    104  O   UNL A   1      50.858  30.109  21.439  1.00  0.00    -0.744 OA
ENDBRANCH  97 101
ENDBRANCH  71  94
ENDBRANCH  45  46
ENDBRANCH  37  40
ENDBRANCH  35  36
ENDBRANCH  34  35
ENDBRANCH  33  34
ENDBRANCH   1  33
TORSDOF 20
ENDMDL
MODEL 2
REMARK VINA RESULT:     -10.8      6.632      9.765
REMARK SMILES CC(C)Cc1ccc(-c2cc(Cl)cc3c2O[C@H](C(F)(F)F)C(C(=O)NCCCCCCNC(=O)c2ccc(-c4c5nc(c(-c6cc(S(=O)(=O)[O-])ccc6F)c6ccc([nH]6)c(-c6cc(S(=O)(=O)[O-])ccc6F)c6nc(c(-c7cc(S(=O)(=O)[O-])ccc7F)c7ccc4[nH]7)C=C6)C=C5)cc2)=C3)cc1
REMARK SMILES IDX 28 1 27 2 26 3 25 4 23 5 24 6 22 8 9 9 10 10 15 11 11 12
REMARK SMILES IDX 14 13 16 14 12 15 13 16 98 17 17 18 8 19 5 20 6 21 100 22
REMARK SMILES IDX 7 23 99 24 4 25 2 26 1 27 3 28 18 29 19 30 20 31 21 32 29 33
REMARK SMILES IDX 30 34 31 35 32 36 33 37 34 39 35 40 36 41 97 42 37 43 96 44
REMARK SMILES IDX 38 45 39 46 40 47 90 48 41 49 95 50 89 51 91 52 42 53 94 54
REMARK SMILES IDX 88 55 87 56 43 58 75 59 55 60 74 61 56 62 59 63 73 64 92 65
REMARK SMILES IDX 57 66 58 67 72 69 93 70 60 71 44 72 45 73 53 74 46 75 52 76
REMARK SMILES IDX 54 77 51 78 47 79 48 80 49 81 50 82 76 83 77 84 85 85 78 86
REMARK SMILES IDX 84 87 86 88 83 89 79 90 80 91 81 92 82 93 61 94 62 95 70 96
REMARK SMILES IDX 63 97 69 98 71 99 68 100 64 101 65 102 66 103 67 104
REMARK H PARENT 25 7 32 38 91 57 59 68
REMARK Flexibility Score: inf
ROOT
ATOM      1  C   UNL A   1      47.946  21.108  35.698  1.00  0.00     0.002 C 
ENDROOT
BRANCH   1   2
ATOM      2  C   UNL A   1      47.852  20.481  37.099  1.00  0.00     0.021 C 
BRANCH   2   3
ATOM      3  C   UNL A   1      46.563  20.813  37.864  1.00  0.00     0.116 C 
BRANCH   3   4
ATOM      4  N   UNL A   1      46.788  20.660  39.287  1.00  0.00    -0.352 N 
ATOM      5  C   UNL A   1      46.120  19.798  40.091  1.00  0.00     0.251 C 
ATOM      6  O   UNL A   1      45.630  20.189  41.144  1.00  0.00    -0.270 OA
ATOM      7  H   UNL A   1      47.480  21.224  39.701  1.00  0.00     0.163 HD
BRANCH   5   8
ATOM      8  C   UNL A   1      46.174  18.358  39.701  1.00  0.00     0.067 C 
ATOM      9  C   UNL A   1      46.657  16.824  43.416  1.00  0.00     0.026 A 
ATOM     10  C   UNL A   1      47.676  17.587  44.049  1.00  0.00     0.033 A 
ATOM     11  C   UNL A   1      46.537  16.977  42.024  1.00  0.00     0.135 A 
ATOM     12  C   UNL A   1      48.610  18.335  43.339  1.00  0.00     0.042 A 
ATOM     13  C   UNL A   1      47.567  17.645  41.315  1.00  0.00     0.019 A 
ATOM     14  O   UNL A   1      45.421  16.564  41.305  1.00  0.00    -0.475 OA
ATOM     15  Cl  UNL A   1      49.776  19.271  44.186  1.00  0.00    -0.084 Cl
ATOM     16  C   UNL A   1      48.606  18.311  41.960  1.00  0.00     0.032 A 
ATOM     17  C   UNL A   1      47.399  17.820  39.857  1.00  0.00     0.025 C 
ATOM     18  C   UNL A   1      45.022  17.512  40.218  1.00  0.00     0.314 C 
BRANCH   9  19
ATOM     19  C   UNL A   1      45.991  15.838  44.304  1.00  0.00    -0.015 A 
ATOM     20  C   UNL A   1      44.313  13.637  44.988  1.00  0.00    -0.048 A 
ATOM     21  C   UNL A   1      45.669  13.441  44.712  1.00  0.00     0.004 A 
ATOM     22  C   UNL A   1      43.824  14.948  45.014  1.00  0.00     0.004 A 
ATOM     23  C   UNL A   1      46.501  14.527  44.408  1.00  0.00     0.009 A 
ATOM     24  C   UNL A   1      44.653  16.036  44.684  1.00  0.00     0.009 A 
BRANCH  20  25
ATOM     25  C   UNL A   1      43.403  12.452  45.245  1.00  0.00     0.038 C 
BRANCH  25  26
ATOM     26  C   UNL A   1      43.913  11.145  44.608  1.00  0.00    -0.013 C 
ATOM     27  C   UNL A   1      44.542  10.226  45.657  1.00  0.00     0.008 C 
ATOM     28  C   UNL A   1      42.786  10.407  43.883  1.00  0.00     0.008 C 
ENDBRANCH  25  26
ENDBRANCH  20  25
ENDBRANCH   9  19
BRANCH  18  29
ATOM     29  C   UNL A   1      44.389  16.789  39.008  1.00  0.00     0.429 C 
ATOM     30  F   UNL A   1      44.861  15.533  38.844  1.00  0.00    -0.167 F 
ATOM     31  F   UNL A   1      43.042  16.711  39.131  1.00  0.00    -0.167 F 
ATOM     32  F   UNL A   1      44.621  17.441  37.836  1.00  0.00    -0.167 F 
ENDBRANCH  18  29
ENDBRANCH   5   8
ENDBRANCH   3   4
ENDBRANCH   2   3
ENDBRANCH   1   2
BRANCH   1  33
ATOM     33  C   UNL A   1      48.412  22.565  35.677  1.00  0.00     0.002 C 
BRANCH  33  34
ATOM     34  C   UNL A   1      47.901  23.374  34.485  1.00  0.00     0.021 C 
BRANCH  34  35
ATOM     35  C   UNL A   1      48.453  24.792  34.400  1.00  0.00     0.116 C 
BRANCH  35  36
ATOM     36  N   UNL A   1      48.456  25.462  35.691  1.00  0.00    -0.352 N 
ATOM     37  C   UNL A   1      47.654  26.483  36.130  1.00  0.00     0.251 C 
ATOM     38  H   UNL A   1      49.126  25.138  36.336  1.00  0.00     0.163 HD
ATOM     39  O   UNL A   1      47.914  27.058  37.186  1.00  0.00    -0.269 OA
BRANCH  37  40
ATOM     40  C   UNL A   1      46.497  26.905  35.312  1.00  0.00     0.039 A 
ATOM     41  C   UNL A   1      45.323  26.151  35.361  1.00  0.00     0.014 A 
ATOM     42  C   UNL A   1      46.565  28.053  34.517  1.00  0.00     0.014 A 
ATOM     43  C   UNL A   1      44.197  26.582  34.658  1.00  0.00     0.010 A 
ATOM     44  C   UNL A   1      45.420  28.523  33.881  1.00  0.00     0.010 A 
ATOM     45  C   UNL A   1      44.224  27.791  33.940  1.00  0.00    -0.014 A 
BRANCH  45  46
ATOM     46  C   UNL A   1      43.013  28.297  33.244  1.00  0.00     0.031 A 
ATOM     47  C   UNL A   1      42.787  27.972  31.792  1.00  0.00     0.074 A 
ATOM     48  C   UNL A   1      42.147  29.092  33.905  1.00  0.00     0.049 A 
ATOM     49  N   UNL A   1      41.830  28.370  30.994  1.00  0.00    -0.248 NA
ATOM     50  C   UNL A   1      43.787  27.109  31.144  1.00  0.00     0.031 C 
ATOM     51  C   UNL A   1      42.281  29.508  35.302  1.00  0.00     0.029 A 
ATOM     52  N   UNL A   1      40.987  29.698  33.490  1.00  0.00    -0.354 N 
ATOM     53  C   UNL A   1      42.117  27.817  29.750  1.00  0.00     0.074 A 
ATOM     54  C   UNL A   1      43.370  27.107  29.886  1.00  0.00     0.031 C 
ATOM     55  C   UNL A   1      41.232  30.277  35.636  1.00  0.00     0.029 A 
ATOM     56  C   UNL A   1      40.378  30.455  34.466  1.00  0.00     0.049 A 
ATOM     57  H   UNL A   1      40.623  29.601  32.580  1.00  0.00     0.167 HD
ATOM     58  C   UNL A   1      41.390  27.879  28.607  1.00  0.00     0.034 A 
ATOM     59  C   UNL A   1      39.267  31.217  34.420  1.00  0.00     0.034 A 
ATOM     60  C   UNL A   1      40.135  28.580  28.494  1.00  0.00     0.049 A 
ATOM     61  C   UNL A   1      38.490  31.291  33.128  1.00  0.00     0.074 A 
ATOM     62  C   UNL A   1      39.287  28.656  27.402  1.00  0.00     0.029 A 
ATOM     63  N   UNL A   1      39.550  29.337  29.502  1.00  0.00    -0.354 N 
ATOM     64  N   UNL A   1      38.745  30.714  31.976  1.00  0.00    -0.248 NA
ATOM     65  C   UNL A   1      37.269  32.107  33.134  1.00  0.00     0.031 C 
ATOM     66  C   UNL A   1      38.235  29.521  27.722  1.00  0.00     0.029 A 
ATOM     67  C   UNL A   1      38.374  29.913  29.043  1.00  0.00     0.049 A 
ATOM     68  H   UNL A   1      39.916  29.448  30.408  1.00  0.00     0.167 HD
ATOM     69  C   UNL A   1      37.697  31.071  31.131  1.00  0.00     0.074 A 
ATOM     70  C   UNL A   1      36.800  31.897  31.913  1.00  0.00     0.031 C 
ATOM     71  C   UNL A   1      37.492  30.744  29.831  1.00  0.00     0.034 A 
BRANCH  58  72
ATOM     72  C   UNL A   1      41.950  27.191  27.383  1.00  0.00     0.023 A 
ATOM     73  C   UNL A   1      41.853  25.801  27.202  1.00  0.00     0.031 A 
ATOM     74  C   UNL A   1      42.600  27.940  26.385  1.00  0.00     0.131 A 
ATOM     75  C   UNL A   1      42.454  25.196  26.088  1.00  0.00     0.055 A 
ATOM     76  C   UNL A   1      43.124  27.340  25.238  1.00  0.00     0.041 A 
ATOM     77  F   UNL A   1      42.747  29.268  26.512  1.00  0.00    -0.206 F 
ATOM     78  C   UNL A   1      43.065  25.958  25.090  1.00  0.00     0.022 A 
BRANCH  75  79
ATOM     79  S   UNL A   1      42.549  23.384  26.032  1.00  0.00     0.124 S 
ATOM     80  O   UNL A   1      43.534  23.109  27.076  1.00  0.00    -0.237 OA
ATOM     81  O   UNL A   1      41.177  22.987  26.326  1.00  0.00    -0.237 OA
ATOM     82  O   UNL A   1      43.003  23.107  24.671  1.00  0.00    -0.744 OA
ENDBRANCH  75  79
ENDBRANCH  58  72
BRANCH  59  83
ATOM     83  C   UNL A   1      38.826  31.992  35.617  1.00  0.00     0.023 A 
ATOM     84  C   UNL A   1      38.235  31.353  36.720  1.00  0.00     0.031 A 
ATOM     85  C   UNL A   1      38.941  33.394  35.654  1.00  0.00     0.131 A 
ATOM     86  C   UNL A   1      37.729  32.117  37.783  1.00  0.00     0.055 A 
ATOM     87  C   UNL A   1      38.493  34.144  36.744  1.00  0.00     0.041 A 
ATOM     88  F   UNL A   1      39.498  34.058  34.630  1.00  0.00    -0.206 F 
ATOM     89  C   UNL A   1      37.869  33.506  37.810  1.00  0.00     0.022 A 
BRANCH  86  90
ATOM     90  S   UNL A   1      36.790  31.273  39.087  1.00  0.00     0.124 S 
ATOM     91  O   UNL A   1      35.595  32.105  39.174  1.00  0.00    -0.237 OA
ATOM     92  O   UNL A   1      36.607  29.944  38.516  1.00  0.00    -0.237 OA
ATOM     93  O   UNL A   1      37.681  31.338  40.243  1.00  0.00    -0.744 OA
ENDBRANCH  86  90
ENDBRANCH  59  83
BRANCH  71  94
ATOM     94  C   UNL A   1      36.219  31.240  29.187  1.00  0.00     0.023 A 
ATOM     95  C   UNL A   1      35.829  32.589  29.256  1.00  0.00     0.031 A 
ATOM     96  C   UNL A   1      35.377  30.344  28.504  1.00  0.00     0.131 A 
ATOM     97  C   UNL A   1      34.602  32.991  28.705  1.00  0.00     0.055 A 
ATOM     98  C   UNL A   1      34.193  30.763  27.898  1.00  0.00     0.041 A 
ATOM     99  F   UNL A   1      35.696  29.042  28.410  1.00  0.00    -0.206 F 
ATOM    100  C   UNL A   1      33.791  32.091  28.008  1.00  0.00     0.022 A 
BRANCH  97 101
ATOM    101  S   UNL A   1      34.029  34.686  28.999  1.00  0.00     0.124 S 
ATOM    102  O   UNL A   1      34.891  35.457  28.109  1.00  0.00    -0.237 OA
ATOM    103  O   UNL A   1      32.623  34.612  28.618  1.00  0.00    -0.237 OA
ATOM    104  O   UNL A   1      34.274  34.888  30.427  1.00  0.00    -0.744 OA
ENDBRANCH  97 101
ENDBRANCH  71  94
ENDBRANCH  45  46
ENDBRANCH  37  40
ENDBRANCH  35  36
ENDBRANCH  34  35
ENDBRANCH  33  34
ENDBRANCH   1  33
TORSDOF 20
ENDMDL
MODEL 3
REMARK VINA RESULT:     -10.7     12.939     21.999
REMARK SMILES CC(C)Cc1ccc(-c2cc(Cl)cc3c2O[C@H](C(F)(F)F)C(C(=O)NCCCCCCNC(=O)c2ccc(-c4c5nc(c(-c6cc(S(=O)(=O)[O-])ccc6F)c6ccc([nH]6)c(-c6cc(S(=O)(=O)[O-])ccc6F)c6nc(c(-c7cc(S(=O)(=O)[O-])ccc7F)c7ccc4[nH]7)C=C6)C=C5)cc2)=C3)cc1
REMARK SMILES IDX 28 1 27 2 26 3 25 4 23 5 24 6 22 8 9 9 10 10 15 11 11 12
REMARK SMILES IDX 14 13 16 14 12 15 13 16 98 17 17 18 8 19 5 20 6 21 100 22
REMARK SMILES IDX 7 23 99 24 4 25 2 26 1 27 3 28 18 29 19 30 20 31 21 32 29 33
REMARK SMILES IDX 30 34 31 35 32 36 33 37 34 39 35 40 36 41 97 42 37 43 96 44
REMARK SMILES IDX 38 45 39 46 40 47 90 48 41 49 95 50 89 51 91 52 42 53 94 54
REMARK SMILES IDX 88 55 87 56 43 58 75 59 55 60 74 61 56 62 59 63 73 64 92 65
REMARK SMILES IDX 57 66 58 67 72 69 93 70 60 71 44 72 45 73 53 74 46 75 52 76
REMARK SMILES IDX 54 77 51 78 47 79 48 80 49 81 50 82 76 83 77 84 85 85 78 86
REMARK SMILES IDX 84 87 86 88 83 89 79 90 80 91 81 92 82 93 61 94 62 95 70 96
REMARK SMILES IDX 63 97 69 98 71 99 68 100 64 101 65 102 66 103 67 104
REMARK H PARENT 25 7 32 38 91 57 59 68
REMARK Flexibility Score: inf
ROOT
ATOM      1  C   UNL A   1      45.368  38.725  27.808  1.00  0.00     0.002 C 
ENDROOT
BRANCH   1   2
ATOM      2  C   UNL A   1      44.740  39.264  26.512  1.00  0.00     0.021 C 
BRANCH   2   3
ATOM      3  C   UNL A   1      44.509  40.781  26.495  1.00  0.00     0.116 C 
BRANCH   3   4
ATOM      4  N   UNL A   1      45.495  41.415  25.644  1.00  0.00    -0.352 N 
ATOM      5  C   UNL A   1      45.280  41.811  24.366  1.00  0.00     0.251 C 
ATOM      6  O   UNL A   1      46.065  41.495  23.480  1.00  0.00    -0.270 OA
ATOM      7  H   UNL A   1      46.390  41.571  26.023  1.00  0.00     0.163 HD
BRANCH   5   8
ATOM      8  C   UNL A   1      44.155  42.770  24.155  1.00  0.00     0.067 C 
ATOM      9  C   UNL A   1      46.145  45.410  21.819  1.00  0.00     0.026 A 
ATOM     10  C   UNL A   1      47.392  45.664  22.453  1.00  0.00     0.033 A 
ATOM     11  C   UNL A   1      45.170  44.766  22.599  1.00  0.00     0.135 A 
ATOM     12  C   UNL A   1      47.610  45.436  23.808  1.00  0.00     0.042 A 
ATOM     13  C   UNL A   1      45.372  44.654  23.998  1.00  0.00     0.019 A 
ATOM     14  O   UNL A   1      44.035  44.168  22.060  1.00  0.00    -0.475 OA
ATOM     15  Cl  UNL A   1      49.164  45.723  24.483  1.00  0.00    -0.084 Cl
ATOM     16  C   UNL A   1      46.576  44.996  24.608  1.00  0.00     0.032 A 
ATOM     17  C   UNL A   1      44.344  43.944  24.788  1.00  0.00     0.025 C 
ATOM     18  C   UNL A   1      43.667  42.877  22.720  1.00  0.00     0.314 C 
BRANCH   9  19
ATOM     19  C   UNL A   1      46.003  46.030  20.478  1.00  0.00    -0.015 A 
ATOM     20  C   UNL A   1      44.681  46.818  18.078  1.00  0.00    -0.048 A 
ATOM     21  C   UNL A   1      44.725  47.674  19.182  1.00  0.00     0.004 A 
ATOM     22  C   UNL A   1      45.383  45.608  18.148  1.00  0.00     0.004 A 
ATOM     23  C   UNL A   1      45.403  47.300  20.350  1.00  0.00     0.009 A 
ATOM     24  C   UNL A   1      46.042  45.223  19.329  1.00  0.00     0.009 A 
BRANCH  20  25
ATOM     25  C   UNL A   1      43.886  47.196  16.844  1.00  0.00     0.038 C 
BRANCH  25  26
ATOM     26  C   UNL A   1      42.366  47.022  17.023  1.00  0.00    -0.013 C 
ATOM     27  C   UNL A   1      41.613  48.300  16.651  1.00  0.00     0.008 C 
ATOM     28  C   UNL A   1      41.840  45.850  16.190  1.00  0.00     0.008 C 
ENDBRANCH  25  26
ENDBRANCH  20  25
ENDBRANCH   9  19
BRANCH  18  29
ATOM     29  C   UNL A   1      42.140  42.631  22.723  1.00  0.00     0.429 C 
ATOM     30  F   UNL A   1      41.448  43.654  23.272  1.00  0.00    -0.167 F 
ATOM     31  F   UNL A   1      41.670  42.440  21.467  1.00  0.00    -0.167 F 
ATOM     32  F   UNL A   1      41.798  41.516  23.425  1.00  0.00    -0.167 F 
ENDBRANCH  18  29
ENDBRANCH   5   8
ENDBRANCH   3   4
ENDBRANCH   2   3
ENDBRANCH   1   2
BRANCH   1  33
ATOM     33  C   UNL A   1      46.273  37.505  27.622  1.00  0.00     0.002 C 
BRANCH  33  34
ATOM     34  C   UNL A   1      46.568  37.154  26.164  1.00  0.00     0.021 C 
BRANCH  34  35
ATOM     35  C   UNL A   1      46.896  35.685  25.921  1.00  0.00     0.116 C 
BRANCH  35  36
ATOM     36  N   UNL A   1      46.020  35.081  24.930  1.00  0.00    -0.352 N 
ATOM     37  C   UNL A   1      44.840  34.408  25.122  1.00  0.00     0.251 C 
ATOM     38  H   UNL A   1      46.315  35.166  23.994  1.00  0.00     0.163 HD
ATOM     39  O   UNL A   1      44.322  33.800  24.187  1.00  0.00    -0.269 OA
BRANCH  37  40
ATOM     40  C   UNL A   1      44.218  34.396  26.462  1.00  0.00     0.039 A 
ATOM     41  C   UNL A   1      44.428  33.296  27.295  1.00  0.00     0.014 A 
ATOM     42  C   UNL A   1      43.449  35.478  26.902  1.00  0.00     0.014 A 
ATOM     43  C   UNL A   1      43.914  33.307  28.593  1.00  0.00     0.010 A 
ATOM     44  C   UNL A   1      43.006  35.520  28.221  1.00  0.00     0.010 A 
ATOM     45  C   UNL A   1      43.229  34.434  29.080  1.00  0.00    -0.014 A 
BRANCH  45  46
ATOM     46  C   UNL A   1      42.737  34.487  30.481  1.00  0.00     0.031 A 
ATOM     47  C   UNL A   1      43.710  34.669  31.615  1.00  0.00     0.074 A 
ATOM     48  C   UNL A   1      41.423  34.317  30.734  1.00  0.00     0.049 A 
ATOM     49  N   UNL A   1      43.486  34.677  32.904  1.00  0.00    -0.248 NA
ATOM     50  C   UNL A   1      45.126  34.833  31.252  1.00  0.00     0.031 C 
ATOM     51  C   UNL A   1      40.391  34.094  29.720  1.00  0.00     0.029 A 
ATOM     52  N   UNL A   1      40.731  34.300  31.919  1.00  0.00    -0.354 N 
ATOM     53  C   UNL A   1      44.731  34.836  33.505  1.00  0.00     0.074 A 
ATOM     54  C   UNL A   1      45.711  34.857  32.440  1.00  0.00     0.031 C 
ATOM     55  C   UNL A   1      39.196  33.989  30.324  1.00  0.00     0.029 A 
ATOM     56  C   UNL A   1      39.380  34.083  31.768  1.00  0.00     0.049 A 
ATOM     57  H   UNL A   1      41.160  34.430  32.796  1.00  0.00     0.167 HD
ATOM     58  C   UNL A   1      45.026  34.972  34.822  1.00  0.00     0.034 A 
ATOM     59  C   UNL A   1      38.402  33.959  32.688  1.00  0.00     0.034 A 
ATOM     60  C   UNL A   1      44.033  34.961  35.868  1.00  0.00     0.049 A 
ATOM     61  C   UNL A   1      38.760  34.088  34.149  1.00  0.00     0.074 A 
ATOM     62  C   UNL A   1      44.215  35.152  37.228  1.00  0.00     0.029 A 
ATOM     63  N   UNL A   1      42.675  34.738  35.678  1.00  0.00    -0.354 N 
ATOM     64  N   UNL A   1      39.935  34.297  34.697  1.00  0.00    -0.248 NA
ATOM     65  C   UNL A   1      37.658  33.979  35.114  1.00  0.00     0.031 C 
ATOM     66  C   UNL A   1      42.984  34.963  37.866  1.00  0.00     0.029 A 
ATOM     67  C   UNL A   1      42.016  34.747  36.899  1.00  0.00     0.049 A 
ATOM     68  H   UNL A   1      42.244  34.594  34.806  1.00  0.00     0.167 HD
ATOM     69  C   UNL A   1      39.707  34.378  36.068  1.00  0.00     0.074 A 
ATOM     70  C   UNL A   1      38.280  34.213  36.259  1.00  0.00     0.031 C 
ATOM     71  C   UNL A   1      40.593  34.573  37.077  1.00  0.00     0.034 A 
BRANCH  58  72
ATOM     72  C   UNL A   1      46.481  35.117  35.203  1.00  0.00     0.023 A 
ATOM     73  C   UNL A   1      47.292  34.002  35.477  1.00  0.00     0.031 A 
ATOM     74  C   UNL A   1      47.064  36.393  35.302  1.00  0.00     0.131 A 
ATOM     75  C   UNL A   1      48.617  34.187  35.901  1.00  0.00     0.055 A 
ATOM     76  C   UNL A   1      48.407  36.566  35.644  1.00  0.00     0.041 A 
ATOM     77  F   UNL A   1      46.335  37.498  35.076  1.00  0.00    -0.206 F 
ATOM     78  C   UNL A   1      49.188  35.459  35.960  1.00  0.00     0.022 A 
BRANCH  75  79
ATOM     79  S   UNL A   1      49.540  32.748  36.510  1.00  0.00     0.124 S 
ATOM     80  O   UNL A   1      49.450  31.837  35.371  1.00  0.00    -0.237 OA
ATOM     81  O   UNL A   1      50.859  33.310  36.777  1.00  0.00    -0.237 OA
ATOM     82  O   UNL A   1      48.786  32.332  37.691  1.00  0.00    -0.744 OA
ENDBRANCH  75  79
ENDBRANCH  58  72
BRANCH  59  83
ATOM     83  C   UNL A   1      36.997  33.678  32.272  1.00  0.00     0.023 A 
ATOM     84  C   UNL A   1      36.031  34.696  32.236  1.00  0.00     0.031 A 
ATOM     85  C   UNL A   1      36.585  32.370  31.953  1.00  0.00     0.131 A 
ATOM     86  C   UNL A   1      34.693  34.383  31.949  1.00  0.00     0.055 A 
ATOM     87  C   UNL A   1      35.265  32.075  31.605  1.00  0.00     0.041 A 
ATOM     88  F   UNL A   1      37.465  31.358  31.968  1.00  0.00    -0.206 F 
ATOM     89  C   UNL A   1      34.307  33.083  31.617  1.00  0.00     0.022 A 
BRANCH  86  90
ATOM     90  S   UNL A   1      33.441  35.686  32.118  1.00  0.00     0.124 S 
ATOM     91  O   UNL A   1      33.458  36.285  30.788  1.00  0.00    -0.237 OA
ATOM     92  O   UNL A   1      32.250  34.918  32.462  1.00  0.00    -0.237 OA
ATOM     93  O   UNL A   1      33.970  36.528  33.188  1.00  0.00    -0.744 OA
ENDBRANCH  86  90
ENDBRANCH  59  83
BRANCH  71  94
ATOM     94  C   UNL A   1      40.033  34.672  38.477  1.00  0.00     0.023 A 
ATOM     95  C   UNL A   1      39.939  33.551  39.320  1.00  0.00     0.031 A 
ATOM     96  C   UNL A   1      39.575  35.907  38.968  1.00  0.00     0.131 A 
ATOM     97  C   UNL A   1      39.346  33.677  40.586  1.00  0.00     0.055 A 
ATOM     98  C   UNL A   1      39.050  36.040  40.254  1.00  0.00     0.041 A 
ATOM     99  F   UNL A   1      39.635  37.012  38.206  1.00  0.00    -0.206 F 
ATOM    100  C   UNL A   1      38.920  34.918  41.066  1.00  0.00     0.022 A 
BRANCH  97 101
ATOM    101  S   UNL A   1      39.044  32.176  41.559  1.00  0.00     0.124 S 
ATOM    102  O   UNL A   1      38.024  31.499  40.763  1.00  0.00    -0.237 OA
ATOM    103  O   UNL A   1      40.360  31.546  41.578  1.00  0.00    -0.237 OA
ATOM    104  O   UNL A   1      38.584  32.689  42.848  1.00  0.00    -0.744 OA
ENDBRANCH  97 101
ENDBRANCH  71  94
ENDBRANCH  45  46
ENDBRANCH  37  40
ENDBRANCH  35  36
ENDBRANCH  34  35
ENDBRANCH  33  34
ENDBRANCH   1  33
TORSDOF 20
ENDMDL
