MODEL 1
REMARK VINA RESULT:     -13.2      0.000      0.000
REMARK SMILES COc1ccc(-c2cc(Cl)cc3c2O[C@@H](C(F)(F)F)C(C(=O)NCCCCCCNC(=O)c2ccc(-c4c5nc(c(-c6cc(S(=O)(=O)[O-])ccc6F)c6ccc([nH]6)c(-c6cc(S(=O)(=O)[O-])ccc6F)c6nc(c(-c7cc(S(=O)(=O)[O-])ccc7F)c7ccc4[nH]7)C=C6)C=C5)cc2)=C3)cc1C
REMARK SMILES IDX 27 1 26 2 25 3 24 4 23 5 21 6 22 7 20 9 7 10 8 11 13 12 9 13
REMARK SMILES IDX 12 14 14 15 10 16 11 17 96 18 15 19 6 20 3 21 4 22 98 23
REMARK SMILES IDX 5 24 97 25 99 26 2 27 1 28 16 29 17 30 18 31 19 32 28 33
REMARK SMILES IDX 29 34 30 35 31 36 32 38 33 39 34 40 95 41 35 42 94 43 36 44
REMARK SMILES IDX 37 45 38 46 88 47 39 48 93 49 87 50 89 51 40 52 92 53 86 54
REMARK SMILES IDX 85 55 41 57 73 58 53 59 72 60 54 61 57 62 71 63 90 64 55 65
REMARK SMILES IDX 56 66 70 68 91 69 58 70 42 71 43 72 51 73 44 74 50 75 52 76
REMARK SMILES IDX 49 77 45 78 46 79 47 80 48 81 74 82 75 83 83 84 76 85 82 86
REMARK SMILES IDX 84 87 81 88 77 89 78 90 79 91 80 92 59 93 60 94 68 95 61 96
REMARK SMILES IDX 67 97 69 98 66 99 62 100 63 101 64 102 65 103
REMARK H PARENT 23 8 30 37 89 56 57 67
REMARK Flexibility Score: inf
ROOT
ATOM      1  C   UNL A   1      31.989  30.399  25.807  1.00  0.00     0.002 C 
ENDROOT
BRANCH   1   2
ATOM      2  C   UNL A   1      31.682  29.215  24.891  1.00  0.00     0.002 C 
BRANCH   2   3
ATOM      3  C   UNL A   1      32.842  28.406  24.320  1.00  0.00     0.021 C 
BRANCH   3   4
ATOM      4  C   UNL A   1      33.392  27.191  25.065  1.00  0.00     0.116 C 
BRANCH   4   5
ATOM      5  N   UNL A   1      34.033  26.125  24.323  1.00  0.00    -0.352 N 
ATOM      6  C   UNL A   1      33.523  25.117  23.545  1.00  0.00     0.251 C 
ATOM      7  O   UNL A   1      34.292  24.609  22.721  1.00  0.00    -0.270 OA
ATOM      8  H   UNL A   1      35.015  26.124  24.390  1.00  0.00     0.163 HD
BRANCH   6   9
ATOM      9  C   UNL A   1      32.101  24.535  23.674  1.00  0.00     0.067 C 
ATOM     10  C   UNL A   1      33.917  21.646  25.725  1.00  0.00     0.026 A 
ATOM     11  C   UNL A   1      33.559  20.292  25.565  1.00  0.00     0.033 A 
ATOM     12  C   UNL A   1      33.036  22.556  25.148  1.00  0.00     0.135 A 
ATOM     13  C   UNL A   1      32.664  19.918  24.554  1.00  0.00     0.042 A 
ATOM     14  C   UNL A   1      32.402  22.216  23.926  1.00  0.00     0.019 A 
ATOM     15  O   UNL A   1      32.660  23.737  25.825  1.00  0.00    -0.475 OA
ATOM     16  Cl  UNL A   1      32.318  18.250  24.305  1.00  0.00    -0.084 Cl
ATOM     17  C   UNL A   1      32.166  20.871  23.663  1.00  0.00     0.032 A 
ATOM     18  C   UNL A   1      31.973  23.346  23.025  1.00  0.00     0.025 C 
ATOM     19  C   UNL A   1      31.561  24.350  25.078  1.00  0.00     0.314 C 
BRANCH  10  20
ATOM     20  C   UNL A   1      35.388  21.884  25.564  1.00  0.00    -0.014 A 
ATOM     21  C   UNL A   1      38.222  22.006  25.566  1.00  0.00     0.121 A 
ATOM     22  C   UNL A   1      37.439  23.135  25.857  1.00  0.00     0.047 A 
ATOM     23  C   UNL A   1      37.604  20.796  25.251  1.00  0.00    -0.008 A 
ATOM     24  C   UNL A   1      36.032  23.080  25.858  1.00  0.00     0.013 A 
ATOM     25  C   UNL A   1      36.200  20.771  25.215  1.00  0.00     0.016 A 
ATOM     26  C   UNL A   1      38.346  19.514  24.997  1.00  0.00     0.048 C 
BRANCH  21  27
ATOM     27  O   UNL A   1      39.572  22.155  25.750  1.00  0.00    -0.496 OA
ATOM     28  C   UNL A   1      40.023  21.877  27.074  1.00  0.00     0.278 C 
ENDBRANCH  21  27
ENDBRANCH  10  20
BRANCH  19  29
ATOM     29  C   UNL A   1      30.682  25.501  25.605  1.00  0.00     0.429 C 
ATOM     30  F   UNL A   1      29.554  24.985  26.175  1.00  0.00    -0.167 F 
ATOM     31  F   UNL A   1      31.291  26.239  26.554  1.00  0.00    -0.167 F 
ATOM     32  F   UNL A   1      30.237  26.332  24.634  1.00  0.00    -0.167 F 
ENDBRANCH  19  29
ENDBRANCH   6   9
ENDBRANCH   4   5
ENDBRANCH   3   4
ENDBRANCH   2   3
ENDBRANCH   1   2
BRANCH   1  33
ATOM     33  C   UNL A   1      32.503  30.070  27.205  1.00  0.00     0.021 C 
BRANCH  33  34
ATOM     34  C   UNL A   1      34.022  30.051  27.356  1.00  0.00     0.116 C 
BRANCH  34  35
ATOM     35  N   UNL A   1      34.516  31.020  28.333  1.00  0.00    -0.352 N 
ATOM     36  C   UNL A   1      35.710  31.008  29.037  1.00  0.00     0.251 C 
ATOM     37  H   UNL A   1      33.920  31.783  28.516  1.00  0.00     0.163 HD
ATOM     38  O   UNL A   1      36.011  31.885  29.829  1.00  0.00    -0.269 OA
BRANCH  36  39
ATOM     39  C   UNL A   1      36.682  29.939  28.718  1.00  0.00     0.039 A 
ATOM     40  C   UNL A   1      36.890  28.952  29.686  1.00  0.00     0.014 A 
ATOM     41  C   UNL A   1      37.543  30.072  27.633  1.00  0.00     0.014 A 
ATOM     42  C   UNL A   1      38.096  28.260  29.698  1.00  0.00     0.010 A 
ATOM     43  C   UNL A   1      38.776  29.448  27.693  1.00  0.00     0.010 A 
ATOM     44  C   UNL A   1      39.078  28.601  28.768  1.00  0.00    -0.014 A 
BRANCH  44  45
ATOM     45  C   UNL A   1      40.487  28.261  28.958  1.00  0.00     0.031 A 
ATOM     46  C   UNL A   1      41.082  27.067  28.330  1.00  0.00     0.074 A 
ATOM     47  C   UNL A   1      41.272  29.062  29.713  1.00  0.00     0.049 A 
ATOM     48  N   UNL A   1      42.133  26.459  28.768  1.00  0.00    -0.248 NA
ATOM     49  C   UNL A   1      40.487  26.417  27.172  1.00  0.00     0.031 C 
ATOM     50  C   UNL A   1      42.728  29.038  29.816  1.00  0.00     0.029 A 
ATOM     51  N   UNL A   1      40.864  29.893  30.752  1.00  0.00    -0.354 N 
ATOM     52  C   UNL A   1      42.523  25.546  27.816  1.00  0.00     0.074 A 
ATOM     53  C   UNL A   1      41.416  25.501  26.888  1.00  0.00     0.031 C 
ATOM     54  C   UNL A   1      43.088  29.589  30.985  1.00  0.00     0.029 A 
ATOM     55  C   UNL A   1      41.872  29.864  31.729  1.00  0.00     0.049 A 
ATOM     56  H   UNL A   1      40.025  30.406  30.795  1.00  0.00     0.167 HD
ATOM     57  C   UNL A   1      43.792  25.044  27.850  1.00  0.00     0.034 A 
ATOM     58  C   UNL A   1      41.614  29.447  33.002  1.00  0.00     0.034 A 
ATOM     59  C   UNL A   1      44.520  25.485  29.044  1.00  0.00     0.049 A 
ATOM     60  C   UNL A   1      42.442  28.259  33.439  1.00  0.00     0.074 A 
ATOM     61  C   UNL A   1      45.500  26.442  29.261  1.00  0.00     0.029 A 
ATOM     62  N   UNL A   1      44.087  25.083  30.303  1.00  0.00    -0.354 N 
ATOM     63  N   UNL A   1      43.130  27.503  32.629  1.00  0.00    -0.248 NA
ATOM     64  C   UNL A   1      42.536  27.815  34.825  1.00  0.00     0.031 C 
ATOM     65  C   UNL A   1      45.625  26.638  30.663  1.00  0.00     0.029 A 
ATOM     66  C   UNL A   1      44.740  25.784  31.299  1.00  0.00     0.049 A 
ATOM     67  H   UNL A   1      43.405  24.389  30.464  1.00  0.00     0.167 HD
ATOM     68  C   UNL A   1      43.724  26.482  33.335  1.00  0.00     0.074 A 
ATOM     69  C   UNL A   1      43.343  26.746  34.711  1.00  0.00     0.031 C 
ATOM     70  C   UNL A   1      44.460  25.512  32.705  1.00  0.00     0.034 A 
BRANCH  57  71
ATOM     71  C   UNL A   1      44.486  24.402  26.658  1.00  0.00     0.023 A 
ATOM     72  C   UNL A   1      44.197  23.059  26.329  1.00  0.00     0.031 A 
ATOM     73  C   UNL A   1      45.469  25.010  25.854  1.00  0.00     0.131 A 
ATOM     74  C   UNL A   1      44.935  22.360  25.353  1.00  0.00     0.055 A 
ATOM     75  C   UNL A   1      46.246  24.302  24.926  1.00  0.00     0.041 A 
ATOM     76  F   UNL A   1      45.683  26.330  25.874  1.00  0.00    -0.206 F 
ATOM     77  C   UNL A   1      45.991  22.963  24.681  1.00  0.00     0.022 A 
BRANCH  74  78
ATOM     78  S   UNL A   1      44.496  20.642  24.968  1.00  0.00     0.124 S 
ATOM     79  O   UNL A   1      44.528  20.630  23.510  1.00  0.00    -0.237 OA
ATOM     80  O   UNL A   1      45.550  19.895  25.646  1.00  0.00    -0.237 OA
ATOM     81  O   UNL A   1      43.164  20.492  25.556  1.00  0.00    -0.744 OA
ENDBRANCH  74  78
ENDBRANCH  57  71
BRANCH  58  82
ATOM     82  C   UNL A   1      40.228  29.756  33.453  1.00  0.00     0.023 A 
ATOM     83  C   UNL A   1      39.957  31.091  33.824  1.00  0.00     0.031 A 
ATOM     84  C   UNL A   1      39.142  28.925  33.148  1.00  0.00     0.131 A 
ATOM     85  C   UNL A   1      38.658  31.605  33.715  1.00  0.00     0.055 A 
ATOM     86  C   UNL A   1      37.834  29.425  33.109  1.00  0.00     0.041 A 
ATOM     87  F   UNL A   1      39.340  27.657  32.761  1.00  0.00    -0.206 F 
ATOM     88  C   UNL A   1      37.594  30.780  33.346  1.00  0.00     0.022 A 
BRANCH  85  89
ATOM     89  S   UNL A   1      38.400  33.404  33.791  1.00  0.00     0.124 S 
ATOM     90  O   UNL A   1      39.082  33.862  32.587  1.00  0.00    -0.237 OA
ATOM     91  O   UNL A   1      36.945  33.535  33.782  1.00  0.00    -0.237 OA
ATOM     92  O   UNL A   1      39.029  33.772  35.057  1.00  0.00    -0.744 OA
ENDBRANCH  85  89
ENDBRANCH  58  82
BRANCH  70  93
ATOM     93  C   UNL A   1      45.047  24.254  33.333  1.00  0.00     0.023 A 
ATOM     94  C   UNL A   1      46.329  24.174  33.898  1.00  0.00     0.031 A 
ATOM     95  C   UNL A   1      44.275  23.065  33.432  1.00  0.00     0.131 A 
ATOM     96  C   UNL A   1      46.816  22.974  34.456  1.00  0.00     0.055 A 
ATOM     97  C   UNL A   1      44.735  21.894  34.044  1.00  0.00     0.041 A 
ATOM     98  F   UNL A   1      43.027  22.986  32.946  1.00  0.00    -0.206 F 
ATOM     99  C   UNL A   1      46.021  21.837  34.552  1.00  0.00     0.022 A 
BRANCH  96 100
ATOM    100  S   UNL A   1      48.539  22.923  35.021  1.00  0.00     0.124 S 
ATOM    101  O   UNL A   1      49.091  24.131  34.414  1.00  0.00    -0.237 OA
ATOM    102  O   UNL A   1      48.394  22.955  36.473  1.00  0.00    -0.237 OA
ATOM    103  O   UNL A   1      49.046  21.666  34.475  1.00  0.00    -0.744 OA
ENDBRANCH  96 100
ENDBRANCH  70  93
ENDBRANCH  44  45
ENDBRANCH  36  39
ENDBRANCH  34  35
ENDBRANCH  33  34
ENDBRANCH   1  33
TORSDOF 19
ENDMDL
MODEL 2
REMARK VINA RESULT:     -13.2      4.136     10.394
REMARK SMILES COc1ccc(-c2cc(Cl)cc3c2O[C@@H](C(F)(F)F)C(C(=O)NCCCCCCNC(=O)c2ccc(-c4c5nc(c(-c6cc(S(=O)(=O)[O-])ccc6F)c6ccc([nH]6)c(-c6cc(S(=O)(=O)[O-])ccc6F)c6nc(c(-c7cc(S(=O)(=O)[O-])ccc7F)c7ccc4[nH]7)C=C6)C=C5)cc2)=C3)cc1C
REMARK SMILES IDX 27 1 26 2 25 3 24 4 23 5 21 6 22 7 20 9 7 10 8 11 13 12 9 13
REMARK SMILES IDX 12 14 14 15 10 16 11 17 96 18 15 19 6 20 3 21 4 22 98 23
REMARK SMILES IDX 5 24 97 25 99 26 2 27 1 28 16 29 17 30 18 31 19 32 28 33
REMARK SMILES IDX 29 34 30 35 31 36 32 38 33 39 34 40 95 41 35 42 94 43 36 44
REMARK SMILES IDX 37 45 38 46 88 47 39 48 93 49 87 50 89 51 40 52 92 53 86 54
REMARK SMILES IDX 85 55 41 57 73 58 53 59 72 60 54 61 57 62 71 63 90 64 55 65
REMARK SMILES IDX 56 66 70 68 91 69 58 70 42 71 43 72 51 73 44 74 50 75 52 76
REMARK SMILES IDX 49 77 45 78 46 79 47 80 48 81 74 82 75 83 83 84 76 85 82 86
REMARK SMILES IDX 84 87 81 88 77 89 78 90 79 91 80 92 59 93 60 94 68 95 61 96
REMARK SMILES IDX 67 97 69 98 66 99 62 100 63 101 64 102 65 103
REMARK H PARENT 23 8 30 37 89 56 57 67
REMARK Flexibility Score: inf
ROOT
ATOM      1  C   UNL A   1      37.527  22.146  25.339  1.00  0.00     0.002 C 
ENDROOT
BRANCH   1   2
ATOM      2  C   UNL A   1      37.197  23.558  25.821  1.00  0.00     0.002 C 
BRANCH   2   3
ATOM      3  C   UNL A   1      35.890  24.202  25.370  1.00  0.00     0.021 C 
BRANCH   3   4
ATOM      4  C   UNL A   1      34.543  23.634  25.810  1.00  0.00     0.116 C 
BRANCH   4   5
ATOM      5  N   UNL A   1      33.526  24.523  26.333  1.00  0.00    -0.352 N 
ATOM      6  C   UNL A   1      32.192  24.660  26.041  1.00  0.00     0.251 C 
ATOM      7  O   UNL A   1      31.489  25.199  26.904  1.00  0.00    -0.270 OA
ATOM      8  H   UNL A   1      33.852  25.143  27.025  1.00  0.00     0.163 HD
BRANCH   6   9
ATOM      9  C   UNL A   1      31.534  24.257  24.707  1.00  0.00     0.067 C 
ATOM     10  C   UNL A   1      31.966  28.113  23.811  1.00  0.00     0.026 A 
ATOM     11  C   UNL A   1      30.957  28.829  23.136  1.00  0.00     0.033 A 
ATOM     12  C   UNL A   1      31.790  26.732  23.826  1.00  0.00     0.135 A 
ATOM     13  C   UNL A   1      29.707  28.238  22.911  1.00  0.00     0.042 A 
ATOM     14  C   UNL A   1      30.477  26.209  23.925  1.00  0.00     0.019 A 
ATOM     15  O   UNL A   1      32.877  25.857  23.603  1.00  0.00    -0.475 OA
ATOM     16  Cl  UNL A   1      28.452  29.163  22.179  1.00  0.00    -0.084 Cl
ATOM     17  C   UNL A   1      29.431  26.960  23.403  1.00  0.00     0.032 A 
ATOM     18  C   UNL A   1      30.316  24.840  24.539  1.00  0.00     0.025 C 
ATOM     19  C   UNL A   1      32.337  24.506  23.446  1.00  0.00     0.314 C 
BRANCH  10  20
ATOM     20  C   UNL A   1      32.415  28.785  25.072  1.00  0.00    -0.014 A 
ATOM     21  C   UNL A   1      33.296  30.431  27.208  1.00  0.00     0.121 A 
ATOM     22  C   UNL A   1      33.995  29.270  26.840  1.00  0.00     0.047 A 
ATOM     23  C   UNL A   1      32.131  30.784  26.526  1.00  0.00    -0.008 A 
ATOM     24  C   UNL A   1      33.563  28.449  25.780  1.00  0.00     0.013 A 
ATOM     25  C   UNL A   1      31.692  29.931  25.501  1.00  0.00     0.016 A 
ATOM     26  C   UNL A   1      31.351  32.041  26.790  1.00  0.00     0.048 C 
BRANCH  21  27
ATOM     27  O   UNL A   1      33.905  31.219  28.149  1.00  0.00    -0.496 OA
ATOM     28  C   UNL A   1      34.817  32.178  27.618  1.00  0.00     0.278 C 
ENDBRANCH  21  27
ENDBRANCH  10  20
BRANCH  19  29
ATOM     29  C   UNL A   1      33.142  23.299  22.926  1.00  0.00     0.429 C 
ATOM     30  F   UNL A   1      34.440  23.672  22.728  1.00  0.00    -0.167 F 
ATOM     31  F   UNL A   1      33.166  22.267  23.793  1.00  0.00    -0.167 F 
ATOM     32  F   UNL A   1      32.721  22.842  21.725  1.00  0.00    -0.167 F 
ENDBRANCH  19  29
ENDBRANCH   6   9
ENDBRANCH   4   5
ENDBRANCH   3   4
ENDBRANCH   2   3
ENDBRANCH   1   2
BRANCH   1  33
ATOM     33  C   UNL A   1      38.884  21.581  25.748  1.00  0.00     0.021 C 
BRANCH  33  34
ATOM     34  C   UNL A   1      39.646  22.398  26.787  1.00  0.00     0.116 C 
BRANCH  34  35
ATOM     35  N   UNL A   1      40.982  22.791  26.344  1.00  0.00    -0.352 N 
ATOM     36  C   UNL A   1      41.531  24.063  26.270  1.00  0.00     0.251 C 
ATOM     37  H   UNL A   1      41.571  22.055  26.059  1.00  0.00     0.163 HD
ATOM     38  O   UNL A   1      42.670  24.261  25.883  1.00  0.00    -0.269 OA
BRANCH  36  39
ATOM     39  C   UNL A   1      40.723  25.189  26.787  1.00  0.00     0.039 A 
ATOM     40  C   UNL A   1      40.819  26.409  26.111  1.00  0.00     0.014 A 
ATOM     41  C   UNL A   1      40.122  25.108  28.040  1.00  0.00     0.014 A 
ATOM     42  C   UNL A   1      40.535  27.586  26.797  1.00  0.00     0.010 A 
ATOM     43  C   UNL A   1      39.922  26.278  28.748  1.00  0.00     0.010 A 
ATOM     44  C   UNL A   1      40.202  27.514  28.150  1.00  0.00    -0.014 A 
BRANCH  44  45
ATOM     45  C   UNL A   1      40.309  28.666  29.043  1.00  0.00     0.031 A 
ATOM     46  C   UNL A   1      39.251  29.690  29.109  1.00  0.00     0.074 A 
ATOM     47  C   UNL A   1      41.393  28.795  29.841  1.00  0.00     0.049 A 
ATOM     48  N   UNL A   1      39.434  30.906  29.501  1.00  0.00    -0.248 NA
ATOM     49  C   UNL A   1      37.888  29.431  28.668  1.00  0.00     0.031 C 
ATOM     50  C   UNL A   1      41.568  29.715  30.961  1.00  0.00     0.029 A 
ATOM     51  N   UNL A   1      42.667  28.283  29.610  1.00  0.00    -0.354 N 
ATOM     52  C   UNL A   1      38.201  31.495  29.648  1.00  0.00     0.074 A 
ATOM     53  C   UNL A   1      37.282  30.564  29.034  1.00  0.00     0.031 C 
ATOM     54  C   UNL A   1      42.881  29.909  31.160  1.00  0.00     0.029 A 
ATOM     55  C   UNL A   1      43.588  29.226  30.092  1.00  0.00     0.049 A 
ATOM     56  H   UNL A   1      42.882  27.420  29.186  1.00  0.00     0.167 HD
ATOM     57  C   UNL A   1      38.086  32.632  30.397  1.00  0.00     0.034 A 
ATOM     58  C   UNL A   1      44.517  29.794  29.270  1.00  0.00     0.034 A 
ATOM     59  C   UNL A   1      39.395  33.134  30.827  1.00  0.00     0.049 A 
ATOM     60  C   UNL A   1      44.424  31.302  29.189  1.00  0.00     0.074 A 
ATOM     61  C   UNL A   1      40.083  33.089  32.030  1.00  0.00     0.029 A 
ATOM     62  N   UNL A   1      40.306  33.583  29.876  1.00  0.00    -0.354 N 
ATOM     63  N   UNL A   1      43.406  32.001  29.610  1.00  0.00    -0.248 NA
ATOM     64  C   UNL A   1      45.464  32.137  28.600  1.00  0.00     0.031 C 
ATOM     65  C   UNL A   1      41.427  33.478  31.786  1.00  0.00     0.029 A 
ATOM     66  C   UNL A   1      41.552  33.784  30.442  1.00  0.00     0.049 A 
ATOM     67  H   UNL A   1      40.094  33.737  28.927  1.00  0.00     0.167 HD
ATOM     68  C   UNL A   1      43.613  33.334  29.342  1.00  0.00     0.074 A 
ATOM     69  C   UNL A   1      44.933  33.365  28.736  1.00  0.00     0.031 C 
ATOM     70  C   UNL A   1      42.663  34.278  29.634  1.00  0.00     0.034 A 
BRANCH  57  71
ATOM     71  C   UNL A   1      36.781  33.125  31.001  1.00  0.00     0.023 A 
ATOM     72  C   UNL A   1      35.872  33.846  30.195  1.00  0.00     0.031 A 
ATOM     73  C   UNL A   1      36.394  32.986  32.348  1.00  0.00     0.131 A 
ATOM     74  C   UNL A   1      34.737  34.478  30.739  1.00  0.00     0.055 A 
ATOM     75  C   UNL A   1      35.300  33.664  32.906  1.00  0.00     0.041 A 
ATOM     76  F   UNL A   1      37.011  32.138  33.178  1.00  0.00    -0.206 F 
ATOM     77  C   UNL A   1      34.472  34.430  32.102  1.00  0.00     0.022 A 
BRANCH  74  78
ATOM     78  S   UNL A   1      33.603  35.372  29.640  1.00  0.00     0.124 S 
ATOM     79  O   UNL A   1      33.133  36.458  30.492  1.00  0.00    -0.237 OA
ATOM     80  O   UNL A   1      34.477  35.748  28.534  1.00  0.00    -0.237 OA
ATOM     81  O   UNL A   1      32.592  34.368  29.307  1.00  0.00    -0.744 OA
ENDBRANCH  74  78
ENDBRANCH  57  71
BRANCH  58  82
ATOM     82  C   UNL A   1      44.968  28.888  28.177  1.00  0.00     0.023 A 
ATOM     83  C   UNL A   1      45.896  27.881  28.520  1.00  0.00     0.031 A 
ATOM     84  C   UNL A   1      44.244  28.737  26.988  1.00  0.00     0.131 A 
ATOM     85  C   UNL A   1      45.953  26.691  27.782  1.00  0.00     0.055 A 
ATOM     86  C   UNL A   1      44.356  27.576  26.212  1.00  0.00     0.041 A 
ATOM     87  F   UNL A   1      43.328  29.647  26.625  1.00  0.00    -0.206 F 
ATOM     88  C   UNL A   1      45.176  26.528  26.634  1.00  0.00     0.022 A 
BRANCH  85  89
ATOM     89  S   UNL A   1      46.835  25.256  28.468  1.00  0.00     0.124 S 
ATOM     90  O   UNL A   1      47.114  25.691  29.831  1.00  0.00    -0.237 OA
ATOM     91  O   UNL A   1      45.865  24.172  28.337  1.00  0.00    -0.237 OA
ATOM     92  O   UNL A   1      47.995  25.134  27.589  1.00  0.00    -0.744 OA
ENDBRANCH  85  89
ENDBRANCH  58  82
BRANCH  70  93
ATOM     93  C   UNL A   1      42.692  35.756  29.264  1.00  0.00     0.023 A 
ATOM     94  C   UNL A   1      43.474  36.720  29.916  1.00  0.00     0.031 A 
ATOM     95  C   UNL A   1      41.942  36.241  28.159  1.00  0.00     0.131 A 
ATOM     96  C   UNL A   1      43.450  38.076  29.528  1.00  0.00     0.055 A 
ATOM     97  C   UNL A   1      41.968  37.574  27.734  1.00  0.00     0.041 A 
ATOM     98  F   UNL A   1      41.153  35.439  27.430  1.00  0.00    -0.206 F 
ATOM     99  C   UNL A   1      42.717  38.508  28.428  1.00  0.00     0.022 A 
BRANCH  96 100
ATOM    100  S   UNL A   1      44.372  39.277  30.527  1.00  0.00     0.124 S 
ATOM    101  O   UNL A   1      43.469  39.486  31.657  1.00  0.00    -0.237 OA
ATOM    102  O   UNL A   1      45.603  38.553  30.829  1.00  0.00    -0.237 OA
ATOM    103  O   UNL A   1      44.528  40.424  29.636  1.00  0.00    -0.744 OA
ENDBRANCH  96 100
ENDBRANCH  70  93
ENDBRANCH  44  45
ENDBRANCH  36  39
ENDBRANCH  34  35
ENDBRANCH  33  34
ENDBRANCH   1  33
TORSDOF 19
ENDMDL
MODEL 3
REMARK VINA RESULT:     -12.8      2.603      3.626
REMARK SMILES COc1ccc(-c2cc(Cl)cc3c2O[C@@H](C(F)(F)F)C(C(=O)NCCCCCCNC(=O)c2ccc(-c4c5nc(c(-c6cc(S(=O)(=O)[O-])ccc6F)c6ccc([nH]6)c(-c6cc(S(=O)(=O)[O-])ccc6F)c6nc(c(-c7cc(S(=O)(=O)[O-])ccc7F)c7ccc4[nH]7)C=C6)C=C5)cc2)=C3)cc1C
REMARK SMILES IDX 27 1 26 2 25 3 24 4 23 5 21 6 22 7 20 9 7 10 8 11 13 12 9 13
REMARK SMILES IDX 12 14 14 15 10 16 11 17 96 18 15 19 6 20 3 21 4 22 98 23
REMARK SMILES IDX 5 24 97 25 99 26 2 27 1 28 16 29 17 30 18 31 19 32 28 33
REMARK SMILES IDX 29 34 30 35 31 36 32 38 33 39 34 40 95 41 35 42 94 43 36 44
REMARK SMILES IDX 37 45 38 46 88 47 39 48 93 49 87 50 89 51 40 52 92 53 86 54
REMARK SMILES IDX 85 55 41 57 73 58 53 59 72 60 54 61 57 62 71 63 90 64 55 65
REMARK SMILES IDX 56 66 70 68 91 69 58 70 42 71 43 72 51 73 44 74 50 75 52 76
REMARK SMILES IDX 49 77 45 78 46 79 47 80 48 81 74 82 75 83 83 84 76 85 82 86
REMARK SMILES IDX 84 87 81 88 77 89 78 90 79 91 80 92 59 93 60 94 68 95 61 96
REMARK SMILES IDX 67 97 69 98 66 99 62 100 63 101 64 102 65 103
REMARK H PARENT 23 8 30 37 89 56 57 67
REMARK Flexibility Score: inf
ROOT
ATOM      1  C   UNL A   1      35.377  29.347  27.452  1.00  0.00     0.002 C 
ENDROOT
BRANCH   1   2
ATOM      2  C   UNL A   1      34.086  28.778  26.865  1.00  0.00     0.002 C 
BRANCH   2   3
ATOM      3  C   UNL A   1      33.966  28.636  25.351  1.00  0.00     0.021 C 
BRANCH   3   4
ATOM      4  C   UNL A   1      33.180  27.482  24.732  1.00  0.00     0.116 C 
BRANCH   4   5
ATOM      5  N   UNL A   1      33.888  26.338  24.197  1.00  0.00    -0.352 N 
ATOM      6  C   UNL A   1      33.448  25.209  23.554  1.00  0.00     0.251 C 
ATOM      7  O   UNL A   1      34.277  24.608  22.860  1.00  0.00    -0.270 OA
ATOM      8  H   UNL A   1      34.864  26.377  24.318  1.00  0.00     0.163 HD
BRANCH   6   9
ATOM      9  C   UNL A   1      32.035  24.609  23.689  1.00  0.00     0.067 C 
ATOM     10  C   UNL A   1      33.889  21.779  25.788  1.00  0.00     0.026 A 
ATOM     11  C   UNL A   1      33.551  20.418  25.649  1.00  0.00     0.033 A 
ATOM     12  C   UNL A   1      32.995  22.667  25.195  1.00  0.00     0.135 A 
ATOM     13  C   UNL A   1      32.663  20.014  24.643  1.00  0.00     0.042 A 
ATOM     14  C   UNL A   1      32.369  22.298  23.978  1.00  0.00     0.019 A 
ATOM     15  O   UNL A   1      32.601  23.852  25.854  1.00  0.00    -0.475 OA
ATOM     16  Cl  UNL A   1      32.341  18.338  24.419  1.00  0.00    -0.084 Cl
ATOM     17  C   UNL A   1      32.153  20.946  23.736  1.00  0.00     0.032 A 
ATOM     18  C   UNL A   1      31.925  23.408  23.058  1.00  0.00     0.025 C 
ATOM     19  C   UNL A   1      31.495  24.438  25.094  1.00  0.00     0.314 C 
BRANCH  10  20
ATOM     20  C   UNL A   1      35.356  22.035  25.626  1.00  0.00    -0.014 A 
ATOM     21  C   UNL A   1      38.190  22.174  25.602  1.00  0.00     0.121 A 
ATOM     22  C   UNL A   1      37.404  23.276  25.978  1.00  0.00     0.047 A 
ATOM     23  C   UNL A   1      37.574  20.984  25.214  1.00  0.00    -0.008 A 
ATOM     24  C   UNL A   1      35.998  23.213  25.992  1.00  0.00     0.013 A 
ATOM     25  C   UNL A   1      36.170  20.953  25.193  1.00  0.00     0.016 A 
ATOM     26  C   UNL A   1      38.319  19.727  24.866  1.00  0.00     0.048 C 
BRANCH  21  27
ATOM     27  O   UNL A   1      39.541  22.318  25.780  1.00  0.00    -0.496 OA
ATOM     28  C   UNL A   1      39.954  22.400  27.143  1.00  0.00     0.278 C 
ENDBRANCH  21  27
ENDBRANCH  10  20
BRANCH  19  29
ATOM     29  C   UNL A   1      30.598  25.584  25.602  1.00  0.00     0.429 C 
ATOM     30  F   UNL A   1      30.280  26.406  24.560  1.00  0.00    -0.167 F 
ATOM     31  F   UNL A   1      29.433  25.152  26.123  1.00  0.00    -0.167 F 
ATOM     32  F   UNL A   1      31.204  26.386  26.508  1.00  0.00    -0.167 F 
ENDBRANCH  19  29
ENDBRANCH   6   9
ENDBRANCH   4   5
ENDBRANCH   3   4
ENDBRANCH   2   3
ENDBRANCH   1   2
BRANCH   1  33
ATOM     33  C   UNL A   1      35.234  30.513  28.425  1.00  0.00     0.021 C 
BRANCH  33  34
ATOM     34  C   UNL A   1      35.172  31.896  27.783  1.00  0.00     0.116 C 
BRANCH  34  35
ATOM     35  N   UNL A   1      34.243  32.803  28.455  1.00  0.00    -0.352 N 
ATOM     36  C   UNL A   1      34.452  33.571  29.590  1.00  0.00     0.251 C 
ATOM     37  H   UNL A   1      33.350  32.877  28.047  1.00  0.00     0.163 HD
ATOM     38  O   UNL A   1      33.590  34.298  30.055  1.00  0.00    -0.269 OA
BRANCH  36  39
ATOM     39  C   UNL A   1      35.811  33.574  30.175  1.00  0.00     0.039 A 
ATOM     40  C   UNL A   1      36.840  34.120  29.401  1.00  0.00     0.014 A 
ATOM     41  C   UNL A   1      36.090  32.822  31.312  1.00  0.00     0.014 A 
ATOM     42  C   UNL A   1      38.148  33.705  29.626  1.00  0.00     0.010 A 
ATOM     43  C   UNL A   1      37.376  32.343  31.482  1.00  0.00     0.010 A 
ATOM     44  C   UNL A   1      38.388  32.727  30.591  1.00  0.00    -0.014 A 
BRANCH  44  45
ATOM     45  C   UNL A   1      39.613  31.930  30.608  1.00  0.00     0.031 A 
ATOM     46  C   UNL A   1      39.689  30.621  29.934  1.00  0.00     0.074 A 
ATOM     47  C   UNL A   1      40.711  32.403  31.240  1.00  0.00     0.049 A 
ATOM     48  N   UNL A   1      40.522  29.685  30.247  1.00  0.00    -0.248 NA
ATOM     49  C   UNL A   1      38.769  30.236  28.874  1.00  0.00     0.031 C 
ATOM     50  C   UNL A   1      42.075  31.890  31.158  1.00  0.00     0.029 A 
ATOM     51  N   UNL A   1      40.741  33.299  32.305  1.00  0.00    -0.354 N 
ATOM     52  C   UNL A   1      40.459  28.718  29.271  1.00  0.00     0.074 A 
ATOM     53  C   UNL A   1      39.293  29.068  28.492  1.00  0.00     0.031 C 
ATOM     54  C   UNL A   1      42.744  32.261  32.260  1.00  0.00     0.029 A 
ATOM     55  C   UNL A   1      41.796  32.909  33.146  1.00  0.00     0.049 A 
ATOM     56  H   UNL A   1      40.134  34.062  32.445  1.00  0.00     0.167 HD
ATOM     57  C   UNL A   1      41.479  27.818  29.153  1.00  0.00     0.034 A 
ATOM     58  C   UNL A   1      41.576  32.573  34.450  1.00  0.00     0.034 A 
ATOM     59  C   UNL A   1      42.459  27.962  30.235  1.00  0.00     0.049 A 
ATOM     60  C   UNL A   1      42.006  31.166  34.803  1.00  0.00     0.074 A 
ATOM     61  C   UNL A   1      43.722  28.529  30.307  1.00  0.00     0.029 A 
ATOM     62  N   UNL A   1      42.078  27.698  31.548  1.00  0.00    -0.354 N 
ATOM     63  N   UNL A   1      42.292  30.243  33.927  1.00  0.00    -0.248 NA
ATOM     64  C   UNL A   1      42.121  30.684  36.174  1.00  0.00     0.031 C 
ATOM     65  C   UNL A   1      44.081  28.639  31.677  1.00  0.00     0.029 A 
ATOM     66  C   UNL A   1      43.050  28.116  32.438  1.00  0.00     0.049 A 
ATOM     67  H   UNL A   1      41.230  27.270  31.808  1.00  0.00     0.167 HD
ATOM     68  C   UNL A   1      42.594  29.066  34.572  1.00  0.00     0.074 A 
ATOM     69  C   UNL A   1      42.501  29.409  35.980  1.00  0.00     0.031 C 
ATOM     70  C   UNL A   1      42.875  27.921  33.874  1.00  0.00     0.034 A 
BRANCH  57  71
ATOM     71  C   UNL A   1      41.761  27.010  27.896  1.00  0.00     0.023 A 
ATOM     72  C   UNL A   1      43.069  26.993  27.362  1.00  0.00     0.031 A 
ATOM     73  C   UNL A   1      40.806  26.297  27.145  1.00  0.00     0.131 A 
ATOM     74  C   UNL A   1      43.351  26.412  26.110  1.00  0.00     0.055 A 
ATOM     75  C   UNL A   1      41.069  25.772  25.872  1.00  0.00     0.041 A 
ATOM     76  F   UNL A   1      39.593  26.013  27.631  1.00  0.00    -0.206 F 
ATOM     77  C   UNL A   1      42.345  25.842  25.339  1.00  0.00     0.022 A 
BRANCH  74  78
ATOM     78  S   UNL A   1      45.058  26.410  25.494  1.00  0.00     0.124 S 
ATOM     79  O   UNL A   1      45.127  27.671  24.764  1.00  0.00    -0.237 OA
ATOM     80  O   UNL A   1      45.831  26.333  26.729  1.00  0.00    -0.237 OA
ATOM     81  O   UNL A   1      45.116  25.210  24.659  1.00  0.00    -0.744 OA
ENDBRANCH  74  78
ENDBRANCH  57  71
BRANCH  58  82
ATOM     82  C   UNL A   1      40.443  33.319  35.067  1.00  0.00     0.023 A 
ATOM     83  C   UNL A   1      39.447  32.554  35.712  1.00  0.00     0.031 A 
ATOM     84  C   UNL A   1      40.529  34.682  35.379  1.00  0.00     0.131 A 
ATOM     85  C   UNL A   1      38.694  33.108  36.755  1.00  0.00     0.055 A 
ATOM     86  C   UNL A   1      39.725  35.251  36.374  1.00  0.00     0.041 A 
ATOM     87  F   UNL A   1      41.474  35.452  34.821  1.00  0.00    -0.206 F 
ATOM     88  C   UNL A   1      38.837  34.454  37.100  1.00  0.00     0.022 A 
BRANCH  85  89
ATOM     89  S   UNL A   1      37.727  32.013  37.839  1.00  0.00     0.124 S 
ATOM     90  O   UNL A   1      38.514  32.024  39.066  1.00  0.00    -0.237 OA
ATOM     91  O   UNL A   1      36.429  32.678  37.916  1.00  0.00    -0.237 OA
ATOM     92  O   UNL A   1      37.714  30.752  37.103  1.00  0.00    -0.744 OA
ENDBRANCH  85  89
ENDBRANCH  58  82
BRANCH  70  93
ATOM     93  C   UNL A   1      43.081  26.523  34.447  1.00  0.00     0.023 A 
ATOM     94  C   UNL A   1      44.303  25.836  34.438  1.00  0.00     0.031 A 
ATOM     95  C   UNL A   1      42.016  25.842  35.095  1.00  0.00     0.131 A 
ATOM     96  C   UNL A   1      44.425  24.539  34.979  1.00  0.00     0.055 A 
ATOM     97  C   UNL A   1      42.153  24.582  35.689  1.00  0.00     0.041 A 
ATOM     98  F   UNL A   1      40.788  26.373  35.192  1.00  0.00    -0.206 F 
ATOM     99  C   UNL A   1      43.362  23.914  35.623  1.00  0.00     0.022 A 
BRANCH  96 100
ATOM    100  S   UNL A   1      46.003  23.667  34.783  1.00  0.00     0.124 S 
ATOM    101  O   UNL A   1      45.617  22.527  33.956  1.00  0.00    -0.237 OA
ATOM    102  O   UNL A   1      46.836  24.670  34.128  1.00  0.00    -0.237 OA
ATOM    103  O   UNL A   1      46.390  23.336  36.153  1.00  0.00    -0.744 OA
ENDBRANCH  96 100
ENDBRANCH  70  93
ENDBRANCH  44  45
ENDBRANCH  36  39
ENDBRANCH  34  35
ENDBRANCH  33  34
ENDBRANCH   1  33
TORSDOF 19
ENDMDL
