MODEL 1
REMARK VINA RESULT:     -11.1      0.000      0.000
REMARK SMILES O=C(C[NH+]1CC2(CCCC2)C1)NCCCCCCNC(=O)c1ccc(-c2c3nc(c(-c4cc(S(=O)(=O)[O-])ccc4F)c4ccc([nH]4)c(-c4cc(S(=O)(=O)[O-])ccc4F)c4nc(c(-c5cc(S(=O)(=O)[O-])ccc5F)c5ccc2[nH]5)C=C4)C=C3)cc1
REMARK SMILES IDX 16 1 15 2 14 3 13 4 12 5 1 6 2 7 3 9 4 10 5 11 11 12 6 14
REMARK SMILES IDX 7 15 10 16 8 17 9 18 17 19 18 20 19 21 20 22 21 24 22 25
REMARK SMILES IDX 23 26 84 27 24 28 83 29 25 30 26 31 27 32 77 33 28 34 82 35
REMARK SMILES IDX 76 36 78 37 29 38 81 39 75 40 74 41 30 43 62 44 42 45 61 46
REMARK SMILES IDX 43 47 46 48 60 49 79 50 44 51 45 52 59 54 80 55 47 56 31 57
REMARK SMILES IDX 32 58 40 59 33 60 39 61 41 62 38 63 34 64 35 65 36 66 37 67
REMARK SMILES IDX 63 68 64 69 72 70 65 71 71 72 73 73 70 74 66 75 67 76 68 77
REMARK SMILES IDX 69 78 48 79 49 80 57 81 50 82 56 83 58 84 55 85 51 86 52 87
REMARK SMILES IDX 53 88 54 89
REMARK H PARENT 12 8 4 13 19 23 78 42 46 53
REMARK Flexibility Score: inf
ROOT
ATOM      1  C   UNL A   1      32.066  30.302  26.170  1.00  0.00     0.002 C 
ENDROOT
BRANCH   1   2
ATOM      2  C   UNL A   1      32.670  29.371  27.226  1.00  0.00     0.002 C 
BRANCH   2   3
ATOM      3  C   UNL A   1      31.786  28.181  27.627  1.00  0.00     0.021 C 
BRANCH   3   4
ATOM      4  C   UNL A   1      31.290  27.347  26.446  1.00  0.00     0.116 C 
BRANCH   4   5
ATOM      5  N   UNL A   1      31.643  25.957  26.614  1.00  0.00    -0.351 N 
ATOM      6  O   UNL A   1      33.633  26.063  25.472  1.00  0.00    -0.269 OA
ATOM      7  C   UNL A   1      32.771  25.410  26.054  1.00  0.00     0.275 C 
ATOM      8  H   UNL A   1      31.053  25.381  27.151  1.00  0.00     0.163 HD
BRANCH   7   9
ATOM      9  C   UNL A   1      32.838  23.890  26.155  1.00  0.00     0.363 C 
BRANCH   9  10
ATOM     10  N   UNL A   1      34.206  23.374  25.929  1.00  0.00    -0.326 N 
ATOM     11  C   UNL A   1      34.333  22.664  24.638  1.00  0.00     0.275 C 
ATOM     12  C   UNL A   1      34.389  22.087  26.644  1.00  0.00     0.275 C 
ATOM     13  H   UNL A   1      34.789  24.189  26.124  1.00  0.00     0.348 HD
ATOM     14  C   UNL A   1      34.048  21.310  25.336  1.00  0.00     0.068 C 
ATOM     15  C   UNL A   1      34.993  20.161  24.949  1.00  0.00     0.019 C 
ATOM     16  C   UNL A   1      32.619  20.754  25.235  1.00  0.00     0.019 C 
ATOM     17  C   UNL A   1      34.071  19.023  24.514  1.00  0.00     0.001 C 
ATOM     18  C   UNL A   1      32.809  19.248  25.324  1.00  0.00     0.001 C 
ENDBRANCH   9  10
ENDBRANCH   7   9
ENDBRANCH   4   5
ENDBRANCH   3   4
ENDBRANCH   2   3
ENDBRANCH   1   2
BRANCH   1  19
ATOM     19  C   UNL A   1      31.735  31.711  26.666  1.00  0.00     0.021 C 
BRANCH  19  20
ATOM     20  C   UNL A   1      32.886  32.422  27.368  1.00  0.00     0.116 C 
BRANCH  20  21
ATOM     21  N   UNL A   1      32.594  33.823  27.622  1.00  0.00    -0.352 N 
ATOM     22  C   UNL A   1      33.137  34.666  28.563  1.00  0.00     0.251 C 
ATOM     23  H   UNL A   1      31.911  34.225  27.038  1.00  0.00     0.163 HD
ATOM     24  O   UNL A   1      32.635  35.764  28.763  1.00  0.00    -0.269 OA
BRANCH  22  25
ATOM     25  C   UNL A   1      34.310  34.220  29.348  1.00  0.00     0.039 A 
ATOM     26  C   UNL A   1      34.101  33.528  30.542  1.00  0.00     0.014 A 
ATOM     27  C   UNL A   1      35.609  34.467  28.896  1.00  0.00     0.014 A 
ATOM     28  C   UNL A   1      35.195  33.018  31.246  1.00  0.00     0.010 A 
ATOM     29  C   UNL A   1      36.692  33.894  29.557  1.00  0.00     0.010 A 
ATOM     30  C   UNL A   1      36.497  33.160  30.737  1.00  0.00    -0.014 A 
BRANCH  30  31
ATOM     31  C   UNL A   1      37.663  32.539  31.420  1.00  0.00     0.031 A 
ATOM     32  C   UNL A   1      38.382  31.381  30.784  1.00  0.00     0.074 A 
ATOM     33  C   UNL A   1      38.029  32.973  32.643  1.00  0.00     0.049 A 
ATOM     34  N   UNL A   1      39.362  30.655  31.257  1.00  0.00    -0.248 NA
ATOM     35  C   UNL A   1      37.917  30.969  29.452  1.00  0.00     0.031 C 
ATOM     36  C   UNL A   1      37.383  34.063  33.380  1.00  0.00     0.029 A 
ATOM     37  N   UNL A   1      39.024  32.549  33.489  1.00  0.00    -0.354 N 
ATOM     38  C   UNL A   1      39.625  29.693  30.287  1.00  0.00     0.074 A 
ATOM     39  C   UNL A   1      38.655  29.893  29.230  1.00  0.00     0.031 C 
ATOM     40  C   UNL A   1      38.009  34.232  34.555  1.00  0.00     0.029 A 
ATOM     41  C   UNL A   1      39.065  33.233  34.683  1.00  0.00     0.049 A 
ATOM     42  H   UNL A   1      39.648  31.822  33.263  1.00  0.00     0.167 HD
ATOM     43  C   UNL A   1      40.598  28.748  30.269  1.00  0.00     0.034 A 
ATOM     44  C   UNL A   1      39.850  33.063  35.766  1.00  0.00     0.034 A 
ATOM     45  C   UNL A   1      41.556  28.567  31.333  1.00  0.00     0.049 A 
ATOM     46  C   UNL A   1      40.897  31.978  35.743  1.00  0.00     0.074 A 
ATOM     47  C   UNL A   1      42.617  27.679  31.394  1.00  0.00     0.029 A 
ATOM     48  N   UNL A   1      41.564  29.273  32.529  1.00  0.00    -0.354 N 
ATOM     49  N   UNL A   1      41.171  31.114  34.792  1.00  0.00    -0.248 NA
ATOM     50  C   UNL A   1      41.747  31.851  36.934  1.00  0.00     0.031 C 
ATOM     51  C   UNL A   1      43.213  27.792  32.655  1.00  0.00     0.029 A 
ATOM     52  C   UNL A   1      42.585  28.813  33.350  1.00  0.00     0.049 A 
ATOM     53  H   UNL A   1      40.937  29.996  32.762  1.00  0.00     0.167 HD
ATOM     54  C   UNL A   1      42.244  30.361  35.261  1.00  0.00     0.074 A 
ATOM     55  C   UNL A   1      42.577  30.884  36.570  1.00  0.00     0.031 C 
ATOM     56  C   UNL A   1      42.898  29.333  34.661  1.00  0.00     0.034 A 
BRANCH  43  57
ATOM     57  C   UNL A   1      40.647  27.822  29.076  1.00  0.00     0.023 A 
ATOM     58  C   UNL A   1      41.597  27.986  28.051  1.00  0.00     0.031 A 
ATOM     59  C   UNL A   1      39.716  26.777  28.944  1.00  0.00     0.131 A 
ATOM     60  C   UNL A   1      41.541  27.176  26.907  1.00  0.00     0.055 A 
ATOM     61  C   UNL A   1      39.722  25.917  27.844  1.00  0.00     0.041 A 
ATOM     62  F   UNL A   1      38.771  26.581  29.877  1.00  0.00    -0.206 F 
ATOM     63  C   UNL A   1      40.627  26.125  26.808  1.00  0.00     0.022 A 
BRANCH  60  64
ATOM     64  S   UNL A   1      42.573  27.620  25.483  1.00  0.00     0.124 S 
ATOM     65  O   UNL A   1      43.836  27.971  26.132  1.00  0.00    -0.237 OA
ATOM     66  O   UNL A   1      42.578  26.390  24.701  1.00  0.00    -0.237 OA
ATOM     67  O   UNL A   1      41.860  28.743  24.878  1.00  0.00    -0.744 OA
ENDBRANCH  60  64
ENDBRANCH  43  57
BRANCH  44  68
ATOM     68  C   UNL A   1      39.662  33.918  36.974  1.00  0.00     0.023 A 
ATOM     69  C   UNL A   1      39.038  33.418  38.129  1.00  0.00     0.031 A 
ATOM     70  C   UNL A   1      40.069  35.265  36.977  1.00  0.00     0.131 A 
ATOM     71  C   UNL A   1      38.797  34.269  39.219  1.00  0.00     0.055 A 
ATOM     72  C   UNL A   1      39.880  36.091  38.086  1.00  0.00     0.041 A 
ATOM     73  F   UNL A   1      40.672  35.794  35.902  1.00  0.00    -0.206 F 
ATOM     74  C   UNL A   1      39.229  35.598  39.211  1.00  0.00     0.022 A 
BRANCH  71  75
ATOM     75  S   UNL A   1      37.829  33.639  40.618  1.00  0.00     0.124 S 
ATOM     76  O   UNL A   1      37.740  34.817  41.471  1.00  0.00    -0.237 OA
ATOM     77  O   UNL A   1      36.592  33.222  39.965  1.00  0.00    -0.237 OA
ATOM     78  O   UNL A   1      38.653  32.550  41.138  1.00  0.00    -0.744 OA
ENDBRANCH  71  75
ENDBRANCH  44  68
BRANCH  56  79
ATOM     79  C   UNL A   1      44.071  28.737  35.402  1.00  0.00     0.023 A 
ATOM     80  C   UNL A   1      43.916  27.664  36.298  1.00  0.00     0.031 A 
ATOM     81  C   UNL A   1      45.365  29.255  35.210  1.00  0.00     0.131 A 
ATOM     82  C   UNL A   1      45.028  27.179  37.006  1.00  0.00     0.055 A 
ATOM     83  C   UNL A   1      46.476  28.725  35.868  1.00  0.00     0.041 A 
ATOM     84  F   UNL A   1      45.572  30.282  34.371  1.00  0.00    -0.206 F 
ATOM     85  C   UNL A   1      46.308  27.689  36.782  1.00  0.00     0.022 A 
BRANCH  82  86
ATOM     86  S   UNL A   1      44.761  25.932  38.297  1.00  0.00     0.124 S 
ATOM     87  O   UNL A   1      45.977  26.058  39.094  1.00  0.00    -0.237 OA
ATOM     88  O   UNL A   1      43.532  26.396  38.931  1.00  0.00    -0.237 OA
ATOM     89  O   UNL A   1      44.639  24.683  37.547  1.00  0.00    -0.744 OA
ENDBRANCH  82  86
ENDBRANCH  56  79
ENDBRANCH  30  31
ENDBRANCH  22  25
ENDBRANCH  20  21
ENDBRANCH  19  20
ENDBRANCH   1  19
TORSDOF 17
ENDMDL
MODEL 2
REMARK VINA RESULT:     -10.9      2.362      3.107
REMARK SMILES O=C(C[NH+]1CC2(CCCC2)C1)NCCCCCCNC(=O)c1ccc(-c2c3nc(c(-c4cc(S(=O)(=O)[O-])ccc4F)c4ccc([nH]4)c(-c4cc(S(=O)(=O)[O-])ccc4F)c4nc(c(-c5cc(S(=O)(=O)[O-])ccc5F)c5ccc2[nH]5)C=C4)C=C3)cc1
REMARK SMILES IDX 16 1 15 2 14 3 13 4 12 5 1 6 2 7 3 9 4 10 5 11 11 12 6 14
REMARK SMILES IDX 7 15 10 16 8 17 9 18 17 19 18 20 19 21 20 22 21 24 22 25
REMARK SMILES IDX 23 26 84 27 24 28 83 29 25 30 26 31 27 32 77 33 28 34 82 35
REMARK SMILES IDX 76 36 78 37 29 38 81 39 75 40 74 41 30 43 62 44 42 45 61 46
REMARK SMILES IDX 43 47 46 48 60 49 79 50 44 51 45 52 59 54 80 55 47 56 31 57
REMARK SMILES IDX 32 58 40 59 33 60 39 61 41 62 38 63 34 64 35 65 36 66 37 67
REMARK SMILES IDX 63 68 64 69 72 70 65 71 71 72 73 73 70 74 66 75 67 76 68 77
REMARK SMILES IDX 69 78 48 79 49 80 57 81 50 82 56 83 58 84 55 85 51 86 52 87
REMARK SMILES IDX 53 88 54 89
REMARK H PARENT 12 8 4 13 19 23 78 42 46 53
REMARK Flexibility Score: inf
ROOT
ATOM      1  C   UNL A   1      33.684  28.546  24.861  1.00  0.00     0.002 C 
ENDROOT
BRANCH   1   2
ATOM      2  C   UNL A   1      33.923  27.471  25.926  1.00  0.00     0.002 C 
BRANCH   2   3
ATOM      3  C   UNL A   1      33.218  26.131  25.669  1.00  0.00     0.021 C 
BRANCH   3   4
ATOM      4  C   UNL A   1      34.171  24.948  25.497  1.00  0.00     0.116 C 
BRANCH   4   5
ATOM      5  N   UNL A   1      33.438  23.710  25.385  1.00  0.00    -0.351 N 
ATOM      6  O   UNL A   1      34.155  22.810  27.373  1.00  0.00    -0.269 OA
ATOM      7  C   UNL A   1      33.539  22.705  26.315  1.00  0.00     0.275 C 
ATOM      8  H   UNL A   1      32.842  23.582  24.612  1.00  0.00     0.163 HD
BRANCH   7   9
ATOM      9  C   UNL A   1      32.869  21.401  25.895  1.00  0.00     0.363 C 
BRANCH   9  10
ATOM     10  N   UNL A   1      33.723  20.223  26.163  1.00  0.00    -0.326 N 
ATOM     11  C   UNL A   1      34.594  19.886  25.015  1.00  0.00     0.275 C 
ATOM     12  C   UNL A   1      32.954  18.975  25.933  1.00  0.00     0.275 C 
ATOM     13  H   UNL A   1      34.136  20.445  27.069  1.00  0.00     0.348 HD
ATOM     14  C   UNL A   1      33.540  18.877  24.492  1.00  0.00     0.068 C 
ATOM     15  C   UNL A   1      34.097  17.509  24.065  1.00  0.00     0.019 C 
ATOM     16  C   UNL A   1      32.618  19.347  23.356  1.00  0.00     0.019 C 
ATOM     17  C   UNL A   1      33.579  17.301  22.642  1.00  0.00     0.001 C 
ATOM     18  C   UNL A   1      32.271  18.065  22.616  1.00  0.00     0.001 C 
ENDBRANCH   9  10
ENDBRANCH   7   9
ENDBRANCH   4   5
ENDBRANCH   3   4
ENDBRANCH   2   3
ENDBRANCH   1   2
BRANCH   1  19
ATOM     19  C   UNL A   1      32.439  29.407  25.082  1.00  0.00     0.021 C 
BRANCH  19  20
ATOM     20  C   UNL A   1      32.231  29.861  26.523  1.00  0.00     0.116 C 
BRANCH  20  21
ATOM     21  N   UNL A   1      32.062  31.301  26.627  1.00  0.00    -0.352 N 
ATOM     22  C   UNL A   1      32.844  32.221  27.285  1.00  0.00     0.251 C 
ATOM     23  H   UNL A   1      31.277  31.669  26.161  1.00  0.00     0.163 HD
ATOM     24  O   UNL A   1      32.447  33.369  27.430  1.00  0.00    -0.269 OA
BRANCH  22  25
ATOM     25  C   UNL A   1      34.151  31.801  27.839  1.00  0.00     0.039 A 
ATOM     26  C   UNL A   1      35.165  32.751  27.976  1.00  0.00     0.014 A 
ATOM     27  C   UNL A   1      34.366  30.479  28.239  1.00  0.00     0.014 A 
ATOM     28  C   UNL A   1      36.370  32.392  28.583  1.00  0.00     0.010 A 
ATOM     29  C   UNL A   1      35.538  30.143  28.912  1.00  0.00     0.010 A 
ATOM     30  C   UNL A   1      36.551  31.096  29.095  1.00  0.00    -0.014 A 
BRANCH  30  31
ATOM     31  C   UNL A   1      37.788  30.724  29.833  1.00  0.00     0.031 A 
ATOM     32  C   UNL A   1      38.754  29.736  29.240  1.00  0.00     0.074 A 
ATOM     33  C   UNL A   1      38.005  31.225  31.066  1.00  0.00     0.049 A 
ATOM     34  N   UNL A   1      39.839  29.223  29.761  1.00  0.00    -0.248 NA
ATOM     35  C   UNL A   1      38.441  29.236  27.893  1.00  0.00     0.031 C 
ATOM     36  C   UNL A   1      37.120  32.161  31.764  1.00  0.00     0.029 A 
ATOM     37  N   UNL A   1      39.026  31.011  31.958  1.00  0.00    -0.354 N 
ATOM     38  C   UNL A   1      40.333  28.334  28.812  1.00  0.00     0.074 A 
ATOM     39  C   UNL A   1      39.390  28.332  27.713  1.00  0.00     0.031 C 
ATOM     40  C   UNL A   1      37.647  32.455  32.963  1.00  0.00     0.029 A 
ATOM     41  C   UNL A   1      38.877  31.691  33.145  1.00  0.00     0.049 A 
ATOM     42  H   UNL A   1      39.794  30.425  31.765  1.00  0.00     0.167 HD
ATOM     43  C   UNL A   1      41.477  27.605  28.845  1.00  0.00     0.034 A 
ATOM     44  C   UNL A   1      39.631  31.684  34.263  1.00  0.00     0.034 A 
ATOM     45  C   UNL A   1      42.405  27.623  29.951  1.00  0.00     0.049 A 
ATOM     46  C   UNL A   1      40.877  30.834  34.295  1.00  0.00     0.074 A 
ATOM     47  C   UNL A   1      43.620  26.969  30.066  1.00  0.00     0.029 A 
ATOM     48  N   UNL A   1      42.217  28.318  31.139  1.00  0.00    -0.354 N 
ATOM     49  N   UNL A   1      41.361  30.042  33.365  1.00  0.00    -0.248 NA
ATOM     50  C   UNL A   1      41.681  30.883  35.522  1.00  0.00     0.031 C 
ATOM     51  C   UNL A   1      44.125  27.201  31.350  1.00  0.00     0.029 A 
ATOM     52  C   UNL A   1      43.273  28.075  32.007  1.00  0.00     0.049 A 
ATOM     53  H   UNL A   1      41.447  28.899  31.337  1.00  0.00     0.167 HD
ATOM     54  C   UNL A   1      42.543  29.523  33.887  1.00  0.00     0.074 A 
ATOM     55  C   UNL A   1      42.705  30.104  35.203  1.00  0.00     0.031 C 
ATOM     56  C   UNL A   1      43.416  28.648  33.325  1.00  0.00     0.034 A 
BRANCH  43  57
ATOM     57  C   UNL A   1      41.765  26.708  27.664  1.00  0.00     0.023 A 
ATOM     58  C   UNL A   1      41.462  25.335  27.686  1.00  0.00     0.031 A 
ATOM     59  C   UNL A   1      42.377  27.225  26.508  1.00  0.00     0.131 A 
ATOM     60  C   UNL A   1      41.845  24.514  26.615  1.00  0.00     0.055 A 
ATOM     61  C   UNL A   1      42.674  26.418  25.407  1.00  0.00     0.041 A 
ATOM     62  F   UNL A   1      42.711  28.523  26.432  1.00  0.00    -0.206 F 
ATOM     63  C   UNL A   1      42.424  25.051  25.463  1.00  0.00     0.022 A 
BRANCH  60  64
ATOM     64  S   UNL A   1      41.719  22.716  26.816  1.00  0.00     0.124 S 
ATOM     65  O   UNL A   1      40.365  22.573  27.349  1.00  0.00    -0.237 OA
ATOM     66  O   UNL A   1      41.924  22.231  25.456  1.00  0.00    -0.237 OA
ATOM     67  O   UNL A   1      42.789  22.400  27.761  1.00  0.00    -0.744 OA
ENDBRANCH  60  64
ENDBRANCH  43  57
BRANCH  44  68
ATOM     68  C   UNL A   1      39.221  32.484  35.453  1.00  0.00     0.023 A 
ATOM     69  C   UNL A   1      39.666  33.804  35.631  1.00  0.00     0.031 A 
ATOM     70  C   UNL A   1      38.407  31.924  36.456  1.00  0.00     0.131 A 
ATOM     71  C   UNL A   1      39.334  34.504  36.802  1.00  0.00     0.055 A 
ATOM     72  C   UNL A   1      38.032  32.644  37.590  1.00  0.00     0.041 A 
ATOM     73  F   UNL A   1      37.952  30.667  36.337  1.00  0.00    -0.206 F 
ATOM     74  C   UNL A   1      38.507  33.938  37.776  1.00  0.00     0.022 A 
BRANCH  71  75
ATOM     75  S   UNL A   1      40.076  36.136  37.079  1.00  0.00     0.124 S 
ATOM     76  O   UNL A   1      39.818  36.798  35.806  1.00  0.00    -0.237 OA
ATOM     77  O   UNL A   1      39.313  36.625  38.223  1.00  0.00    -0.237 OA
ATOM     78  O   UNL A   1      41.478  35.830  37.353  1.00  0.00    -0.744 OA
ENDBRANCH  71  75
ENDBRANCH  44  68
BRANCH  56  79
ATOM     79  C   UNL A   1      44.652  28.303  34.122  1.00  0.00     0.023 A 
ATOM     80  C   UNL A   1      44.677  27.226  35.025  1.00  0.00     0.031 A 
ATOM     81  C   UNL A   1      45.824  29.069  33.975  1.00  0.00     0.131 A 
ATOM     82  C   UNL A   1      45.831  26.977  35.785  1.00  0.00     0.055 A 
ATOM     83  C   UNL A   1      46.989  28.775  34.685  1.00  0.00     0.041 A 
ATOM     84  F   UNL A   1      45.857  30.111  33.130  1.00  0.00    -0.206 F 
ATOM     85  C   UNL A   1      46.993  27.732  35.606  1.00  0.00     0.022 A 
BRANCH  82  86
ATOM     86  S   UNL A   1      45.765  25.709  37.081  1.00  0.00     0.124 S 
ATOM     87  O   UNL A   1      45.303  26.478  38.232  1.00  0.00    -0.237 OA
ATOM     88  O   UNL A   1      44.813  24.750  36.532  1.00  0.00    -0.237 OA
ATOM     89  O   UNL A   1      47.145  25.234  37.167  1.00  0.00    -0.744 OA
ENDBRANCH  82  86
ENDBRANCH  56  79
ENDBRANCH  30  31
ENDBRANCH  22  25
ENDBRANCH  20  21
ENDBRANCH  19  20
ENDBRANCH   1  19
TORSDOF 17
ENDMDL
MODEL 3
REMARK VINA RESULT:     -10.8      5.670      8.588
REMARK SMILES O=C(C[NH+]1CC2(CCCC2)C1)NCCCCCCNC(=O)c1ccc(-c2c3nc(c(-c4cc(S(=O)(=O)[O-])ccc4F)c4ccc([nH]4)c(-c4cc(S(=O)(=O)[O-])ccc4F)c4nc(c(-c5cc(S(=O)(=O)[O-])ccc5F)c5ccc2[nH]5)C=C4)C=C3)cc1
REMARK SMILES IDX 16 1 15 2 14 3 13 4 12 5 1 6 2 7 3 9 4 10 5 11 11 12 6 14
REMARK SMILES IDX 7 15 10 16 8 17 9 18 17 19 18 20 19 21 20 22 21 24 22 25
REMARK SMILES IDX 23 26 84 27 24 28 83 29 25 30 26 31 27 32 77 33 28 34 82 35
REMARK SMILES IDX 76 36 78 37 29 38 81 39 75 40 74 41 30 43 62 44 42 45 61 46
REMARK SMILES IDX 43 47 46 48 60 49 79 50 44 51 45 52 59 54 80 55 47 56 31 57
REMARK SMILES IDX 32 58 40 59 33 60 39 61 41 62 38 63 34 64 35 65 36 66 37 67
REMARK SMILES IDX 63 68 64 69 72 70 65 71 71 72 73 73 70 74 66 75 67 76 68 77
REMARK SMILES IDX 69 78 48 79 49 80 57 81 50 82 56 83 58 84 55 85 51 86 52 87
REMARK SMILES IDX 53 88 54 89
REMARK H PARENT 12 8 4 13 19 23 78 42 46 53
REMARK Flexibility Score: inf
ROOT
ATOM      1  C   UNL A   1      35.520  23.410  23.921  1.00  0.00     0.002 C 
ENDROOT
BRANCH   1   2
ATOM      2  C   UNL A   1      35.477  24.506  24.990  1.00  0.00     0.002 C 
BRANCH   2   3
ATOM      3  C   UNL A   1      34.069  24.946  25.416  1.00  0.00     0.021 C 
BRANCH   3   4
ATOM      4  C   UNL A   1      33.435  24.059  26.487  1.00  0.00     0.116 C 
BRANCH   4   5
ATOM      5  N   UNL A   1      33.248  22.715  25.996  1.00  0.00    -0.351 N 
ATOM      6  O   UNL A   1      31.278  23.121  24.889  1.00  0.00    -0.269 OA
ATOM      7  C   UNL A   1      32.140  22.338  25.279  1.00  0.00     0.275 C 
ATOM      8  H   UNL A   1      33.944  22.042  26.181  1.00  0.00     0.163 HD
BRANCH   7   9
ATOM      9  C   UNL A   1      32.027  20.834  25.056  1.00  0.00     0.363 C 
BRANCH   9  10
ATOM     10  N   UNL A   1      32.919  20.359  23.975  1.00  0.00    -0.326 N 
ATOM     11  C   UNL A   1      32.408  19.134  23.322  1.00  0.00     0.275 C 
ATOM     12  C   UNL A   1      34.040  19.575  24.549  1.00  0.00     0.275 C 
ATOM     13  H   UNL A   1      33.075  21.204  23.425  1.00  0.00     0.348 HD
ATOM     14  C   UNL A   1      33.260  18.254  24.273  1.00  0.00     0.068 C 
ATOM     15  C   UNL A   1      34.043  17.120  23.591  1.00  0.00     0.019 C 
ATOM     16  C   UNL A   1      32.546  17.628  25.481  1.00  0.00     0.019 C 
ATOM     17  C   UNL A   1      33.648  15.856  24.355  1.00  0.00     0.001 C 
ATOM     18  C   UNL A   1      33.336  16.357  25.751  1.00  0.00     0.001 C 
ENDBRANCH   9  10
ENDBRANCH   7   9
ENDBRANCH   4   5
ENDBRANCH   3   4
ENDBRANCH   2   3
ENDBRANCH   1   2
BRANCH   1  19
ATOM     19  C   UNL A   1      36.556  22.311  24.164  1.00  0.00     0.021 C 
BRANCH  19  20
ATOM     20  C   UNL A   1      36.802  21.986  25.633  1.00  0.00     0.116 C 
BRANCH  20  21
ATOM     21  N   UNL A   1      37.836  20.979  25.807  1.00  0.00    -0.352 N 
ATOM     22  C   UNL A   1      39.156  21.142  26.158  1.00  0.00     0.251 C 
ATOM     23  H   UNL A   1      37.552  20.050  25.650  1.00  0.00     0.163 HD
ATOM     24  O   UNL A   1      39.933  20.201  26.070  1.00  0.00    -0.269 OA
BRANCH  22  25
ATOM     25  C   UNL A   1      39.628  22.469  26.612  1.00  0.00     0.039 A 
ATOM     26  C   UNL A   1      40.634  22.534  27.578  1.00  0.00     0.014 A 
ATOM     27  C   UNL A   1      39.095  23.642  26.072  1.00  0.00     0.014 A 
ATOM     28  C   UNL A   1      41.157  23.776  27.949  1.00  0.00     0.010 A 
ATOM     29  C   UNL A   1      39.669  24.872  26.385  1.00  0.00     0.010 A 
ATOM     30  C   UNL A   1      40.708  24.952  27.324  1.00  0.00    -0.014 A 
BRANCH  30  31
ATOM     31  C   UNL A   1      41.321  26.271  27.633  1.00  0.00     0.031 A 
ATOM     32  C   UNL A   1      42.718  26.582  27.170  1.00  0.00     0.074 A 
ATOM     33  C   UNL A   1      40.646  27.161  28.390  1.00  0.00     0.049 A 
ATOM     34  N   UNL A   1      43.454  27.636  27.409  1.00  0.00    -0.248 NA
ATOM     35  C   UNL A   1      43.384  25.556  26.354  1.00  0.00     0.031 C 
ATOM     36  C   UNL A   1      39.300  26.957  28.931  1.00  0.00     0.029 A 
ATOM     37  N   UNL A   1      40.999  28.407  28.844  1.00  0.00    -0.354 N 
ATOM     38  C   UNL A   1      44.673  27.399  26.782  1.00  0.00     0.074 A 
ATOM     39  C   UNL A   1      44.595  26.071  26.210  1.00  0.00     0.031 C 
ATOM     40  C   UNL A   1      38.935  28.046  29.625  1.00  0.00     0.029 A 
ATOM     41  C   UNL A   1      40.036  29.004  29.627  1.00  0.00     0.049 A 
ATOM     42  H   UNL A   1      41.860  28.833  28.631  1.00  0.00     0.167 HD
ATOM     43  C   UNL A   1      45.748  28.220  26.676  1.00  0.00     0.034 A 
ATOM     44  C   UNL A   1      40.046  30.179  30.288  1.00  0.00     0.034 A 
ATOM     45  C   UNL A   1      45.805  29.542  27.253  1.00  0.00     0.049 A 
ATOM     46  C   UNL A   1      41.268  31.059  30.191  1.00  0.00     0.074 A 
ATOM     47  C   UNL A   1      46.819  30.480  27.159  1.00  0.00     0.029 A 
ATOM     48  N   UNL A   1      44.814  30.111  28.044  1.00  0.00    -0.354 N 
ATOM     49  N   UNL A   1      42.391  30.843  29.545  1.00  0.00    -0.248 NA
ATOM     50  C   UNL A   1      41.219  32.342  30.903  1.00  0.00     0.031 C 
ATOM     51  C   UNL A   1      46.479  31.577  27.957  1.00  0.00     0.029 A 
ATOM     52  C   UNL A   1      45.212  31.368  28.478  1.00  0.00     0.049 A 
ATOM     53  H   UNL A   1      43.955  29.684  28.265  1.00  0.00     0.167 HD
ATOM     54  C   UNL A   1      43.170  31.979  29.751  1.00  0.00     0.074 A 
ATOM     55  C   UNL A   1      42.382  32.880  30.566  1.00  0.00     0.031 C 
ATOM     56  C   UNL A   1      44.423  32.253  29.304  1.00  0.00     0.034 A 
BRANCH  43  57
ATOM     57  C   UNL A   1      46.955  27.694  25.934  1.00  0.00     0.023 A 
ATOM     58  C   UNL A   1      47.200  28.027  24.589  1.00  0.00     0.031 A 
ATOM     59  C   UNL A   1      47.860  26.826  26.569  1.00  0.00     0.131 A 
ATOM     60  C   UNL A   1      48.268  27.431  23.903  1.00  0.00     0.055 A 
ATOM     61  C   UNL A   1      48.974  26.307  25.905  1.00  0.00     0.041 A 
ATOM     62  F   UNL A   1      47.671  26.453  27.845  1.00  0.00    -0.206 F 
ATOM     63  C   UNL A   1      49.174  26.595  24.559  1.00  0.00     0.022 A 
BRANCH  60  64
ATOM     64  S   UNL A   1      48.364  27.640  22.104  1.00  0.00     0.124 S 
ATOM     65  O   UNL A   1      49.537  28.503  21.969  1.00  0.00    -0.237 OA
ATOM     66  O   UNL A   1      48.523  26.269  21.634  1.00  0.00    -0.237 OA
ATOM     67  O   UNL A   1      47.092  28.275  21.763  1.00  0.00    -0.744 OA
ENDBRANCH  60  64
ENDBRANCH  43  57
BRANCH  44  68
ATOM     68  C   UNL A   1      38.877  30.584  31.121  1.00  0.00     0.023 A 
ATOM     69  C   UNL A   1      37.904  31.469  30.629  1.00  0.00     0.031 A 
ATOM     70  C   UNL A   1      38.736  30.122  32.443  1.00  0.00     0.131 A 
ATOM     71  C   UNL A   1      36.862  31.900  31.464  1.00  0.00     0.055 A 
ATOM     72  C   UNL A   1      37.665  30.507  33.250  1.00  0.00     0.041 A 
ATOM     73  F   UNL A   1      39.635  29.273  32.965  1.00  0.00    -0.206 F 
ATOM     74  C   UNL A   1      36.727  31.412  32.767  1.00  0.00     0.022 A 
BRANCH  71  75
ATOM     75  S   UNL A   1      35.731  33.181  30.854  1.00  0.00     0.124 S 
ATOM     76  O   UNL A   1      36.391  33.595  29.622  1.00  0.00    -0.237 OA
ATOM     77  O   UNL A   1      34.486  32.436  30.698  1.00  0.00    -0.237 OA
ATOM     78  O   UNL A   1      35.730  34.172  31.928  1.00  0.00    -0.744 OA
ENDBRANCH  71  75
ENDBRANCH  44  68
BRANCH  56  79
ATOM     79  C   UNL A   1      44.998  33.605  29.651  1.00  0.00     0.023 A 
ATOM     80  C   UNL A   1      44.938  34.689  28.758  1.00  0.00     0.031 A 
ATOM     81  C   UNL A   1      45.619  33.810  30.897  1.00  0.00     0.131 A 
ATOM     82  C   UNL A   1      45.536  35.913  29.102  1.00  0.00     0.055 A 
ATOM     83  C   UNL A   1      46.153  35.047  31.259  1.00  0.00     0.041 A 
ATOM     84  F   UNL A   1      45.709  32.810  31.787  1.00  0.00    -0.206 F 
ATOM     85  C   UNL A   1      46.125  36.104  30.354  1.00  0.00     0.022 A 
BRANCH  82  86
ATOM     86  S   UNL A   1      45.616  37.225  27.852  1.00  0.00     0.124 S 
ATOM     87  O   UNL A   1      44.354  37.927  28.069  1.00  0.00    -0.237 OA
ATOM     88  O   UNL A   1      46.822  37.950  28.237  1.00  0.00    -0.237 OA
ATOM     89  O   UNL A   1      45.709  36.492  26.591  1.00  0.00    -0.744 OA
ENDBRANCH  82  86
ENDBRANCH  56  79
ENDBRANCH  30  31
ENDBRANCH  22  25
ENDBRANCH  20  21
ENDBRANCH  19  20
ENDBRANCH   1  19
TORSDOF 17
ENDMDL
