MODEL 1
REMARK VINA RESULT:     -12.3      0.000      0.000
REMARK SMILES Cc1ccc(/N=N/c2ccc(NC(=O)CCC(=O)NCCCCCCNC(=O)c3ccc(-c4c5nc(c(-c6cc(S(=O)(=O)[O-])ccc6F)c6ccc([nH]6)c(-c6cc(S(=O)(=O)[O-])ccc6F)c6nc(c(-c7cc(S(=O)(=O)[O-])ccc7F)c7ccc4[nH]7)C=C6)C=C5)cc3)cc2)cc1
REMARK SMILES IDX 21 1 20 2 19 3 17 4 18 5 16 7 15 8 13 9 12 10 14 12 11 13
REMARK SMILES IDX 8 14 9 15 93 16 10 17 92 18 7 19 6 20 5 21 1 22 2 23 3 24
REMARK SMILES IDX 95 25 4 26 94 27 22 28 23 29 24 30 25 31 26 32 27 33 28 35
REMARK SMILES IDX 29 36 30 37 91 38 31 39 90 40 32 41 33 42 34 43 84 44 35 45
REMARK SMILES IDX 89 46 83 47 85 48 36 49 88 50 82 51 81 52 37 54 69 55 49 56
REMARK SMILES IDX 68 57 50 58 53 59 67 60 86 61 51 62 52 63 66 65 87 66 54 67
REMARK SMILES IDX 38 68 39 69 47 70 40 71 46 72 48 73 45 74 41 75 42 76 43 77
REMARK SMILES IDX 44 78 70 79 71 80 79 81 72 82 78 83 80 84 77 85 73 86 74 87
REMARK SMILES IDX 75 88 76 89 55 90 56 91 64 92 57 93 63 94 65 95 62 96 58 97
REMARK SMILES IDX 59 98 60 99 61 100
REMARK H PARENT 19 6 12 11 26 34 85 53 53 64
REMARK Flexibility Score: inf
ROOT
ATOM      1  C   UNL A   1      34.456  29.645  26.968  1.00  0.00     0.021 C 
ENDROOT
BRANCH   1   2
ATOM      2  C   UNL A   1      32.977  30.026  26.977  1.00  0.00     0.116 C 
BRANCH   2   3
ATOM      3  N   UNL A   1      32.098  28.946  27.387  1.00  0.00    -0.356 N 
ATOM      4  C   UNL A   1      31.637  27.882  26.673  1.00  0.00     0.220 C 
ATOM      5  O   UNL A   1      31.032  26.978  27.251  1.00  0.00    -0.275 OA
ATOM      6  H   UNL A   1      31.789  28.989  28.321  1.00  0.00     0.163 HD
BRANCH   4   7
ATOM      7  C   UNL A   1      31.857  27.820  25.180  1.00  0.00     0.110 C 
BRANCH   7   8
ATOM      8  C   UNL A   1      30.557  27.754  24.388  1.00  0.00     0.110 C 
BRANCH   8   9
ATOM      9  C   UNL A   1      30.740  27.965  22.898  1.00  0.00     0.224 C 
ATOM     10  N   UNL A   1      31.251  27.012  22.067  1.00  0.00    -0.326 N 
ATOM     11  H   UNL A   1      31.303  27.283  21.122  1.00  0.00     0.169 HD
ATOM     12  O   UNL A   1      30.312  29.009  22.390  1.00  0.00    -0.275 OA
BRANCH  10  13
ATOM     13  C   UNL A   1      31.717  25.712  22.318  1.00  0.00     0.041 A 
ATOM     14  C   UNL A   1      32.606  23.183  23.178  1.00  0.00     0.086 A 
ATOM     15  C   UNL A   1      33.438  24.021  22.432  1.00  0.00     0.032 A 
ATOM     16  C   UNL A   1      31.293  23.592  23.426  1.00  0.00     0.032 A 
ATOM     17  C   UNL A   1      32.992  25.267  21.988  1.00  0.00     0.028 A 
ATOM     18  C   UNL A   1      30.840  24.834  22.968  1.00  0.00     0.028 A 
BRANCH  14  19
ATOM     19  N   UNL A   1      33.152  21.979  23.655  1.00  0.00    -0.151 NA
ATOM     20  N   UNL A   1      32.344  21.038  23.544  1.00  0.00    -0.151 NA
BRANCH  20  21
ATOM     21  C   UNL A   1      32.924  19.776  23.791  1.00  0.00     0.086 A 
ATOM     22  C   UNL A   1      34.779  16.066  25.012  1.00  0.00     0.044 C 
ATOM     23  C   UNL A   1      34.146  17.342  24.550  1.00  0.00    -0.051 A 
ATOM     24  C   UNL A   1      34.789  18.564  24.778  1.00  0.00     0.006 A 
ATOM     25  C   UNL A   1      32.903  17.340  23.909  1.00  0.00     0.006 A 
ATOM     26  C   UNL A   1      34.183  19.763  24.400  1.00  0.00     0.030 A 
ATOM     27  C   UNL A   1      32.301  18.545  23.533  1.00  0.00     0.030 A 
ENDBRANCH  20  21
ENDBRANCH  14  19
ENDBRANCH  10  13
ENDBRANCH   8   9
ENDBRANCH   7   8
ENDBRANCH   4   7
ENDBRANCH   2   3
ENDBRANCH   1   2
BRANCH   1  28
ATOM     28  C   UNL A   1      35.353  30.408  27.948  1.00  0.00     0.002 C 
BRANCH  28  29
ATOM     29  C   UNL A   1      35.145  31.926  28.022  1.00  0.00     0.002 C 
BRANCH  29  30
ATOM     30  C   UNL A   1      34.426  32.447  29.267  1.00  0.00     0.021 C 
BRANCH  30  31
ATOM     31  C   UNL A   1      34.309  33.962  29.341  1.00  0.00     0.116 C 
BRANCH  31  32
ATOM     32  N   UNL A   1      33.629  34.461  30.520  1.00  0.00    -0.352 N 
ATOM     33  C   UNL A   1      33.942  34.282  31.851  1.00  0.00     0.251 C 
ATOM     34  H   UNL A   1      32.828  35.006  30.346  1.00  0.00     0.163 HD
ATOM     35  O   UNL A   1      33.122  34.593  32.719  1.00  0.00    -0.269 OA
BRANCH  33  36
ATOM     36  C   UNL A   1      35.310  33.863  32.260  1.00  0.00     0.039 A 
ATOM     37  C   UNL A   1      36.381  34.635  31.783  1.00  0.00     0.014 A 
ATOM     38  C   UNL A   1      35.576  32.657  32.907  1.00  0.00     0.014 A 
ATOM     39  C   UNL A   1      37.666  34.100  31.748  1.00  0.00     0.010 A 
ATOM     40  C   UNL A   1      36.829  32.088  32.801  1.00  0.00     0.010 A 
ATOM     41  C   UNL A   1      37.858  32.786  32.172  1.00  0.00    -0.014 A 
BRANCH  41  42
ATOM     42  C   UNL A   1      39.071  32.030  31.904  1.00  0.00     0.031 A 
ATOM     43  C   UNL A   1      39.012  30.749  31.183  1.00  0.00     0.074 A 
ATOM     44  C   UNL A   1      40.265  32.518  32.303  1.00  0.00     0.049 A 
ATOM     45  N   UNL A   1      39.827  29.771  31.384  1.00  0.00    -0.248 NA
ATOM     46  C   UNL A   1      37.992  30.460  30.183  1.00  0.00     0.031 C 
ATOM     47  C   UNL A   1      41.591  32.004  31.977  1.00  0.00     0.029 A 
ATOM     48  N   UNL A   1      40.489  33.447  33.311  1.00  0.00    -0.354 N 
ATOM     49  C   UNL A   1      39.642  28.868  30.366  1.00  0.00     0.074 A 
ATOM     50  C   UNL A   1      38.438  29.300  29.691  1.00  0.00     0.031 C 
ATOM     51  C   UNL A   1      42.452  32.403  32.926  1.00  0.00     0.029 A 
ATOM     52  C   UNL A   1      41.683  33.081  33.954  1.00  0.00     0.049 A 
ATOM     53  H   UNL A   1      39.919  34.218  33.533  1.00  0.00     0.167 HD
ATOM     54  C   UNL A   1      40.608  27.946  30.095  1.00  0.00     0.034 A 
ATOM     55  C   UNL A   1      41.687  32.775  35.284  1.00  0.00     0.034 A 
ATOM     56  C   UNL A   1      41.752  28.079  30.993  1.00  0.00     0.049 A 
ATOM     57  C   UNL A   1      42.130  31.356  35.565  1.00  0.00     0.074 A 
ATOM     58  C   UNL A   1      42.995  28.673  30.844  1.00  0.00     0.029 A 
ATOM     59  N   UNL A   1      41.601  27.823  32.351  1.00  0.00    -0.354 N 
ATOM     60  N   UNL A   1      42.182  30.412  34.665  1.00  0.00    -0.248 NA
ATOM     61  C   UNL A   1      42.550  30.887  36.881  1.00  0.00     0.031 C 
ATOM     62  C   UNL A   1      43.571  28.818  32.130  1.00  0.00     0.029 A 
ATOM     63  C   UNL A   1      42.695  28.284  33.059  1.00  0.00     0.049 A 
ATOM     64  H   UNL A   1      40.822  27.374  32.754  1.00  0.00     0.167 HD
ATOM     65  C   UNL A   1      42.633  29.245  35.235  1.00  0.00     0.074 A 
ATOM     66  C   UNL A   1      42.861  29.604  36.626  1.00  0.00     0.031 C 
ATOM     67  C   UNL A   1      42.782  28.097  34.503  1.00  0.00     0.034 A 
BRANCH  54  68
ATOM     68  C   UNL A   1      40.642  27.160  28.808  1.00  0.00     0.023 A 
ATOM     69  C   UNL A   1      41.612  27.462  27.831  1.00  0.00     0.031 A 
ATOM     70  C   UNL A   1      39.732  26.141  28.469  1.00  0.00     0.131 A 
ATOM     71  C   UNL A   1      41.586  26.860  26.562  1.00  0.00     0.055 A 
ATOM     72  C   UNL A   1      39.667  25.581  27.186  1.00  0.00     0.041 A 
ATOM     73  F   UNL A   1      38.893  25.626  29.380  1.00  0.00    -0.206 F 
ATOM     74  C   UNL A   1      40.589  25.953  26.217  1.00  0.00     0.022 A 
BRANCH  71  75
ATOM     75  S   UNL A   1      42.885  27.278  25.365  1.00  0.00     0.124 S 
ATOM     76  O   UNL A   1      43.051  26.025  24.635  1.00  0.00    -0.237 OA
ATOM     77  O   UNL A   1      42.280  28.380  24.626  1.00  0.00    -0.237 OA
ATOM     78  O   UNL A   1      44.017  27.652  26.211  1.00  0.00    -0.744 OA
ENDBRANCH  71  75
ENDBRANCH  54  68
BRANCH  55  79
ATOM     79  C   UNL A   1      40.687  33.570  36.059  1.00  0.00     0.023 A 
ATOM     80  C   UNL A   1      39.493  32.903  36.422  1.00  0.00     0.031 A 
ATOM     81  C   UNL A   1      41.038  34.718  36.779  1.00  0.00     0.131 A 
ATOM     82  C   UNL A   1      38.804  33.266  37.589  1.00  0.00     0.055 A 
ATOM     83  C   UNL A   1      40.292  35.131  37.893  1.00  0.00     0.041 A 
ATOM     84  F   UNL A   1      42.171  35.380  36.502  1.00  0.00    -0.206 F 
ATOM     85  C   UNL A   1      39.202  34.376  38.333  1.00  0.00     0.022 A 
BRANCH  82  86
ATOM     86  S   UNL A   1      37.589  32.096  38.279  1.00  0.00     0.124 S 
ATOM     87  O   UNL A   1      38.062  31.940  39.651  1.00  0.00    -0.237 OA
ATOM     88  O   UNL A   1      36.322  32.808  38.119  1.00  0.00    -0.237 OA
ATOM     89  O   UNL A   1      37.722  30.916  37.428  1.00  0.00    -0.744 OA
ENDBRANCH  82  86
ENDBRANCH  55  79
BRANCH  67  90
ATOM     90  C   UNL A   1      43.117  26.709  35.024  1.00  0.00     0.023 A 
ATOM     91  C   UNL A   1      44.406  26.298  35.391  1.00  0.00     0.031 A 
ATOM     92  C   UNL A   1      42.095  25.742  35.233  1.00  0.00     0.131 A 
ATOM     93  C   UNL A   1      44.654  24.991  35.859  1.00  0.00     0.055 A 
ATOM     94  C   UNL A   1      42.332  24.472  35.768  1.00  0.00     0.041 A 
ATOM     95  F   UNL A   1      40.811  25.987  34.936  1.00  0.00    -0.206 F 
ATOM     96  C   UNL A   1      43.622  24.081  36.073  1.00  0.00     0.022 A 
BRANCH  93  97
ATOM     97  S   UNL A   1      46.373  24.489  36.136  1.00  0.00     0.124 S 
ATOM     98  O   UNL A   1      47.084  25.753  35.963  1.00  0.00    -0.237 OA
ATOM     99  O   UNL A   1      46.333  23.965  37.496  1.00  0.00    -0.237 OA
ATOM    100  O   UNL A   1      46.615  23.493  35.093  1.00  0.00    -0.744 OA
ENDBRANCH  93  97
ENDBRANCH  67  90
ENDBRANCH  41  42
ENDBRANCH  33  36
ENDBRANCH  31  32
ENDBRANCH  30  31
ENDBRANCH  29  30
ENDBRANCH  28  29
ENDBRANCH   1  28
TORSDOF 21
ENDMDL
MODEL 2
REMARK VINA RESULT:     -11.8      1.808      2.516
REMARK SMILES Cc1ccc(/N=N/c2ccc(NC(=O)CCC(=O)NCCCCCCNC(=O)c3ccc(-c4c5nc(c(-c6cc(S(=O)(=O)[O-])ccc6F)c6ccc([nH]6)c(-c6cc(S(=O)(=O)[O-])ccc6F)c6nc(c(-c7cc(S(=O)(=O)[O-])ccc7F)c7ccc4[nH]7)C=C6)C=C5)cc3)cc2)cc1
REMARK SMILES IDX 21 1 20 2 19 3 17 4 18 5 16 7 15 8 13 9 12 10 14 12 11 13
REMARK SMILES IDX 8 14 9 15 93 16 10 17 92 18 7 19 6 20 5 21 1 22 2 23 3 24
REMARK SMILES IDX 95 25 4 26 94 27 22 28 23 29 24 30 25 31 26 32 27 33 28 35
REMARK SMILES IDX 29 36 30 37 91 38 31 39 90 40 32 41 33 42 34 43 84 44 35 45
REMARK SMILES IDX 89 46 83 47 85 48 36 49 88 50 82 51 81 52 37 54 69 55 49 56
REMARK SMILES IDX 68 57 50 58 53 59 67 60 86 61 51 62 52 63 66 65 87 66 54 67
REMARK SMILES IDX 38 68 39 69 47 70 40 71 46 72 48 73 45 74 41 75 42 76 43 77
REMARK SMILES IDX 44 78 70 79 71 80 79 81 72 82 78 83 80 84 77 85 73 86 74 87
REMARK SMILES IDX 75 88 76 89 55 90 56 91 64 92 57 93 63 94 65 95 62 96 58 97
REMARK SMILES IDX 59 98 60 99 61 100
REMARK H PARENT 19 6 12 11 26 34 85 53 53 64
REMARK Flexibility Score: inf
ROOT
ATOM      1  C   UNL A   1      34.808  29.462  27.177  1.00  0.00     0.021 C 
ENDROOT
BRANCH   1   2
ATOM      2  C   UNL A   1      33.451  30.014  26.744  1.00  0.00     0.116 C 
BRANCH   2   3
ATOM      3  N   UNL A   1      32.331  29.455  27.480  1.00  0.00    -0.356 N 
ATOM      4  C   UNL A   1      31.677  28.275  27.301  1.00  0.00     0.220 C 
ATOM      5  O   UNL A   1      30.855  27.902  28.140  1.00  0.00    -0.275 OA
ATOM      6  H   UNL A   1      31.995  30.013  28.218  1.00  0.00     0.163 HD
BRANCH   4   7
ATOM      7  C   UNL A   1      31.950  27.435  26.075  1.00  0.00     0.110 C 
BRANCH   7   8
ATOM      8  C   UNL A   1      31.375  26.028  26.177  1.00  0.00     0.110 C 
BRANCH   8   9
ATOM      9  C   UNL A   1      31.137  25.369  24.832  1.00  0.00     0.224 C 
ATOM     10  N   UNL A   1      32.099  24.667  24.166  1.00  0.00    -0.326 N 
ATOM     11  H   UNL A   1      31.801  24.285  23.309  1.00  0.00     0.169 HD
ATOM     12  O   UNL A   1      29.993  25.375  24.362  1.00  0.00    -0.275 OA
BRANCH  10  13
ATOM     13  C   UNL A   1      33.438  24.393  24.484  1.00  0.00     0.041 A 
ATOM     14  C   UNL A   1      36.070  23.517  24.962  1.00  0.00     0.086 A 
ATOM     15  C   UNL A   1      35.227  23.867  26.020  1.00  0.00     0.032 A 
ATOM     16  C   UNL A   1      35.608  23.683  23.655  1.00  0.00     0.032 A 
ATOM     17  C   UNL A   1      33.927  24.320  25.783  1.00  0.00     0.028 A 
ATOM     18  C   UNL A   1      34.312  24.152  23.416  1.00  0.00     0.028 A 
BRANCH  14  19
ATOM     19  N   UNL A   1      37.336  22.996  25.283  1.00  0.00    -0.151 NA
ATOM     20  N   UNL A   1      37.260  21.807  25.645  1.00  0.00    -0.151 NA
BRANCH  20  21
ATOM     21  C   UNL A   1      38.517  21.178  25.752  1.00  0.00     0.086 A 
ATOM     22  C   UNL A   1      42.374  19.396  26.553  1.00  0.00     0.044 C 
ATOM     23  C   UNL A   1      41.047  20.013  26.236  1.00  0.00    -0.051 A 
ATOM     24  C   UNL A   1      40.810  21.357  26.548  1.00  0.00     0.006 A 
ATOM     25  C   UNL A   1      40.025  19.263  25.648  1.00  0.00     0.006 A 
ATOM     26  C   UNL A   1      39.559  21.928  26.306  1.00  0.00     0.030 A 
ATOM     27  C   UNL A   1      38.774  19.841  25.409  1.00  0.00     0.030 A 
ENDBRANCH  20  21
ENDBRANCH  14  19
ENDBRANCH  10  13
ENDBRANCH   8   9
ENDBRANCH   7   8
ENDBRANCH   4   7
ENDBRANCH   2   3
ENDBRANCH   1   2
BRANCH   1  28
ATOM     28  C   UNL A   1      35.758  30.460  27.847  1.00  0.00     0.002 C 
BRANCH  28  29
ATOM     29  C   UNL A   1      35.280  31.918  27.911  1.00  0.00     0.002 C 
BRANCH  29  30
ATOM     30  C   UNL A   1      34.547  32.329  29.188  1.00  0.00     0.021 C 
BRANCH  30  31
ATOM     31  C   UNL A   1      34.336  33.829  29.338  1.00  0.00     0.116 C 
BRANCH  31  32
ATOM     32  N   UNL A   1      33.667  34.227  30.562  1.00  0.00    -0.352 N 
ATOM     33  C   UNL A   1      34.057  34.041  31.871  1.00  0.00     0.251 C 
ATOM     34  H   UNL A   1      32.812  34.699  30.441  1.00  0.00     0.163 HD
ATOM     35  O   UNL A   1      33.253  34.248  32.784  1.00  0.00    -0.269 OA
BRANCH  33  36
ATOM     36  C   UNL A   1      35.476  33.742  32.206  1.00  0.00     0.039 A 
ATOM     37  C   UNL A   1      36.460  34.441  31.489  1.00  0.00     0.014 A 
ATOM     38  C   UNL A   1      35.857  32.685  33.031  1.00  0.00     0.014 A 
ATOM     39  C   UNL A   1      37.759  33.944  31.420  1.00  0.00     0.010 A 
ATOM     40  C   UNL A   1      37.119  32.139  32.901  1.00  0.00     0.010 A 
ATOM     41  C   UNL A   1      38.050  32.736  32.053  1.00  0.00    -0.014 A 
BRANCH  41  42
ATOM     42  C   UNL A   1      39.265  31.977  31.804  1.00  0.00     0.031 A 
ATOM     43  C   UNL A   1      39.211  30.691  31.092  1.00  0.00     0.074 A 
ATOM     44  C   UNL A   1      40.455  32.466  32.210  1.00  0.00     0.049 A 
ATOM     45  N   UNL A   1      40.023  29.713  31.309  1.00  0.00    -0.248 NA
ATOM     46  C   UNL A   1      38.201  30.394  30.084  1.00  0.00     0.031 C 
ATOM     47  C   UNL A   1      41.784  31.948  31.902  1.00  0.00     0.029 A 
ATOM     48  N   UNL A   1      40.670  33.403  33.214  1.00  0.00    -0.354 N 
ATOM     49  C   UNL A   1      39.848  28.802  30.296  1.00  0.00     0.074 A 
ATOM     50  C   UNL A   1      38.651  29.230  29.606  1.00  0.00     0.031 C 
ATOM     51  C   UNL A   1      42.636  32.354  32.857  1.00  0.00     0.029 A 
ATOM     52  C   UNL A   1      41.857  33.041  33.872  1.00  0.00     0.049 A 
ATOM     53  H   UNL A   1      40.099  34.177  33.424  1.00  0.00     0.167 HD
ATOM     54  C   UNL A   1      40.815  27.877  30.042  1.00  0.00     0.034 A 
ATOM     55  C   UNL A   1      41.847  32.745  35.204  1.00  0.00     0.034 A 
ATOM     56  C   UNL A   1      41.950  28.016  30.951  1.00  0.00     0.049 A 
ATOM     57  C   UNL A   1      42.286  31.328  35.501  1.00  0.00     0.074 A 
ATOM     58  C   UNL A   1      43.195  28.607  30.809  1.00  0.00     0.029 A 
ATOM     59  N   UNL A   1      41.784  27.770  32.309  1.00  0.00    -0.354 N 
ATOM     60  N   UNL A   1      42.346  30.377  34.609  1.00  0.00    -0.248 NA
ATOM     61  C   UNL A   1      42.692  30.869  36.825  1.00  0.00     0.031 C 
ATOM     62  C   UNL A   1      43.759  28.762  32.101  1.00  0.00     0.029 A 
ATOM     63  C   UNL A   1      42.872  28.236  33.024  1.00  0.00     0.049 A 
ATOM     64  H   UNL A   1      41.001  27.326  32.708  1.00  0.00     0.167 HD
ATOM     65  C   UNL A   1      42.790  29.214  35.192  1.00  0.00     0.074 A 
ATOM     66  C   UNL A   1      43.003  29.583  36.583  1.00  0.00     0.031 C 
ATOM     67  C   UNL A   1      42.944  28.060  34.470  1.00  0.00     0.034 A 
BRANCH  54  68
ATOM     68  C   UNL A   1      40.861  27.081  28.761  1.00  0.00     0.023 A 
ATOM     69  C   UNL A   1      41.873  27.339  27.816  1.00  0.00     0.031 A 
ATOM     70  C   UNL A   1      39.924  26.094  28.400  1.00  0.00     0.131 A 
ATOM     71  C   UNL A   1      41.865  26.729  26.549  1.00  0.00     0.055 A 
ATOM     72  C   UNL A   1      39.880  25.527  27.119  1.00  0.00     0.041 A 
ATOM     73  F   UNL A   1      39.037  25.618  29.286  1.00  0.00    -0.206 F 
ATOM     74  C   UNL A   1      40.847  25.858  26.178  1.00  0.00     0.022 A 
BRANCH  71  75
ATOM     75  S   UNL A   1      43.217  27.089  25.394  1.00  0.00     0.124 S 
ATOM     76  O   UNL A   1      42.607  28.064  24.495  1.00  0.00    -0.237 OA
ATOM     77  O   UNL A   1      44.257  27.594  26.284  1.00  0.00    -0.237 OA
ATOM     78  O   UNL A   1      43.502  25.788  24.790  1.00  0.00    -0.744 OA
ENDBRANCH  71  75
ENDBRANCH  54  68
BRANCH  55  79
ATOM     79  C   UNL A   1      40.840  33.547  35.962  1.00  0.00     0.023 A 
ATOM     80  C   UNL A   1      39.629  32.894  36.292  1.00  0.00     0.031 A 
ATOM     81  C   UNL A   1      41.190  34.684  36.701  1.00  0.00     0.131 A 
ATOM     82  C   UNL A   1      38.918  33.257  37.445  1.00  0.00     0.055 A 
ATOM     83  C   UNL A   1      40.425  35.098  37.800  1.00  0.00     0.041 A 
ATOM     84  F   UNL A   1      42.338  35.333  36.456  1.00  0.00    -0.206 F 
ATOM     85  C   UNL A   1      39.314  34.355  38.209  1.00  0.00     0.022 A 
BRANCH  82  86
ATOM     86  S   UNL A   1      37.672  32.098  38.097  1.00  0.00     0.124 S 
ATOM     87  O   UNL A   1      36.443  32.877  37.984  1.00  0.00    -0.237 OA
ATOM     88  O   UNL A   1      37.786  30.954  37.194  1.00  0.00    -0.237 OA
ATOM     89  O   UNL A   1      38.127  31.830  39.459  1.00  0.00    -0.744 OA
ENDBRANCH  82  86
ENDBRANCH  55  79
BRANCH  67  90
ATOM     90  C   UNL A   1      43.272  26.675  35.006  1.00  0.00     0.023 A 
ATOM     91  C   UNL A   1      44.568  26.239  35.313  1.00  0.00     0.031 A 
ATOM     92  C   UNL A   1      42.239  25.740  35.292  1.00  0.00     0.131 A 
ATOM     93  C   UNL A   1      44.808  24.937  35.799  1.00  0.00     0.055 A 
ATOM     94  C   UNL A   1      42.473  24.477  35.843  1.00  0.00     0.041 A 
ATOM     95  F   UNL A   1      40.947  26.013  35.058  1.00  0.00    -0.206 F 
ATOM     96  C   UNL A   1      43.767  24.060  36.089  1.00  0.00     0.022 A 
BRANCH  93  97
ATOM     97  S   UNL A   1      46.527  24.397  35.995  1.00  0.00     0.124 S 
ATOM     98  O   UNL A   1      46.463  23.647  37.246  1.00  0.00    -0.237 OA
ATOM     99  O   UNL A   1      46.747  23.604  34.791  1.00  0.00    -0.237 OA
ATOM    100  O   UNL A   1      47.278  25.650  36.059  1.00  0.00    -0.744 OA
ENDBRANCH  93  97
ENDBRANCH  67  90
ENDBRANCH  41  42
ENDBRANCH  33  36
ENDBRANCH  31  32
ENDBRANCH  30  31
ENDBRANCH  29  30
ENDBRANCH  28  29
ENDBRANCH   1  28
TORSDOF 21
ENDMDL
MODEL 3
REMARK VINA RESULT:     -11.5      4.427     10.882
REMARK SMILES Cc1ccc(/N=N/c2ccc(NC(=O)CCC(=O)NCCCCCCNC(=O)c3ccc(-c4c5nc(c(-c6cc(S(=O)(=O)[O-])ccc6F)c6ccc([nH]6)c(-c6cc(S(=O)(=O)[O-])ccc6F)c6nc(c(-c7cc(S(=O)(=O)[O-])ccc7F)c7ccc4[nH]7)C=C6)C=C5)cc3)cc2)cc1
REMARK SMILES IDX 21 1 20 2 19 3 17 4 18 5 16 7 15 8 13 9 12 10 14 12 11 13
REMARK SMILES IDX 8 14 9 15 93 16 10 17 92 18 7 19 6 20 5 21 1 22 2 23 3 24
REMARK SMILES IDX 95 25 4 26 94 27 22 28 23 29 24 30 25 31 26 32 27 33 28 35
REMARK SMILES IDX 29 36 30 37 91 38 31 39 90 40 32 41 33 42 34 43 84 44 35 45
REMARK SMILES IDX 89 46 83 47 85 48 36 49 88 50 82 51 81 52 37 54 69 55 49 56
REMARK SMILES IDX 68 57 50 58 53 59 67 60 86 61 51 62 52 63 66 65 87 66 54 67
REMARK SMILES IDX 38 68 39 69 47 70 40 71 46 72 48 73 45 74 41 75 42 76 43 77
REMARK SMILES IDX 44 78 70 79 71 80 79 81 72 82 78 83 80 84 77 85 73 86 74 87
REMARK SMILES IDX 75 88 76 89 55 90 56 91 64 92 57 93 63 94 65 95 62 96 58 97
REMARK SMILES IDX 59 98 60 99 61 100
REMARK H PARENT 19 6 12 11 26 34 85 53 53 64
REMARK Flexibility Score: inf
ROOT
ATOM      1  C   UNL A   1      36.605  22.100  25.271  1.00  0.00     0.021 C 
ENDROOT
BRANCH   1   2
ATOM      2  C   UNL A   1      35.137  21.838  25.605  1.00  0.00     0.116 C 
BRANCH   2   3
ATOM      3  N   UNL A   1      34.298  21.643  24.436  1.00  0.00    -0.356 N 
ATOM      4  C   UNL A   1      33.540  22.543  23.751  1.00  0.00     0.220 C 
ATOM      5  O   UNL A   1      33.029  22.216  22.679  1.00  0.00    -0.275 OA
ATOM      6  H   UNL A   1      34.275  20.723  24.086  1.00  0.00     0.163 HD
BRANCH   4   7
ATOM      7  C   UNL A   1      33.318  23.929  24.311  1.00  0.00     0.110 C 
BRANCH   7   8
ATOM      8  C   UNL A   1      32.007  24.060  25.074  1.00  0.00     0.110 C 
BRANCH   8   9
ATOM      9  C   UNL A   1      30.856  24.568  24.227  1.00  0.00     0.224 C 
ATOM     10  N   UNL A   1      30.521  25.887  24.139  1.00  0.00    -0.326 N 
ATOM     11  H   UNL A   1      29.759  26.073  23.544  1.00  0.00     0.169 HD
ATOM     12  O   UNL A   1      30.257  23.767  23.499  1.00  0.00    -0.275 OA
BRANCH  10  13
ATOM     13  C   UNL A   1      31.068  27.028  24.746  1.00  0.00     0.041 A 
ATOM     14  C   UNL A   1      32.437  29.288  25.718  1.00  0.00     0.086 A 
ATOM     15  C   UNL A   1      32.192  28.187  26.543  1.00  0.00     0.032 A 
ATOM     16  C   UNL A   1      31.922  29.279  24.420  1.00  0.00     0.032 A 
ATOM     17  C   UNL A   1      31.497  27.073  26.068  1.00  0.00     0.028 A 
ATOM     18  C   UNL A   1      31.211  28.170  23.948  1.00  0.00     0.028 A 
BRANCH  14  19
ATOM     19  N   UNL A   1      33.211  30.337  26.244  1.00  0.00    -0.151 NA
ATOM     20  N   UNL A   1      33.614  30.075  27.392  1.00  0.00    -0.151 NA
BRANCH  20  21
ATOM     21  C   UNL A   1      34.579  30.988  27.865  1.00  0.00     0.086 A 
ATOM     22  C   UNL A   1      37.825  33.634  28.938  1.00  0.00     0.044 C 
ATOM     23  C   UNL A   1      36.686  32.720  28.605  1.00  0.00    -0.051 A 
ATOM     24  C   UNL A   1      36.921  31.353  28.416  1.00  0.00     0.006 A 
ATOM     25  C   UNL A   1      35.386  33.212  28.456  1.00  0.00     0.006 A 
ATOM     26  C   UNL A   1      35.876  30.502  28.052  1.00  0.00     0.030 A 
ATOM     27  C   UNL A   1      34.345  32.353  28.091  1.00  0.00     0.030 A 
ENDBRANCH  20  21
ENDBRANCH  14  19
ENDBRANCH  10  13
ENDBRANCH   8   9
ENDBRANCH   7   8
ENDBRANCH   4   7
ENDBRANCH   2   3
ENDBRANCH   1   2
BRANCH   1  28
ATOM     28  C   UNL A   1      37.094  23.538  25.471  1.00  0.00     0.002 C 
BRANCH  28  29
ATOM     29  C   UNL A   1      38.359  23.717  26.322  1.00  0.00     0.002 C 
BRANCH  29  30
ATOM     30  C   UNL A   1      39.242  22.479  26.481  1.00  0.00     0.021 C 
BRANCH  30  31
ATOM     31  C   UNL A   1      40.642  22.767  27.003  1.00  0.00     0.116 C 
BRANCH  31  32
ATOM     32  N   UNL A   1      41.493  23.498  26.085  1.00  0.00    -0.352 N 
ATOM     33  C   UNL A   1      41.725  24.855  25.999  1.00  0.00     0.251 C 
ATOM     34  H   UNL A   1      41.976  22.947  25.428  1.00  0.00     0.163 HD
ATOM     35  O   UNL A   1      42.305  25.316  25.012  1.00  0.00    -0.269 OA
BRANCH  33  36
ATOM     36  C   UNL A   1      41.422  25.751  27.149  1.00  0.00     0.039 A 
ATOM     37  C   UNL A   1      40.638  26.884  26.882  1.00  0.00     0.014 A 
ATOM     38  C   UNL A   1      42.036  25.625  28.394  1.00  0.00     0.014 A 
ATOM     39  C   UNL A   1      40.659  27.969  27.756  1.00  0.00     0.010 A 
ATOM     40  C   UNL A   1      42.130  26.725  29.223  1.00  0.00     0.010 A 
ATOM     41  C   UNL A   1      41.488  27.913  28.875  1.00  0.00    -0.014 A 
BRANCH  41  42
ATOM     42  C   UNL A   1      41.822  29.077  29.680  1.00  0.00     0.031 A 
ATOM     43  C   UNL A   1      40.762  29.924  30.248  1.00  0.00     0.074 A 
ATOM     44  C   UNL A   1      43.117  29.372  29.925  1.00  0.00     0.049 A 
ATOM     45  N   UNL A   1      40.882  31.193  30.445  1.00  0.00    -0.248 NA
ATOM     46  C   UNL A   1      39.454  29.400  30.618  1.00  0.00     0.031 C 
ATOM     47  C   UNL A   1      43.643  30.377  30.842  1.00  0.00     0.029 A 
ATOM     48  N   UNL A   1      44.217  28.971  29.177  1.00  0.00    -0.354 N 
ATOM     49  C   UNL A   1      39.820  31.589  31.221  1.00  0.00     0.074 A 
ATOM     50  C   UNL A   1      38.919  30.458  31.235  1.00  0.00     0.031 C 
ATOM     51  C   UNL A   1      44.878  30.719  30.442  1.00  0.00     0.029 A 
ATOM     52  C   UNL A   1      45.135  30.035  29.188  1.00  0.00     0.049 A 
ATOM     53  H   UNL A   1      44.333  28.105  28.726  1.00  0.00     0.167 HD
ATOM     54  C   UNL A   1      39.883  32.766  31.905  1.00  0.00     0.034 A 
ATOM     55  C   UNL A   1      45.518  30.629  28.020  1.00  0.00     0.034 A 
ATOM     56  C   UNL A   1      41.151  33.456  31.680  1.00  0.00     0.049 A 
ATOM     57  C   UNL A   1      45.157  32.097  27.955  1.00  0.00     0.074 A 
ATOM     58  C   UNL A   1      42.312  33.548  32.430  1.00  0.00     0.029 A 
ATOM     59  N   UNL A   1      41.462  33.938  30.414  1.00  0.00    -0.354 N 
ATOM     60  N   UNL A   1      44.292  32.675  28.742  1.00  0.00    -0.248 NA
ATOM     61  C   UNL A   1      45.742  33.029  26.998  1.00  0.00     0.031 C 
ATOM     62  C   UNL A   1      43.341  34.043  31.591  1.00  0.00     0.029 A 
ATOM     63  C   UNL A   1      42.799  34.284  30.340  1.00  0.00     0.049 A 
ATOM     64  H   UNL A   1      40.821  34.023  29.672  1.00  0.00     0.167 HD
ATOM     65  C   UNL A   1      44.198  34.012  28.434  1.00  0.00     0.074 A 
ATOM     66  C   UNL A   1      45.140  34.182  27.339  1.00  0.00     0.031 C 
ATOM     67  C   UNL A   1      43.356  34.850  29.117  1.00  0.00     0.034 A 
BRANCH  54  68
ATOM     68  C   UNL A   1      38.932  33.105  33.025  1.00  0.00     0.023 A 
ATOM     69  C   UNL A   1      39.012  32.403  34.244  1.00  0.00     0.031 A 
ATOM     70  C   UNL A   1      37.911  34.071  32.942  1.00  0.00     0.131 A 
ATOM     71  C   UNL A   1      38.054  32.583  35.257  1.00  0.00     0.055 A 
ATOM     72  C   UNL A   1      36.921  34.211  33.924  1.00  0.00     0.041 A 
ATOM     73  F   UNL A   1      37.853  34.938  31.920  1.00  0.00    -0.206 F 
ATOM     74  C   UNL A   1      36.980  33.450  35.085  1.00  0.00     0.022 A 
BRANCH  71  75
ATOM     75  S   UNL A   1      38.237  31.664  36.812  1.00  0.00     0.124 S 
ATOM     76  O   UNL A   1      38.286  30.280  36.351  1.00  0.00    -0.237 OA
ATOM     77  O   UNL A   1      39.479  32.211  37.347  1.00  0.00    -0.237 OA
ATOM     78  O   UNL A   1      37.034  32.022  37.561  1.00  0.00    -0.744 OA
ENDBRANCH  71  75
ENDBRANCH  54  68
BRANCH  55  79
ATOM     79  C   UNL A   1      45.569  29.668  26.877  1.00  0.00     0.023 A 
ATOM     80  C   UNL A   1      46.796  28.994  26.671  1.00  0.00     0.031 A 
ATOM     81  C   UNL A   1      44.415  29.107  26.317  1.00  0.00     0.131 A 
ATOM     82  C   UNL A   1      46.815  27.711  26.104  1.00  0.00     0.055 A 
ATOM     83  C   UNL A   1      44.453  27.864  25.670  1.00  0.00     0.041 A 
ATOM     84  F   UNL A   1      43.217  29.683  26.499  1.00  0.00    -0.206 F 
ATOM     85  C   UNL A   1      45.645  27.137  25.607  1.00  0.00     0.022 A 
BRANCH  82  86
ATOM     86  S   UNL A   1      48.312  26.693  26.310  1.00  0.00     0.124 S 
ATOM     87  O   UNL A   1      48.335  26.472  27.752  1.00  0.00    -0.237 OA
ATOM     88  O   UNL A   1      48.022  25.517  25.490  1.00  0.00    -0.237 OA
ATOM     89  O   UNL A   1      49.380  27.538  25.783  1.00  0.00    -0.744 OA
ENDBRANCH  82  86
ENDBRANCH  55  79
BRANCH  67  90
ATOM     90  C   UNL A   1      43.036  36.299  28.790  1.00  0.00     0.023 A 
ATOM     91  C   UNL A   1      43.461  37.391  29.559  1.00  0.00     0.031 A 
ATOM     92  C   UNL A   1      42.314  36.638  27.612  1.00  0.00     0.131 A 
ATOM     93  C   UNL A   1      43.122  38.713  29.206  1.00  0.00     0.055 A 
ATOM     94  C   UNL A   1      42.042  37.954  27.225  1.00  0.00     0.041 A 
ATOM     95  F   UNL A   1      41.845  35.705  26.771  1.00  0.00    -0.206 F 
ATOM     96  C   UNL A   1      42.435  39.005  28.031  1.00  0.00     0.022 A 
BRANCH  93  97
ATOM     97  S   UNL A   1      43.558  40.047  30.354  1.00  0.00     0.124 S 
ATOM     98  O   UNL A   1      42.290  40.761  30.477  1.00  0.00    -0.237 OA
ATOM     99  O   UNL A   1      43.990  39.313  31.538  1.00  0.00    -0.237 OA
ATOM    100  O   UNL A   1      44.615  40.774  29.654  1.00  0.00    -0.744 OA
ENDBRANCH  93  97
ENDBRANCH  67  90
ENDBRANCH  41  42
ENDBRANCH  33  36
ENDBRANCH  31  32
ENDBRANCH  30  31
ENDBRANCH  29  30
ENDBRANCH  28  29
ENDBRANCH   1  28
TORSDOF 21
ENDMDL
