MODEL 1
REMARK VINA RESULT:     -10.3      0.000      0.000
REMARK SMILES C[NH+](C)CCCNC(=O)[C@@H]1[C@@H](C(=O)NCCCCCCNC(=O)c2ccc(-c3c4nc(c(-c5cc(S(=O)(=O)[O-])ccc5F)c5ccc([nH]5)c(-c5cc(S(=O)(=O)[O-])ccc5F)c5nc(c(-c6cc(S(=O)(=O)[O-])ccc6F)c6ccc3[nH]6)C=C5)C=C4)cc2)C1(C)C
REMARK SMILES IDX 16 1 15 2 14 3 12 4 13 5 11 7 10 8 87 9 88 10 89 11 8 12
REMARK SMILES IDX 7 13 9 15 6 16 5 17 4 18 2 19 1 20 3 21 17 23 18 24 19 25
REMARK SMILES IDX 20 26 21 27 22 28 23 30 24 31 25 32 86 33 26 34 85 35 27 36
REMARK SMILES IDX 28 37 29 38 79 39 30 40 84 41 78 42 80 43 31 44 83 45 77 46
REMARK SMILES IDX 76 47 32 49 64 50 44 51 63 52 45 53 48 54 62 55 81 56 46 57
REMARK SMILES IDX 47 58 61 60 82 61 49 62 33 63 34 64 42 65 35 66 41 67 43 68
REMARK SMILES IDX 40 69 36 70 37 71 38 72 39 73 65 74 66 75 74 76 67 77 73 78
REMARK SMILES IDX 75 79 72 80 68 81 69 82 70 83 71 84 50 85 51 86 59 87 52 88
REMARK SMILES IDX 58 89 60 90 57 91 53 92 54 93 55 94 56 95
REMARK H PARENT 14 6 7 14 2 22 21 29 80 48 48 59
REMARK Flexibility Score: inf
ROOT
ATOM      1  C   UNL A   1      31.244  28.745  22.997  1.00  0.00     0.021 C 
ENDROOT
BRANCH   1   2
ATOM      2  C   UNL A   1      32.668  28.322  22.633  1.00  0.00     0.116 C 
BRANCH   2   3
ATOM      3  N   UNL A   1      32.651  27.137  21.804  1.00  0.00    -0.356 N 
ATOM      4  C   UNL A   1      33.272  25.925  21.870  1.00  0.00     0.224 C 
ATOM      5  O   UNL A   1      33.193  25.219  20.863  1.00  0.00    -0.275 OA
ATOM      6  H   UNL A   1      32.063  27.226  21.020  1.00  0.00     0.163 HD
BRANCH   4   7
ATOM      7  C   UNL A   1      33.947  25.343  23.054  1.00  0.00     0.098 C 
ATOM      8  C   UNL A   1      33.902  23.912  23.516  1.00  0.00     0.098 C 
ATOM      9  C   UNL A   1      33.352  25.028  24.417  1.00  0.00    -0.011 C 
ATOM     10  C   UNL A   1      31.861  25.042  24.657  1.00  0.00     0.013 C 
ATOM     11  C   UNL A   1      34.138  25.470  25.631  1.00  0.00     0.013 C 
BRANCH   8  12
ATOM     12  C   UNL A   1      35.205  23.221  23.700  1.00  0.00     0.224 C 
ATOM     13  N   UNL A   1      35.295  22.327  24.736  1.00  0.00    -0.356 N 
ATOM     14  H   UNL A   1      36.153  21.853  24.825  1.00  0.00     0.163 HD
ATOM     15  O   UNL A   1      36.167  23.432  22.975  1.00  0.00    -0.275 OA
BRANCH  13  16
ATOM     16  C   UNL A   1      34.276  21.996  25.715  1.00  0.00     0.121 C 
BRANCH  16  17
ATOM     17  C   UNL A   1      33.610  20.651  25.454  1.00  0.00     0.083 C 
BRANCH  17  18
ATOM     18  C   UNL A   1      32.386  20.648  24.526  1.00  0.00     0.263 C 
BRANCH  18  19
ATOM     19  N   UNL A   1      32.518  20.192  23.142  1.00  0.00    -0.340 N 
ATOM     20  C   UNL A   1      32.251  18.776  22.926  1.00  0.00     0.332 C 
ATOM     21  C   UNL A   1      31.816  21.026  22.174  1.00  0.00     0.332 C 
ATOM     22  H   UNL A   1      33.516  20.307  22.965  1.00  0.00     0.347 HD
ENDBRANCH  18  19
ENDBRANCH  17  18
ENDBRANCH  16  17
ENDBRANCH  13  16
ENDBRANCH   8  12
ENDBRANCH   4   7
ENDBRANCH   2   3
ENDBRANCH   1   2
BRANCH   1  23
ATOM     23  C   UNL A   1      31.096  29.304  24.414  1.00  0.00     0.002 C 
BRANCH  23  24
ATOM     24  C   UNL A   1      31.387  28.306  25.538  1.00  0.00     0.002 C 
BRANCH  24  25
ATOM     25  C   UNL A   1      32.242  28.853  26.683  1.00  0.00     0.021 C 
BRANCH  25  26
ATOM     26  C   UNL A   1      33.459  29.657  26.238  1.00  0.00     0.116 C 
BRANCH  26  27
ATOM     27  N   UNL A   1      33.388  31.037  26.687  1.00  0.00    -0.352 N 
ATOM     28  C   UNL A   1      34.151  31.681  27.628  1.00  0.00     0.251 C 
ATOM     29  H   UNL A   1      32.694  31.586  26.256  1.00  0.00     0.163 HD
ATOM     30  O   UNL A   1      33.795  32.776  28.055  1.00  0.00    -0.269 OA
BRANCH  28  31
ATOM     31  C   UNL A   1      35.382  31.040  28.136  1.00  0.00     0.039 A 
ATOM     32  C   UNL A   1      36.603  31.700  27.989  1.00  0.00     0.014 A 
ATOM     33  C   UNL A   1      35.329  29.789  28.760  1.00  0.00     0.014 A 
ATOM     34  C   UNL A   1      37.764  31.132  28.517  1.00  0.00     0.010 A 
ATOM     35  C   UNL A   1      36.471  29.265  29.358  1.00  0.00     0.010 A 
ATOM     36  C   UNL A   1      37.702  29.927  29.236  1.00  0.00    -0.014 A 
BRANCH  36  37
ATOM     37  C   UNL A   1      38.917  29.340  29.860  1.00  0.00     0.031 A 
ATOM     38  C   UNL A   1      39.431  29.876  31.168  1.00  0.00     0.074 A 
ATOM     39  C   UNL A   1      39.586  28.360  29.223  1.00  0.00     0.049 A 
ATOM     40  N   UNL A   1      40.496  29.533  31.845  1.00  0.00    -0.248 NA
ATOM     41  C   UNL A   1      38.657  30.968  31.777  1.00  0.00     0.031 C 
ATOM     42  C   UNL A   1      39.206  27.779  27.934  1.00  0.00     0.029 A 
ATOM     43  N   UNL A   1      40.725  27.677  29.571  1.00  0.00    -0.354 N 
ATOM     44  C   UNL A   1      40.526  30.370  32.955  1.00  0.00     0.074 A 
ATOM     45  C   UNL A   1      39.416  31.289  32.812  1.00  0.00     0.031 C 
ATOM     46  C   UNL A   1      40.070  26.800  27.622  1.00  0.00     0.029 A 
ATOM     47  C   UNL A   1      41.097  26.720  28.657  1.00  0.00     0.049 A 
ATOM     48  H   UNL A   1      41.230  27.857  30.397  1.00  0.00     0.167 HD
ATOM     49  C   UNL A   1      41.382  30.357  34.008  1.00  0.00     0.034 A 
ATOM     50  C   UNL A   1      42.149  25.878  28.648  1.00  0.00     0.034 A 
ATOM     51  C   UNL A   1      42.489  29.436  34.127  1.00  0.00     0.049 A 
ATOM     52  C   UNL A   1      43.124  25.918  29.796  1.00  0.00     0.074 A 
ATOM     53  C   UNL A   1      43.391  29.301  35.167  1.00  0.00     0.029 A 
ATOM     54  N   UNL A   1      42.855  28.503  33.163  1.00  0.00    -0.354 N 
ATOM     55  N   UNL A   1      43.112  26.682  30.864  1.00  0.00    -0.248 NA
ATOM     56  C   UNL A   1      44.248  24.977  29.739  1.00  0.00     0.031 C 
ATOM     57  C   UNL A   1      44.351  28.353  34.795  1.00  0.00     0.029 A 
ATOM     58  C   UNL A   1      43.995  27.822  33.566  1.00  0.00     0.049 A 
ATOM     59  H   UNL A   1      42.375  28.347  32.317  1.00  0.00     0.167 HD
ATOM     60  C   UNL A   1      44.211  26.287  31.625  1.00  0.00     0.074 A 
ATOM     61  C   UNL A   1      44.853  25.212  30.895  1.00  0.00     0.031 C 
ATOM     62  C   UNL A   1      44.642  26.763  32.821  1.00  0.00     0.034 A 
BRANCH  49  63
ATOM     63  C   UNL A   1      41.167  31.397  35.085  1.00  0.00     0.023 A 
ATOM     64  C   UNL A   1      40.023  31.386  35.905  1.00  0.00     0.031 A 
ATOM     65  C   UNL A   1      42.080  32.452  35.255  1.00  0.00     0.131 A 
ATOM     66  C   UNL A   1      39.767  32.460  36.769  1.00  0.00     0.055 A 
ATOM     67  C   UNL A   1      41.871  33.466  36.195  1.00  0.00     0.041 A 
ATOM     68  F   UNL A   1      43.181  32.536  34.493  1.00  0.00    -0.206 F 
ATOM     69  C   UNL A   1      40.697  33.486  36.942  1.00  0.00     0.022 A 
BRANCH  66  70
ATOM     70  S   UNL A   1      38.113  32.598  37.503  1.00  0.00     0.124 S 
ATOM     71  O   UNL A   1      37.998  31.326  38.212  1.00  0.00    -0.237 OA
ATOM     72  O   UNL A   1      38.237  33.787  38.338  1.00  0.00    -0.237 OA
ATOM     73  O   UNL A   1      37.234  32.736  36.344  1.00  0.00    -0.744 OA
ENDBRANCH  66  70
ENDBRANCH  49  63
BRANCH  50  74
ATOM     74  C   UNL A   1      42.331  24.920  27.520  1.00  0.00     0.023 A 
ATOM     75  C   UNL A   1      41.611  23.716  27.474  1.00  0.00     0.031 A 
ATOM     76  C   UNL A   1      43.236  25.188  26.478  1.00  0.00     0.131 A 
ATOM     77  C   UNL A   1      41.833  22.808  26.428  1.00  0.00     0.055 A 
ATOM     78  C   UNL A   1      43.415  24.305  25.412  1.00  0.00     0.041 A 
ATOM     79  F   UNL A   1      43.946  26.327  26.470  1.00  0.00    -0.206 F 
ATOM     80  C   UNL A   1      42.718  23.101  25.388  1.00  0.00     0.022 A 
BRANCH  77  81
ATOM     81  S   UNL A   1      40.995  21.201  26.480  1.00  0.00     0.124 S 
ATOM     82  O   UNL A   1      39.751  21.491  25.777  1.00  0.00    -0.237 OA
ATOM     83  O   UNL A   1      41.944  20.342  25.779  1.00  0.00    -0.237 OA
ATOM     84  O   UNL A   1      40.858  20.935  27.910  1.00  0.00    -0.744 OA
ENDBRANCH  77  81
ENDBRANCH  50  74
BRANCH  62  85
ATOM     85  C   UNL A   1      45.846  26.090  33.437  1.00  0.00     0.023 A 
ATOM     86  C   UNL A   1      45.736  24.901  34.178  1.00  0.00     0.031 A 
ATOM     87  C   UNL A   1      47.126  26.656  33.286  1.00  0.00     0.131 A 
ATOM     88  C   UNL A   1      46.872  24.350  34.792  1.00  0.00     0.055 A 
ATOM     89  C   UNL A   1      48.262  26.064  33.839  1.00  0.00     0.041 A 
ATOM     90  F   UNL A   1      47.293  27.795  32.595  1.00  0.00    -0.206 F 
ATOM     91  C   UNL A   1      48.138  24.913  34.608  1.00  0.00     0.022 A 
BRANCH  88  92
ATOM     92  S   UNL A   1      46.659  22.949  35.924  1.00  0.00     0.124 S 
ATOM     93  O   UNL A   1      46.975  21.814  35.062  1.00  0.00    -0.237 OA
ATOM     94  O   UNL A   1      47.630  23.242  36.972  1.00  0.00    -0.237 OA
ATOM     95  O   UNL A   1      45.259  23.045  36.331  1.00  0.00    -0.744 OA
ENDBRANCH  88  92
ENDBRANCH  62  85
ENDBRANCH  36  37
ENDBRANCH  28  31
ENDBRANCH  26  27
ENDBRANCH  25  26
ENDBRANCH  24  25
ENDBRANCH  23  24
ENDBRANCH   1  23
TORSDOF 21
ENDMDL
MODEL 2
REMARK VINA RESULT:     -10.2      6.234     10.857
REMARK SMILES C[NH+](C)CCCNC(=O)[C@@H]1[C@@H](C(=O)NCCCCCCNC(=O)c2ccc(-c3c4nc(c(-c5cc(S(=O)(=O)[O-])ccc5F)c5ccc([nH]5)c(-c5cc(S(=O)(=O)[O-])ccc5F)c5nc(c(-c6cc(S(=O)(=O)[O-])ccc6F)c6ccc3[nH]6)C=C5)C=C4)cc2)C1(C)C
REMARK SMILES IDX 16 1 15 2 14 3 12 4 13 5 11 7 10 8 87 9 88 10 89 11 8 12
REMARK SMILES IDX 7 13 9 15 6 16 5 17 4 18 2 19 1 20 3 21 17 23 18 24 19 25
REMARK SMILES IDX 20 26 21 27 22 28 23 30 24 31 25 32 86 33 26 34 85 35 27 36
REMARK SMILES IDX 28 37 29 38 79 39 30 40 84 41 78 42 80 43 31 44 83 45 77 46
REMARK SMILES IDX 76 47 32 49 64 50 44 51 63 52 45 53 48 54 62 55 81 56 46 57
REMARK SMILES IDX 47 58 61 60 82 61 49 62 33 63 34 64 42 65 35 66 41 67 43 68
REMARK SMILES IDX 40 69 36 70 37 71 38 72 39 73 65 74 66 75 74 76 67 77 73 78
REMARK SMILES IDX 75 79 72 80 68 81 69 82 70 83 71 84 50 85 51 86 59 87 52 88
REMARK SMILES IDX 58 89 60 90 57 91 53 92 54 93 55 94 56 95
REMARK H PARENT 14 6 7 14 2 22 21 29 80 48 48 59
REMARK Flexibility Score: inf
ROOT
ATOM      1  C   UNL A   1      39.663  23.379  27.144  1.00  0.00     0.021 C 
ENDROOT
BRANCH   1   2
ATOM      2  C   UNL A   1      38.477  24.081  26.483  1.00  0.00     0.116 C 
BRANCH   2   3
ATOM      3  N   UNL A   1      38.075  23.383  25.282  1.00  0.00    -0.356 N 
ATOM      4  C   UNL A   1      36.960  22.689  24.918  1.00  0.00     0.224 C 
ATOM      5  O   UNL A   1      37.044  22.033  23.878  1.00  0.00    -0.275 OA
ATOM      6  H   UNL A   1      38.756  23.416  24.574  1.00  0.00     0.163 HD
BRANCH   4   7
ATOM      7  C   UNL A   1      35.641  22.720  25.593  1.00  0.00     0.098 C 
ATOM      8  C   UNL A   1      34.455  21.836  25.318  1.00  0.00     0.098 C 
ATOM      9  C   UNL A   1      34.348  23.355  25.107  1.00  0.00    -0.011 C 
ATOM     10  C   UNL A   1      34.184  23.840  23.687  1.00  0.00     0.013 C 
ATOM     11  C   UNL A   1      33.579  24.199  26.099  1.00  0.00     0.013 C 
BRANCH   8  12
ATOM     12  C   UNL A   1      33.890  21.086  26.469  1.00  0.00     0.224 C 
ATOM     13  N   UNL A   1      33.181  19.948  26.183  1.00  0.00    -0.356 N 
ATOM     14  H   UNL A   1      32.841  19.443  26.958  1.00  0.00     0.163 HD
ATOM     15  O   UNL A   1      34.035  21.455  27.626  1.00  0.00    -0.275 OA
BRANCH  13  16
ATOM     16  C   UNL A   1      32.871  19.398  24.876  1.00  0.00     0.121 C 
BRANCH  16  17
ATOM     17  C   UNL A   1      33.951  18.461  24.350  1.00  0.00     0.083 C 
BRANCH  17  18
ATOM     18  C   UNL A   1      33.489  17.095  23.817  1.00  0.00     0.263 C 
BRANCH  18  19
ATOM     19  N   UNL A   1      33.675  15.892  24.629  1.00  0.00    -0.340 N 
ATOM     20  C   UNL A   1      34.927  15.829  25.369  1.00  0.00     0.332 C 
ATOM     21  C   UNL A   1      32.532  15.566  25.474  1.00  0.00     0.332 C 
ATOM     22  H   UNL A   1      33.742  15.158  23.924  1.00  0.00     0.347 HD
ENDBRANCH  18  19
ENDBRANCH  17  18
ENDBRANCH  16  17
ENDBRANCH  13  16
ENDBRANCH   8  12
ENDBRANCH   4   7
ENDBRANCH   2   3
ENDBRANCH   1   2
BRANCH   1  23
ATOM     23  C   UNL A   1      39.734  21.873  26.877  1.00  0.00     0.002 C 
BRANCH  23  24
ATOM     24  C   UNL A   1      41.019  21.396  26.195  1.00  0.00     0.002 C 
BRANCH  24  25
ATOM     25  C   UNL A   1      41.187  19.877  26.121  1.00  0.00     0.021 C 
BRANCH  25  26
ATOM     26  C   UNL A   1      42.554  19.368  26.565  1.00  0.00     0.116 C 
BRANCH  26  27
ATOM     27  N   UNL A   1      43.367  18.950  25.436  1.00  0.00    -0.352 N 
ATOM     28  C   UNL A   1      44.166  19.708  24.617  1.00  0.00     0.251 C 
ATOM     29  H   UNL A   1      43.340  17.988  25.229  1.00  0.00     0.163 HD
ATOM     30  O   UNL A   1      44.588  19.232  23.567  1.00  0.00    -0.269 OA
BRANCH  28  31
ATOM     31  C   UNL A   1      44.492  21.099  24.996  1.00  0.00     0.039 A 
ATOM     32  C   UNL A   1      44.006  22.148  24.214  1.00  0.00     0.014 A 
ATOM     33  C   UNL A   1      45.274  21.366  26.125  1.00  0.00     0.014 A 
ATOM     34  C   UNL A   1      44.258  23.467  24.594  1.00  0.00     0.010 A 
ATOM     35  C   UNL A   1      45.452  22.679  26.548  1.00  0.00     0.010 A 
ATOM     36  C   UNL A   1      44.953  23.745  25.784  1.00  0.00    -0.014 A 
BRANCH  36  37
ATOM     37  C   UNL A   1      45.174  25.142  26.237  1.00  0.00     0.031 A 
ATOM     38  C   UNL A   1      46.526  25.783  26.084  1.00  0.00     0.074 A 
ATOM     39  C   UNL A   1      44.171  25.817  26.833  1.00  0.00     0.049 A 
ATOM     40  N   UNL A   1      46.930  26.969  26.461  1.00  0.00    -0.248 NA
ATOM     41  C   UNL A   1      47.571  24.964  25.453  1.00  0.00     0.031 C 
ATOM     42  C   UNL A   1      42.825  25.292  27.067  1.00  0.00     0.029 A 
ATOM     43  N   UNL A   1      44.126  27.088  27.349  1.00  0.00    -0.354 N 
ATOM     44  C   UNL A   1      48.277  27.036  26.120  1.00  0.00     0.074 A 
ATOM     45  C   UNL A   1      48.634  25.741  25.582  1.00  0.00     0.031 C 
ATOM     46  C   UNL A   1      42.076  26.246  27.641  1.00  0.00     0.029 A 
ATOM     47  C   UNL A   1      42.900  27.430  27.867  1.00  0.00     0.049 A 
ATOM     48  H   UNL A   1      44.900  27.696  27.350  1.00  0.00     0.167 HD
ATOM     49  C   UNL A   1      49.128  28.089  26.220  1.00  0.00     0.034 A 
ATOM     50  C   UNL A   1      42.486  28.566  28.463  1.00  0.00     0.034 A 
ATOM     51  C   UNL A   1      48.752  29.371  26.767  1.00  0.00     0.049 A 
ATOM     52  C   UNL A   1      43.461  29.703  28.621  1.00  0.00     0.074 A 
ATOM     53  C   UNL A   1      49.516  30.520  26.876  1.00  0.00     0.029 A 
ATOM     54  N   UNL A   1      47.509  29.670  27.314  1.00  0.00    -0.354 N 
ATOM     55  N   UNL A   1      44.719  29.771  28.248  1.00  0.00    -0.248 NA
ATOM     56  C   UNL A   1      42.959  30.918  29.272  1.00  0.00     0.031 C 
ATOM     57  C   UNL A   1      48.768  31.481  27.567  1.00  0.00     0.029 A 
ATOM     58  C   UNL A   1      47.502  30.969  27.802  1.00  0.00     0.049 A 
ATOM     59  H   UNL A   1      46.745  29.051  27.351  1.00  0.00     0.167 HD
ATOM     60  C   UNL A   1      45.148  31.051  28.591  1.00  0.00     0.074 A 
ATOM     61  C   UNL A   1      44.009  31.721  29.188  1.00  0.00     0.031 C 
ATOM     62  C   UNL A   1      46.367  31.624  28.417  1.00  0.00     0.034 A 
BRANCH  49  63
ATOM     63  C   UNL A   1      50.553  27.870  25.760  1.00  0.00     0.023 A 
ATOM     64  C   UNL A   1      50.918  27.985  24.406  1.00  0.00     0.031 A 
ATOM     65  C   UNL A   1      51.547  27.476  26.672  1.00  0.00     0.131 A 
ATOM     66  C   UNL A   1      52.201  27.603  23.988  1.00  0.00     0.055 A 
ATOM     67  C   UNL A   1      52.855  27.199  26.264  1.00  0.00     0.041 A 
ATOM     68  F   UNL A   1      51.263  27.326  27.975  1.00  0.00    -0.206 F 
ATOM     69  C   UNL A   1      53.182  27.239  24.912  1.00  0.00     0.022 A 
BRANCH  66  70
ATOM     70  S   UNL A   1      52.501  27.392  22.212  1.00  0.00     0.124 S 
ATOM     71  O   UNL A   1      51.176  27.006  21.733  1.00  0.00    -0.237 OA
ATOM     72  O   UNL A   1      52.967  28.714  21.811  1.00  0.00    -0.237 OA
ATOM     73  O   UNL A   1      53.505  26.331  22.157  1.00  0.00    -0.744 OA
ENDBRANCH  66  70
ENDBRANCH  49  63
BRANCH  50  74
ATOM     74  C   UNL A   1      41.082  28.688  28.947  1.00  0.00     0.023 A 
ATOM     75  C   UNL A   1      40.784  28.622  30.317  1.00  0.00     0.031 A 
ATOM     76  C   UNL A   1      40.014  28.860  28.048  1.00  0.00     0.131 A 
ATOM     77  C   UNL A   1      39.450  28.691  30.748  1.00  0.00     0.055 A 
ATOM     78  C   UNL A   1      38.694  28.981  28.486  1.00  0.00     0.041 A 
ATOM     79  F   UNL A   1      40.243  28.935  26.727  1.00  0.00    -0.206 F 
ATOM     80  C   UNL A   1      38.405  28.886  29.843  1.00  0.00     0.022 A 
BRANCH  77  81
ATOM     81  S   UNL A   1      39.092  28.454  32.510  1.00  0.00     0.124 S 
ATOM     82  O   UNL A   1      38.036  27.449  32.466  1.00  0.00    -0.237 OA
ATOM     83  O   UNL A   1      40.383  28.007  33.023  1.00  0.00    -0.237 OA
ATOM     84  O   UNL A   1      38.674  29.781  32.954  1.00  0.00    -0.744 OA
ENDBRANCH  77  81
ENDBRANCH  50  74
BRANCH  62  85
ATOM     85  C   UNL A   1      46.518  33.066  28.841  1.00  0.00     0.023 A 
ATOM     86  C   UNL A   1      46.251  34.132  27.965  1.00  0.00     0.031 A 
ATOM     87  C   UNL A   1      46.947  33.377  30.145  1.00  0.00     0.131 A 
ATOM     88  C   UNL A   1      46.474  35.454  28.381  1.00  0.00     0.055 A 
ATOM     89  C   UNL A   1      47.097  34.696  30.576  1.00  0.00     0.041 A 
ATOM     90  F   UNL A   1      47.224  32.401  31.025  1.00  0.00    -0.206 F 
ATOM     91  C   UNL A   1      46.875  35.743  29.689  1.00  0.00     0.022 A 
BRANCH  88  92
ATOM     92  S   UNL A   1      46.338  36.788  27.160  1.00  0.00     0.124 S 
ATOM     93  O   UNL A   1      44.961  37.234  27.353  1.00  0.00    -0.237 OA
ATOM     94  O   UNL A   1      47.375  37.717  27.593  1.00  0.00    -0.237 OA
ATOM     95  O   UNL A   1      46.598  36.117  25.888  1.00  0.00    -0.744 OA
ENDBRANCH  88  92
ENDBRANCH  62  85
ENDBRANCH  36  37
ENDBRANCH  28  31
ENDBRANCH  26  27
ENDBRANCH  25  26
ENDBRANCH  24  25
ENDBRANCH  23  24
ENDBRANCH   1  23
TORSDOF 21
ENDMDL
MODEL 3
REMARK VINA RESULT:     -10.2      1.734      7.660
REMARK SMILES C[NH+](C)CCCNC(=O)[C@@H]1[C@@H](C(=O)NCCCCCCNC(=O)c2ccc(-c3c4nc(c(-c5cc(S(=O)(=O)[O-])ccc5F)c5ccc([nH]5)c(-c5cc(S(=O)(=O)[O-])ccc5F)c5nc(c(-c6cc(S(=O)(=O)[O-])ccc6F)c6ccc3[nH]6)C=C5)C=C4)cc2)C1(C)C
REMARK SMILES IDX 16 1 15 2 14 3 12 4 13 5 11 7 10 8 87 9 88 10 89 11 8 12
REMARK SMILES IDX 7 13 9 15 6 16 5 17 4 18 2 19 1 20 3 21 17 23 18 24 19 25
REMARK SMILES IDX 20 26 21 27 22 28 23 30 24 31 25 32 86 33 26 34 85 35 27 36
REMARK SMILES IDX 28 37 29 38 79 39 30 40 84 41 78 42 80 43 31 44 83 45 77 46
REMARK SMILES IDX 76 47 32 49 64 50 44 51 63 52 45 53 48 54 62 55 81 56 46 57
REMARK SMILES IDX 47 58 61 60 82 61 49 62 33 63 34 64 42 65 35 66 41 67 43 68
REMARK SMILES IDX 40 69 36 70 37 71 38 72 39 73 65 74 66 75 74 76 67 77 73 78
REMARK SMILES IDX 75 79 72 80 68 81 69 82 70 83 71 84 50 85 51 86 59 87 52 88
REMARK SMILES IDX 58 89 60 90 57 91 53 92 54 93 55 94 56 95
REMARK H PARENT 14 6 7 14 2 22 21 29 80 48 48 59
REMARK Flexibility Score: inf
ROOT
ATOM      1  C   UNL A   1      31.110  28.668  22.458  1.00  0.00     0.021 C 
ENDROOT
BRANCH   1   2
ATOM      2  C   UNL A   1      32.506  28.044  22.442  1.00  0.00     0.116 C 
BRANCH   2   3
ATOM      3  N   UNL A   1      32.545  26.905  21.552  1.00  0.00    -0.356 N 
ATOM      4  C   UNL A   1      33.017  25.630  21.663  1.00  0.00     0.224 C 
ATOM      5  O   UNL A   1      33.078  24.981  20.618  1.00  0.00    -0.275 OA
ATOM      6  H   UNL A   1      32.143  27.091  20.674  1.00  0.00     0.163 HD
BRANCH   4   7
ATOM      7  C   UNL A   1      33.371  24.928  22.919  1.00  0.00     0.098 C 
ATOM      8  C   UNL A   1      33.174  23.470  23.234  1.00  0.00     0.098 C 
ATOM      9  C   UNL A   1      32.459  24.542  24.072  1.00  0.00    -0.011 C 
ATOM     10  C   UNL A   1      30.956  24.611  23.955  1.00  0.00     0.013 C 
ATOM     11  C   UNL A   1      32.947  24.851  25.470  1.00  0.00     0.013 C 
BRANCH   8  12
ATOM     12  C   UNL A   1      34.373  22.703  23.660  1.00  0.00     0.224 C 
ATOM     13  N   UNL A   1      34.175  21.681  24.552  1.00  0.00    -0.356 N 
ATOM     14  H   UNL A   1      34.974  21.161  24.799  1.00  0.00     0.163 HD
ATOM     15  O   UNL A   1      35.496  22.961  23.248  1.00  0.00    -0.275 OA
BRANCH  13  16
ATOM     16  C   UNL A   1      32.929  21.276  25.176  1.00  0.00     0.121 C 
BRANCH  16  17
ATOM     17  C   UNL A   1      32.920  19.812  25.598  1.00  0.00     0.083 C 
BRANCH  17  18
ATOM     18  C   UNL A   1      33.396  18.784  24.560  1.00  0.00     0.263 C 
BRANCH  18  19
ATOM     19  N   UNL A   1      33.683  17.409  24.970  1.00  0.00    -0.340 N 
ATOM     20  C   UNL A   1      32.527  16.633  25.395  1.00  0.00     0.332 C 
ATOM     21  C   UNL A   1      34.510  16.670  24.024  1.00  0.00     0.332 C 
ATOM     22  H   UNL A   1      34.242  17.541  25.813  1.00  0.00     0.347 HD
ENDBRANCH  18  19
ENDBRANCH  17  18
ENDBRANCH  16  17
ENDBRANCH  13  16
ENDBRANCH   8  12
ENDBRANCH   4   7
ENDBRANCH   2   3
ENDBRANCH   1   2
BRANCH   1  23
ATOM     23  C   UNL A   1      30.531  28.883  23.859  1.00  0.00     0.002 C 
BRANCH  23  24
ATOM     24  C   UNL A   1      31.025  27.898  24.922  1.00  0.00     0.002 C 
BRANCH  24  25
ATOM     25  C   UNL A   1      31.756  28.536  26.104  1.00  0.00     0.021 C 
BRANCH  25  26
ATOM     26  C   UNL A   1      32.892  29.477  25.715  1.00  0.00     0.116 C 
BRANCH  26  27
ATOM     27  N   UNL A   1      32.573  30.861  26.020  1.00  0.00    -0.352 N 
ATOM     28  C   UNL A   1      33.117  31.684  26.974  1.00  0.00     0.251 C 
ATOM     29  H   UNL A   1      31.869  31.265  25.463  1.00  0.00     0.163 HD
ATOM     30  O   UNL A   1      32.562  32.744  27.252  1.00  0.00    -0.269 OA
BRANCH  28  31
ATOM     31  C   UNL A   1      34.352  31.277  27.675  1.00  0.00     0.039 A 
ATOM     32  C   UNL A   1      35.326  32.238  27.950  1.00  0.00     0.014 A 
ATOM     33  C   UNL A   1      34.547  29.946  28.062  1.00  0.00     0.014 A 
ATOM     34  C   UNL A   1      36.471  31.877  28.663  1.00  0.00     0.010 A 
ATOM     35  C   UNL A   1      35.646  29.607  28.844  1.00  0.00     0.010 A 
ATOM     36  C   UNL A   1      36.625  30.566  29.146  1.00  0.00    -0.014 A 
BRANCH  36  37
ATOM     37  C   UNL A   1      37.806  30.181  29.962  1.00  0.00     0.031 A 
ATOM     38  C   UNL A   1      38.859  29.273  29.387  1.00  0.00     0.074 A 
ATOM     39  C   UNL A   1      37.904  30.607  31.236  1.00  0.00     0.049 A 
ATOM     40  N   UNL A   1      39.932  28.785  29.953  1.00  0.00    -0.248 NA
ATOM     41  C   UNL A   1      38.654  28.830  28.000  1.00  0.00     0.031 C 
ATOM     42  C   UNL A   1      36.932  31.464  31.916  1.00  0.00     0.029 A 
ATOM     43  N   UNL A   1      38.867  30.378  32.187  1.00  0.00    -0.354 N 
ATOM     44  C   UNL A   1      40.529  27.972  28.995  1.00  0.00     0.074 A 
ATOM     45  C   UNL A   1      39.650  27.972  27.844  1.00  0.00     0.031 C 
ATOM     46  C   UNL A   1      37.369  31.723  33.158  1.00  0.00     0.029 A 
ATOM     47  C   UNL A   1      38.622  31.009  33.384  1.00  0.00     0.049 A 
ATOM     48  H   UNL A   1      39.659  29.816  32.027  1.00  0.00     0.167 HD
ATOM     49  C   UNL A   1      41.712  27.309  29.059  1.00  0.00     0.034 A 
ATOM     50  C   UNL A   1      39.321  31.006  34.536  1.00  0.00     0.034 A 
ATOM     51  C   UNL A   1      42.570  27.316  30.220  1.00  0.00     0.049 A 
ATOM     52  C   UNL A   1      40.602  30.216  34.609  1.00  0.00     0.074 A 
ATOM     53  C   UNL A   1      43.808  26.720  30.381  1.00  0.00     0.029 A 
ATOM     54  N   UNL A   1      42.271  27.938  31.428  1.00  0.00    -0.354 N 
ATOM     55  N   UNL A   1      41.180  29.490  33.678  1.00  0.00    -0.248 NA
ATOM     56  C   UNL A   1      41.327  30.250  35.884  1.00  0.00     0.031 C 
ATOM     57  C   UNL A   1      44.215  26.905  31.708  1.00  0.00     0.029 A 
ATOM     58  C   UNL A   1      43.280  27.700  32.350  1.00  0.00     0.049 A 
ATOM     59  H   UNL A   1      41.460  28.469  31.604  1.00  0.00     0.167 HD
ATOM     60  C   UNL A   1      42.357  29.010  34.248  1.00  0.00     0.074 A 
ATOM     61  C   UNL A   1      42.407  29.539  35.597  1.00  0.00     0.031 C 
ATOM     62  C   UNL A   1      43.312  28.215  33.703  1.00  0.00     0.034 A 
BRANCH  49  63
ATOM     63  C   UNL A   1      42.113  26.496  27.848  1.00  0.00     0.023 A 
ATOM     64  C   UNL A   1      41.790  25.131  27.733  1.00  0.00     0.031 A 
ATOM     65  C   UNL A   1      42.886  27.071  26.823  1.00  0.00     0.131 A 
ATOM     66  C   UNL A   1      42.328  24.366  26.688  1.00  0.00     0.055 A 
ATOM     67  C   UNL A   1      43.331  26.326  25.727  1.00  0.00     0.041 A 
ATOM     68  F   UNL A   1      43.248  28.362  26.880  1.00  0.00    -0.206 F 
ATOM     69  C   UNL A   1      43.072  24.960  25.667  1.00  0.00     0.022 A 
BRANCH  66  70
ATOM     70  S   UNL A   1      42.213  22.559  26.797  1.00  0.00     0.124 S 
ATOM     71  O   UNL A   1      40.786  22.340  26.571  1.00  0.00    -0.237 OA
ATOM     72  O   UNL A   1      43.105  22.121  25.730  1.00  0.00    -0.237 OA
ATOM     73  O   UNL A   1      42.671  22.268  28.154  1.00  0.00    -0.744 OA
ENDBRANCH  66  70
ENDBRANCH  49  63
BRANCH  50  74
ATOM     74  C   UNL A   1      38.832  31.782  35.710  1.00  0.00     0.023 A 
ATOM     75  C   UNL A   1      38.158  31.145  36.764  1.00  0.00     0.031 A 
ATOM     76  C   UNL A   1      39.018  33.174  35.791  1.00  0.00     0.131 A 
ATOM     77  C   UNL A   1      37.663  31.902  37.838  1.00  0.00     0.055 A 
ATOM     78  C   UNL A   1      38.570  33.914  36.887  1.00  0.00     0.041 A 
ATOM     79  F   UNL A   1      39.661  33.832  34.814  1.00  0.00    -0.206 F 
ATOM     80  C   UNL A   1      37.879  33.280  37.914  1.00  0.00     0.022 A 
BRANCH  77  81
ATOM     81  S   UNL A   1      36.671  31.068  39.105  1.00  0.00     0.124 S 
ATOM     82  O   UNL A   1      36.476  29.750  38.510  1.00  0.00    -0.237 OA
ATOM     83  O   UNL A   1      37.554  31.124  40.266  1.00  0.00    -0.237 OA
ATOM     84  O   UNL A   1      35.472  31.896  39.198  1.00  0.00    -0.744 OA
ENDBRANCH  77  81
ENDBRANCH  50  74
BRANCH  62  85
ATOM     85  C   UNL A   1      44.520  27.904  34.556  1.00  0.00     0.023 A 
ATOM     86  C   UNL A   1      44.562  26.787  35.408  1.00  0.00     0.031 A 
ATOM     87  C   UNL A   1      45.645  28.748  34.521  1.00  0.00     0.131 A 
ATOM     88  C   UNL A   1      45.677  26.579  36.235  1.00  0.00     0.055 A 
ATOM     89  C   UNL A   1      46.780  28.495  35.292  1.00  0.00     0.041 A 
ATOM     90  F   UNL A   1      45.661  29.835  33.732  1.00  0.00    -0.206 F 
ATOM     91  C   UNL A   1      46.796  27.414  36.166  1.00  0.00     0.022 A 
BRANCH  88  92
ATOM     92  S   UNL A   1      45.605  25.263  37.482  1.00  0.00     0.124 S 
ATOM     93  O   UNL A   1      44.445  25.661  38.273  1.00  0.00    -0.237 OA
ATOM     94  O   UNL A   1      45.438  24.066  36.664  1.00  0.00    -0.237 OA
ATOM     95  O   UNL A   1      46.890  25.370  38.169  1.00  0.00    -0.744 OA
ENDBRANCH  88  92
ENDBRANCH  62  85
ENDBRANCH  36  37
ENDBRANCH  28  31
ENDBRANCH  26  27
ENDBRANCH  25  26
ENDBRANCH  24  25
ENDBRANCH  23  24
ENDBRANCH   1  23
TORSDOF 21
ENDMDL
