MODEL 1
REMARK VINA RESULT:     -12.2      0.000      0.000
REMARK SMILES O=C(NCCCCCCNC(=O)C1CCN(c2nc(-c3ccc(F)cc3)cc(C(F)F)n2)CC1)c1ccc(-c2c3nc(c(-c4cc(S(=O)(=O)[O-])ccc4F)c4ccc([nH]4)c(-c4cc(S(=O)(=O)[O-])ccc4F)c4nc(c(-c5cc(S(=O)(=O)[O-])ccc5F)c5ccc2[nH]5)C=C4)C=C3)cc1
REMARK SMILES IDX 6 1 5 2 4 3 3 4 1 5 2 6 35 8 36 9 97 10 37 11 96 12 38 13
REMARK SMILES IDX 39 14 40 15 90 16 41 17 95 18 89 19 91 20 42 21 94 22 88 23
REMARK SMILES IDX 87 24 43 26 75 27 55 28 74 29 56 30 59 31 73 32 92 33 57 34
REMARK SMILES IDX 58 35 72 37 93 38 60 39 44 40 45 41 53 42 46 43 52 44 54 45
REMARK SMILES IDX 51 46 47 47 48 48 49 49 50 50 76 51 77 52 85 53 78 54 84 55
REMARK SMILES IDX 86 56 83 57 79 58 80 59 81 60 82 61 61 62 62 63 70 64 63 65
REMARK SMILES IDX 69 66 71 67 68 68 64 69 65 70 66 71 67 72 7 73 8 74 9 75
REMARK SMILES IDX 10 76 11 77 12 79 13 80 14 81 34 82 15 83 33 84 16 85 17 86
REMARK SMILES IDX 18 87 32 88 19 89 28 90 27 91 20 92 21 93 26 94 22 95 25 96
REMARK SMILES IDX 23 97 24 98 29 99 30 100 31 101
REMARK H PARENT 3 7 91 25 59 36 10 78
REMARK Flexibility Score: inf
ROOT
ATOM      1  C   UNL A   1      31.585  29.183  25.931  1.00  0.00     0.002 C 
ENDROOT
BRANCH   1   2
ATOM      2  C   UNL A   1      32.442  28.318  26.858  1.00  0.00     0.021 C 
BRANCH   2   3
ATOM      3  C   UNL A   1      33.909  28.725  26.903  1.00  0.00     0.116 C 
BRANCH   3   4
ATOM      4  N   UNL A   1      34.059  30.171  26.872  1.00  0.00    -0.352 N 
ATOM      5  O   UNL A   1      34.854  32.161  27.574  1.00  0.00    -0.269 OA
ATOM      6  C   UNL A   1      35.005  30.945  27.489  1.00  0.00     0.251 C 
ATOM      7  H   UNL A   1      33.394  30.658  26.335  1.00  0.00     0.163 HD
BRANCH   6   8
ATOM      8  C   UNL A   1      36.208  30.297  28.047  1.00  0.00     0.039 A 
ATOM      9  C   UNL A   1      37.384  30.247  27.293  1.00  0.00     0.014 A 
ATOM     10  C   UNL A   1      36.168  29.761  29.336  1.00  0.00     0.014 A 
ATOM     11  C   UNL A   1      38.491  29.574  27.786  1.00  0.00     0.010 A 
ATOM     12  C   UNL A   1      37.312  29.164  29.868  1.00  0.00     0.010 A 
ATOM     13  C   UNL A   1      38.480  29.070  29.096  1.00  0.00    -0.014 A 
BRANCH  13  14
ATOM     14  C   UNL A   1      39.749  28.589  29.687  1.00  0.00     0.031 A 
ATOM     15  C   UNL A   1      40.344  29.231  30.900  1.00  0.00     0.074 A 
ATOM     16  C   UNL A   1      40.347  27.531  29.107  1.00  0.00     0.049 A 
ATOM     17  N   UNL A   1      41.452  28.929  31.527  1.00  0.00    -0.248 NA
ATOM     18  C   UNL A   1      39.608  30.361  31.484  1.00  0.00     0.031 C 
ATOM     19  C   UNL A   1      39.836  26.822  27.928  1.00  0.00     0.029 A 
ATOM     20  N   UNL A   1      41.486  26.848  29.435  1.00  0.00    -0.354 N 
ATOM     21  C   UNL A   1      41.552  29.829  32.579  1.00  0.00     0.074 A 
ATOM     22  C   UNL A   1      40.409  30.714  32.481  1.00  0.00     0.031 C 
ATOM     23  C   UNL A   1      40.619  25.768  27.675  1.00  0.00     0.029 A 
ATOM     24  C   UNL A   1      41.733  25.774  28.614  1.00  0.00     0.049 A 
ATOM     25  H   UNL A   1      42.072  27.101  30.184  1.00  0.00     0.167 HD
ATOM     26  C   UNL A   1      42.509  29.897  33.538  1.00  0.00     0.034 A 
ATOM     27  C   UNL A   1      42.753  24.896  28.600  1.00  0.00     0.034 A 
ATOM     28  C   UNL A   1      43.651  29.015  33.598  1.00  0.00     0.049 A 
ATOM     29  C   UNL A   1      43.843  25.045  29.617  1.00  0.00     0.074 A 
ATOM     30  C   UNL A   1      44.684  29.003  34.519  1.00  0.00     0.029 A 
ATOM     31  N   UNL A   1      43.917  27.990  32.694  1.00  0.00    -0.354 N 
ATOM     32  N   UNL A   1      43.950  25.928  30.582  1.00  0.00    -0.248 NA
ATOM     33  C   UNL A   1      44.952  24.088  29.542  1.00  0.00     0.031 C 
ATOM     34  C   UNL A   1      45.604  28.021  34.136  1.00  0.00     0.029 A 
ATOM     35  C   UNL A   1      45.109  27.360  33.023  1.00  0.00     0.049 A 
ATOM     36  H   UNL A   1      43.344  27.749  31.932  1.00  0.00     0.167 HD
ATOM     37  C   UNL A   1      45.131  25.620  31.246  1.00  0.00     0.074 A 
ATOM     38  C   UNL A   1      45.700  24.471  30.568  1.00  0.00     0.031 C 
ATOM     39  C   UNL A   1      45.680  26.229  32.327  1.00  0.00     0.034 A 
BRANCH  26  40
ATOM     40  C   UNL A   1      42.377  30.988  34.572  1.00  0.00     0.023 A 
ATOM     41  C   UNL A   1      43.058  32.211  34.442  1.00  0.00     0.031 A 
ATOM     42  C   UNL A   1      41.569  30.804  35.707  1.00  0.00     0.131 A 
ATOM     43  C   UNL A   1      42.967  33.176  35.455  1.00  0.00     0.055 A 
ATOM     44  C   UNL A   1      41.423  31.796  36.678  1.00  0.00     0.041 A 
ATOM     45  F   UNL A   1      40.909  29.649  35.896  1.00  0.00    -0.206 F 
ATOM     46  C   UNL A   1      42.135  32.987  36.561  1.00  0.00     0.022 A 
BRANCH  43  47
ATOM     47  S   UNL A   1      44.042  34.635  35.361  1.00  0.00     0.124 S 
ATOM     48  O   UNL A   1      44.599  34.507  34.016  1.00  0.00    -0.237 OA
ATOM     49  O   UNL A   1      43.105  35.736  35.554  1.00  0.00    -0.237 OA
ATOM     50  O   UNL A   1      44.998  34.429  36.447  1.00  0.00    -0.744 OA
ENDBRANCH  43  47
ENDBRANCH  26  40
BRANCH  27  51
ATOM     51  C   UNL A   1      42.763  23.818  27.578  1.00  0.00     0.023 A 
ATOM     52  C   UNL A   1      43.713  23.818  26.548  1.00  0.00     0.031 A 
ATOM     53  C   UNL A   1      41.883  22.725  27.677  1.00  0.00     0.131 A 
ATOM     54  C   UNL A   1      43.765  22.738  25.654  1.00  0.00     0.055 A 
ATOM     55  C   UNL A   1      41.963  21.638  26.808  1.00  0.00     0.041 A 
ATOM     56  F   UNL A   1      40.974  22.674  28.664  1.00  0.00    -0.206 F 
ATOM     57  C   UNL A   1      42.908  21.641  25.787  1.00  0.00     0.022 A 
BRANCH  54  58
ATOM     58  S   UNL A   1      44.988  22.777  24.315  1.00  0.00     0.124 S 
ATOM     59  O   UNL A   1      45.349  24.189  24.285  1.00  0.00    -0.237 OA
ATOM     60  O   UNL A   1      46.012  21.862  24.807  1.00  0.00    -0.237 OA
ATOM     61  O   UNL A   1      44.236  22.300  23.156  1.00  0.00    -0.744 OA
ENDBRANCH  54  58
ENDBRANCH  27  51
BRANCH  39  62
ATOM     62  C   UNL A   1      46.950  25.633  32.878  1.00  0.00     0.023 A 
ATOM     63  C   UNL A   1      46.933  24.605  33.836  1.00  0.00     0.031 A 
ATOM     64  C   UNL A   1      48.197  26.087  32.411  1.00  0.00     0.131 A 
ATOM     65  C   UNL A   1      48.144  24.087  34.321  1.00  0.00     0.055 A 
ATOM     66  C   UNL A   1      49.395  25.532  32.858  1.00  0.00     0.041 A 
ATOM     67  F   UNL A   1      48.265  27.070  31.498  1.00  0.00    -0.206 F 
ATOM     68  C   UNL A   1      49.374  24.531  33.824  1.00  0.00     0.022 A 
BRANCH  65  69
ATOM     69  S   UNL A   1      48.097  22.857  35.652  1.00  0.00     0.124 S 
ATOM     70  O   UNL A   1      46.687  22.875  36.029  1.00  0.00    -0.237 OA
ATOM     71  O   UNL A   1      48.561  21.648  34.980  1.00  0.00    -0.237 OA
ATOM     72  O   UNL A   1      49.013  23.399  36.653  1.00  0.00    -0.744 OA
ENDBRANCH  65  69
ENDBRANCH  39  62
ENDBRANCH  13  14
ENDBRANCH   6   8
ENDBRANCH   3   4
ENDBRANCH   2   3
ENDBRANCH   1   2
BRANCH   1  73
ATOM     73  C   UNL A   1      30.819  28.410  24.848  1.00  0.00     0.002 C 
BRANCH  73  74
ATOM     74  C   UNL A   1      31.021  28.934  23.425  1.00  0.00     0.021 C 
BRANCH  74  75
ATOM     75  C   UNL A   1      30.512  27.979  22.353  1.00  0.00     0.116 C 
BRANCH  75  76
ATOM     76  N   UNL A   1      31.589  27.357  21.626  1.00  0.00    -0.356 N 
ATOM     77  C   UNL A   1      32.346  26.272  21.906  1.00  0.00     0.223 C 
ATOM     78  H   UNL A   1      31.814  27.801  20.777  1.00  0.00     0.163 HD
ATOM     79  O   UNL A   1      33.194  25.967  21.058  1.00  0.00    -0.275 OA
BRANCH  77  80
ATOM     80  C   UNL A   1      32.202  25.420  23.168  1.00  0.00     0.082 C 
ATOM     81  C   UNL A   1      33.272  25.655  24.234  1.00  0.00     0.035 C 
ATOM     82  C   UNL A   1      31.821  23.956  22.945  1.00  0.00     0.035 C 
ATOM     83  C   UNL A   1      34.375  24.610  24.314  1.00  0.00     0.120 C 
ATOM     84  C   UNL A   1      32.957  22.944  23.027  1.00  0.00     0.120 C 
ATOM     85  N   UNL A   1      33.855  23.270  24.110  1.00  0.00    -0.341 N 
BRANCH  85  86
ATOM     86  C   UNL A   1      34.744  22.283  24.487  1.00  0.00     0.226 A 
ATOM     87  N   UNL A   1      34.236  21.059  24.591  1.00  0.00    -0.213 NA
ATOM     88  N   UNL A   1      36.037  22.563  24.695  1.00  0.00    -0.212 NA
ATOM     89  C   UNL A   1      35.063  20.044  24.892  1.00  0.00     0.076 A 
ATOM     90  C   UNL A   1      36.857  21.539  25.063  1.00  0.00     0.112 A 
ATOM     91  C   UNL A   1      36.398  20.238  25.167  1.00  0.00     0.059 A 
BRANCH  89  92
ATOM     92  C   UNL A   1      34.418  18.731  24.806  1.00  0.00     0.001 A 
ATOM     93  C   UNL A   1      35.137  17.552  24.557  1.00  0.00     0.013 A 
ATOM     94  C   UNL A   1      33.030  18.634  25.040  1.00  0.00     0.013 A 
ATOM     95  C   UNL A   1      34.485  16.315  24.554  1.00  0.00     0.040 A 
ATOM     96  C   UNL A   1      32.378  17.403  25.029  1.00  0.00     0.040 A 
ATOM     97  C   UNL A   1      33.115  16.253  24.788  1.00  0.00     0.123 A 
ATOM     98  F   UNL A   1      32.495  15.066  24.795  1.00  0.00    -0.207 F 
ENDBRANCH  89  92
BRANCH  90  99
ATOM     99  C   UNL A   1      38.315  21.856  25.337  1.00  0.00     0.391 C 
ATOM    100  F   UNL A   1      38.489  22.552  26.498  1.00  0.00    -0.203 F 
ATOM    101  F   UNL A   1      39.083  20.735  25.461  1.00  0.00    -0.203 F 
ENDBRANCH  90  99
ENDBRANCH  85  86
ENDBRANCH  77  80
ENDBRANCH  75  76
ENDBRANCH  74  75
ENDBRANCH  73  74
ENDBRANCH   1  73
TORSDOF 19
ENDMDL
MODEL 2
REMARK VINA RESULT:     -12.1      4.563      9.325
REMARK SMILES O=C(NCCCCCCNC(=O)C1CCN(c2nc(-c3ccc(F)cc3)cc(C(F)F)n2)CC1)c1ccc(-c2c3nc(c(-c4cc(S(=O)(=O)[O-])ccc4F)c4ccc([nH]4)c(-c4cc(S(=O)(=O)[O-])ccc4F)c4nc(c(-c5cc(S(=O)(=O)[O-])ccc5F)c5ccc2[nH]5)C=C4)C=C3)cc1
REMARK SMILES IDX 6 1 5 2 4 3 3 4 1 5 2 6 35 8 36 9 97 10 37 11 96 12 38 13
REMARK SMILES IDX 39 14 40 15 90 16 41 17 95 18 89 19 91 20 42 21 94 22 88 23
REMARK SMILES IDX 87 24 43 26 75 27 55 28 74 29 56 30 59 31 73 32 92 33 57 34
REMARK SMILES IDX 58 35 72 37 93 38 60 39 44 40 45 41 53 42 46 43 52 44 54 45
REMARK SMILES IDX 51 46 47 47 48 48 49 49 50 50 76 51 77 52 85 53 78 54 84 55
REMARK SMILES IDX 86 56 83 57 79 58 80 59 81 60 82 61 61 62 62 63 70 64 63 65
REMARK SMILES IDX 69 66 71 67 68 68 64 69 65 70 66 71 67 72 7 73 8 74 9 75
REMARK SMILES IDX 10 76 11 77 12 79 13 80 14 81 34 82 15 83 33 84 16 85 17 86
REMARK SMILES IDX 18 87 32 88 19 89 28 90 27 91 20 92 21 93 26 94 22 95 25 96
REMARK SMILES IDX 23 97 24 98 29 99 30 100 31 101
REMARK H PARENT 3 7 91 25 59 36 10 78
REMARK Flexibility Score: inf
ROOT
ATOM      1  C   UNL A   1      36.320  21.165  24.509  1.00  0.00     0.002 C 
ENDROOT
BRANCH   1   2
ATOM      2  C   UNL A   1      36.677  22.652  24.440  1.00  0.00     0.021 C 
BRANCH   2   3
ATOM      3  C   UNL A   1      37.323  23.193  25.709  1.00  0.00     0.116 C 
BRANCH   3   4
ATOM      4  N   UNL A   1      38.395  22.324  26.169  1.00  0.00    -0.352 N 
ATOM      5  O   UNL A   1      40.514  21.828  26.759  1.00  0.00    -0.269 OA
ATOM      6  C   UNL A   1      39.631  22.673  26.647  1.00  0.00     0.251 C 
ATOM      7  H   UNL A   1      38.208  21.359  26.135  1.00  0.00     0.163 HD
BRANCH   6   8
ATOM      8  C   UNL A   1      39.882  24.076  27.026  1.00  0.00     0.039 A 
ATOM      9  C   UNL A   1      39.754  24.470  28.362  1.00  0.00     0.014 A 
ATOM     10  C   UNL A   1      40.271  24.996  26.050  1.00  0.00     0.014 A 
ATOM     11  C   UNL A   1      39.918  25.803  28.707  1.00  0.00     0.010 A 
ATOM     12  C   UNL A   1      40.526  26.319  26.414  1.00  0.00     0.010 A 
ATOM     13  C   UNL A   1      40.353  26.728  27.745  1.00  0.00    -0.014 A 
BRANCH  13  14
ATOM     14  C   UNL A   1      40.766  28.078  28.190  1.00  0.00     0.031 A 
ATOM     15  C   UNL A   1      39.770  29.089  28.663  1.00  0.00     0.074 A 
ATOM     16  C   UNL A   1      42.082  28.365  28.176  1.00  0.00     0.049 A 
ATOM     17  N   UNL A   1      39.977  30.313  29.074  1.00  0.00    -0.248 NA
ATOM     18  C   UNL A   1      38.358  28.679  28.672  1.00  0.00     0.031 C 
ATOM     19  C   UNL A   1      43.137  27.440  27.747  1.00  0.00     0.029 A 
ATOM     20  N   UNL A   1      42.764  29.490  28.553  1.00  0.00    -0.354 N 
ATOM     21  C   UNL A   1      38.727  30.826  29.391  1.00  0.00     0.074 A 
ATOM     22  C   UNL A   1      37.761  29.790  29.086  1.00  0.00     0.031 C 
ATOM     23  C   UNL A   1      44.330  28.009  27.950  1.00  0.00     0.029 A 
ATOM     24  C   UNL A   1      44.127  29.367  28.438  1.00  0.00     0.049 A 
ATOM     25  H   UNL A   1      42.320  30.308  28.875  1.00  0.00     0.167 HD
ATOM     26  C   UNL A   1      38.423  32.048  29.896  1.00  0.00     0.034 A 
ATOM     27  C   UNL A   1      45.112  30.251  28.678  1.00  0.00     0.034 A 
ATOM     28  C   UNL A   1      39.405  33.071  30.169  1.00  0.00     0.049 A 
ATOM     29  C   UNL A   1      44.745  31.624  29.154  1.00  0.00     0.074 A 
ATOM     30  C   UNL A   1      39.205  34.345  30.671  1.00  0.00     0.029 A 
ATOM     31  N   UNL A   1      40.774  32.942  29.956  1.00  0.00    -0.354 N 
ATOM     32  N   UNL A   1      43.554  32.113  29.408  1.00  0.00    -0.248 NA
ATOM     33  C   UNL A   1      45.848  32.565  29.368  1.00  0.00     0.031 C 
ATOM     34  C   UNL A   1      40.438  35.007  30.698  1.00  0.00     0.029 A 
ATOM     35  C   UNL A   1      41.423  34.121  30.292  1.00  0.00     0.049 A 
ATOM     36  H   UNL A   1      41.217  32.132  29.614  1.00  0.00     0.167 HD
ATOM     37  C   UNL A   1      43.765  33.417  29.836  1.00  0.00     0.074 A 
ATOM     38  C   UNL A   1      45.198  33.637  29.801  1.00  0.00     0.031 C 
ATOM     39  C   UNL A   1      42.852  34.339  30.232  1.00  0.00     0.034 A 
BRANCH  26  40
ATOM     40  C   UNL A   1      36.966  32.352  30.145  1.00  0.00     0.023 A 
ATOM     41  C   UNL A   1      36.180  33.019  29.190  1.00  0.00     0.031 A 
ATOM     42  C   UNL A   1      36.355  31.979  31.356  1.00  0.00     0.131 A 
ATOM     43  C   UNL A   1      34.848  33.346  29.482  1.00  0.00     0.055 A 
ATOM     44  C   UNL A   1      35.008  32.242  31.612  1.00  0.00     0.041 A 
ATOM     45  F   UNL A   1      37.060  31.356  32.314  1.00  0.00    -0.206 F 
ATOM     46  C   UNL A   1      34.249  32.940  30.678  1.00  0.00     0.022 A 
BRANCH  43  47
ATOM     47  S   UNL A   1      33.943  34.408  28.323  1.00  0.00     0.124 S 
ATOM     48  O   UNL A   1      32.808  33.560  27.966  1.00  0.00    -0.237 OA
ATOM     49  O   UNL A   1      33.626  35.575  29.139  1.00  0.00    -0.237 OA
ATOM     50  O   UNL A   1      34.904  34.640  27.247  1.00  0.00    -0.744 OA
ENDBRANCH  43  47
ENDBRANCH  26  40
BRANCH  27  51
ATOM     51  C   UNL A   1      46.522  29.838  28.459  1.00  0.00     0.023 A 
ATOM     52  C   UNL A   1      47.247  29.202  29.476  1.00  0.00     0.031 A 
ATOM     53  C   UNL A   1      47.127  29.988  27.198  1.00  0.00     0.131 A 
ATOM     54  C   UNL A   1      48.542  28.732  29.213  1.00  0.00     0.055 A 
ATOM     55  C   UNL A   1      48.402  29.487  26.933  1.00  0.00     0.041 A 
ATOM     56  F   UNL A   1      46.458  30.569  26.190  1.00  0.00    -0.206 F 
ATOM     57  C   UNL A   1      49.118  28.856  27.944  1.00  0.00     0.022 A 
BRANCH  54  58
ATOM     58  S   UNL A   1      49.467  27.937  30.555  1.00  0.00     0.124 S 
ATOM     59  O   UNL A   1      50.758  27.695  29.922  1.00  0.00    -0.237 OA
ATOM     60  O   UNL A   1      49.443  28.960  31.594  1.00  0.00    -0.237 OA
ATOM     61  O   UNL A   1      48.680  26.741  30.846  1.00  0.00    -0.744 OA
ENDBRANCH  54  58
ENDBRANCH  27  51
BRANCH  39  62
ATOM     62  C   UNL A   1      43.381  35.667  30.709  1.00  0.00     0.023 A 
ATOM     63  C   UNL A   1      43.654  35.915  32.064  1.00  0.00     0.031 A 
ATOM     64  C   UNL A   1      43.640  36.691  29.780  1.00  0.00     0.131 A 
ATOM     65  C   UNL A   1      44.141  37.171  32.457  1.00  0.00     0.055 A 
ATOM     66  C   UNL A   1      44.173  37.919  30.170  1.00  0.00     0.041 A 
ATOM     67  F   UNL A   1      43.392  36.505  28.473  1.00  0.00    -0.206 F 
ATOM     68  C   UNL A   1      44.420  38.168  31.517  1.00  0.00     0.022 A 
BRANCH  65  69
ATOM     69  S   UNL A   1      44.359  37.509  34.226  1.00  0.00     0.124 S 
ATOM     70  O   UNL A   1      44.309  36.167  34.797  1.00  0.00    -0.237 OA
ATOM     71  O   UNL A   1      45.660  38.169  34.262  1.00  0.00    -0.237 OA
ATOM     72  O   UNL A   1      43.222  38.366  34.554  1.00  0.00    -0.744 OA
ENDBRANCH  65  69
ENDBRANCH  39  62
ENDBRANCH  13  14
ENDBRANCH   6   8
ENDBRANCH   3   4
ENDBRANCH   2   3
ENDBRANCH   1   2
BRANCH   1  73
ATOM     73  C   UNL A   1      35.059  20.838  25.320  1.00  0.00     0.002 C 
BRANCH  73  74
ATOM     74  C   UNL A   1      34.178  19.742  24.717  1.00  0.00     0.021 C 
BRANCH  74  75
ATOM     75  C   UNL A   1      32.730  20.173  24.519  1.00  0.00     0.116 C 
BRANCH  75  76
ATOM     76  N   UNL A   1      32.222  20.898  25.655  1.00  0.00    -0.356 N 
ATOM     77  C   UNL A   1      31.893  22.201  25.809  1.00  0.00     0.223 C 
ATOM     78  H   UNL A   1      32.090  20.348  26.461  1.00  0.00     0.163 HD
ATOM     79  O   UNL A   1      31.453  22.523  26.920  1.00  0.00    -0.275 OA
BRANCH  77  80
ATOM     80  C   UNL A   1      32.019  23.259  24.713  1.00  0.00     0.082 C 
ATOM     81  C   UNL A   1      33.321  24.060  24.731  1.00  0.00     0.035 C 
ATOM     82  C   UNL A   1      30.759  24.078  24.428  1.00  0.00     0.035 C 
ATOM     83  C   UNL A   1      33.233  25.462  25.315  1.00  0.00     0.120 C 
ATOM     84  C   UNL A   1      30.711  25.474  25.038  1.00  0.00     0.120 C 
ATOM     85  N   UNL A   1      31.997  26.121  24.935  1.00  0.00    -0.341 N 
BRANCH  85  86
ATOM     86  C   UNL A   1      32.018  27.482  25.168  1.00  0.00     0.226 A 
ATOM     87  N   UNL A   1      31.239  28.214  24.377  1.00  0.00    -0.213 NA
ATOM     88  N   UNL A   1      32.759  28.002  26.154  1.00  0.00    -0.212 NA
ATOM     89  C   UNL A   1      31.166  29.538  24.594  1.00  0.00     0.076 A 
ATOM     90  C   UNL A   1      32.731  29.353  26.327  1.00  0.00     0.112 A 
ATOM     91  C   UNL A   1      31.924  30.170  25.554  1.00  0.00     0.059 A 
BRANCH  89  92
ATOM     92  C   UNL A   1      30.148  30.200  23.775  1.00  0.00     0.001 A 
ATOM     93  C   UNL A   1      29.485  31.364  24.192  1.00  0.00     0.013 A 
ATOM     94  C   UNL A   1      29.861  29.686  22.493  1.00  0.00     0.013 A 
ATOM     95  C   UNL A   1      28.570  31.998  23.344  1.00  0.00     0.040 A 
ATOM     96  C   UNL A   1      28.944  30.312  21.651  1.00  0.00     0.040 A 
ATOM     97  C   UNL A   1      28.309  31.466  22.085  1.00  0.00     0.123 A 
ATOM     98  F   UNL A   1      27.441  32.081  21.271  1.00  0.00    -0.207 F 
ENDBRANCH  89  92
BRANCH  90  99
ATOM     99  C   UNL A   1      33.597  29.952  27.419  1.00  0.00     0.391 C 
ATOM    100  F   UNL A   1      34.551  29.083  27.863  1.00  0.00    -0.203 F 
ATOM    101  F   UNL A   1      34.274  31.062  27.005  1.00  0.00    -0.203 F 
ENDBRANCH  90  99
ENDBRANCH  85  86
ENDBRANCH  77  80
ENDBRANCH  75  76
ENDBRANCH  74  75
ENDBRANCH  73  74
ENDBRANCH   1  73
TORSDOF 19
ENDMDL
MODEL 3
REMARK VINA RESULT:     -12.0      1.770      2.038
REMARK SMILES O=C(NCCCCCCNC(=O)C1CCN(c2nc(-c3ccc(F)cc3)cc(C(F)F)n2)CC1)c1ccc(-c2c3nc(c(-c4cc(S(=O)(=O)[O-])ccc4F)c4ccc([nH]4)c(-c4cc(S(=O)(=O)[O-])ccc4F)c4nc(c(-c5cc(S(=O)(=O)[O-])ccc5F)c5ccc2[nH]5)C=C4)C=C3)cc1
REMARK SMILES IDX 6 1 5 2 4 3 3 4 1 5 2 6 35 8 36 9 97 10 37 11 96 12 38 13
REMARK SMILES IDX 39 14 40 15 90 16 41 17 95 18 89 19 91 20 42 21 94 22 88 23
REMARK SMILES IDX 87 24 43 26 75 27 55 28 74 29 56 30 59 31 73 32 92 33 57 34
REMARK SMILES IDX 58 35 72 37 93 38 60 39 44 40 45 41 53 42 46 43 52 44 54 45
REMARK SMILES IDX 51 46 47 47 48 48 49 49 50 50 76 51 77 52 85 53 78 54 84 55
REMARK SMILES IDX 86 56 83 57 79 58 80 59 81 60 82 61 61 62 62 63 70 64 63 65
REMARK SMILES IDX 69 66 71 67 68 68 64 69 65 70 66 71 67 72 7 73 8 74 9 75
REMARK SMILES IDX 10 76 11 77 12 79 13 80 14 81 34 82 15 83 33 84 16 85 17 86
REMARK SMILES IDX 18 87 32 88 19 89 28 90 27 91 20 92 21 93 26 94 22 95 25 96
REMARK SMILES IDX 23 97 24 98 29 99 30 100 31 101
REMARK H PARENT 3 7 91 25 59 36 10 78
REMARK Flexibility Score: inf
ROOT
ATOM      1  C   UNL A   1      31.602  29.237  25.921  1.00  0.00     0.002 C 
ENDROOT
BRANCH   1   2
ATOM      2  C   UNL A   1      32.599  28.405  26.731  1.00  0.00     0.021 C 
BRANCH   2   3
ATOM      3  C   UNL A   1      34.037  28.896  26.635  1.00  0.00     0.116 C 
BRANCH   3   4
ATOM      4  N   UNL A   1      34.118  30.337  26.817  1.00  0.00    -0.352 N 
ATOM      5  O   UNL A   1      34.782  32.235  27.837  1.00  0.00    -0.269 OA
ATOM      6  C   UNL A   1      34.995  31.052  27.589  1.00  0.00     0.251 C 
ATOM      7  H   UNL A   1      33.456  30.869  26.319  1.00  0.00     0.163 HD
BRANCH   6   8
ATOM      8  C   UNL A   1      36.200  30.380  28.113  1.00  0.00     0.039 A 
ATOM      9  C   UNL A   1      37.414  30.496  27.430  1.00  0.00     0.014 A 
ATOM     10  C   UNL A   1      36.122  29.654  29.304  1.00  0.00     0.014 A 
ATOM     11  C   UNL A   1      38.528  29.805  27.882  1.00  0.00     0.010 A 
ATOM     12  C   UNL A   1      37.266  29.034  29.807  1.00  0.00     0.010 A 
ATOM     13  C   UNL A   1      38.476  29.109  29.100  1.00  0.00    -0.014 A 
BRANCH  13  14
ATOM     14  C   UNL A   1      39.737  28.600  29.685  1.00  0.00     0.031 A 
ATOM     15  C   UNL A   1      40.331  29.206  30.918  1.00  0.00     0.074 A 
ATOM     16  C   UNL A   1      40.327  27.551  29.082  1.00  0.00     0.049 A 
ATOM     17  N   UNL A   1      41.431  28.877  31.543  1.00  0.00    -0.248 NA
ATOM     18  C   UNL A   1      39.603  30.329  31.526  1.00  0.00     0.031 C 
ATOM     19  C   UNL A   1      39.816  26.878  27.883  1.00  0.00     0.029 A 
ATOM     20  N   UNL A   1      41.457  26.848  29.400  1.00  0.00    -0.354 N 
ATOM     21  C   UNL A   1      41.535  29.749  32.618  1.00  0.00     0.074 A 
ATOM     22  C   UNL A   1      40.402  30.649  32.536  1.00  0.00     0.031 C 
ATOM     23  C   UNL A   1      40.590  25.821  27.609  1.00  0.00     0.029 A 
ATOM     24  C   UNL A   1      41.698  25.792  28.554  1.00  0.00     0.049 A 
ATOM     25  H   UNL A   1      42.041  27.076  30.159  1.00  0.00     0.167 HD
ATOM     26  C   UNL A   1      42.487  29.783  33.584  1.00  0.00     0.034 A 
ATOM     27  C   UNL A   1      42.709  24.905  28.524  1.00  0.00     0.034 A 
ATOM     28  C   UNL A   1      43.618  28.888  33.628  1.00  0.00     0.049 A 
ATOM     29  C   UNL A   1      43.795  25.017  29.551  1.00  0.00     0.074 A 
ATOM     30  C   UNL A   1      44.646  28.842  34.555  1.00  0.00     0.029 A 
ATOM     31  N   UNL A   1      43.880  27.883  32.701  1.00  0.00    -0.354 N 
ATOM     32  N   UNL A   1      43.905  25.874  30.538  1.00  0.00    -0.248 NA
ATOM     33  C   UNL A   1      44.894  24.051  29.458  1.00  0.00     0.031 C 
ATOM     34  C   UNL A   1      45.559  27.861  34.153  1.00  0.00     0.029 A 
ATOM     35  C   UNL A   1      45.063  27.233  33.021  1.00  0.00     0.049 A 
ATOM     36  H   UNL A   1      43.309  27.667  31.930  1.00  0.00     0.167 HD
ATOM     37  C   UNL A   1      45.078  25.538  31.201  1.00  0.00     0.074 A 
ATOM     38  C   UNL A   1      45.639  24.400  30.498  1.00  0.00     0.031 C 
ATOM     39  C   UNL A   1      45.627  26.114  32.300  1.00  0.00     0.034 A 
BRANCH  26  40
ATOM     40  C   UNL A   1      42.360  30.850  34.644  1.00  0.00     0.023 A 
ATOM     41  C   UNL A   1      42.816  32.161  34.427  1.00  0.00     0.031 A 
ATOM     42  C   UNL A   1      41.784  30.552  35.892  1.00  0.00     0.131 A 
ATOM     43  C   UNL A   1      42.745  33.109  35.458  1.00  0.00     0.055 A 
ATOM     44  C   UNL A   1      41.649  31.519  36.890  1.00  0.00     0.041 A 
ATOM     45  F   UNL A   1      41.348  29.312  36.165  1.00  0.00    -0.206 F 
ATOM     46  C   UNL A   1      42.141  32.804  36.680  1.00  0.00     0.022 A 
BRANCH  43  47
ATOM     47  S   UNL A   1      43.555  34.714  35.215  1.00  0.00     0.124 S 
ATOM     48  O   UNL A   1      43.098  35.458  36.387  1.00  0.00    -0.237 OA
ATOM     49  O   UNL A   1      44.970  34.360  35.205  1.00  0.00    -0.237 OA
ATOM     50  O   UNL A   1      43.018  35.182  33.939  1.00  0.00    -0.744 OA
ENDBRANCH  43  47
ENDBRANCH  26  40
BRANCH  27  51
ATOM     51  C   UNL A   1      42.714  23.852  27.476  1.00  0.00     0.023 A 
ATOM     52  C   UNL A   1      42.227  22.567  27.750  1.00  0.00     0.031 A 
ATOM     53  C   UNL A   1      43.116  24.150  26.161  1.00  0.00     0.131 A 
ATOM     54  C   UNL A   1      42.151  21.621  26.717  1.00  0.00     0.055 A 
ATOM     55  C   UNL A   1      43.004  23.216  25.131  1.00  0.00     0.041 A 
ATOM     56  F   UNL A   1      43.565  25.376  25.850  1.00  0.00    -0.206 F 
ATOM     57  C   UNL A   1      42.520  21.941  25.407  1.00  0.00     0.022 A 
BRANCH  54  58
ATOM     58  S   UNL A   1      41.542  19.957  27.106  1.00  0.00     0.124 S 
ATOM     59  O   UNL A   1      40.797  19.625  25.898  1.00  0.00    -0.237 OA
ATOM     60  O   UNL A   1      42.781  19.219  27.320  1.00  0.00    -0.237 OA
ATOM     61  O   UNL A   1      40.731  20.165  28.304  1.00  0.00    -0.744 OA
ENDBRANCH  54  58
ENDBRANCH  27  51
BRANCH  39  62
ATOM     62  C   UNL A   1      46.887  25.491  32.843  1.00  0.00     0.023 A 
ATOM     63  C   UNL A   1      48.160  25.862  32.378  1.00  0.00     0.031 A 
ATOM     64  C   UNL A   1      46.807  24.527  33.865  1.00  0.00     0.131 A 
ATOM     65  C   UNL A   1      49.302  25.247  32.913  1.00  0.00     0.055 A 
ATOM     66  C   UNL A   1      47.948  23.958  34.429  1.00  0.00     0.041 A 
ATOM     67  F   UNL A   1      45.613  24.136  34.341  1.00  0.00    -0.206 F 
ATOM     68  C   UNL A   1      49.205  24.312  33.949  1.00  0.00     0.022 A 
BRANCH  65  69
ATOM     69  S   UNL A   1      50.923  25.647  32.204  1.00  0.00     0.124 S 
ATOM     70  O   UNL A   1      51.795  25.544  33.370  1.00  0.00    -0.237 OA
ATOM     71  O   UNL A   1      51.088  24.610  31.191  1.00  0.00    -0.237 OA
ATOM     72  O   UNL A   1      50.743  27.000  31.680  1.00  0.00    -0.744 OA
ENDBRANCH  65  69
ENDBRANCH  39  62
ENDBRANCH  13  14
ENDBRANCH   6   8
ENDBRANCH   3   4
ENDBRANCH   2   3
ENDBRANCH   1   2
BRANCH   1  73
ATOM     73  C   UNL A   1      30.740  28.438  24.934  1.00  0.00     0.002 C 
BRANCH  73  74
ATOM     74  C   UNL A   1      30.737  28.981  23.504  1.00  0.00     0.021 C 
BRANCH  74  75
ATOM     75  C   UNL A   1      30.061  28.048  22.506  1.00  0.00     0.116 C 
BRANCH  75  76
ATOM     76  N   UNL A   1      31.016  27.354  21.682  1.00  0.00    -0.356 N 
ATOM     77  C   UNL A   1      31.756  26.246  21.913  1.00  0.00     0.223 C 
ATOM     78  H   UNL A   1      31.155  27.757  20.796  1.00  0.00     0.163 HD
ATOM     79  O   UNL A   1      32.484  25.873  20.983  1.00  0.00    -0.275 OA
BRANCH  77  80
ATOM     80  C   UNL A   1      31.732  25.446  23.216  1.00  0.00     0.082 C 
ATOM     81  C   UNL A   1      32.860  25.768  24.196  1.00  0.00     0.035 C 
ATOM     82  C   UNL A   1      31.396  23.960  23.081  1.00  0.00     0.035 C 
ATOM     83  C   UNL A   1      34.007  24.769  24.244  1.00  0.00     0.120 C 
ATOM     84  C   UNL A   1      32.575  22.996  23.128  1.00  0.00     0.120 C 
ATOM     85  N   UNL A   1      33.529  23.403  24.132  1.00  0.00    -0.341 N 
BRANCH  85  86
ATOM     86  C   UNL A   1      34.480  22.468  24.488  1.00  0.00     0.226 A 
ATOM     87  N   UNL A   1      34.051  21.212  24.572  1.00  0.00    -0.213 NA
ATOM     88  N   UNL A   1      35.754  22.824  24.696  1.00  0.00    -0.212 NA
ATOM     89  C   UNL A   1      34.941  20.246  24.852  1.00  0.00     0.076 A 
ATOM     90  C   UNL A   1      36.639  21.849  25.043  1.00  0.00     0.112 A 
ATOM     91  C   UNL A   1      36.263  20.519  25.126  1.00  0.00     0.059 A 
BRANCH  89  92
ATOM     92  C   UNL A   1      34.380  18.897  24.745  1.00  0.00     0.001 A 
ATOM     93  C   UNL A   1      35.183  17.756  24.594  1.00  0.00     0.013 A 
ATOM     94  C   UNL A   1      32.984  18.727  24.857  1.00  0.00     0.013 A 
ATOM     95  C   UNL A   1      34.602  16.484  24.567  1.00  0.00     0.040 A 
ATOM     96  C   UNL A   1      32.405  17.460  24.822  1.00  0.00     0.040 A 
ATOM     97  C   UNL A   1      33.222  16.349  24.680  1.00  0.00     0.123 A 
ATOM     98  F   UNL A   1      32.670  15.128  24.664  1.00  0.00    -0.207 F 
ENDBRANCH  89  92
BRANCH  90  99
ATOM     99  C   UNL A   1      38.075  22.252  25.316  1.00  0.00     0.391 C 
ATOM    100  F   UNL A   1      38.185  23.552  25.717  1.00  0.00    -0.203 F 
ATOM    101  F   UNL A   1      38.651  21.511  26.308  1.00  0.00    -0.203 F 
ENDBRANCH  90  99
ENDBRANCH  85  86
ENDBRANCH  77  80
ENDBRANCH  75  76
ENDBRANCH  74  75
ENDBRANCH  73  74
ENDBRANCH   1  73
TORSDOF 19
ENDMDL
