MODEL 1
REMARK VINA RESULT:     -12.1      0.000      0.000
REMARK SMILES Cc1c(CC(=O)NCCCCCCNC(=O)c2ccc(-c3c4nc(c(-c5cc(S(=O)(=O)[O-])ccc5F)c5ccc([nH]5)c(-c5cc(S(=O)(=O)[O-])ccc5F)c5nc(c(-c6cc(S(=O)(=O)[O-])ccc6F)c6ccc3[nH]6)C=C5)C=C4)cc2)cc(-c2ccccc2)cc1-c1ccccc1
REMARK SMILES IDX 11 1 10 2 9 3 8 4 7 5 5 6 6 7 4 9 3 10 1 11 2 12 89 13 80 14
REMARK SMILES IDX 88 15 81 16 90 17 91 18 95 19 92 20 94 21 93 22 82 23 83 24
REMARK SMILES IDX 87 25 84 26 86 27 85 28 12 29 13 30 14 31 15 32 16 34 17 35
REMARK SMILES IDX 18 36 79 37 19 38 78 39 20 40 21 41 22 42 72 43 23 44 77 45
REMARK SMILES IDX 71 46 73 47 24 48 76 49 70 50 69 51 25 53 57 54 37 55 56 56
REMARK SMILES IDX 38 57 41 58 55 59 74 60 39 61 40 62 54 64 75 65 42 66 26 67
REMARK SMILES IDX 27 68 35 69 28 70 34 71 36 72 33 73 29 74 30 75 31 76 32 77
REMARK SMILES IDX 58 78 59 79 67 80 60 81 66 82 68 83 65 84 61 85 62 86 63 87
REMARK SMILES IDX 64 88 43 89 44 90 52 91 45 92 51 93 53 94 50 95 46 96 47 97
REMARK SMILES IDX 48 98 49 99
REMARK H PARENT 7 8 14 33 73 52 41 63
REMARK Flexibility Score: inf
ROOT
ATOM      1  C   UNL A   1      37.131  33.547  29.820  1.00  0.00     0.002 C 
ENDROOT
BRANCH   1   2
ATOM      2  C   UNL A   1      36.345  33.426  28.504  1.00  0.00     0.002 C 
BRANCH   2   3
ATOM      3  C   UNL A   1      35.927  32.007  28.097  1.00  0.00     0.021 C 
BRANCH   3   4
ATOM      4  C   UNL A   1      34.477  31.879  27.637  1.00  0.00     0.116 C 
BRANCH   4   5
ATOM      5  N   UNL A   1      33.830  30.682  28.136  1.00  0.00    -0.356 N 
ATOM      6  C   UNL A   1      33.582  29.505  27.487  1.00  0.00     0.224 C 
ATOM      7  O   UNL A   1      33.065  28.577  28.113  1.00  0.00    -0.275 OA
ATOM      8  H   UNL A   1      33.526  30.722  29.070  1.00  0.00     0.163 HD
BRANCH   6   9
ATOM      9  C   UNL A   1      33.996  29.326  26.030  1.00  0.00     0.135 C 
BRANCH   9  10
ATOM     10  C   UNL A   1      32.982  28.582  25.177  1.00  0.00    -0.035 A 
ATOM     11  C   UNL A   1      34.202  26.360  25.428  1.00  0.00     0.045 C 
ATOM     12  C   UNL A   1      33.093  27.207  24.843  1.00  0.00    -0.040 A 
ATOM     13  C   UNL A   1      32.126  26.624  23.980  1.00  0.00    -0.015 A 
ATOM     14  C   UNL A   1      31.883  29.325  24.699  1.00  0.00     0.013 A 
ATOM     15  C   UNL A   1      31.057  27.418  23.513  1.00  0.00     0.017 A 
ATOM     16  C   UNL A   1      30.909  28.763  23.871  1.00  0.00    -0.017 A 
BRANCH  13  17
ATOM     17  C   UNL A   1      32.206  25.229  23.505  1.00  0.00    -0.018 A 
ATOM     18  C   UNL A   1      32.956  24.915  22.357  1.00  0.00     0.009 A 
ATOM     19  C   UNL A   1      31.546  24.183  24.171  1.00  0.00     0.009 A 
ATOM     20  C   UNL A   1      33.054  23.600  21.900  1.00  0.00     0.001 A 
ATOM     21  C   UNL A   1      31.657  22.864  23.722  1.00  0.00     0.001 A 
ATOM     22  C   UNL A   1      32.411  22.573  22.587  1.00  0.00     0.000 A 
ENDBRANCH  13  17
BRANCH  16  23
ATOM     23  C   UNL A   1      29.770  29.561  23.395  1.00  0.00    -0.018 A 
ATOM     24  C   UNL A   1      28.894  29.064  22.416  1.00  0.00     0.009 A 
ATOM     25  C   UNL A   1      29.534  30.850  23.899  1.00  0.00     0.009 A 
ATOM     26  C   UNL A   1      27.821  29.831  21.954  1.00  0.00     0.001 A 
ATOM     27  C   UNL A   1      28.464  31.620  23.436  1.00  0.00     0.001 A 
ATOM     28  C   UNL A   1      27.610  31.110  22.462  1.00  0.00     0.000 A 
ENDBRANCH  16  23
ENDBRANCH   9  10
ENDBRANCH   6   9
ENDBRANCH   4   5
ENDBRANCH   3   4
ENDBRANCH   2   3
ENDBRANCH   1   2
BRANCH   1  29
ATOM     29  C   UNL A   1      38.579  33.055  29.788  1.00  0.00     0.021 C 
BRANCH  29  30
ATOM     30  C   UNL A   1      38.805  31.745  30.535  1.00  0.00     0.116 C 
BRANCH  30  31
ATOM     31  N   UNL A   1      37.597  31.195  31.143  1.00  0.00    -0.352 N 
ATOM     32  C   UNL A   1      36.976  29.976  30.918  1.00  0.00     0.251 C 
ATOM     33  H   UNL A   1      37.160  31.773  31.810  1.00  0.00     0.163 HD
ATOM     34  O   UNL A   1      35.940  29.680  31.444  1.00  0.00    -0.269 OA
BRANCH  32  35
ATOM     35  C   UNL A   1      37.710  28.967  30.099  1.00  0.00     0.039 A 
ATOM     36  C   UNL A   1      38.594  28.125  30.782  1.00  0.00     0.014 A 
ATOM     37  C   UNL A   1      37.700  29.004  28.706  1.00  0.00     0.014 A 
ATOM     38  C   UNL A   1      39.617  27.496  30.079  1.00  0.00     0.010 A 
ATOM     39  C   UNL A   1      38.760  28.443  28.016  1.00  0.00     0.010 A 
ATOM     40  C   UNL A   1      39.754  27.747  28.710  1.00  0.00    -0.014 A 
BRANCH  40  41
ATOM     41  C   UNL A   1      40.988  27.454  27.988  1.00  0.00     0.031 A 
ATOM     42  C   UNL A   1      41.443  26.064  27.783  1.00  0.00     0.074 A 
ATOM     43  C   UNL A   1      41.772  28.465  27.553  1.00  0.00     0.049 A 
ATOM     44  N   UNL A   1      42.682  25.699  27.765  1.00  0.00    -0.248 NA
ATOM     45  C   UNL A   1      40.510  24.957  27.613  1.00  0.00     0.031 C 
ATOM     46  C   UNL A   1      42.954  28.367  26.701  1.00  0.00     0.029 A 
ATOM     47  N   UNL A   1      41.782  29.786  27.952  1.00  0.00    -0.354 N 
ATOM     48  C   UNL A   1      42.727  24.399  27.318  1.00  0.00     0.074 A 
ATOM     49  C   UNL A   1      41.347  23.962  27.303  1.00  0.00     0.031 C 
ATOM     50  C   UNL A   1      43.701  29.472  26.872  1.00  0.00     0.029 A 
ATOM     51  C   UNL A   1      43.091  30.252  27.936  1.00  0.00     0.049 A 
ATOM     52  H   UNL A   1      40.990  30.313  28.206  1.00  0.00     0.167 HD
ATOM     53  C   UNL A   1      43.898  23.867  26.862  1.00  0.00     0.034 A 
ATOM     54  C   UNL A   1      43.735  30.688  29.059  1.00  0.00     0.034 A 
ATOM     55  C   UNL A   1      44.999  24.826  26.923  1.00  0.00     0.049 A 
ATOM     56  C   UNL A   1      44.990  29.901  29.375  1.00  0.00     0.074 A 
ATOM     57  C   UNL A   1      45.565  25.648  25.962  1.00  0.00     0.029 A 
ATOM     58  N   UNL A   1      45.497  25.254  28.150  1.00  0.00    -0.354 N 
ATOM     59  N   UNL A   1      45.259  28.721  28.887  1.00  0.00    -0.248 NA
ATOM     60  C   UNL A   1      46.022  30.373  30.294  1.00  0.00     0.031 C 
ATOM     61  C   UNL A   1      46.359  26.616  26.624  1.00  0.00     0.029 A 
ATOM     62  C   UNL A   1      46.302  26.366  27.983  1.00  0.00     0.049 A 
ATOM     63  H   UNL A   1      45.303  24.825  29.014  1.00  0.00     0.167 HD
ATOM     64  C   UNL A   1      46.438  28.263  29.418  1.00  0.00     0.074 A 
ATOM     65  C   UNL A   1      46.891  29.348  30.270  1.00  0.00     0.031 C 
ATOM     66  C   UNL A   1      46.932  27.022  29.122  1.00  0.00     0.034 A 
BRANCH  53  67
ATOM     67  C   UNL A   1      43.953  22.595  26.045  1.00  0.00     0.023 A 
ATOM     68  C   UNL A   1      43.169  21.485  26.425  1.00  0.00     0.031 A 
ATOM     69  C   UNL A   1      44.781  22.398  24.924  1.00  0.00     0.131 A 
ATOM     70  C   UNL A   1      43.315  20.234  25.796  1.00  0.00     0.055 A 
ATOM     71  C   UNL A   1      44.976  21.139  24.339  1.00  0.00     0.041 A 
ATOM     72  F   UNL A   1      45.405  23.427  24.330  1.00  0.00    -0.206 F 
ATOM     73  C   UNL A   1      44.256  20.043  24.788  1.00  0.00     0.022 A 
BRANCH  70  74
ATOM     74  S   UNL A   1      42.252  18.857  26.312  1.00  0.00     0.124 S 
ATOM     75  O   UNL A   1      42.913  17.706  25.706  1.00  0.00    -0.237 OA
ATOM     76  O   UNL A   1      42.317  18.948  27.767  1.00  0.00    -0.237 OA
ATOM     77  O   UNL A   1      40.953  19.198  25.732  1.00  0.00    -0.744 OA
ENDBRANCH  70  74
ENDBRANCH  53  67
BRANCH  54  78
ATOM     78  C   UNL A   1      42.842  31.291  30.087  1.00  0.00     0.023 A 
ATOM     79  C   UNL A   1      42.355  30.449  31.107  1.00  0.00     0.031 A 
ATOM     80  C   UNL A   1      42.754  32.676  30.282  1.00  0.00     0.131 A 
ATOM     81  C   UNL A   1      41.942  30.986  32.333  1.00  0.00     0.055 A 
ATOM     82  C   UNL A   1      42.288  33.213  31.489  1.00  0.00     0.041 A 
ATOM     83  F   UNL A   1      43.223  33.530  29.361  1.00  0.00    -0.206 F 
ATOM     84  C   UNL A   1      41.921  32.368  32.537  1.00  0.00     0.022 A 
BRANCH  81  85
ATOM     85  S   UNL A   1      41.684  29.869  33.742  1.00  0.00     0.124 S 
ATOM     86  O   UNL A   1      40.236  29.712  33.749  1.00  0.00    -0.237 OA
ATOM     87  O   UNL A   1      42.450  28.685  33.360  1.00  0.00    -0.237 OA
ATOM     88  O   UNL A   1      42.248  30.613  34.867  1.00  0.00    -0.744 OA
ENDBRANCH  81  85
ENDBRANCH  54  78
BRANCH  66  89
ATOM     89  C   UNL A   1      48.119  26.370  29.797  1.00  0.00     0.023 A 
ATOM     90  C   UNL A   1      48.102  25.935  31.131  1.00  0.00     0.031 A 
ATOM     91  C   UNL A   1      49.311  26.103  29.081  1.00  0.00     0.131 A 
ATOM     92  C   UNL A   1      49.246  25.374  31.730  1.00  0.00     0.055 A 
ATOM     93  C   UNL A   1      50.419  25.469  29.655  1.00  0.00     0.041 A 
ATOM     94  F   UNL A   1      49.450  26.440  27.791  1.00  0.00    -0.206 F 
ATOM     95  C   UNL A   1      50.400  25.120  30.996  1.00  0.00     0.022 A 
BRANCH  92  96
ATOM     96  S   UNL A   1      49.210  25.059  33.515  1.00  0.00     0.124 S 
ATOM     97  O   UNL A   1      49.409  26.400  34.059  1.00  0.00    -0.237 OA
ATOM     98  O   UNL A   1      47.881  24.488  33.706  1.00  0.00    -0.237 OA
ATOM     99  O   UNL A   1      50.321  24.134  33.724  1.00  0.00    -0.744 OA
ENDBRANCH  92  96
ENDBRANCH  66  89
ENDBRANCH  40  41
ENDBRANCH  32  35
ENDBRANCH  30  31
ENDBRANCH  29  30
ENDBRANCH   1  29
TORSDOF 19
ENDMDL
MODEL 2
REMARK VINA RESULT:     -11.5      4.071     10.342
REMARK SMILES Cc1c(CC(=O)NCCCCCCNC(=O)c2ccc(-c3c4nc(c(-c5cc(S(=O)(=O)[O-])ccc5F)c5ccc([nH]5)c(-c5cc(S(=O)(=O)[O-])ccc5F)c5nc(c(-c6cc(S(=O)(=O)[O-])ccc6F)c6ccc3[nH]6)C=C5)C=C4)cc2)cc(-c2ccccc2)cc1-c1ccccc1
REMARK SMILES IDX 11 1 10 2 9 3 8 4 7 5 5 6 6 7 4 9 3 10 1 11 2 12 89 13 80 14
REMARK SMILES IDX 88 15 81 16 90 17 91 18 95 19 92 20 94 21 93 22 82 23 83 24
REMARK SMILES IDX 87 25 84 26 86 27 85 28 12 29 13 30 14 31 15 32 16 34 17 35
REMARK SMILES IDX 18 36 79 37 19 38 78 39 20 40 21 41 22 42 72 43 23 44 77 45
REMARK SMILES IDX 71 46 73 47 24 48 76 49 70 50 69 51 25 53 57 54 37 55 56 56
REMARK SMILES IDX 38 57 41 58 55 59 74 60 39 61 40 62 54 64 75 65 42 66 26 67
REMARK SMILES IDX 27 68 35 69 28 70 34 71 36 72 33 73 29 74 30 75 31 76 32 77
REMARK SMILES IDX 58 78 59 79 67 80 60 81 66 82 68 83 65 84 61 85 62 86 63 87
REMARK SMILES IDX 64 88 43 89 44 90 52 91 45 92 51 93 53 94 50 95 46 96 47 97
REMARK SMILES IDX 48 98 49 99
REMARK H PARENT 7 8 14 33 73 52 41 63
REMARK Flexibility Score: inf
ROOT
ATOM      1  C   UNL A   1      41.923  22.047  27.994  1.00  0.00     0.002 C 
ENDROOT
BRANCH   1   2
ATOM      2  C   UNL A   1      41.217  20.783  27.474  1.00  0.00     0.002 C 
BRANCH   2   3
ATOM      3  C   UNL A   1      40.028  21.015  26.534  1.00  0.00     0.021 C 
BRANCH   3   4
ATOM      4  C   UNL A   1      39.362  22.381  26.676  1.00  0.00     0.116 C 
BRANCH   4   5
ATOM      5  N   UNL A   1      38.851  22.893  25.420  1.00  0.00    -0.356 N 
ATOM      6  C   UNL A   1      37.574  23.254  25.095  1.00  0.00     0.224 C 
ATOM      7  O   UNL A   1      37.353  23.724  23.976  1.00  0.00    -0.275 OA
ATOM      8  H   UNL A   1      39.514  22.992  24.700  1.00  0.00     0.163 HD
BRANCH   6   9
ATOM      9  C   UNL A   1      36.453  23.133  26.123  1.00  0.00     0.135 C 
BRANCH   9  10
ATOM     10  C   UNL A   1      35.092  22.810  25.532  1.00  0.00    -0.035 A 
ATOM     11  C   UNL A   1      34.278  25.214  25.751  1.00  0.00     0.045 C 
ATOM     12  C   UNL A   1      34.046  23.760  25.399  1.00  0.00    -0.040 A 
ATOM     13  C   UNL A   1      32.785  23.337  24.897  1.00  0.00    -0.015 A 
ATOM     14  C   UNL A   1      34.881  21.482  25.104  1.00  0.00     0.013 A 
ATOM     15  C   UNL A   1      32.621  21.993  24.503  1.00  0.00     0.017 A 
ATOM     16  C   UNL A   1      33.657  21.055  24.585  1.00  0.00    -0.017 A 
BRANCH  13  17
ATOM     17  C   UNL A   1      31.613  24.229  24.808  1.00  0.00    -0.018 A 
ATOM     18  C   UNL A   1      30.990  24.698  25.978  1.00  0.00     0.009 A 
ATOM     19  C   UNL A   1      31.086  24.633  23.570  1.00  0.00     0.009 A 
ATOM     20  C   UNL A   1      29.888  25.553  25.914  1.00  0.00     0.001 A 
ATOM     21  C   UNL A   1      29.991  25.501  23.506  1.00  0.00     0.001 A 
ATOM     22  C   UNL A   1      29.393  25.960  24.678  1.00  0.00     0.000 A 
ENDBRANCH  13  17
BRANCH  16  23
ATOM     23  C   UNL A   1      33.470  19.666  24.139  1.00  0.00    -0.018 A 
ATOM     24  C   UNL A   1      32.458  19.328  23.225  1.00  0.00     0.009 A 
ATOM     25  C   UNL A   1      34.291  18.637  24.626  1.00  0.00     0.009 A 
ATOM     26  C   UNL A   1      32.271  18.005  22.816  1.00  0.00     0.001 A 
ATOM     27  C   UNL A   1      34.104  17.314  24.221  1.00  0.00     0.001 A 
ATOM     28  C   UNL A   1      33.093  16.998  23.317  1.00  0.00     0.000 A 
ENDBRANCH  16  23
ENDBRANCH   9  10
ENDBRANCH   6   9
ENDBRANCH   4   5
ENDBRANCH   3   4
ENDBRANCH   2   3
ENDBRANCH   1   2
BRANCH   1  29
ATOM     29  C   UNL A   1      43.067  22.583  27.132  1.00  0.00     0.021 C 
BRANCH  29  30
ATOM     30  C   UNL A   1      43.163  24.104  27.107  1.00  0.00     0.116 C 
BRANCH  30  31
ATOM     31  N   UNL A   1      42.233  24.740  26.178  1.00  0.00    -0.352 N 
ATOM     32  C   UNL A   1      41.124  25.526  26.445  1.00  0.00     0.251 C 
ATOM     33  H   UNL A   1      42.423  24.589  25.223  1.00  0.00     0.163 HD
ATOM     34  O   UNL A   1      40.403  25.931  25.575  1.00  0.00    -0.269 OA
BRANCH  32  35
ATOM     35  C   UNL A   1      40.920  25.980  27.851  1.00  0.00     0.039 A 
ATOM     36  C   UNL A   1      39.662  25.737  28.415  1.00  0.00     0.014 A 
ATOM     37  C   UNL A   1      41.837  26.806  28.497  1.00  0.00     0.014 A 
ATOM     38  C   UNL A   1      39.244  26.497  29.503  1.00  0.00     0.010 A 
ATOM     39  C   UNL A   1      41.396  27.617  29.528  1.00  0.00     0.010 A 
ATOM     40  C   UNL A   1      40.079  27.509  29.985  1.00  0.00    -0.014 A 
BRANCH  40  41
ATOM     41  C   UNL A   1      39.583  28.583  30.840  1.00  0.00     0.031 A 
ATOM     42  C   UNL A   1      38.921  29.773  30.266  1.00  0.00     0.074 A 
ATOM     43  C   UNL A   1      39.788  28.533  32.174  1.00  0.00     0.049 A 
ATOM     44  N   UNL A   1      39.018  30.965  30.753  1.00  0.00    -0.248 NA
ATOM     45  C   UNL A   1      38.109  29.704  29.057  1.00  0.00     0.031 C 
ATOM     46  C   UNL A   1      39.247  29.435  33.188  1.00  0.00     0.029 A 
ATOM     47  N   UNL A   1      40.692  27.770  32.884  1.00  0.00    -0.354 N 
ATOM     48  C   UNL A   1      38.090  31.753  30.112  1.00  0.00     0.074 A 
ATOM     49  C   UNL A   1      37.600  30.939  29.020  1.00  0.00     0.031 C 
ATOM     50  C   UNL A   1      40.018  29.359  34.287  1.00  0.00     0.029 A 
ATOM     51  C   UNL A   1      41.153  28.509  33.968  1.00  0.00     0.049 A 
ATOM     52  H   UNL A   1      40.967  26.852  32.658  1.00  0.00     0.167 HD
ATOM     53  C   UNL A   1      37.717  32.951  30.647  1.00  0.00     0.034 A 
ATOM     54  C   UNL A   1      42.464  28.857  34.122  1.00  0.00     0.034 A 
ATOM     55  C   UNL A   1      38.406  33.231  31.905  1.00  0.00     0.049 A 
ATOM     56  C   UNL A   1      42.684  30.354  34.182  1.00  0.00     0.074 A 
ATOM     57  C   UNL A   1      38.020  33.075  33.227  1.00  0.00     0.029 A 
ATOM     58  N   UNL A   1      39.774  33.481  31.921  1.00  0.00    -0.354 N 
ATOM     59  N   UNL A   1      41.819  31.241  33.771  1.00  0.00    -0.248 NA
ATOM     60  C   UNL A   1      43.914  30.965  34.680  1.00  0.00     0.031 C 
ATOM     61  C   UNL A   1      39.178  33.169  34.037  1.00  0.00     0.029 A 
ATOM     62  C   UNL A   1      40.263  33.413  33.214  1.00  0.00     0.049 A 
ATOM     63  H   UNL A   1      40.318  33.679  31.125  1.00  0.00     0.167 HD
ATOM     64  C   UNL A   1      42.350  32.498  33.909  1.00  0.00     0.074 A 
ATOM     65  C   UNL A   1      43.651  32.272  34.511  1.00  0.00     0.031 C 
ATOM     66  C   UNL A   1      41.677  33.618  33.500  1.00  0.00     0.034 A 
BRANCH  53  67
ATOM     67  C   UNL A   1      36.477  33.693  30.200  1.00  0.00     0.023 A 
ATOM     68  C   UNL A   1      35.668  34.345  31.155  1.00  0.00     0.031 A 
ATOM     69  C   UNL A   1      36.017  33.757  28.871  1.00  0.00     0.131 A 
ATOM     70  C   UNL A   1      34.423  34.902  30.805  1.00  0.00     0.055 A 
ATOM     71  C   UNL A   1      34.750  34.251  28.530  1.00  0.00     0.041 A 
ATOM     72  F   UNL A   1      36.794  33.374  27.846  1.00  0.00    -0.206 F 
ATOM     73  C   UNL A   1      33.936  34.810  29.504  1.00  0.00     0.022 A 
BRANCH  70  74
ATOM     74  S   UNL A   1      33.448  35.754  32.076  1.00  0.00     0.124 S 
ATOM     75  O   UNL A   1      32.232  34.950  32.131  1.00  0.00    -0.237 OA
ATOM     76  O   UNL A   1      34.327  35.677  33.239  1.00  0.00    -0.237 OA
ATOM     77  O   UNL A   1      33.275  37.097  31.525  1.00  0.00    -0.744 OA
ENDBRANCH  70  74
ENDBRANCH  53  67
BRANCH  54  78
ATOM     78  C   UNL A   1      43.433  27.890  33.535  1.00  0.00     0.023 A 
ATOM     79  C   UNL A   1      43.663  26.688  34.234  1.00  0.00     0.031 A 
ATOM     80  C   UNL A   1      43.842  27.959  32.196  1.00  0.00     0.131 A 
ATOM     81  C   UNL A   1      44.143  25.557  33.561  1.00  0.00     0.055 A 
ATOM     82  C   UNL A   1      44.373  26.842  31.540  1.00  0.00     0.041 A 
ATOM     83  F   UNL A   1      43.627  29.065  31.470  1.00  0.00    -0.206 F 
ATOM     84  C   UNL A   1      44.485  25.623  32.208  1.00  0.00     0.022 A 
BRANCH  81  85
ATOM     85  S   UNL A   1      44.069  23.942  34.389  1.00  0.00     0.124 S 
ATOM     86  O   UNL A   1      43.294  24.245  35.585  1.00  0.00    -0.237 OA
ATOM     87  O   UNL A   1      43.404  23.100  33.397  1.00  0.00    -0.237 OA
ATOM     88  O   UNL A   1      45.476  23.614  34.609  1.00  0.00    -0.744 OA
ENDBRANCH  81  85
ENDBRANCH  54  78
BRANCH  66  89
ATOM     89  C   UNL A   1      42.256  35.014  33.447  1.00  0.00     0.023 A 
ATOM     90  C   UNL A   1      42.848  35.559  32.297  1.00  0.00     0.031 A 
ATOM     91  C   UNL A   1      42.169  35.884  34.561  1.00  0.00     0.131 A 
ATOM     92  C   UNL A   1      43.414  36.847  32.308  1.00  0.00     0.055 A 
ATOM     93  C   UNL A   1      42.658  37.195  34.544  1.00  0.00     0.041 A 
ATOM     94  F   UNL A   1      41.601  35.501  35.713  1.00  0.00    -0.206 F 
ATOM     95  C   UNL A   1      43.306  37.679  33.418  1.00  0.00     0.022 A 
BRANCH  92  96
ATOM     96  S   UNL A   1      44.364  37.378  30.858  1.00  0.00     0.124 S 
ATOM     97  O   UNL A   1      43.941  38.769  30.717  1.00  0.00    -0.237 OA
ATOM     98  O   UNL A   1      45.742  37.177  31.295  1.00  0.00    -0.237 OA
ATOM     99  O   UNL A   1      43.908  36.480  29.799  1.00  0.00    -0.744 OA
ENDBRANCH  92  96
ENDBRANCH  66  89
ENDBRANCH  40  41
ENDBRANCH  32  35
ENDBRANCH  30  31
ENDBRANCH  29  30
ENDBRANCH   1  29
TORSDOF 19
ENDMDL
MODEL 3
REMARK VINA RESULT:     -11.4      4.117     10.382
REMARK SMILES Cc1c(CC(=O)NCCCCCCNC(=O)c2ccc(-c3c4nc(c(-c5cc(S(=O)(=O)[O-])ccc5F)c5ccc([nH]5)c(-c5cc(S(=O)(=O)[O-])ccc5F)c5nc(c(-c6cc(S(=O)(=O)[O-])ccc6F)c6ccc3[nH]6)C=C5)C=C4)cc2)cc(-c2ccccc2)cc1-c1ccccc1
REMARK SMILES IDX 11 1 10 2 9 3 8 4 7 5 5 6 6 7 4 9 3 10 1 11 2 12 89 13 80 14
REMARK SMILES IDX 88 15 81 16 90 17 91 18 95 19 92 20 94 21 93 22 82 23 83 24
REMARK SMILES IDX 87 25 84 26 86 27 85 28 12 29 13 30 14 31 15 32 16 34 17 35
REMARK SMILES IDX 18 36 79 37 19 38 78 39 20 40 21 41 22 42 72 43 23 44 77 45
REMARK SMILES IDX 71 46 73 47 24 48 76 49 70 50 69 51 25 53 57 54 37 55 56 56
REMARK SMILES IDX 38 57 41 58 55 59 74 60 39 61 40 62 54 64 75 65 42 66 26 67
REMARK SMILES IDX 27 68 35 69 28 70 34 71 36 72 33 73 29 74 30 75 31 76 32 77
REMARK SMILES IDX 58 78 59 79 67 80 60 81 66 82 68 83 65 84 61 85 62 86 63 87
REMARK SMILES IDX 64 88 43 89 44 90 52 91 45 92 51 93 53 94 50 95 46 96 47 97
REMARK SMILES IDX 48 98 49 99
REMARK H PARENT 7 8 14 33 73 52 41 63
REMARK Flexibility Score: inf
ROOT
ATOM      1  C   UNL A   1      41.361  24.876  26.262  1.00  0.00     0.002 C 
ENDROOT
BRANCH   1   2
ATOM      2  C   UNL A   1      40.293  24.792  27.367  1.00  0.00     0.002 C 
BRANCH   2   3
ATOM      3  C   UNL A   1      40.522  25.683  28.593  1.00  0.00     0.021 C 
BRANCH   3   4
ATOM      4  C   UNL A   1      39.389  26.663  28.889  1.00  0.00     0.116 C 
BRANCH   4   5
ATOM      5  N   UNL A   1      39.409  27.826  28.023  1.00  0.00    -0.356 N 
ATOM      6  C   UNL A   1      38.604  28.929  28.048  1.00  0.00     0.224 C 
ATOM      7  O   UNL A   1      38.823  29.845  27.251  1.00  0.00    -0.275 OA
ATOM      8  H   UNL A   1      40.096  27.819  27.319  1.00  0.00     0.163 HD
BRANCH   6   9
ATOM      9  C   UNL A   1      37.494  29.050  29.086  1.00  0.00     0.135 C 
BRANCH   9  10
ATOM     10  C   UNL A   1      36.303  29.879  28.637  1.00  0.00    -0.035 A 
ATOM     11  C   UNL A   1      37.014  31.895  30.023  1.00  0.00     0.045 C 
ATOM     12  C   UNL A   1      36.036  31.192  29.106  1.00  0.00    -0.040 A 
ATOM     13  C   UNL A   1      34.855  31.855  28.676  1.00  0.00    -0.015 A 
ATOM     14  C   UNL A   1      35.426  29.284  27.706  1.00  0.00     0.013 A 
ATOM     15  C   UNL A   1      34.001  31.206  27.759  1.00  0.00     0.017 A 
ATOM     16  C   UNL A   1      34.274  29.930  27.252  1.00  0.00    -0.017 A 
BRANCH  13  17
ATOM     17  C   UNL A   1      34.447  33.182  29.177  1.00  0.00    -0.018 A 
ATOM     18  C   UNL A   1      33.938  34.147  28.289  1.00  0.00     0.009 A 
ATOM     19  C   UNL A   1      34.552  33.522  30.535  1.00  0.00     0.009 A 
ATOM     20  C   UNL A   1      33.535  35.403  28.747  1.00  0.00     0.001 A 
ATOM     21  C   UNL A   1      34.135  34.775  30.996  1.00  0.00     0.001 A 
ATOM     22  C   UNL A   1      33.627  35.714  30.101  1.00  0.00     0.000 A 
ENDBRANCH  13  17
BRANCH  16  23
ATOM     23  C   UNL A   1      33.384  29.288  26.274  1.00  0.00    -0.018 A 
ATOM     24  C   UNL A   1      33.698  28.036  25.720  1.00  0.00     0.009 A 
ATOM     25  C   UNL A   1      32.200  29.917  25.856  1.00  0.00     0.009 A 
ATOM     26  C   UNL A   1      32.860  27.435  24.777  1.00  0.00     0.001 A 
ATOM     27  C   UNL A   1      31.363  29.319  24.911  1.00  0.00     0.001 A 
ATOM     28  C   UNL A   1      31.694  28.079  24.372  1.00  0.00     0.000 A 
ENDBRANCH  16  23
ENDBRANCH   9  10
ENDBRANCH   6   9
ENDBRANCH   4   5
ENDBRANCH   3   4
ENDBRANCH   2   3
ENDBRANCH   1   2
BRANCH   1  29
ATOM     29  C   UNL A   1      42.225  23.630  26.064  1.00  0.00     0.021 C 
BRANCH  29  30
ATOM     30  C   UNL A   1      43.231  23.389  27.184  1.00  0.00     0.116 C 
BRANCH  30  31
ATOM     31  N   UNL A   1      44.558  23.935  26.914  1.00  0.00    -0.352 N 
ATOM     32  C   UNL A   1      45.042  25.216  27.123  1.00  0.00     0.251 C 
ATOM     33  H   UNL A   1      45.204  23.299  26.527  1.00  0.00     0.163 HD
ATOM     34  O   UNL A   1      46.145  25.546  26.788  1.00  0.00    -0.269 OA
BRANCH  32  35
ATOM     35  C   UNL A   1      44.194  26.155  27.915  1.00  0.00     0.039 A 
ATOM     36  C   UNL A   1      43.687  27.269  27.237  1.00  0.00     0.014 A 
ATOM     37  C   UNL A   1      44.096  26.065  29.302  1.00  0.00     0.014 A 
ATOM     38  C   UNL A   1      43.291  28.388  27.964  1.00  0.00     0.010 A 
ATOM     39  C   UNL A   1      43.777  27.201  30.024  1.00  0.00     0.010 A 
ATOM     40  C   UNL A   1      43.441  28.381  29.353  1.00  0.00    -0.014 A 
BRANCH  40  41
ATOM     41  C   UNL A   1      43.423  29.611  30.141  1.00  0.00     0.031 A 
ATOM     42  C   UNL A   1      42.150  30.238  30.550  1.00  0.00     0.074 A 
ATOM     43  C   UNL A   1      44.582  30.231  30.450  1.00  0.00     0.049 A 
ATOM     44  N   UNL A   1      41.966  31.513  30.651  1.00  0.00    -0.248 NA
ATOM     45  C   UNL A   1      40.957  29.455  30.850  1.00  0.00     0.031 C 
ATOM     46  C   UNL A   1      44.765  31.378  31.337  1.00  0.00     0.029 A 
ATOM     47  N   UNL A   1      45.826  30.082  29.870  1.00  0.00    -0.354 N 
ATOM     48  C   UNL A   1      40.758  31.711  31.277  1.00  0.00     0.074 A 
ATOM     49  C   UNL A   1      40.140  30.404  31.318  1.00  0.00     0.031 C 
ATOM     50  C   UNL A   1      45.930  31.976  31.032  1.00  0.00     0.029 A 
ATOM     51  C   UNL A   1      46.467  31.315  29.854  1.00  0.00     0.049 A 
ATOM     52  H   UNL A   1      46.198  29.238  29.525  1.00  0.00     0.167 HD
ATOM     53  C   UNL A   1      40.461  32.922  31.833  1.00  0.00     0.034 A 
ATOM     54  C   UNL A   1      46.832  31.944  28.698  1.00  0.00     0.034 A 
ATOM     55  C   UNL A   1      41.546  33.886  31.666  1.00  0.00     0.049 A 
ATOM     56  C   UNL A   1      46.192  33.306  28.528  1.00  0.00     0.074 A 
ATOM     57  C   UNL A   1      42.561  34.294  32.516  1.00  0.00     0.029 A 
ATOM     58  N   UNL A   1      41.869  34.376  30.405  1.00  0.00    -0.354 N 
ATOM     59  N   UNL A   1      45.138  33.709  29.183  1.00  0.00    -0.248 NA
ATOM     60  C   UNL A   1      46.674  34.305  27.578  1.00  0.00     0.031 C 
ATOM     61  C   UNL A   1      43.531  34.979  31.746  1.00  0.00     0.029 A 
ATOM     62  C   UNL A   1      43.094  35.017  30.434  1.00  0.00     0.049 A 
ATOM     63  H   UNL A   1      41.304  34.280  29.604  1.00  0.00     0.167 HD
ATOM     64  C   UNL A   1      44.780  34.961  28.751  1.00  0.00     0.074 A 
ATOM     65  C   UNL A   1      45.792  35.302  27.767  1.00  0.00     0.031 C 
ATOM     66  C   UNL A   1      43.671  35.604  29.231  1.00  0.00     0.034 A 
BRANCH  53  67
ATOM     67  C   UNL A   1      39.331  33.110  32.821  1.00  0.00     0.023 A 
ATOM     68  C   UNL A   1      39.354  32.420  34.051  1.00  0.00     0.031 A 
ATOM     69  C   UNL A   1      38.195  33.910  32.595  1.00  0.00     0.131 A 
ATOM     70  C   UNL A   1      38.248  32.435  34.922  1.00  0.00     0.055 A 
ATOM     71  C   UNL A   1      37.067  33.876  33.428  1.00  0.00     0.041 A 
ATOM     72  F   UNL A   1      38.148  34.782  31.577  1.00  0.00    -0.206 F 
ATOM     73  C   UNL A   1      37.082  33.119  34.590  1.00  0.00     0.022 A 
BRANCH  70  74
ATOM     74  S   UNL A   1      38.357  31.551  36.503  1.00  0.00     0.124 S 
ATOM     75  O   UNL A   1      38.246  30.156  36.090  1.00  0.00    -0.237 OA
ATOM     76  O   UNL A   1      39.662  31.975  37.002  1.00  0.00    -0.237 OA
ATOM     77  O   UNL A   1      37.214  32.064  37.257  1.00  0.00    -0.744 OA
ENDBRANCH  70  74
ENDBRANCH  53  67
BRANCH  54  78
ATOM     78  C   UNL A   1      47.161  31.025  27.572  1.00  0.00     0.023 A 
ATOM     79  C   UNL A   1      48.389  30.335  27.628  1.00  0.00     0.031 A 
ATOM     80  C   UNL A   1      46.189  30.563  26.675  1.00  0.00     0.131 A 
ATOM     81  C   UNL A   1      48.562  29.139  26.919  1.00  0.00     0.055 A 
ATOM     82  C   UNL A   1      46.387  29.397  25.925  1.00  0.00     0.041 A 
ATOM     83  F   UNL A   1      44.991  31.160  26.594  1.00  0.00    -0.206 F 
ATOM     84  C   UNL A   1      47.559  28.656  26.077  1.00  0.00     0.022 A 
BRANCH  81  85
ATOM     85  S   UNL A   1      49.993  28.088  27.303  1.00  0.00     0.124 S 
ATOM     86  O   UNL A   1      49.385  27.006  28.066  1.00  0.00    -0.237 OA
ATOM     87  O   UNL A   1      50.494  27.728  25.979  1.00  0.00    -0.237 OA
ATOM     88  O   UNL A   1      50.872  28.981  28.056  1.00  0.00    -0.744 OA
ENDBRANCH  81  85
ENDBRANCH  54  78
BRANCH  66  89
ATOM     89  C   UNL A   1      43.105  36.896  28.684  1.00  0.00     0.023 A 
ATOM     90  C   UNL A   1      43.260  38.135  29.323  1.00  0.00     0.031 A 
ATOM     91  C   UNL A   1      42.432  36.928  27.439  1.00  0.00     0.131 A 
ATOM     92  C   UNL A   1      42.677  39.304  28.799  1.00  0.00     0.055 A 
ATOM     93  C   UNL A   1      41.924  38.106  26.877  1.00  0.00     0.041 A 
ATOM     94  F   UNL A   1      42.241  35.819  26.710  1.00  0.00    -0.206 F 
ATOM     95  C   UNL A   1      42.026  39.303  27.569  1.00  0.00     0.022 A 
BRANCH  92  96
ATOM     96  S   UNL A   1      42.724  40.811  29.806  1.00  0.00     0.124 S 
ATOM     97  O   UNL A   1      43.298  40.317  31.055  1.00  0.00    -0.237 OA
ATOM     98  O   UNL A   1      43.584  41.688  29.017  1.00  0.00    -0.237 OA
ATOM     99  O   UNL A   1      41.324  41.218  29.884  1.00  0.00    -0.744 OA
ENDBRANCH  92  96
ENDBRANCH  66  89
ENDBRANCH  40  41
ENDBRANCH  32  35
ENDBRANCH  30  31
ENDBRANCH  29  30
ENDBRANCH   1  29
TORSDOF 19
ENDMDL
