MODEL 1
REMARK VINA RESULT:     -11.8      0.000      0.000
REMARK SMILES O=C(CCN1C(=O)/C(=C/c2c3ccccc3cc3ccccc23)SC1=S)NCCCCCCNC(=O)c1ccc(-c2c3nc(c(-c4cc(S(=O)(=O)[O-])ccc4F)c4ccc([nH]4)c(-c4cc(S(=O)(=O)[O-])ccc4F)c4nc(c(-c5cc(S(=O)(=O)[O-])ccc5F)c5ccc2[nH]5)C=C4)C=C3)cc1
REMARK SMILES IDX 30 1 29 2 28 3 27 4 1 5 2 6 3 8 4 9 5 10 6 11 25 12 7 13
REMARK SMILES IDX 8 14 24 15 26 16 9 17 10 18 11 19 23 20 12 21 16 22 18 23
REMARK SMILES IDX 22 24 13 25 15 26 17 27 19 28 21 29 14 30 20 31 31 32 32 33
REMARK SMILES IDX 33 34 34 35 35 36 36 38 37 39 38 40 99 41 39 42 98 43 40 44
REMARK SMILES IDX 41 45 42 46 92 47 43 48 97 49 91 50 93 51 44 52 96 53 90 54
REMARK SMILES IDX 89 55 45 57 77 58 57 59 76 60 58 61 61 62 75 63 94 64 59 65
REMARK SMILES IDX 60 66 74 68 95 69 62 70 46 71 47 72 55 73 48 74 54 75 56 76
REMARK SMILES IDX 53 77 49 78 50 79 51 80 52 81 78 82 79 83 87 84 80 85 86 86
REMARK SMILES IDX 88 87 85 88 81 89 82 90 83 91 84 92 63 93 64 94 72 95 65 96
REMARK SMILES IDX 71 97 73 98 70 99 66 100 67 101 68 102 69 103
REMARK H PARENT 27 7 34 37 93 56 61 67
REMARK Flexibility Score: inf
ROOT
ATOM      1  C   UNL A   1      35.232  31.154  27.934  1.00  0.00     0.002 C 
ENDROOT
BRANCH   1   2
ATOM      2  C   UNL A   1      33.979  30.487  27.348  1.00  0.00     0.021 C 
BRANCH   2   3
ATOM      3  C   UNL A   1      34.013  28.958  27.307  1.00  0.00     0.116 C 
BRANCH   3   4
ATOM      4  N   UNL A   1      33.096  28.413  26.322  1.00  0.00    -0.356 N 
ATOM      5  O   UNL A   1      31.429  27.831  27.799  1.00  0.00    -0.275 OA
ATOM      6  C   UNL A   1      31.852  27.932  26.654  1.00  0.00     0.221 C 
ATOM      7  H   UNL A   1      33.377  28.388  25.379  1.00  0.00     0.163 HD
BRANCH   6   8
ATOM      8  C   UNL A   1      31.008  27.564  25.453  1.00  0.00     0.122 C 
BRANCH   8   9
ATOM      9  C   UNL A   1      30.337  26.198  25.631  1.00  0.00     0.137 C 
BRANCH   9  10
ATOM     10  N   UNL A   1      31.168  25.070  25.176  1.00  0.00    -0.292 N 
ATOM     11  C   UNL A   1      31.566  24.109  26.094  1.00  0.00     0.266 C 
ATOM     12  C   UNL A   1      31.567  24.861  23.870  1.00  0.00     0.148 C 
ATOM     13  O   UNL A   1      31.262  24.079  27.280  1.00  0.00    -0.268 OA
ATOM     14  C   UNL A   1      32.478  23.122  25.454  1.00  0.00     0.081 C 
ATOM     15  S   UNL A   1      32.719  23.534  23.807  1.00  0.00    -0.054 SA
ATOM     16  S   UNL A   1      31.078  25.659  22.492  1.00  0.00    -0.052 S 
ATOM     17  C   UNL A   1      33.066  22.131  26.140  1.00  0.00     0.030 C 
BRANCH  17  18
ATOM     18  C   UNL A   1      34.237  21.367  25.643  1.00  0.00    -0.009 A 
ATOM     19  C   UNL A   1      33.985  20.044  25.155  1.00  0.00    -0.010 A 
ATOM     20  C   UNL A   1      35.563  21.892  25.701  1.00  0.00    -0.010 A 
ATOM     21  C   UNL A   1      32.691  19.465  25.049  1.00  0.00     0.009 A 
ATOM     22  C   UNL A   1      35.079  19.245  24.762  1.00  0.00    -0.017 A 
ATOM     23  C   UNL A   1      36.632  21.065  25.279  1.00  0.00    -0.017 A 
ATOM     24  C   UNL A   1      35.894  23.190  26.166  1.00  0.00     0.009 A 
ATOM     25  C   UNL A   1      32.497  18.158  24.601  1.00  0.00     0.001 A 
ATOM     26  C   UNL A   1      34.872  17.927  24.319  1.00  0.00     0.009 A 
ATOM     27  C   UNL A   1      36.376  19.766  24.824  1.00  0.00     0.017 A 
ATOM     28  C   UNL A   1      37.956  21.535  25.325  1.00  0.00     0.009 A 
ATOM     29  C   UNL A   1      37.218  23.640  26.214  1.00  0.00     0.001 A 
ATOM     30  C   UNL A   1      33.590  17.385  24.243  1.00  0.00     0.001 A 
ATOM     31  C   UNL A   1      38.249  22.813  25.792  1.00  0.00     0.001 A 
ENDBRANCH  17  18
ENDBRANCH   9  10
ENDBRANCH   8   9
ENDBRANCH   6   8
ENDBRANCH   3   4
ENDBRANCH   2   3
ENDBRANCH   1   2
BRANCH   1  32
ATOM     32  C   UNL A   1      34.971  32.367  28.828  1.00  0.00     0.002 C 
BRANCH  32  33
ATOM     33  C   UNL A   1      33.827  33.277  28.384  1.00  0.00     0.021 C 
BRANCH  33  34
ATOM     34  C   UNL A   1      34.001  34.752  28.726  1.00  0.00     0.116 C 
BRANCH  34  35
ATOM     35  N   UNL A   1      33.064  35.218  29.737  1.00  0.00    -0.352 N 
ATOM     36  C   UNL A   1      33.138  35.090  31.105  1.00  0.00     0.251 C 
ATOM     37  H   UNL A   1      32.269  35.689  29.396  1.00  0.00     0.163 HD
ATOM     38  O   UNL A   1      32.190  35.432  31.806  1.00  0.00    -0.269 OA
BRANCH  36  39
ATOM     39  C   UNL A   1      34.352  34.502  31.719  1.00  0.00     0.039 A 
ATOM     40  C   UNL A   1      34.250  33.277  32.382  1.00  0.00     0.014 A 
ATOM     41  C   UNL A   1      35.591  35.139  31.612  1.00  0.00     0.014 A 
ATOM     42  C   UNL A   1      35.403  32.657  32.874  1.00  0.00     0.010 A 
ATOM     43  C   UNL A   1      36.746  34.481  32.029  1.00  0.00     0.010 A 
ATOM     44  C   UNL A   1      36.667  33.233  32.666  1.00  0.00    -0.014 A 
BRANCH  44  45
ATOM     45  C   UNL A   1      37.914  32.556  33.120  1.00  0.00     0.031 A 
ATOM     46  C   UNL A   1      38.503  31.440  32.298  1.00  0.00     0.074 A 
ATOM     47  C   UNL A   1      38.484  32.905  34.292  1.00  0.00     0.049 A 
ATOM     48  N   UNL A   1      39.523  30.665  32.564  1.00  0.00    -0.248 NA
ATOM     49  C   UNL A   1      37.838  31.138  31.020  1.00  0.00     0.031 C 
ATOM     50  C   UNL A   1      37.990  33.948  35.195  1.00  0.00     0.029 A 
ATOM     51  N   UNL A   1      39.596  32.417  34.932  1.00  0.00    -0.354 N 
ATOM     52  C   UNL A   1      39.619  29.782  31.493  1.00  0.00     0.074 A 
ATOM     53  C   UNL A   1      38.510  30.073  30.609  1.00  0.00     0.031 C 
ATOM     54  C   UNL A   1      38.808  34.036  36.257  1.00  0.00     0.029 A 
ATOM     55  C   UNL A   1      39.854  33.024  36.142  1.00  0.00     0.049 A 
ATOM     56  H   UNL A   1      40.159  31.700  34.559  1.00  0.00     0.167 HD
ATOM     57  C   UNL A   1      40.560  28.836  31.252  1.00  0.00     0.034 A 
ATOM     58  C   UNL A   1      40.811  32.780  37.061  1.00  0.00     0.034 A 
ATOM     59  C   UNL A   1      41.667  28.563  32.134  1.00  0.00     0.049 A 
ATOM     60  C   UNL A   1      41.823  31.693  36.787  1.00  0.00     0.074 A 
ATOM     61  C   UNL A   1      42.693  27.648  31.970  1.00  0.00     0.029 A 
ATOM     62  N   UNL A   1      41.895  29.200  33.347  1.00  0.00    -0.354 N 
ATOM     63  N   UNL A   1      41.918  30.894  35.749  1.00  0.00    -0.248 NA
ATOM     64  C   UNL A   1      42.863  31.482  37.803  1.00  0.00     0.031 C 
ATOM     65  C   UNL A   1      43.501  27.685  33.110  1.00  0.00     0.029 A 
ATOM     66  C   UNL A   1      43.031  28.682  33.950  1.00  0.00     0.049 A 
ATOM     67  H   UNL A   1      41.333  29.915  33.722  1.00  0.00     0.167 HD
ATOM     68  C   UNL A   1      43.053  30.117  35.971  1.00  0.00     0.074 A 
ATOM     69  C   UNL A   1      43.617  30.556  37.231  1.00  0.00     0.031 C 
ATOM     70  C   UNL A   1      43.585  29.132  35.203  1.00  0.00     0.034 A 
BRANCH  57  71
ATOM     71  C   UNL A   1      40.424  28.021  29.988  1.00  0.00     0.023 A 
ATOM     72  C   UNL A   1      41.280  28.218  28.890  1.00  0.00     0.031 A 
ATOM     73  C   UNL A   1      39.429  27.034  29.877  1.00  0.00     0.131 A 
ATOM     74  C   UNL A   1      41.086  27.485  27.710  1.00  0.00     0.055 A 
ATOM     75  C   UNL A   1      39.293  26.252  28.730  1.00  0.00     0.041 A 
ATOM     76  F   UNL A   1      38.568  26.815  30.884  1.00  0.00    -0.206 F 
ATOM     77  C   UNL A   1      40.117  26.483  27.632  1.00  0.00     0.022 A 
BRANCH  74  78
ATOM     78  S   UNL A   1      42.040  27.946  26.238  1.00  0.00     0.124 S 
ATOM     79  O   UNL A   1      43.406  27.667  26.675  1.00  0.00    -0.237 OA
ATOM     80  O   UNL A   1      41.500  27.054  25.219  1.00  0.00    -0.237 OA
ATOM     81  O   UNL A   1      41.728  29.362  26.057  1.00  0.00    -0.744 OA
ENDBRANCH  74  78
ENDBRANCH  57  71
BRANCH  58  82
ATOM     82  C   UNL A   1      40.861  33.552  38.339  1.00  0.00     0.023 A 
ATOM     83  C   UNL A   1      40.088  33.170  39.448  1.00  0.00     0.031 A 
ATOM     84  C   UNL A   1      41.618  34.733  38.445  1.00  0.00     0.131 A 
ATOM     85  C   UNL A   1      40.032  33.994  40.583  1.00  0.00     0.055 A 
ATOM     86  C   UNL A   1      41.614  35.513  39.603  1.00  0.00     0.041 A 
ATOM     87  F   UNL A   1      42.376  35.150  37.418  1.00  0.00    -0.206 F 
ATOM     88  C   UNL A   1      40.800  35.156  40.674  1.00  0.00     0.022 A 
BRANCH  85  89
ATOM     89  S   UNL A   1      38.832  33.595  41.885  1.00  0.00     0.124 S 
ATOM     90  O   UNL A   1      38.471  32.225  41.543  1.00  0.00    -0.237 OA
ATOM     91  O   UNL A   1      39.632  33.766  43.094  1.00  0.00    -0.237 OA
ATOM     92  O   UNL A   1      37.778  34.587  41.691  1.00  0.00    -0.744 OA
ENDBRANCH  85  89
ENDBRANCH  58  82
BRANCH  70  93
ATOM     93  C   UNL A   1      44.876  28.508  35.677  1.00  0.00     0.023 A 
ATOM     94  C   UNL A   1      44.895  27.364  36.492  1.00  0.00     0.031 A 
ATOM     95  C   UNL A   1      46.109  29.077  35.308  1.00  0.00     0.131 A 
ATOM     96  C   UNL A   1      46.118  26.860  36.960  1.00  0.00     0.055 A 
ATOM     97  C   UNL A   1      47.324  28.532  35.722  1.00  0.00     0.041 A 
ATOM     98  F   UNL A   1      46.151  30.173  34.533  1.00  0.00    -0.206 F 
ATOM     99  C   UNL A   1      47.333  27.425  36.565  1.00  0.00     0.022 A 
BRANCH  96 100
ATOM    100  S   UNL A   1      46.098  25.510  38.173  1.00  0.00     0.124 S 
ATOM    101  O   UNL A   1      45.645  26.194  39.380  1.00  0.00    -0.237 OA
ATOM    102  O   UNL A   1      45.152  24.571  37.578  1.00  0.00    -0.237 OA
ATOM    103  O   UNL A   1      47.487  25.055  38.202  1.00  0.00    -0.744 OA
ENDBRANCH  96 100
ENDBRANCH  70  93
ENDBRANCH  44  45
ENDBRANCH  36  39
ENDBRANCH  34  35
ENDBRANCH  33  34
ENDBRANCH  32  33
ENDBRANCH   1  32
TORSDOF 19
ENDMDL
MODEL 2
REMARK VINA RESULT:     -11.7      1.308      7.235
REMARK SMILES O=C(CCN1C(=O)/C(=C/c2c3ccccc3cc3ccccc23)SC1=S)NCCCCCCNC(=O)c1ccc(-c2c3nc(c(-c4cc(S(=O)(=O)[O-])ccc4F)c4ccc([nH]4)c(-c4cc(S(=O)(=O)[O-])ccc4F)c4nc(c(-c5cc(S(=O)(=O)[O-])ccc5F)c5ccc2[nH]5)C=C4)C=C3)cc1
REMARK SMILES IDX 30 1 29 2 28 3 27 4 1 5 2 6 3 8 4 9 5 10 6 11 25 12 7 13
REMARK SMILES IDX 8 14 24 15 26 16 9 17 10 18 11 19 23 20 12 21 16 22 18 23
REMARK SMILES IDX 22 24 13 25 15 26 17 27 19 28 21 29 14 30 20 31 31 32 32 33
REMARK SMILES IDX 33 34 34 35 35 36 36 38 37 39 38 40 99 41 39 42 98 43 40 44
REMARK SMILES IDX 41 45 42 46 92 47 43 48 97 49 91 50 93 51 44 52 96 53 90 54
REMARK SMILES IDX 89 55 45 57 77 58 57 59 76 60 58 61 61 62 75 63 94 64 59 65
REMARK SMILES IDX 60 66 74 68 95 69 62 70 46 71 47 72 55 73 48 74 54 75 56 76
REMARK SMILES IDX 53 77 49 78 50 79 51 80 52 81 78 82 79 83 87 84 80 85 86 86
REMARK SMILES IDX 88 87 85 88 81 89 82 90 83 91 84 92 63 93 64 94 72 95 65 96
REMARK SMILES IDX 71 97 73 98 70 99 66 100 67 101 68 102 69 103
REMARK H PARENT 27 7 34 37 93 56 61 67
REMARK Flexibility Score: inf
ROOT
ATOM      1  C   UNL A   1      34.943  31.362  28.080  1.00  0.00     0.002 C 
ENDROOT
BRANCH   1   2
ATOM      2  C   UNL A   1      33.821  30.628  27.331  1.00  0.00     0.021 C 
BRANCH   2   3
ATOM      3  C   UNL A   1      33.987  29.110  27.236  1.00  0.00     0.116 C 
BRANCH   3   4
ATOM      4  N   UNL A   1      33.072  28.515  26.277  1.00  0.00    -0.356 N 
ATOM      5  O   UNL A   1      31.498  27.816  27.803  1.00  0.00    -0.275 OA
ATOM      6  C   UNL A   1      31.873  27.953  26.645  1.00  0.00     0.221 C 
ATOM      7  H   UNL A   1      33.322  28.515  25.325  1.00  0.00     0.163 HD
BRANCH   6   8
ATOM      8  C   UNL A   1      31.014  27.541  25.470  1.00  0.00     0.122 C 
BRANCH   8   9
ATOM      9  C   UNL A   1      30.378  26.165  25.690  1.00  0.00     0.137 C 
BRANCH   9  10
ATOM     10  N   UNL A   1      31.213  25.048  25.216  1.00  0.00    -0.292 N 
ATOM     11  C   UNL A   1      31.579  24.051  26.108  1.00  0.00     0.266 C 
ATOM     12  C   UNL A   1      31.645  24.884  23.914  1.00  0.00     0.148 C 
ATOM     13  O   UNL A   1      31.243  23.980  27.283  1.00  0.00    -0.268 OA
ATOM     14  C   UNL A   1      32.501  23.081  25.456  1.00  0.00     0.081 C 
ATOM     15  S   UNL A   1      32.789  23.551  23.833  1.00  0.00    -0.054 SA
ATOM     16  S   UNL A   1      31.199  25.736  22.554  1.00  0.00    -0.052 S 
ATOM     17  C   UNL A   1      33.064  22.061  26.121  1.00  0.00     0.030 C 
BRANCH  17  18
ATOM     18  C   UNL A   1      34.242  21.307  25.627  1.00  0.00    -0.009 A 
ATOM     19  C   UNL A   1      34.004  19.975  25.153  1.00  0.00    -0.010 A 
ATOM     20  C   UNL A   1      35.562  21.848  25.676  1.00  0.00    -0.010 A 
ATOM     21  C   UNL A   1      32.718  19.380  25.058  1.00  0.00     0.009 A 
ATOM     22  C   UNL A   1      35.107  19.186  24.765  1.00  0.00    -0.017 A 
ATOM     23  C   UNL A   1      36.640  21.030  25.258  1.00  0.00    -0.017 A 
ATOM     24  C   UNL A   1      35.879  23.154  26.127  1.00  0.00     0.009 A 
ATOM     25  C   UNL A   1      32.538  18.066  24.624  1.00  0.00     0.001 A 
ATOM     26  C   UNL A   1      34.914  17.861  24.335  1.00  0.00     0.009 A 
ATOM     27  C   UNL A   1      36.398  19.723  24.818  1.00  0.00     0.017 A 
ATOM     28  C   UNL A   1      37.958  21.516  25.296  1.00  0.00     0.009 A 
ATOM     29  C   UNL A   1      37.197  23.621  26.166  1.00  0.00     0.001 A 
ATOM     30  C   UNL A   1      33.640  17.303  24.269  1.00  0.00     0.001 A 
ATOM     31  C   UNL A   1      38.237  22.802  25.749  1.00  0.00     0.001 A 
ENDBRANCH  17  18
ENDBRANCH   9  10
ENDBRANCH   8   9
ENDBRANCH   6   8
ENDBRANCH   3   4
ENDBRANCH   2   3
ENDBRANCH   1   2
BRANCH   1  32
ATOM     32  C   UNL A   1      34.482  32.490  29.005  1.00  0.00     0.002 C 
BRANCH  32  33
ATOM     33  C   UNL A   1      33.541  33.515  28.374  1.00  0.00     0.021 C 
BRANCH  33  34
ATOM     34  C   UNL A   1      33.803  34.964  28.767  1.00  0.00     0.116 C 
BRANCH  34  35
ATOM     35  N   UNL A   1      32.905  35.445  29.807  1.00  0.00    -0.352 N 
ATOM     36  C   UNL A   1      32.997  35.275  31.170  1.00  0.00     0.251 C 
ATOM     37  H   UNL A   1      32.128  35.960  29.494  1.00  0.00     0.163 HD
ATOM     38  O   UNL A   1      32.078  35.640  31.897  1.00  0.00    -0.269 OA
BRANCH  36  39
ATOM     39  C   UNL A   1      34.193  34.615  31.746  1.00  0.00     0.039 A 
ATOM     40  C   UNL A   1      34.036  33.411  32.436  1.00  0.00     0.014 A 
ATOM     41  C   UNL A   1      35.467  35.163  31.576  1.00  0.00     0.014 A 
ATOM     42  C   UNL A   1      35.163  32.722  32.893  1.00  0.00     0.010 A 
ATOM     43  C   UNL A   1      36.591  34.434  31.958  1.00  0.00     0.010 A 
ATOM     44  C   UNL A   1      36.453  33.206  32.622  1.00  0.00    -0.014 A 
BRANCH  44  45
ATOM     45  C   UNL A   1      37.669  32.452  33.039  1.00  0.00     0.031 A 
ATOM     46  C   UNL A   1      38.348  32.785  34.342  1.00  0.00     0.074 A 
ATOM     47  C   UNL A   1      38.192  31.511  32.226  1.00  0.00     0.049 A 
ATOM     48  N   UNL A   1      39.463  32.316  34.839  1.00  0.00    -0.248 NA
ATOM     49  C   UNL A   1      37.700  33.805  35.183  1.00  0.00     0.031 C 
ATOM     50  C   UNL A   1      37.647  31.120  30.924  1.00  0.00     0.029 A 
ATOM     51  N   UNL A   1      39.304  30.718  32.368  1.00  0.00    -0.354 N 
ATOM     52  C   UNL A   1      39.653  32.983  36.044  1.00  0.00     0.074 A 
ATOM     53  C   UNL A   1      38.575  33.940  36.168  1.00  0.00     0.031 C 
ATOM     54  C   UNL A   1      38.410  30.148  30.399  1.00  0.00     0.029 A 
ATOM     55  C   UNL A   1      39.530  29.879  31.297  1.00  0.00     0.049 A 
ATOM     56  H   UNL A   1      39.886  30.744  33.162  1.00  0.00     0.167 HD
ATOM     57  C   UNL A   1      40.620  32.794  36.977  1.00  0.00     0.034 A 
ATOM     58  C   UNL A   1      40.532  29.009  31.060  1.00  0.00     0.034 A 
ATOM     59  C   UNL A   1      41.682  31.829  36.849  1.00  0.00     0.049 A 
ATOM     60  C   UNL A   1      41.619  28.849  32.097  1.00  0.00     0.074 A 
ATOM     61  C   UNL A   1      42.693  31.537  37.749  1.00  0.00     0.029 A 
ATOM     62  N   UNL A   1      41.874  30.997  35.753  1.00  0.00    -0.354 N 
ATOM     63  N   UNL A   1      41.760  29.463  33.249  1.00  0.00    -0.248 NA
ATOM     64  C   UNL A   1      42.675  27.869  31.807  1.00  0.00     0.031 C 
ATOM     65  C   UNL A   1      43.533  30.580  37.170  1.00  0.00     0.029 A 
ATOM     66  C   UNL A   1      43.000  30.211  35.946  1.00  0.00     0.049 A 
ATOM     67  H   UNL A   1      41.296  30.970  34.958  1.00  0.00     0.167 HD
ATOM     68  C   UNL A   1      42.896  28.912  33.837  1.00  0.00     0.074 A 
ATOM     69  C   UNL A   1      43.391  27.906  32.920  1.00  0.00     0.031 C 
ATOM     70  C   UNL A   1      43.479  29.207  35.027  1.00  0.00     0.034 A 
BRANCH  57  71
ATOM     71  C   UNL A   1      40.575  33.661  38.213  1.00  0.00     0.023 A 
ATOM     72  C   UNL A   1      41.384  34.804  38.340  1.00  0.00     0.031 A 
ATOM     73  C   UNL A   1      39.713  33.345  39.278  1.00  0.00     0.131 A 
ATOM     74  C   UNL A   1      41.361  35.551  39.527  1.00  0.00     0.055 A 
ATOM     75  C   UNL A   1      39.635  34.139  40.423  1.00  0.00     0.041 A 
ATOM     76  F   UNL A   1      38.932  32.254  39.224  1.00  0.00    -0.206 F 
ATOM     77  C   UNL A   1      40.471  35.244  40.558  1.00  0.00     0.022 A 
BRANCH  74  78
ATOM     78  S   UNL A   1      42.597  36.859  39.751  1.00  0.00     0.124 S 
ATOM     79  O   UNL A   1      41.842  38.047  39.360  1.00  0.00    -0.237 OA
ATOM     80  O   UNL A   1      42.923  36.747  41.167  1.00  0.00    -0.237 OA
ATOM     81  O   UNL A   1      43.668  36.479  38.832  1.00  0.00    -0.744 OA
ENDBRANCH  74  78
ENDBRANCH  57  71
BRANCH  58  82
ATOM     82  C   UNL A   1      40.586  28.232  29.784  1.00  0.00     0.023 A 
ATOM     83  C   UNL A   1      41.520  28.545  28.783  1.00  0.00     0.031 A 
ATOM     84  C   UNL A   1      39.650  27.217  29.512  1.00  0.00     0.131 A 
ATOM     85  C   UNL A   1      41.453  27.906  27.535  1.00  0.00     0.055 A 
ATOM     86  C   UNL A   1      39.632  26.535  28.294  1.00  0.00     0.041 A 
ATOM     87  F   UNL A   1      38.733  26.874  30.431  1.00  0.00    -0.206 F 
ATOM     88  C   UNL A   1      40.524  26.894  27.289  1.00  0.00     0.022 A 
BRANCH  85  89
ATOM     89  S   UNL A   1      42.510  28.515  26.191  1.00  0.00     0.124 S 
ATOM     90  O   UNL A   1      41.615  28.415  25.044  1.00  0.00    -0.237 OA
ATOM     91  O   UNL A   1      42.825  29.866  26.644  1.00  0.00    -0.237 OA
ATOM     92  O   UNL A   1      43.632  27.580  26.192  1.00  0.00    -0.744 OA
ENDBRANCH  85  89
ENDBRANCH  58  82
BRANCH  70  93
ATOM     93  C   UNL A   1      44.678  28.385  35.431  1.00  0.00     0.023 A 
ATOM     94  C   UNL A   1      44.548  27.169  36.124  1.00  0.00     0.031 A 
ATOM     95  C   UNL A   1      45.975  28.833  35.122  1.00  0.00     0.131 A 
ATOM     96  C   UNL A   1      45.695  26.473  36.536  1.00  0.00     0.055 A 
ATOM     97  C   UNL A   1      47.110  28.103  35.476  1.00  0.00     0.041 A 
ATOM     98  F   UNL A   1      46.160  29.989  34.465  1.00  0.00    -0.206 F 
ATOM     99  C   UNL A   1      46.974  26.922  36.200  1.00  0.00     0.022 A 
BRANCH  96 100
ATOM    100  S   UNL A   1      45.495  25.018  37.602  1.00  0.00     0.124 S 
ATOM    101  O   UNL A   1      44.106  25.145  38.032  1.00  0.00    -0.237 OA
ATOM    102  O   UNL A   1      45.782  23.919  36.686  1.00  0.00    -0.237 OA
ATOM    103  O   UNL A   1      46.491  25.225  38.653  1.00  0.00    -0.744 OA
ENDBRANCH  96 100
ENDBRANCH  70  93
ENDBRANCH  44  45
ENDBRANCH  36  39
ENDBRANCH  34  35
ENDBRANCH  33  34
ENDBRANCH  32  33
ENDBRANCH   1  32
TORSDOF 19
ENDMDL
MODEL 3
REMARK VINA RESULT:     -11.7      0.882      7.618
REMARK SMILES O=C(CCN1C(=O)/C(=C/c2c3ccccc3cc3ccccc23)SC1=S)NCCCCCCNC(=O)c1ccc(-c2c3nc(c(-c4cc(S(=O)(=O)[O-])ccc4F)c4ccc([nH]4)c(-c4cc(S(=O)(=O)[O-])ccc4F)c4nc(c(-c5cc(S(=O)(=O)[O-])ccc5F)c5ccc2[nH]5)C=C4)C=C3)cc1
REMARK SMILES IDX 30 1 29 2 28 3 27 4 1 5 2 6 3 8 4 9 5 10 6 11 25 12 7 13
REMARK SMILES IDX 8 14 24 15 26 16 9 17 10 18 11 19 23 20 12 21 16 22 18 23
REMARK SMILES IDX 22 24 13 25 15 26 17 27 19 28 21 29 14 30 20 31 31 32 32 33
REMARK SMILES IDX 33 34 34 35 35 36 36 38 37 39 38 40 99 41 39 42 98 43 40 44
REMARK SMILES IDX 41 45 42 46 92 47 43 48 97 49 91 50 93 51 44 52 96 53 90 54
REMARK SMILES IDX 89 55 45 57 77 58 57 59 76 60 58 61 61 62 75 63 94 64 59 65
REMARK SMILES IDX 60 66 74 68 95 69 62 70 46 71 47 72 55 73 48 74 54 75 56 76
REMARK SMILES IDX 53 77 49 78 50 79 51 80 52 81 78 82 79 83 87 84 80 85 86 86
REMARK SMILES IDX 88 87 85 88 81 89 82 90 83 91 84 92 63 93 64 94 72 95 65 96
REMARK SMILES IDX 71 97 73 98 70 99 66 100 67 101 68 102 69 103
REMARK H PARENT 27 7 34 37 93 56 61 67
REMARK Flexibility Score: inf
ROOT
ATOM      1  C   UNL A   1      35.095  31.072  28.136  1.00  0.00     0.002 C 
ENDROOT
BRANCH   1   2
ATOM      2  C   UNL A   1      34.004  30.389  27.297  1.00  0.00     0.021 C 
BRANCH   2   3
ATOM      3  C   UNL A   1      34.107  28.865  27.211  1.00  0.00     0.116 C 
BRANCH   3   4
ATOM      4  N   UNL A   1      33.186  28.306  26.238  1.00  0.00    -0.356 N 
ATOM      5  O   UNL A   1      31.543  27.706  27.734  1.00  0.00    -0.275 OA
ATOM      6  C   UNL A   1      31.952  27.810  26.584  1.00  0.00     0.221 C 
ATOM      7  H   UNL A   1      33.457  28.281  25.291  1.00  0.00     0.163 HD
BRANCH   6   8
ATOM      8  C   UNL A   1      31.099  27.427  25.393  1.00  0.00     0.122 C 
BRANCH   8   9
ATOM      9  C   UNL A   1      30.359  26.106  25.630  1.00  0.00     0.137 C 
BRANCH   9  10
ATOM     10  N   UNL A   1      31.127  24.919  25.218  1.00  0.00    -0.292 N 
ATOM     11  C   UNL A   1      31.538  24.012  26.183  1.00  0.00     0.266 C 
ATOM     12  C   UNL A   1      31.452  24.603  23.913  1.00  0.00     0.148 C 
ATOM     13  O   UNL A   1      31.294  24.078  27.381  1.00  0.00    -0.268 OA
ATOM     14  C   UNL A   1      32.383  22.949  25.573  1.00  0.00     0.081 C 
ATOM     15  S   UNL A   1      32.553  23.233  23.891  1.00  0.00    -0.054 SA
ATOM     16  S   UNL A   1      30.920  25.319  22.506  1.00  0.00    -0.052 S 
ATOM     17  C   UNL A   1      32.972  21.988  26.300  1.00  0.00     0.030 C 
BRANCH  17  18
ATOM     18  C   UNL A   1      34.089  21.147  25.804  1.00  0.00    -0.009 A 
ATOM     19  C   UNL A   1      35.396  21.737  25.817  1.00  0.00    -0.010 A 
ATOM     20  C   UNL A   1      33.876  19.837  25.279  1.00  0.00    -0.010 A 
ATOM     21  C   UNL A   1      35.685  23.025  26.342  1.00  0.00     0.009 A 
ATOM     22  C   UNL A   1      36.473  21.012  25.266  1.00  0.00    -0.017 A 
ATOM     23  C   UNL A   1      34.987  19.134  24.753  1.00  0.00    -0.017 A 
ATOM     24  C   UNL A   1      32.618  19.185  25.234  1.00  0.00     0.009 A 
ATOM     25  C   UNL A   1      36.967  23.573  26.300  1.00  0.00     0.001 A 
ATOM     26  C   UNL A   1      37.759  21.576  25.223  1.00  0.00     0.009 A 
ATOM     27  C   UNL A   1      36.255  19.729  24.751  1.00  0.00     0.017 A 
ATOM     28  C   UNL A   1      34.825  17.846  24.218  1.00  0.00     0.009 A 
ATOM     29  C   UNL A   1      32.471  17.904  24.690  1.00  0.00     0.001 A 
ATOM     30  C   UNL A   1      38.005  22.850  25.733  1.00  0.00     0.001 A 
ATOM     31  C   UNL A   1      33.575  17.233  24.183  1.00  0.00     0.001 A 
ENDBRANCH  17  18
ENDBRANCH   9  10
ENDBRANCH   8   9
ENDBRANCH   6   8
ENDBRANCH   3   4
ENDBRANCH   2   3
ENDBRANCH   1   2
BRANCH   1  32
ATOM     32  C   UNL A   1      34.626  32.258  28.979  1.00  0.00     0.002 C 
BRANCH  32  33
ATOM     33  C   UNL A   1      33.977  33.401  28.202  1.00  0.00     0.021 C 
BRANCH  33  34
ATOM     34  C   UNL A   1      34.291  34.799  28.721  1.00  0.00     0.116 C 
BRANCH  34  35
ATOM     35  N   UNL A   1      33.421  35.213  29.812  1.00  0.00    -0.352 N 
ATOM     36  C   UNL A   1      33.537  34.942  31.156  1.00  0.00     0.251 C 
ATOM     37  H   UNL A   1      32.644  35.759  29.554  1.00  0.00     0.163 HD
ATOM     38  O   UNL A   1      32.637  35.264  31.927  1.00  0.00    -0.269 OA
BRANCH  36  39
ATOM     39  C   UNL A   1      34.735  34.228  31.657  1.00  0.00     0.039 A 
ATOM     40  C   UNL A   1      34.574  32.985  32.273  1.00  0.00     0.014 A 
ATOM     41  C   UNL A   1      36.014  34.764  31.489  1.00  0.00     0.014 A 
ATOM     42  C   UNL A   1      35.700  32.249  32.656  1.00  0.00     0.010 A 
ATOM     43  C   UNL A   1      37.134  33.995  31.794  1.00  0.00     0.010 A 
ATOM     44  C   UNL A   1      36.991  32.729  32.382  1.00  0.00    -0.014 A 
BRANCH  44  45
ATOM     45  C   UNL A   1      38.204  31.930  32.718  1.00  0.00     0.031 A 
ATOM     46  C   UNL A   1      38.977  32.233  33.975  1.00  0.00     0.074 A 
ATOM     47  C   UNL A   1      38.639  30.974  31.871  1.00  0.00     0.049 A 
ATOM     48  N   UNL A   1      40.104  31.722  34.398  1.00  0.00    -0.248 NA
ATOM     49  C   UNL A   1      38.422  33.272  34.858  1.00  0.00     0.031 C 
ATOM     50  C   UNL A   1      37.997  30.609  30.606  1.00  0.00     0.029 A 
ATOM     51  N   UNL A   1      39.729  30.141  31.939  1.00  0.00    -0.354 N 
ATOM     52  C   UNL A   1      40.395  32.376  35.589  1.00  0.00     0.074 A 
ATOM     53  C   UNL A   1      39.363  33.371  35.785  1.00  0.00     0.031 C 
ATOM     54  C   UNL A   1      38.690  29.612  30.031  1.00  0.00     0.029 A 
ATOM     55  C   UNL A   1      39.855  29.300  30.854  1.00  0.00     0.049 A 
ATOM     56  H   UNL A   1      40.361  30.144  32.693  1.00  0.00     0.167 HD
ATOM     57  C   UNL A   1      41.413  32.150  36.458  1.00  0.00     0.034 A 
ATOM     58  C   UNL A   1      40.808  28.395  30.550  1.00  0.00     0.034 A 
ATOM     59  C   UNL A   1      42.429  31.148  36.259  1.00  0.00     0.049 A 
ATOM     60  C   UNL A   1      41.953  28.192  31.515  1.00  0.00     0.074 A 
ATOM     61  C   UNL A   1      43.486  30.816  37.091  1.00  0.00     0.029 A 
ATOM     62  N   UNL A   1      42.521  30.314  35.151  1.00  0.00    -0.354 N 
ATOM     63  N   UNL A   1      42.190  28.796  32.657  1.00  0.00    -0.248 NA
ATOM     64  C   UNL A   1      42.952  27.177  31.155  1.00  0.00     0.031 C 
ATOM     65  C   UNL A   1      44.251  29.832  36.457  1.00  0.00     0.029 A 
ATOM     66  C   UNL A   1      43.627  29.487  35.269  1.00  0.00     0.049 A 
ATOM     67  H   UNL A   1      41.891  30.311  34.395  1.00  0.00     0.167 HD
ATOM     68  C   UNL A   1      43.341  28.202  33.169  1.00  0.00     0.074 A 
ATOM     69  C   UNL A   1      43.739  27.183  32.220  1.00  0.00     0.031 C 
ATOM     70  C   UNL A   1      44.009  28.471  34.319  1.00  0.00     0.034 A 
BRANCH  57  71
ATOM     71  C   UNL A   1      41.479  33.012  37.696  1.00  0.00     0.023 A 
ATOM     72  C   UNL A   1      40.639  32.780  38.799  1.00  0.00     0.031 A 
ATOM     73  C   UNL A   1      42.393  34.077  37.778  1.00  0.00     0.131 A 
ATOM     74  C   UNL A   1      40.685  33.638  39.908  1.00  0.00     0.055 A 
ATOM     75  C   UNL A   1      42.490  34.877  38.918  1.00  0.00     0.041 A 
ATOM     76  F   UNL A   1      43.206  34.361  36.748  1.00  0.00    -0.206 F 
ATOM     77  C   UNL A   1      41.625  34.667  39.987  1.00  0.00     0.022 A 
BRANCH  74  78
ATOM     78  S   UNL A   1      39.417  33.462  41.192  1.00  0.00     0.124 S 
ATOM     79  O   UNL A   1      38.331  32.828  40.448  1.00  0.00    -0.237 OA
ATOM     80  O   UNL A   1      40.084  32.628  42.184  1.00  0.00    -0.237 OA
ATOM     81  O   UNL A   1      39.157  34.839  41.608  1.00  0.00    -0.744 OA
ENDBRANCH  74  78
ENDBRANCH  57  71
BRANCH  58  82
ATOM     82  C   UNL A   1      40.752  27.622  29.273  1.00  0.00     0.023 A 
ATOM     83  C   UNL A   1      41.663  27.872  28.234  1.00  0.00     0.031 A 
ATOM     84  C   UNL A   1      39.733  26.680  29.039  1.00  0.00     0.131 A 
ATOM     85  C   UNL A   1      41.497  27.245  26.989  1.00  0.00     0.055 A 
ATOM     86  C   UNL A   1      39.614  26.007  27.821  1.00  0.00     0.041 A 
ATOM     87  F   UNL A   1      38.833  26.400  29.994  1.00  0.00    -0.206 F 
ATOM     88  C   UNL A   1      40.487  26.304  26.780  1.00  0.00     0.022 A 
BRANCH  85  89
ATOM     89  S   UNL A   1      42.538  27.782  25.602  1.00  0.00     0.124 S 
ATOM     90  O   UNL A   1      43.762  28.177  26.289  1.00  0.00    -0.237 OA
ATOM     91  O   UNL A   1      42.618  26.567  24.797  1.00  0.00    -0.237 OA
ATOM     92  O   UNL A   1      41.774  28.875  25.007  1.00  0.00    -0.744 OA
ENDBRANCH  85  89
ENDBRANCH  58  82
BRANCH  70  93
ATOM     93  C   UNL A   1      45.202  27.605  34.644  1.00  0.00     0.023 A 
ATOM     94  C   UNL A   1      45.069  26.374  35.310  1.00  0.00     0.031 A 
ATOM     95  C   UNL A   1      46.496  28.025  34.284  1.00  0.00     0.131 A 
ATOM     96  C   UNL A   1      46.214  25.635  35.648  1.00  0.00     0.055 A 
ATOM     97  C   UNL A   1      47.624  27.254  34.563  1.00  0.00     0.041 A 
ATOM     98  F   UNL A   1      46.683  29.192  33.648  1.00  0.00    -0.206 F 
ATOM     99  C   UNL A   1      47.488  26.058  35.262  1.00  0.00     0.022 A 
BRANCH  96 100
ATOM    100  S   UNL A   1      46.023  24.159  36.685  1.00  0.00     0.124 S 
ATOM    101  O   UNL A   1      44.649  24.296  37.159  1.00  0.00    -0.237 OA
ATOM    102  O   UNL A   1      46.265  23.078  35.735  1.00  0.00    -0.237 OA
ATOM    103  O   UNL A   1      47.052  24.325  37.710  1.00  0.00    -0.744 OA
ENDBRANCH  96 100
ENDBRANCH  70  93
ENDBRANCH  44  45
ENDBRANCH  36  39
ENDBRANCH  34  35
ENDBRANCH  33  34
ENDBRANCH  32  33
ENDBRANCH   1  32
TORSDOF 19
ENDMDL
