MODEL 1
REMARK VINA RESULT:     -12.5      0.000      0.000
REMARK SMILES O=C(NCCCCCCNC(=O)c1ccc(-c2c3nc(c(-c4cc(S(=O)(=O)[O-])ccc4F)c4ccc([nH]4)c(-c4cc(S(=O)(=O)[O-])ccc4F)c4nc(c(-c5cc(S(=O)(=O)[O-])ccc5F)c5ccc2[nH]5)C=C4)C=C3)cc1)c1ccc(/C=C/c2ccc3cccc(O)c3n2)cc1
REMARK SMILES IDX 6 1 5 2 4 3 3 4 1 5 2 6 76 8 77 9 94 10 78 11 93 12 79 13
REMARK SMILES IDX 80 14 81 15 82 16 83 17 92 18 84 19 91 20 85 21 89 22 86 23
REMARK SMILES IDX 88 24 87 25 90 26 7 28 8 29 9 30 10 31 11 32 12 34 13 35
REMARK SMILES IDX 14 36 75 37 15 38 74 39 16 40 17 41 18 42 68 43 19 44 73 45
REMARK SMILES IDX 67 46 69 47 20 48 72 49 66 50 65 51 21 53 53 54 33 55 52 56
REMARK SMILES IDX 34 57 37 58 51 59 70 60 35 61 36 62 50 64 71 65 38 66 22 67
REMARK SMILES IDX 23 68 31 69 24 70 30 71 32 72 29 73 25 74 26 75 27 76 28 77
REMARK SMILES IDX 54 78 55 79 63 80 56 81 62 82 64 83 61 84 57 85 58 86 59 87
REMARK SMILES IDX 60 88 39 89 40 90 48 91 41 92 47 93 49 94 46 95 42 96 43 97
REMARK SMILES IDX 44 98 45 99
REMARK H PARENT 3 7 90 27 10 33 69 52 37 63
REMARK Flexibility Score: inf
ROOT
ATOM      1  C   UNL A   1      33.095  29.527  26.068  1.00  0.00     0.002 C 
ENDROOT
BRANCH   1   2
ATOM      2  C   UNL A   1      33.413  28.423  25.052  1.00  0.00     0.021 C 
BRANCH   2   3
ATOM      3  C   UNL A   1      33.509  27.009  25.626  1.00  0.00     0.116 C 
BRANCH   3   4
ATOM      4  N   UNL A   1      32.743  26.054  24.848  1.00  0.00    -0.352 N 
ATOM      5  O   UNL A   1      32.393  24.233  23.573  1.00  0.00    -0.269 OA
ATOM      6  C   UNL A   1      33.115  24.827  24.364  1.00  0.00     0.251 C 
ATOM      7  H   UNL A   1      31.820  26.327  24.639  1.00  0.00     0.163 HD
BRANCH   6   8
ATOM      8  C   UNL A   1      34.405  24.225  24.763  1.00  0.00     0.039 A 
ATOM      9  C   UNL A   1      34.686  23.875  26.090  1.00  0.00     0.014 A 
ATOM     10  C   UNL A   1      35.329  23.951  23.760  1.00  0.00     0.014 A 
ATOM     11  C   UNL A   1      35.916  23.284  26.420  1.00  0.00     0.009 A 
ATOM     12  C   UNL A   1      36.546  23.360  24.091  1.00  0.00     0.009 A 
ATOM     13  C   UNL A   1      36.859  23.024  25.423  1.00  0.00    -0.026 A 
BRANCH  13  14
ATOM     14  C   UNL A   1      38.211  22.504  25.664  1.00  0.00     0.010 C 
ATOM     15  C   UNL A   1      38.690  21.244  25.619  1.00  0.00     0.029 C 
BRANCH  15  16
ATOM     16  C   UNL A   1      39.887  21.038  26.476  1.00  0.00     0.064 A 
ATOM     17  C   UNL A   1      40.478  22.248  26.831  1.00  0.00     0.029 A 
ATOM     18  N   UNL A   1      40.604  19.910  26.242  1.00  0.00    -0.245 NA
ATOM     19  C   UNL A   1      41.823  22.408  26.531  1.00  0.00     0.013 A 
ATOM     20  C   UNL A   1      41.934  20.059  26.041  1.00  0.00     0.113 A 
ATOM     21  C   UNL A   1      42.552  21.323  26.037  1.00  0.00     0.004 A 
ATOM     22  C   UNL A   1      42.738  18.958  25.747  1.00  0.00     0.141 A 
ATOM     23  C   UNL A   1      43.852  21.474  25.525  1.00  0.00     0.010 A 
ATOM     24  C   UNL A   1      44.048  19.087  25.293  1.00  0.00     0.048 A 
ATOM     25  C   UNL A   1      44.586  20.359  25.125  1.00  0.00     0.005 A 
BRANCH  22  26
ATOM     26  O   UNL A   1      42.232  17.689  25.899  1.00  0.00    -0.506 OA
ATOM     27  H   UNL A   1      41.799  17.268  25.182  1.00  0.00     0.293 HD
ENDBRANCH  22  26
ENDBRANCH  15  16
ENDBRANCH  13  14
ENDBRANCH   6   8
ENDBRANCH   3   4
ENDBRANCH   2   3
ENDBRANCH   1   2
BRANCH   1  28
ATOM     28  C   UNL A   1      31.844  30.359  25.777  1.00  0.00     0.002 C 
BRANCH  28  29
ATOM     29  C   UNL A   1      31.586  31.523  26.738  1.00  0.00     0.021 C 
BRANCH  29  30
ATOM     30  C   UNL A   1      32.836  32.233  27.249  1.00  0.00     0.116 C 
BRANCH  30  31
ATOM     31  N   UNL A   1      32.595  33.633  27.552  1.00  0.00    -0.352 N 
ATOM     32  C   UNL A   1      33.179  34.433  28.506  1.00  0.00     0.251 C 
ATOM     33  H   UNL A   1      31.916  34.074  26.992  1.00  0.00     0.163 HD
ATOM     34  O   UNL A   1      32.715  35.547  28.728  1.00  0.00    -0.269 OA
BRANCH  32  35
ATOM     35  C   UNL A   1      34.340  33.938  29.280  1.00  0.00     0.039 A 
ATOM     36  C   UNL A   1      34.116  33.066  30.348  1.00  0.00     0.014 A 
ATOM     37  C   UNL A   1      35.643  34.331  28.961  1.00  0.00     0.014 A 
ATOM     38  C   UNL A   1      35.201  32.539  31.055  1.00  0.00     0.010 A 
ATOM     39  C   UNL A   1      36.726  33.749  29.618  1.00  0.00     0.010 A 
ATOM     40  C   UNL A   1      36.517  32.846  30.672  1.00  0.00    -0.014 A 
BRANCH  40  41
ATOM     41  C   UNL A   1      37.683  32.233  31.364  1.00  0.00     0.031 A 
ATOM     42  C   UNL A   1      38.429  31.093  30.726  1.00  0.00     0.074 A 
ATOM     43  C   UNL A   1      38.036  32.667  32.591  1.00  0.00     0.049 A 
ATOM     44  N   UNL A   1      39.414  30.376  31.204  1.00  0.00    -0.248 NA
ATOM     45  C   UNL A   1      37.991  30.689  29.381  1.00  0.00     0.031 C 
ATOM     46  C   UNL A   1      37.368  33.742  33.330  1.00  0.00     0.029 A 
ATOM     47  N   UNL A   1      39.034  32.255  33.440  1.00  0.00    -0.354 N 
ATOM     48  C   UNL A   1      39.712  29.436  30.222  1.00  0.00     0.074 A 
ATOM     49  C   UNL A   1      38.756  29.632  29.153  1.00  0.00     0.031 C 
ATOM     50  C   UNL A   1      37.986  33.916  34.509  1.00  0.00     0.029 A 
ATOM     51  C   UNL A   1      39.060  32.936  34.636  1.00  0.00     0.049 A 
ATOM     52  H   UNL A   1      39.671  31.540  33.213  1.00  0.00     0.167 HD
ATOM     53  C   UNL A   1      40.705  28.512  30.204  1.00  0.00     0.034 A 
ATOM     54  C   UNL A   1      39.846  32.778  35.720  1.00  0.00     0.034 A 
ATOM     55  C   UNL A   1      41.654  28.331  31.276  1.00  0.00     0.049 A 
ATOM     56  C   UNL A   1      40.921  31.718  35.692  1.00  0.00     0.074 A 
ATOM     57  C   UNL A   1      42.719  27.450  31.345  1.00  0.00     0.029 A 
ATOM     58  N   UNL A   1      41.651  29.041  32.471  1.00  0.00    -0.354 N 
ATOM     59  N   UNL A   1      41.212  30.863  34.738  1.00  0.00    -0.248 NA
ATOM     60  C   UNL A   1      41.780  31.611  36.878  1.00  0.00     0.031 C 
ATOM     61  C   UNL A   1      43.314  27.576  32.605  1.00  0.00     0.029 A 
ATOM     62  C   UNL A   1      42.676  28.596  33.292  1.00  0.00     0.049 A 
ATOM     63  H   UNL A   1      41.014  29.755  32.701  1.00  0.00     0.167 HD
ATOM     64  C   UNL A   1      42.310  30.141  35.199  1.00  0.00     0.074 A 
ATOM     65  C   UNL A   1      42.637  30.672  36.505  1.00  0.00     0.031 C 
ATOM     66  C   UNL A   1      42.988  29.130  34.597  1.00  0.00     0.034 A 
BRANCH  53  67
ATOM     67  C   UNL A   1      40.801  27.617  28.991  1.00  0.00     0.023 A 
ATOM     68  C   UNL A   1      41.756  27.842  27.983  1.00  0.00     0.031 A 
ATOM     69  C   UNL A   1      39.922  26.532  28.830  1.00  0.00     0.131 A 
ATOM     70  C   UNL A   1      41.761  27.042  26.830  1.00  0.00     0.055 A 
ATOM     71  C   UNL A   1      39.987  25.688  27.720  1.00  0.00     0.041 A 
ATOM     72  F   UNL A   1      38.975  26.278  29.748  1.00  0.00    -0.206 F 
ATOM     73  C   UNL A   1      40.902  25.949  26.704  1.00  0.00     0.022 A 
BRANCH  70  74
ATOM     74  S   UNL A   1      42.813  27.538  25.439  1.00  0.00     0.124 S 
ATOM     75  O   UNL A   1      44.086  27.791  26.107  1.00  0.00    -0.237 OA
ATOM     76  O   UNL A   1      42.767  26.364  24.574  1.00  0.00    -0.237 OA
ATOM     77  O   UNL A   1      42.147  28.728  24.912  1.00  0.00    -0.744 OA
ENDBRANCH  70  74
ENDBRANCH  53  67
BRANCH  54  78
ATOM     78  C   UNL A   1      39.640  33.619  36.936  1.00  0.00     0.023 A 
ATOM     79  C   UNL A   1      39.142  33.064  38.127  1.00  0.00     0.031 A 
ATOM     80  C   UNL A   1      39.885  35.003  36.909  1.00  0.00     0.131 A 
ATOM     81  C   UNL A   1      38.850  33.897  39.218  1.00  0.00     0.055 A 
ATOM     82  C   UNL A   1      39.653  35.817  38.018  1.00  0.00     0.041 A 
ATOM     83  F   UNL A   1      40.365  35.587  35.798  1.00  0.00    -0.206 F 
ATOM     84  C   UNL A   1      39.117  35.267  39.178  1.00  0.00     0.022 A 
BRANCH  81  85
ATOM     85  S   UNL A   1      38.013  33.178  40.659  1.00  0.00     0.124 S 
ATOM     86  O   UNL A   1      38.513  34.017  41.740  1.00  0.00    -0.237 OA
ATOM     87  O   UNL A   1      36.607  33.350  40.308  1.00  0.00    -0.237 OA
ATOM     88  O   UNL A   1      38.486  31.796  40.671  1.00  0.00    -0.744 OA
ENDBRANCH  81  85
ENDBRANCH  54  78
BRANCH  66  89
ATOM     89  C   UNL A   1      44.185  28.573  35.330  1.00  0.00     0.023 A 
ATOM     90  C   UNL A   1      44.064  27.526  36.261  1.00  0.00     0.031 A 
ATOM     91  C   UNL A   1      45.467  29.105  35.097  1.00  0.00     0.131 A 
ATOM     92  C   UNL A   1      45.193  27.085  36.967  1.00  0.00     0.055 A 
ATOM     93  C   UNL A   1      46.596  28.617  35.755  1.00  0.00     0.041 A 
ATOM     94  F   UNL A   1      45.641  30.107  34.220  1.00  0.00    -0.206 F 
ATOM     95  C   UNL A   1      46.461  27.612  36.707  1.00  0.00     0.022 A 
BRANCH  92  96
ATOM     96  S   UNL A   1      44.969  25.878  38.303  1.00  0.00     0.124 S 
ATOM     97  O   UNL A   1      44.128  26.616  39.239  1.00  0.00    -0.237 OA
ATOM     98  O   UNL A   1      44.328  24.764  37.612  1.00  0.00    -0.237 OA
ATOM     99  O   UNL A   1      46.331  25.620  38.765  1.00  0.00    -0.744 OA
ENDBRANCH  92  96
ENDBRANCH  66  89
ENDBRANCH  40  41
ENDBRANCH  32  35
ENDBRANCH  30  31
ENDBRANCH  29  30
ENDBRANCH  28  29
ENDBRANCH   1  28
TORSDOF 19
ENDMDL
MODEL 2
REMARK VINA RESULT:     -12.2      0.462      7.528
REMARK SMILES O=C(NCCCCCCNC(=O)c1ccc(-c2c3nc(c(-c4cc(S(=O)(=O)[O-])ccc4F)c4ccc([nH]4)c(-c4cc(S(=O)(=O)[O-])ccc4F)c4nc(c(-c5cc(S(=O)(=O)[O-])ccc5F)c5ccc2[nH]5)C=C4)C=C3)cc1)c1ccc(/C=C/c2ccc3cccc(O)c3n2)cc1
REMARK SMILES IDX 6 1 5 2 4 3 3 4 1 5 2 6 76 8 77 9 94 10 78 11 93 12 79 13
REMARK SMILES IDX 80 14 81 15 82 16 83 17 92 18 84 19 91 20 85 21 89 22 86 23
REMARK SMILES IDX 88 24 87 25 90 26 7 28 8 29 9 30 10 31 11 32 12 34 13 35
REMARK SMILES IDX 14 36 75 37 15 38 74 39 16 40 17 41 18 42 68 43 19 44 73 45
REMARK SMILES IDX 67 46 69 47 20 48 72 49 66 50 65 51 21 53 53 54 33 55 52 56
REMARK SMILES IDX 34 57 37 58 51 59 70 60 35 61 36 62 50 64 71 65 38 66 22 67
REMARK SMILES IDX 23 68 31 69 24 70 30 71 32 72 29 73 25 74 26 75 27 76 28 77
REMARK SMILES IDX 54 78 55 79 63 80 56 81 62 82 64 83 61 84 57 85 58 86 59 87
REMARK SMILES IDX 60 88 39 89 40 90 48 91 41 92 47 93 49 94 46 95 42 96 43 97
REMARK SMILES IDX 44 98 45 99
REMARK H PARENT 3 7 90 27 10 33 69 52 37 63
REMARK Flexibility Score: inf
ROOT
ATOM      1  C   UNL A   1      33.109  29.465  25.854  1.00  0.00     0.002 C 
ENDROOT
BRANCH   1   2
ATOM      2  C   UNL A   1      33.364  28.374  24.808  1.00  0.00     0.021 C 
BRANCH   2   3
ATOM      3  C   UNL A   1      33.656  26.981  25.368  1.00  0.00     0.116 C 
BRANCH   3   4
ATOM      4  N   UNL A   1      32.846  25.959  24.733  1.00  0.00    -0.352 N 
ATOM      5  O   UNL A   1      32.422  24.019  23.675  1.00  0.00    -0.269 OA
ATOM      6  C   UNL A   1      33.186  24.684  24.364  1.00  0.00     0.251 C 
ATOM      7  H   UNL A   1      31.916  26.220  24.540  1.00  0.00     0.163 HD
BRANCH   6   8
ATOM      8  C   UNL A   1      34.489  24.111  24.763  1.00  0.00     0.039 A 
ATOM      9  C   UNL A   1      34.800  23.822  26.098  1.00  0.00     0.014 A 
ATOM     10  C   UNL A   1      35.396  23.802  23.754  1.00  0.00     0.014 A 
ATOM     11  C   UNL A   1      36.042  23.257  26.428  1.00  0.00     0.009 A 
ATOM     12  C   UNL A   1      36.625  23.237  24.086  1.00  0.00     0.009 A 
ATOM     13  C   UNL A   1      36.968  22.962  25.425  1.00  0.00    -0.026 A 
BRANCH  13  14
ATOM     14  C   UNL A   1      38.329  22.466  25.661  1.00  0.00     0.010 C 
ATOM     15  C   UNL A   1      38.846  21.226  25.539  1.00  0.00     0.029 C 
BRANCH  15  16
ATOM     16  C   UNL A   1      40.030  20.994  26.407  1.00  0.00     0.064 A 
ATOM     17  C   UNL A   1      40.659  22.189  26.747  1.00  0.00     0.029 A 
ATOM     18  N   UNL A   1      40.711  19.839  26.197  1.00  0.00    -0.245 NA
ATOM     19  C   UNL A   1      42.011  22.299  26.453  1.00  0.00     0.013 A 
ATOM     20  C   UNL A   1      42.046  19.940  26.002  1.00  0.00     0.113 A 
ATOM     21  C   UNL A   1      42.707  21.182  25.983  1.00  0.00     0.004 A 
ATOM     22  C   UNL A   1      42.814  18.808  25.732  1.00  0.00     0.141 A 
ATOM     23  C   UNL A   1      44.014  21.281  25.477  1.00  0.00     0.010 A 
ATOM     24  C   UNL A   1      44.131  18.886  25.286  1.00  0.00     0.048 A 
ATOM     25  C   UNL A   1      44.713  20.136  25.101  1.00  0.00     0.005 A 
BRANCH  22  26
ATOM     26  O   UNL A   1      42.265  17.559  25.902  1.00  0.00    -0.506 OA
ATOM     27  H   UNL A   1      42.638  16.820  25.461  1.00  0.00     0.293 HD
ENDBRANCH  22  26
ENDBRANCH  15  16
ENDBRANCH  13  14
ENDBRANCH   6   8
ENDBRANCH   3   4
ENDBRANCH   2   3
ENDBRANCH   1   2
BRANCH   1  28
ATOM     28  C   UNL A   1      31.787  30.225  25.716  1.00  0.00     0.002 C 
BRANCH  28  29
ATOM     29  C   UNL A   1      31.592  31.393  26.686  1.00  0.00     0.021 C 
BRANCH  29  30
ATOM     30  C   UNL A   1      32.866  32.138  27.072  1.00  0.00     0.116 C 
BRANCH  30  31
ATOM     31  N   UNL A   1      32.609  33.512  27.467  1.00  0.00    -0.352 N 
ATOM     32  C   UNL A   1      33.178  34.251  28.476  1.00  0.00     0.251 C 
ATOM     33  H   UNL A   1      31.928  33.982  26.933  1.00  0.00     0.163 HD
ATOM     34  O   UNL A   1      32.702  35.343  28.770  1.00  0.00    -0.269 OA
BRANCH  32  35
ATOM     35  C   UNL A   1      34.340  33.717  29.224  1.00  0.00     0.039 A 
ATOM     36  C   UNL A   1      34.110  32.864  30.306  1.00  0.00     0.014 A 
ATOM     37  C   UNL A   1      35.648  34.054  28.866  1.00  0.00     0.014 A 
ATOM     38  C   UNL A   1      35.192  32.300  30.988  1.00  0.00     0.010 A 
ATOM     39  C   UNL A   1      36.724  33.435  29.499  1.00  0.00     0.010 A 
ATOM     40  C   UNL A   1      36.508  32.550  30.567  1.00  0.00    -0.014 A 
BRANCH  40  41
ATOM     41  C   UNL A   1      37.667  31.897  31.234  1.00  0.00     0.031 A 
ATOM     42  C   UNL A   1      38.144  32.389  32.574  1.00  0.00     0.074 A 
ATOM     43  C   UNL A   1      38.323  30.899  30.610  1.00  0.00     0.049 A 
ATOM     44  N   UNL A   1      39.181  32.008  33.276  1.00  0.00    -0.248 NA
ATOM     45  C   UNL A   1      37.366  33.472  33.195  1.00  0.00     0.031 C 
ATOM     46  C   UNL A   1      37.978  30.357  29.292  1.00  0.00     0.029 A 
ATOM     47  N   UNL A   1      39.421  30.166  30.990  1.00  0.00    -0.354 N 
ATOM     48  C   UNL A   1      39.182  32.804  34.417  1.00  0.00     0.074 A 
ATOM     49  C   UNL A   1      38.081  33.734  34.278  1.00  0.00     0.031 C 
ATOM     50  C   UNL A   1      38.834  29.369  28.985  1.00  0.00     0.029 A 
ATOM     51  C   UNL A   1      39.818  29.237  30.054  1.00  0.00     0.049 A 
ATOM     52  H   UNL A   1      39.881  30.294  31.851  1.00  0.00     0.167 HD
ATOM     53  C   UNL A   1      40.008  32.747  35.492  1.00  0.00     0.034 A 
ATOM     54  C   UNL A   1      40.866  28.388  30.049  1.00  0.00     0.034 A 
ATOM     55  C   UNL A   1      41.098  31.811  35.619  1.00  0.00     0.049 A 
ATOM     56  C   UNL A   1      41.794  28.370  31.239  1.00  0.00     0.074 A 
ATOM     57  C   UNL A   1      41.973  31.645  36.678  1.00  0.00     0.029 A 
ATOM     58  N   UNL A   1      41.468  30.883  34.652  1.00  0.00    -0.354 N 
ATOM     59  N   UNL A   1      41.755  29.104  32.327  1.00  0.00    -0.248 NA
ATOM     60  C   UNL A   1      42.895  27.400  31.207  1.00  0.00     0.031 C 
ATOM     61  C   UNL A   1      42.912  30.670  36.325  1.00  0.00     0.029 A 
ATOM     62  C   UNL A   1      42.575  30.165  35.080  1.00  0.00     0.049 A 
ATOM     63  H   UNL A   1      41.012  30.755  33.790  1.00  0.00     0.167 HD
ATOM     64  C   UNL A   1      42.809  28.658  33.122  1.00  0.00     0.074 A 
ATOM     65  C   UNL A   1      43.450  27.583  32.396  1.00  0.00     0.031 C 
ATOM     66  C   UNL A   1      43.210  29.098  34.343  1.00  0.00     0.034 A 
BRANCH  53  67
ATOM     67  C   UNL A   1      39.769  33.740  36.606  1.00  0.00     0.023 A 
ATOM     68  C   UNL A   1      39.246  33.340  37.848  1.00  0.00     0.031 A 
ATOM     69  C   UNL A   1      40.057  35.103  36.423  1.00  0.00     0.131 A 
ATOM     70  C   UNL A   1      38.959  34.301  38.830  1.00  0.00     0.055 A 
ATOM     71  C   UNL A   1      39.848  36.043  37.435  1.00  0.00     0.041 A 
ATOM     72  F   UNL A   1      40.539  35.550  35.252  1.00  0.00    -0.206 F 
ATOM     73  C   UNL A   1      39.282  35.646  38.642  1.00  0.00     0.022 A 
BRANCH  70  74
ATOM     74  S   UNL A   1      38.029  33.785  40.299  1.00  0.00     0.124 S 
ATOM     75  O   UNL A   1      38.899  32.749  40.849  1.00  0.00    -0.237 OA
ATOM     76  O   UNL A   1      37.942  35.022  41.069  1.00  0.00    -0.237 OA
ATOM     77  O   UNL A   1      36.764  33.300  39.751  1.00  0.00    -0.744 OA
ENDBRANCH  70  74
ENDBRANCH  53  67
BRANCH  54  78
ATOM     78  C   UNL A   1      41.118  27.502  28.875  1.00  0.00     0.023 A 
ATOM     79  C   UNL A   1      42.143  27.787  27.957  1.00  0.00     0.031 A 
ATOM     80  C   UNL A   1      40.300  26.387  28.621  1.00  0.00     0.131 A 
ATOM     81  C   UNL A   1      42.285  27.002  26.801  1.00  0.00     0.055 A 
ATOM     82  C   UNL A   1      40.486  25.573  27.502  1.00  0.00     0.041 A 
ATOM     83  F   UNL A   1      39.307  26.066  29.466  1.00  0.00    -0.206 F 
ATOM     84  C   UNL A   1      41.473  25.888  26.576  1.00  0.00     0.022 A 
BRANCH  81  85
ATOM     85  S   UNL A   1      43.479  27.525  25.539  1.00  0.00     0.124 S 
ATOM     86  O   UNL A   1      44.320  26.341  25.419  1.00  0.00    -0.237 OA
ATOM     87  O   UNL A   1      42.610  27.815  24.403  1.00  0.00    -0.237 OA
ATOM     88  O   UNL A   1      44.122  28.690  26.142  1.00  0.00    -0.744 OA
ENDBRANCH  81  85
ENDBRANCH  54  78
BRANCH  66  89
ATOM     89  C   UNL A   1      44.367  28.374  34.988  1.00  0.00     0.023 A 
ATOM     90  C   UNL A   1      44.171  27.368  35.950  1.00  0.00     0.031 A 
ATOM     91  C   UNL A   1      45.690  28.704  34.639  1.00  0.00     0.131 A 
ATOM     92  C   UNL A   1      45.276  26.768  36.572  1.00  0.00     0.055 A 
ATOM     93  C   UNL A   1      46.785  28.058  35.214  1.00  0.00     0.041 A 
ATOM     94  F   UNL A   1      45.937  29.659  33.728  1.00  0.00    -0.206 F 
ATOM     95  C   UNL A   1      46.582  27.095  36.196  1.00  0.00     0.022 A 
BRANCH  92  96
ATOM     96  S   UNL A   1      44.987  25.624  37.949  1.00  0.00     0.124 S 
ATOM     97  O   UNL A   1      43.876  26.263  38.646  1.00  0.00    -0.237 OA
ATOM     98  O   UNL A   1      44.673  24.378  37.258  1.00  0.00    -0.237 OA
ATOM     99  O   UNL A   1      46.258  25.629  38.672  1.00  0.00    -0.744 OA
ENDBRANCH  92  96
ENDBRANCH  66  89
ENDBRANCH  40  41
ENDBRANCH  32  35
ENDBRANCH  30  31
ENDBRANCH  29  30
ENDBRANCH  28  29
ENDBRANCH   1  28
TORSDOF 19
ENDMDL
MODEL 3
REMARK VINA RESULT:     -12.0      4.243     10.113
REMARK SMILES O=C(NCCCCCCNC(=O)c1ccc(-c2c3nc(c(-c4cc(S(=O)(=O)[O-])ccc4F)c4ccc([nH]4)c(-c4cc(S(=O)(=O)[O-])ccc4F)c4nc(c(-c5cc(S(=O)(=O)[O-])ccc5F)c5ccc2[nH]5)C=C4)C=C3)cc1)c1ccc(/C=C/c2ccc3cccc(O)c3n2)cc1
REMARK SMILES IDX 6 1 5 2 4 3 3 4 1 5 2 6 76 8 77 9 94 10 78 11 93 12 79 13
REMARK SMILES IDX 80 14 81 15 82 16 83 17 92 18 84 19 91 20 85 21 89 22 86 23
REMARK SMILES IDX 88 24 87 25 90 26 7 28 8 29 9 30 10 31 11 32 12 34 13 35
REMARK SMILES IDX 14 36 75 37 15 38 74 39 16 40 17 41 18 42 68 43 19 44 73 45
REMARK SMILES IDX 67 46 69 47 20 48 72 49 66 50 65 51 21 53 53 54 33 55 52 56
REMARK SMILES IDX 34 57 37 58 51 59 70 60 35 61 36 62 50 64 71 65 38 66 22 67
REMARK SMILES IDX 23 68 31 69 24 70 30 71 32 72 29 73 25 74 26 75 27 76 28 77
REMARK SMILES IDX 54 78 55 79 63 80 56 81 62 82 64 83 61 84 57 85 58 86 59 87
REMARK SMILES IDX 60 88 39 89 40 90 48 91 41 92 47 93 49 94 46 95 42 96 43 97
REMARK SMILES IDX 44 98 45 99
REMARK H PARENT 3 7 90 27 10 33 69 52 37 63
REMARK Flexibility Score: inf
ROOT
ATOM      1  C   UNL A   1      37.608  33.156  29.399  1.00  0.00     0.002 C 
ENDROOT
BRANCH   1   2
ATOM      2  C   UNL A   1      37.770  33.203  30.923  1.00  0.00     0.021 C 
BRANCH   2   3
ATOM      3  C   UNL A   1      36.951  32.175  31.704  1.00  0.00     0.116 C 
BRANCH   3   4
ATOM      4  N   UNL A   1      36.816  32.535  33.102  1.00  0.00    -0.352 N 
ATOM      5  O   UNL A   1      37.001  32.278  35.330  1.00  0.00    -0.269 OA
ATOM      6  C   UNL A   1      37.368  31.946  34.209  1.00  0.00     0.251 C 
ATOM      7  H   UNL A   1      36.246  33.318  33.282  1.00  0.00     0.163 HD
BRANCH   6   8
ATOM      8  C   UNL A   1      38.385  30.882  34.064  1.00  0.00     0.039 A 
ATOM      9  C   UNL A   1      38.139  29.710  33.336  1.00  0.00     0.014 A 
ATOM     10  C   UNL A   1      39.639  31.104  34.626  1.00  0.00     0.014 A 
ATOM     11  C   UNL A   1      39.142  28.737  33.205  1.00  0.00     0.009 A 
ATOM     12  C   UNL A   1      40.632  30.137  34.488  1.00  0.00     0.009 A 
ATOM     13  C   UNL A   1      40.397  28.940  33.783  1.00  0.00    -0.026 A 
BRANCH  13  14
ATOM     14  C   UNL A   1      41.484  27.952  33.795  1.00  0.00     0.010 C 
ATOM     15  C   UNL A   1      41.769  26.970  34.675  1.00  0.00     0.029 C 
BRANCH  15  16
ATOM     16  C   UNL A   1      43.208  26.597  34.694  1.00  0.00     0.064 A 
ATOM     17  C   UNL A   1      43.769  26.653  33.421  1.00  0.00     0.029 A 
ATOM     18  N   UNL A   1      43.575  25.675  35.620  1.00  0.00    -0.245 NA
ATOM     19  C   UNL A   1      44.395  25.507  32.954  1.00  0.00     0.013 A 
ATOM     20  C   UNL A   1      44.267  24.601  35.176  1.00  0.00     0.113 A 
ATOM     21  C   UNL A   1      44.570  24.418  33.814  1.00  0.00     0.004 A 
ATOM     22  C   UNL A   1      44.643  23.583  36.052  1.00  0.00     0.141 A 
ATOM     23  C   UNL A   1      45.006  23.167  33.346  1.00  0.00     0.010 A 
ATOM     24  C   UNL A   1      45.133  22.357  35.609  1.00  0.00     0.048 A 
ATOM     25  C   UNL A   1      45.257  22.129  34.242  1.00  0.00     0.005 A 
BRANCH  22  26
ATOM     26  O   UNL A   1      44.527  23.777  37.407  1.00  0.00    -0.506 OA
ATOM     27  H   UNL A   1      44.996  24.475  37.822  1.00  0.00     0.293 HD
ENDBRANCH  22  26
ENDBRANCH  15  16
ENDBRANCH  13  14
ENDBRANCH   6   8
ENDBRANCH   3   4
ENDBRANCH   2   3
ENDBRANCH   1   2
BRANCH   1  28
ATOM     28  C   UNL A   1      36.535  34.078  28.814  1.00  0.00     0.002 C 
BRANCH  28  29
ATOM     29  C   UNL A   1      35.327  33.375  28.192  1.00  0.00     0.021 C 
BRANCH  29  30
ATOM     30  C   UNL A   1      34.632  32.356  29.092  1.00  0.00     0.116 C 
BRANCH  30  31
ATOM     31  N   UNL A   1      34.067  31.248  28.343  1.00  0.00    -0.352 N 
ATOM     32  C   UNL A   1      34.687  30.132  27.833  1.00  0.00     0.251 C 
ATOM     33  H   UNL A   1      33.098  31.303  28.177  1.00  0.00     0.163 HD
ATOM     34  O   UNL A   1      34.073  29.391  27.073  1.00  0.00    -0.269 OA
BRANCH  32  35
ATOM     35  C   UNL A   1      36.099  29.846  28.177  1.00  0.00     0.039 A 
ATOM     36  C   UNL A   1      36.391  29.311  29.435  1.00  0.00     0.014 A 
ATOM     37  C   UNL A   1      37.132  30.104  27.272  1.00  0.00     0.014 A 
ATOM     38  C   UNL A   1      37.709  28.977  29.759  1.00  0.00     0.010 A 
ATOM     39  C   UNL A   1      38.434  29.703  27.567  1.00  0.00     0.010 A 
ATOM     40  C   UNL A   1      38.737  29.134  28.814  1.00  0.00    -0.014 A 
BRANCH  40  41
ATOM     41  C   UNL A   1      40.131  28.712  29.116  1.00  0.00     0.031 A 
ATOM     42  C   UNL A   1      41.001  29.556  30.009  1.00  0.00     0.074 A 
ATOM     43  C   UNL A   1      40.632  27.599  28.544  1.00  0.00     0.049 A 
ATOM     44  N   UNL A   1      42.262  29.402  30.324  1.00  0.00    -0.248 NA
ATOM     45  C   UNL A   1      40.376  30.747  30.604  1.00  0.00     0.031 C 
ATOM     46  C   UNL A   1      39.899  26.716  27.633  1.00  0.00     0.029 A 
ATOM     47  N   UNL A   1      41.875  27.021  28.633  1.00  0.00    -0.354 N 
ATOM     48  C   UNL A   1      42.581  30.474  31.150  1.00  0.00     0.074 A 
ATOM     49  C   UNL A   1      41.400  31.307  31.230  1.00  0.00     0.031 C 
ATOM     50  C   UNL A   1      40.698  25.702  27.264  1.00  0.00     0.029 A 
ATOM     51  C   UNL A   1      42.014  25.885  27.868  1.00  0.00     0.049 A 
ATOM     52  H   UNL A   1      42.599  27.386  29.192  1.00  0.00     0.167 HD
ATOM     53  C   UNL A   1      43.744  30.728  31.803  1.00  0.00     0.034 A 
ATOM     54  C   UNL A   1      43.084  25.091  27.660  1.00  0.00     0.034 A 
ATOM     55  C   UNL A   1      44.912  29.886  31.717  1.00  0.00     0.049 A 
ATOM     56  C   UNL A   1      44.378  25.414  28.366  1.00  0.00     0.074 A 
ATOM     57  C   UNL A   1      46.129  30.031  32.362  1.00  0.00     0.029 A 
ATOM     58  N   UNL A   1      45.015  28.742  30.935  1.00  0.00    -0.354 N 
ATOM     59  N   UNL A   1      44.650  26.412  29.176  1.00  0.00    -0.248 NA
ATOM     60  C   UNL A   1      45.503  24.498  28.143  1.00  0.00     0.031 C 
ATOM     61  C   UNL A   1      46.986  29.020  31.917  1.00  0.00     0.029 A 
ATOM     62  C   UNL A   1      46.282  28.191  31.059  1.00  0.00     0.049 A 
ATOM     63  H   UNL A   1      44.294  28.376  30.373  1.00  0.00     0.167 HD
ATOM     64  C   UNL A   1      45.969  26.221  29.583  1.00  0.00     0.074 A 
ATOM     65  C   UNL A   1      46.428  25.006  28.944  1.00  0.00     0.031 C 
ATOM     66  C   UNL A   1      46.730  26.981  30.411  1.00  0.00     0.034 A 
BRANCH  53  67
ATOM     67  C   UNL A   1      43.808  31.976  32.650  1.00  0.00     0.023 A 
ATOM     68  C   UNL A   1      43.971  33.249  32.074  1.00  0.00     0.031 A 
ATOM     69  C   UNL A   1      43.718  31.897  34.050  1.00  0.00     0.131 A 
ATOM     70  C   UNL A   1      44.112  34.378  32.895  1.00  0.00     0.055 A 
ATOM     71  C   UNL A   1      43.774  33.035  34.859  1.00  0.00     0.041 A 
ATOM     72  F   UNL A   1      43.583  30.709  34.661  1.00  0.00    -0.206 F 
ATOM     73  C   UNL A   1      43.986  34.283  34.283  1.00  0.00     0.022 A 
BRANCH  70  74
ATOM     74  S   UNL A   1      44.600  35.948  32.131  1.00  0.00     0.124 S 
ATOM     75  O   UNL A   1      44.894  35.531  30.763  1.00  0.00    -0.237 OA
ATOM     76  O   UNL A   1      43.406  36.770  32.306  1.00  0.00    -0.237 OA
ATOM     77  O   UNL A   1      45.763  36.363  32.912  1.00  0.00    -0.744 OA
ENDBRANCH  70  74
ENDBRANCH  53  67
BRANCH  54  78
ATOM     78  C   UNL A   1      42.997  23.929  26.727  1.00  0.00     0.023 A 
ATOM     79  C   UNL A   1      42.351  22.740  27.106  1.00  0.00     0.031 A 
ATOM     80  C   UNL A   1      43.609  23.970  25.463  1.00  0.00     0.131 A 
ATOM     81  C   UNL A   1      42.384  21.625  26.255  1.00  0.00     0.055 A 
ATOM     82  C   UNL A   1      43.585  22.878  24.593  1.00  0.00     0.041 A 
ATOM     83  F   UNL A   1      44.239  25.081  25.047  1.00  0.00    -0.206 F 
ATOM     84  C   UNL A   1      42.983  21.690  24.995  1.00  0.00     0.022 A 
BRANCH  81  85
ATOM     85  S   UNL A   1      41.724  20.048  26.865  1.00  0.00     0.124 S 
ATOM     86  O   UNL A   1      40.407  20.445  27.346  1.00  0.00    -0.237 OA
ATOM     87  O   UNL A   1      41.748  19.225  25.660  1.00  0.00    -0.237 OA
ATOM     88  O   UNL A   1      42.678  19.660  27.901  1.00  0.00    -0.744 OA
ENDBRANCH  81  85
ENDBRANCH  54  78
BRANCH  66  89
ATOM     89  C   UNL A   1      48.124  26.485  30.711  1.00  0.00     0.023 A 
ATOM     90  C   UNL A   1      48.382  25.579  31.755  1.00  0.00     0.031 A 
ATOM     91  C   UNL A   1      49.215  26.933  29.943  1.00  0.00     0.131 A 
ATOM     92  C   UNL A   1      49.701  25.196  32.041  1.00  0.00     0.055 A 
ATOM     93  C   UNL A   1      50.517  26.497  30.190  1.00  0.00     0.041 A 
ATOM     94  F   UNL A   1      49.029  27.800  28.934  1.00  0.00    -0.206 F 
ATOM     95  C   UNL A   1      50.768  25.636  31.253  1.00  0.00     0.022 A 
BRANCH  92  96
ATOM     96  S   UNL A   1      50.016  24.190  33.517  1.00  0.00     0.124 S 
ATOM     97  O   UNL A   1      51.128  24.903  34.137  1.00  0.00    -0.237 OA
ATOM     98  O   UNL A   1      48.741  24.261  34.221  1.00  0.00    -0.237 OA
ATOM     99  O   UNL A   1      50.351  22.876  32.971  1.00  0.00    -0.744 OA
ENDBRANCH  92  96
ENDBRANCH  66  89
ENDBRANCH  40  41
ENDBRANCH  32  35
ENDBRANCH  30  31
ENDBRANCH  29  30
ENDBRANCH  28  29
ENDBRANCH   1  28
TORSDOF 19
ENDMDL
