MODEL 1
REMARK VINA RESULT:     -11.0      0.000      0.000
REMARK SMILES COCCNC(=O)NC(=O)C[N@H+]1CC[C@H](C(=O)NCCCCCCNC(=O)c2ccc(-c3c4nc(c(-c5cc(S(=O)(=O)[O-])ccc5F)c5ccc([nH]5)c(-c5cc(S(=O)(=O)[O-])ccc5F)c5nc(c(-c6cc(S(=O)(=O)[O-])ccc6F)c6ccc3[nH]6)C=C5)C=C4)cc2)[C@@H]1C
REMARK SMILES IDX 20 1 19 2 18 3 16 4 17 5 15 7 12 8 13 9 91 10 14 12 92 13
REMARK SMILES IDX 11 14 9 15 5 16 6 17 7 19 8 20 10 22 4 23 3 24 2 25 1 26
REMARK SMILES IDX 21 27 22 28 23 29 24 30 25 31 26 32 27 34 28 35 29 36 90 37
REMARK SMILES IDX 30 38 89 39 31 40 32 41 33 42 83 43 34 44 88 45 82 46 84 47
REMARK SMILES IDX 35 48 87 49 81 50 80 51 36 53 68 54 48 55 67 56 49 57 52 58
REMARK SMILES IDX 66 59 85 60 50 61 51 62 65 64 86 65 53 66 37 67 38 68 46 69
REMARK SMILES IDX 39 70 45 71 47 72 44 73 40 74 41 75 42 76 43 77 69 78 70 79
REMARK SMILES IDX 78 80 71 81 77 82 79 83 76 84 72 85 73 86 74 87 75 88 54 89
REMARK SMILES IDX 55 90 63 91 56 92 62 93 64 94 61 95 57 96 58 97 59 98 60 99
REMARK H PARENT 18 6 12 11 5 18 8 21 25 33 84 52 52 63
REMARK Flexibility Score: inf
ROOT
ATOM      1  C   UNL A   1      32.720  28.729  26.198  1.00  0.00     0.021 C 
ENDROOT
BRANCH   1   2
ATOM      2  C   UNL A   1      32.057  28.581  24.832  1.00  0.00     0.116 C 
BRANCH   2   3
ATOM      3  N   UNL A   1      33.006  28.156  23.816  1.00  0.00    -0.356 N 
ATOM      4  C   UNL A   1      33.081  26.967  23.154  1.00  0.00     0.229 C 
ATOM      5  O   UNL A   1      33.890  26.864  22.238  1.00  0.00    -0.275 OA
ATOM      6  H   UNL A   1      33.692  28.819  23.573  1.00  0.00     0.163 HD
BRANCH   4   7
ATOM      7  C   UNL A   1      32.131  25.874  23.592  1.00  0.00     0.142 C 
ATOM      8  N   UNL A   1      32.350  23.622  24.383  1.00  0.00    -0.324 N 
ATOM      9  C   UNL A   1      32.326  23.551  22.930  1.00  0.00     0.263 C 
ATOM     10  C   UNL A   1      32.507  25.014  24.792  1.00  0.00     0.194 C 
ATOM     11  H   UNL A   1      33.174  23.086  24.654  1.00  0.00     0.348 HD
ATOM     12  C   UNL A   1      31.829  24.904  22.453  1.00  0.00     0.081 C 
ATOM     13  C   UNL A   1      33.844  25.228  25.488  1.00  0.00     0.076 C 
BRANCH   8  14
ATOM     14  C   UNL A   1      31.399  22.829  25.166  1.00  0.00     0.364 C 
BRANCH  14  15
ATOM     15  C   UNL A   1      31.527  22.877  26.683  1.00  0.00     0.283 C 
ATOM     16  N   UNL A   1      33.914  20.748  26.158  1.00  0.00    -0.335 N 
ATOM     17  C   UNL A   1      33.725  21.773  27.012  1.00  0.00     0.321 C 
ATOM     18  H   UNL A   1      34.802  20.721  25.733  1.00  0.00     0.165 HD
ATOM     19  O   UNL A   1      34.713  22.296  27.523  1.00  0.00    -0.248 OA
ATOM     20  N   UNL A   1      32.474  22.154  27.370  1.00  0.00    -0.273 N 
ATOM     21  H   UNL A   1      32.198  21.865  28.269  1.00  0.00     0.175 HD
ATOM     22  O   UNL A   1      30.758  23.579  27.352  1.00  0.00    -0.268 OA
BRANCH  16  23
ATOM     23  C   UNL A   1      33.015  19.676  25.767  1.00  0.00     0.146 C 
BRANCH  23  24
ATOM     24  C   UNL A   1      32.736  19.597  24.257  1.00  0.00     0.181 C 
BRANCH  24  25
ATOM     25  O   UNL A   1      32.157  18.360  23.836  1.00  0.00    -0.383 OA
ATOM     26  C   UNL A   1      32.430  17.988  22.490  1.00  0.00     0.194 C 
ENDBRANCH  24  25
ENDBRANCH  23  24
ENDBRANCH  16  23
ENDBRANCH  14  15
ENDBRANCH   8  14
ENDBRANCH   4   7
ENDBRANCH   2   3
ENDBRANCH   1   2
BRANCH   1  27
ATOM     27  C   UNL A   1      32.410  30.050  26.908  1.00  0.00     0.002 C 
BRANCH  27  28
ATOM     28  C   UNL A   1      31.427  30.960  26.165  1.00  0.00     0.002 C 
BRANCH  28  29
ATOM     29  C   UNL A   1      31.471  32.426  26.596  1.00  0.00     0.021 C 
BRANCH  29  30
ATOM     30  C   UNL A   1      32.742  32.815  27.336  1.00  0.00     0.116 C 
BRANCH  30  31
ATOM     31  N   UNL A   1      32.698  34.195  27.790  1.00  0.00    -0.352 N 
ATOM     32  C   UNL A   1      33.409  34.786  28.805  1.00  0.00     0.251 C 
ATOM     33  H   UNL A   1      32.077  34.785  27.304  1.00  0.00     0.163 HD
ATOM     34  O   UNL A   1      33.095  35.894  29.215  1.00  0.00    -0.269 OA
BRANCH  32  35
ATOM     35  C   UNL A   1      34.537  34.045  29.404  1.00  0.00     0.039 A 
ATOM     36  C   UNL A   1      35.840  34.371  29.026  1.00  0.00     0.014 A 
ATOM     37  C   UNL A   1      34.301  33.058  30.365  1.00  0.00     0.014 A 
ATOM     38  C   UNL A   1      36.913  33.739  29.656  1.00  0.00     0.010 A 
ATOM     39  C   UNL A   1      35.369  32.494  31.050  1.00  0.00     0.010 A 
ATOM     40  C   UNL A   1      36.687  32.823  30.698  1.00  0.00    -0.014 A 
BRANCH  40  41
ATOM     41  C   UNL A   1      37.818  32.190  31.423  1.00  0.00     0.031 A 
ATOM     42  C   UNL A   1      38.595  31.079  30.773  1.00  0.00     0.074 A 
ATOM     43  C   UNL A   1      38.104  32.580  32.681  1.00  0.00     0.049 A 
ATOM     44  N   UNL A   1      39.572  30.359  31.261  1.00  0.00    -0.248 NA
ATOM     45  C   UNL A   1      38.200  30.707  29.405  1.00  0.00     0.031 C 
ATOM     46  C   UNL A   1      37.391  33.620  33.425  1.00  0.00     0.029 A 
ATOM     47  N   UNL A   1      39.066  32.146  33.557  1.00  0.00    -0.354 N 
ATOM     48  C   UNL A   1      39.902  29.445  30.266  1.00  0.00     0.074 A 
ATOM     49  C   UNL A   1      38.972  29.657  29.177  1.00  0.00     0.031 C 
ATOM     50  C   UNL A   1      37.961  33.766  34.632  1.00  0.00     0.029 A 
ATOM     51  C   UNL A   1      39.043  32.797  34.770  1.00  0.00     0.049 A 
ATOM     52  H   UNL A   1      39.713  31.437  33.339  1.00  0.00     0.167 HD
ATOM     53  C   UNL A   1      40.905  28.533  30.252  1.00  0.00     0.034 A 
ATOM     54  C   UNL A   1      39.797  32.622  35.872  1.00  0.00     0.034 A 
ATOM     55  C   UNL A   1      41.825  28.342  31.347  1.00  0.00     0.049 A 
ATOM     56  C   UNL A   1      40.882  31.573  35.849  1.00  0.00     0.074 A 
ATOM     57  C   UNL A   1      42.908  27.484  31.423  1.00  0.00     0.029 A 
ATOM     58  N   UNL A   1      41.764  29.011  32.564  1.00  0.00    -0.354 N 
ATOM     59  N   UNL A   1      41.216  30.752  34.880  1.00  0.00    -0.248 NA
ATOM     60  C   UNL A   1      41.697  31.436  37.061  1.00  0.00     0.031 C 
ATOM     61  C   UNL A   1      43.449  27.574  32.708  1.00  0.00     0.029 A 
ATOM     62  C   UNL A   1      42.766  28.557  33.407  1.00  0.00     0.049 A 
ATOM     63  H   UNL A   1      41.105  29.706  32.793  1.00  0.00     0.167 HD
ATOM     64  C   UNL A   1      42.305  30.027  35.356  1.00  0.00     0.074 A 
ATOM     65  C   UNL A   1      42.576  30.517  36.692  1.00  0.00     0.031 C 
ATOM     66  C   UNL A   1      43.021  29.050  34.742  1.00  0.00     0.034 A 
BRANCH  53  67
ATOM     67  C   UNL A   1      41.034  27.657  29.027  1.00  0.00     0.023 A 
ATOM     68  C   UNL A   1      42.028  27.882  28.057  1.00  0.00     0.031 A 
ATOM     69  C   UNL A   1      40.135  26.598  28.809  1.00  0.00     0.131 A 
ATOM     70  C   UNL A   1      42.049  27.115  26.883  1.00  0.00     0.055 A 
ATOM     71  C   UNL A   1      40.218  25.780  27.681  1.00  0.00     0.041 A 
ATOM     72  F   UNL A   1      39.149  26.347  29.685  1.00  0.00    -0.206 F 
ATOM     73  C   UNL A   1      41.169  26.047  26.701  1.00  0.00     0.022 A 
BRANCH  70  74
ATOM     74  S   UNL A   1      43.139  27.636  25.529  1.00  0.00     0.124 S 
ATOM     75  O   UNL A   1      44.098  28.485  26.232  1.00  0.00    -0.237 OA
ATOM     76  O   UNL A   1      43.655  26.365  25.034  1.00  0.00    -0.237 OA
ATOM     77  O   UNL A   1      42.241  28.344  24.620  1.00  0.00    -0.744 OA
ENDBRANCH  70  74
ENDBRANCH  53  67
BRANCH  54  78
ATOM     78  C   UNL A   1      39.554  33.443  37.094  1.00  0.00     0.023 A 
ATOM     79  C   UNL A   1      40.266  34.631  37.323  1.00  0.00     0.031 A 
ATOM     80  C   UNL A   1      38.632  33.030  38.073  1.00  0.00     0.131 A 
ATOM     81  C   UNL A   1      40.084  35.337  38.522  1.00  0.00     0.055 A 
ATOM     82  C   UNL A   1      38.410  33.769  39.237  1.00  0.00     0.041 A 
ATOM     83  F   UNL A   1      37.922  31.903  37.905  1.00  0.00    -0.206 F 
ATOM     84  C   UNL A   1      39.150  34.923  39.473  1.00  0.00     0.022 A 
BRANCH  81  85
ATOM     85  S   UNL A   1      41.160  36.756  38.866  1.00  0.00     0.124 S 
ATOM     86  O   UNL A   1      42.003  36.783  37.676  1.00  0.00    -0.237 OA
ATOM     87  O   UNL A   1      40.195  37.844  38.993  1.00  0.00    -0.237 OA
ATOM     88  O   UNL A   1      41.837  36.378  40.104  1.00  0.00    -0.744 OA
ENDBRANCH  81  85
ENDBRANCH  54  78
BRANCH  66  89
ATOM     89  C   UNL A   1      44.203  28.484  35.493  1.00  0.00     0.023 A 
ATOM     90  C   UNL A   1      44.063  27.448  36.432  1.00  0.00     0.031 A 
ATOM     91  C   UNL A   1      45.493  28.996  35.259  1.00  0.00     0.131 A 
ATOM     92  C   UNL A   1      45.185  26.994  37.143  1.00  0.00     0.055 A 
ATOM     93  C   UNL A   1      46.614  28.493  35.921  1.00  0.00     0.041 A 
ATOM     94  F   UNL A   1      45.686  29.988  34.377  1.00  0.00    -0.206 F 
ATOM     95  C   UNL A   1      46.462  27.496  36.879  1.00  0.00     0.022 A 
BRANCH  92  96
ATOM     96  S   UNL A   1      44.939  25.806  38.492  1.00  0.00     0.124 S 
ATOM     97  O   UNL A   1      44.541  24.603  37.767  1.00  0.00    -0.237 OA
ATOM     98  O   UNL A   1      46.257  25.766  39.117  1.00  0.00    -0.237 OA
ATOM     99  O   UNL A   1      43.887  26.419  39.301  1.00  0.00    -0.744 OA
ENDBRANCH  92  96
ENDBRANCH  66  89
ENDBRANCH  40  41
ENDBRANCH  32  35
ENDBRANCH  30  31
ENDBRANCH  29  30
ENDBRANCH  28  29
ENDBRANCH  27  28
ENDBRANCH   1  27
TORSDOF 21
ENDMDL
MODEL 2
REMARK VINA RESULT:     -10.7      0.902      7.425
REMARK SMILES COCCNC(=O)NC(=O)C[N@H+]1CC[C@H](C(=O)NCCCCCCNC(=O)c2ccc(-c3c4nc(c(-c5cc(S(=O)(=O)[O-])ccc5F)c5ccc([nH]5)c(-c5cc(S(=O)(=O)[O-])ccc5F)c5nc(c(-c6cc(S(=O)(=O)[O-])ccc6F)c6ccc3[nH]6)C=C5)C=C4)cc2)[C@@H]1C
REMARK SMILES IDX 20 1 19 2 18 3 16 4 17 5 15 7 12 8 13 9 91 10 14 12 92 13
REMARK SMILES IDX 11 14 9 15 5 16 6 17 7 19 8 20 10 22 4 23 3 24 2 25 1 26
REMARK SMILES IDX 21 27 22 28 23 29 24 30 25 31 26 32 27 34 28 35 29 36 90 37
REMARK SMILES IDX 30 38 89 39 31 40 32 41 33 42 83 43 34 44 88 45 82 46 84 47
REMARK SMILES IDX 35 48 87 49 81 50 80 51 36 53 68 54 48 55 67 56 49 57 52 58
REMARK SMILES IDX 66 59 85 60 50 61 51 62 65 64 86 65 53 66 37 67 38 68 46 69
REMARK SMILES IDX 39 70 45 71 47 72 44 73 40 74 41 75 42 76 43 77 69 78 70 79
REMARK SMILES IDX 78 80 71 81 77 82 79 83 76 84 72 85 73 86 74 87 75 88 54 89
REMARK SMILES IDX 55 90 63 91 56 92 62 93 64 94 61 95 57 96 58 97 59 98 60 99
REMARK H PARENT 18 6 12 11 5 18 8 21 25 33 84 52 52 63
REMARK Flexibility Score: inf
ROOT
ATOM      1  C   UNL A   1      32.756  28.699  27.226  1.00  0.00     0.021 C 
ENDROOT
BRANCH   1   2
ATOM      2  C   UNL A   1      31.705  28.101  26.296  1.00  0.00     0.116 C 
BRANCH   2   3
ATOM      3  N   UNL A   1      32.235  27.876  24.961  1.00  0.00    -0.356 N 
ATOM      4  C   UNL A   1      32.226  26.735  24.214  1.00  0.00     0.229 C 
ATOM      5  O   UNL A   1      32.618  26.801  23.053  1.00  0.00    -0.275 OA
ATOM      6  H   UNL A   1      32.660  28.656  24.537  1.00  0.00     0.163 HD
BRANCH   4   7
ATOM      7  C   UNL A   1      31.704  25.481  24.878  1.00  0.00     0.142 C 
ATOM      8  N   UNL A   1      32.321  23.165  24.901  1.00  0.00    -0.324 N 
ATOM      9  C   UNL A   1      31.444  23.349  23.755  1.00  0.00     0.263 C 
ATOM     10  C   UNL A   1      32.705  24.471  25.426  1.00  0.00     0.194 C 
ATOM     11  H   UNL A   1      33.140  22.687  24.525  1.00  0.00     0.348 HD
ATOM     12  C   UNL A   1      30.778  24.700  23.950  1.00  0.00     0.081 C 
ATOM     13  C   UNL A   1      34.198  24.711  25.246  1.00  0.00     0.076 C 
BRANCH   8  14
ATOM     14  C   UNL A   1      32.004  22.142  25.901  1.00  0.00     0.364 C 
BRANCH  14  15
ATOM     15  C   UNL A   1      32.973  21.976  27.066  1.00  0.00     0.283 C 
ATOM     16  N   UNL A   1      34.565  20.091  24.964  1.00  0.00    -0.335 N 
ATOM     17  C   UNL A   1      34.930  20.968  25.920  1.00  0.00     0.321 C 
ATOM     18  H   UNL A   1      35.053  20.179  24.113  1.00  0.00     0.165 HD
ATOM     19  O   UNL A   1      36.051  21.469  25.856  1.00  0.00    -0.248 OA
ATOM     20  N   UNL A   1      34.117  21.218  26.976  1.00  0.00    -0.273 N 
ATOM     21  H   UNL A   1      34.390  20.786  27.817  1.00  0.00     0.175 HD
ATOM     22  O   UNL A   1      32.744  22.527  28.150  1.00  0.00    -0.268 OA
BRANCH  16  23
ATOM     23  C   UNL A   1      33.567  19.037  24.992  1.00  0.00     0.146 C 
BRANCH  23  24
ATOM     24  C   UNL A   1      32.828  18.823  23.660  1.00  0.00     0.181 C 
BRANCH  24  25
ATOM     25  O   UNL A   1      32.806  17.463  23.218  1.00  0.00    -0.383 OA
ATOM     26  C   UNL A   1      33.870  16.651  23.702  1.00  0.00     0.194 C 
ENDBRANCH  24  25
ENDBRANCH  23  24
ENDBRANCH  16  23
ENDBRANCH  14  15
ENDBRANCH   8  14
ENDBRANCH   4   7
ENDBRANCH   2   3
ENDBRANCH   1   2
BRANCH   1  27
ATOM     27  C   UNL A   1      32.883  30.222  27.136  1.00  0.00     0.002 C 
BRANCH  27  28
ATOM     28  C   UNL A   1      31.640  30.936  26.597  1.00  0.00     0.002 C 
BRANCH  28  29
ATOM     29  C   UNL A   1      31.602  32.439  26.873  1.00  0.00     0.021 C 
BRANCH  29  30
ATOM     30  C   UNL A   1      32.946  33.028  27.272  1.00  0.00     0.116 C 
BRANCH  30  31
ATOM     31  N   UNL A   1      32.790  34.264  28.022  1.00  0.00    -0.352 N 
ATOM     32  C   UNL A   1      33.412  34.645  29.184  1.00  0.00     0.251 C 
ATOM     33  H   UNL A   1      32.154  34.914  27.645  1.00  0.00     0.163 HD
ATOM     34  O   UNL A   1      33.007  35.612  29.813  1.00  0.00    -0.269 OA
BRANCH  32  35
ATOM     35  C   UNL A   1      34.559  33.850  29.667  1.00  0.00     0.039 A 
ATOM     36  C   UNL A   1      35.849  34.210  29.276  1.00  0.00     0.014 A 
ATOM     37  C   UNL A   1      34.353  32.774  30.537  1.00  0.00     0.014 A 
ATOM     38  C   UNL A   1      36.941  33.520  29.803  1.00  0.00     0.010 A 
ATOM     39  C   UNL A   1      35.444  32.147  31.126  1.00  0.00     0.010 A 
ATOM     40  C   UNL A   1      36.749  32.508  30.759  1.00  0.00    -0.014 A 
BRANCH  40  41
ATOM     41  C   UNL A   1      37.903  31.807  31.378  1.00  0.00     0.031 A 
ATOM     42  C   UNL A   1      38.392  32.226  32.737  1.00  0.00     0.074 A 
ATOM     43  C   UNL A   1      38.538  30.837  30.692  1.00  0.00     0.049 A 
ATOM     44  N   UNL A   1      39.417  31.784  33.418  1.00  0.00    -0.248 NA
ATOM     45  C   UNL A   1      37.649  33.307  33.403  1.00  0.00     0.031 C 
ATOM     46  C   UNL A   1      38.176  30.376  29.350  1.00  0.00     0.029 A 
ATOM     47  N   UNL A   1      39.623  30.066  31.025  1.00  0.00    -0.354 N 
ATOM     48  C   UNL A   1      39.447  32.538  34.587  1.00  0.00     0.074 A 
ATOM     49  C   UNL A   1      38.381  33.511  34.487  1.00  0.00     0.031 C 
ATOM     50  C   UNL A   1      39.002  29.381  28.989  1.00  0.00     0.029 A 
ATOM     51  C   UNL A   1      39.985  29.168  30.047  1.00  0.00     0.049 A 
ATOM     52  H   UNL A   1      40.098  30.146  31.884  1.00  0.00     0.167 HD
ATOM     53  C   UNL A   1      40.272  32.410  35.656  1.00  0.00     0.034 A 
ATOM     54  C   UNL A   1      41.001  28.285  30.001  1.00  0.00     0.034 A 
ATOM     55  C   UNL A   1      41.325  31.428  35.738  1.00  0.00     0.049 A 
ATOM     56  C   UNL A   1      41.931  28.188  31.185  1.00  0.00     0.074 A 
ATOM     57  C   UNL A   1      42.187  31.175  36.791  1.00  0.00     0.029 A 
ATOM     58  N   UNL A   1      41.670  30.543  34.724  1.00  0.00    -0.354 N 
ATOM     59  N   UNL A   1      41.914  28.872  32.307  1.00  0.00    -0.248 NA
ATOM     60  C   UNL A   1      43.007  27.194  31.103  1.00  0.00     0.031 C 
ATOM     61  C   UNL A   1      43.101  30.199  36.385  1.00  0.00     0.029 A 
ATOM     62  C   UNL A   1      42.754  29.772  35.113  1.00  0.00     0.049 A 
ATOM     63  H   UNL A   1      41.212  30.474  33.855  1.00  0.00     0.167 HD
ATOM     64  C   UNL A   1      42.956  28.362  33.077  1.00  0.00     0.074 A 
ATOM     65  C   UNL A   1      43.570  27.308  32.297  1.00  0.00     0.031 C 
ATOM     66  C   UNL A   1      43.363  28.727  34.320  1.00  0.00     0.034 A 
BRANCH  53  67
ATOM     67  C   UNL A   1      40.081  33.376  36.803  1.00  0.00     0.023 A 
ATOM     68  C   UNL A   1      40.899  34.509  36.962  1.00  0.00     0.031 A 
ATOM     69  C   UNL A   1      39.085  33.147  37.769  1.00  0.00     0.131 A 
ATOM     70  C   UNL A   1      40.760  35.322  38.096  1.00  0.00     0.055 A 
ATOM     71  C   UNL A   1      38.892  34.011  38.849  1.00  0.00     0.041 A 
ATOM     72  F   UNL A   1      38.288  32.070  37.688  1.00  0.00    -0.206 F 
ATOM     73  C   UNL A   1      39.743  35.098  39.027  1.00  0.00     0.022 A 
BRANCH  70  74
ATOM     74  S   UNL A   1      42.027  36.579  38.420  1.00  0.00     0.124 S 
ATOM     75  O   UNL A   1      41.232  37.652  39.013  1.00  0.00    -0.237 OA
ATOM     76  O   UNL A   1      42.936  35.884  39.324  1.00  0.00    -0.237 OA
ATOM     77  O   UNL A   1      42.566  36.873  37.095  1.00  0.00    -0.744 OA
ENDBRANCH  70  74
ENDBRANCH  53  67
BRANCH  54  78
ATOM     78  C   UNL A   1      41.207  27.431  28.795  1.00  0.00     0.023 A 
ATOM     79  C   UNL A   1      42.210  27.727  27.859  1.00  0.00     0.031 A 
ATOM     80  C   UNL A   1      40.374  26.326  28.539  1.00  0.00     0.131 A 
ATOM     81  C   UNL A   1      42.324  26.961  26.688  1.00  0.00     0.055 A 
ATOM     82  C   UNL A   1      40.532  25.530  27.403  1.00  0.00     0.041 A 
ATOM     83  F   UNL A   1      39.400  25.995  29.402  1.00  0.00    -0.206 F 
ATOM     84  C   UNL A   1      41.503  25.856  26.461  1.00  0.00     0.022 A 
BRANCH  81  85
ATOM     85  S   UNL A   1      43.503  27.491  25.416  1.00  0.00     0.124 S 
ATOM     86  O   UNL A   1      44.277  26.273  25.205  1.00  0.00    -0.237 OA
ATOM     87  O   UNL A   1      42.616  27.885  24.326  1.00  0.00    -0.237 OA
ATOM     88  O   UNL A   1      44.225  28.588  26.056  1.00  0.00    -0.744 OA
ENDBRANCH  81  85
ENDBRANCH  54  78
BRANCH  66  89
ATOM     89  C   UNL A   1      44.496  27.941  34.934  1.00  0.00     0.023 A 
ATOM     90  C   UNL A   1      44.271  26.785  35.703  1.00  0.00     0.031 A 
ATOM     91  C   UNL A   1      45.826  28.358  34.742  1.00  0.00     0.131 A 
ATOM     92  C   UNL A   1      45.355  26.120  36.297  1.00  0.00     0.055 A 
ATOM     93  C   UNL A   1      46.903  27.653  35.279  1.00  0.00     0.041 A 
ATOM     94  F   UNL A   1      46.100  29.456  34.021  1.00  0.00    -0.206 F 
ATOM     95  C   UNL A   1      46.671  26.535  36.073  1.00  0.00     0.022 A 
BRANCH  92  96
ATOM     96  S   UNL A   1      45.017  24.760  37.449  1.00  0.00     0.124 S 
ATOM     97  O   UNL A   1      43.801  25.220  38.112  1.00  0.00    -0.237 OA
ATOM     98  O   UNL A   1      44.862  23.621  36.550  1.00  0.00    -0.237 OA
ATOM     99  O   UNL A   1      46.209  24.724  38.296  1.00  0.00    -0.744 OA
ENDBRANCH  92  96
ENDBRANCH  66  89
ENDBRANCH  40  41
ENDBRANCH  32  35
ENDBRANCH  30  31
ENDBRANCH  29  30
ENDBRANCH  28  29
ENDBRANCH  27  28
ENDBRANCH   1  27
TORSDOF 21
ENDMDL
MODEL 3
REMARK VINA RESULT:     -10.2      1.882      2.171
REMARK SMILES COCCNC(=O)NC(=O)C[N@H+]1CC[C@H](C(=O)NCCCCCCNC(=O)c2ccc(-c3c4nc(c(-c5cc(S(=O)(=O)[O-])ccc5F)c5ccc([nH]5)c(-c5cc(S(=O)(=O)[O-])ccc5F)c5nc(c(-c6cc(S(=O)(=O)[O-])ccc6F)c6ccc3[nH]6)C=C5)C=C4)cc2)[C@@H]1C
REMARK SMILES IDX 20 1 19 2 18 3 16 4 17 5 15 7 12 8 13 9 91 10 14 12 92 13
REMARK SMILES IDX 11 14 9 15 5 16 6 17 7 19 8 20 10 22 4 23 3 24 2 25 1 26
REMARK SMILES IDX 21 27 22 28 23 29 24 30 25 31 26 32 27 34 28 35 29 36 90 37
REMARK SMILES IDX 30 38 89 39 31 40 32 41 33 42 83 43 34 44 88 45 82 46 84 47
REMARK SMILES IDX 35 48 87 49 81 50 80 51 36 53 68 54 48 55 67 56 49 57 52 58
REMARK SMILES IDX 66 59 85 60 50 61 51 62 65 64 86 65 53 66 37 67 38 68 46 69
REMARK SMILES IDX 39 70 45 71 47 72 44 73 40 74 41 75 42 76 43 77 69 78 70 79
REMARK SMILES IDX 78 80 71 81 77 82 79 83 76 84 72 85 73 86 74 87 75 88 54 89
REMARK SMILES IDX 55 90 63 91 56 92 62 93 64 94 61 95 57 96 58 97 59 98 60 99
REMARK H PARENT 18 6 12 11 5 18 8 21 25 33 84 52 52 63
REMARK Flexibility Score: inf
ROOT
ATOM      1  C   UNL A   1      32.721  28.917  26.965  1.00  0.00     0.021 C 
ENDROOT
BRANCH   1   2
ATOM      2  C   UNL A   1      31.718  28.531  25.883  1.00  0.00     0.116 C 
BRANCH   2   3
ATOM      3  N   UNL A   1      32.377  28.204  24.629  1.00  0.00    -0.356 N 
ATOM      4  C   UNL A   1      32.344  27.040  23.920  1.00  0.00     0.229 C 
ATOM      5  O   UNL A   1      32.876  27.022  22.814  1.00  0.00    -0.275 OA
ATOM      6  H   UNL A   1      32.925  28.923  24.239  1.00  0.00     0.163 HD
BRANCH   4   7
ATOM      7  C   UNL A   1      31.625  25.869  24.550  1.00  0.00     0.142 C 
ATOM      8  N   UNL A   1      31.560  23.499  24.193  1.00  0.00    -0.324 N 
ATOM      9  C   UNL A   1      30.571  24.081  23.298  1.00  0.00     0.263 C 
ATOM     10  C   UNL A   1      32.386  24.564  24.752  1.00  0.00     0.194 C 
ATOM     11  H   UNL A   1      32.126  22.897  23.597  1.00  0.00     0.348 HD
ATOM     12  C   UNL A   1      30.360  25.507  23.777  1.00  0.00     0.081 C 
ATOM     13  C   UNL A   1      33.825  24.444  24.268  1.00  0.00     0.076 C 
BRANCH   8  14
ATOM     14  C   UNL A   1      31.162  22.443  25.127  1.00  0.00     0.364 C 
BRANCH  14  15
ATOM     15  C   UNL A   1      31.420  22.683  26.610  1.00  0.00     0.283 C 
ATOM     16  N   UNL A   1      33.926  20.692  26.096  1.00  0.00    -0.335 N 
ATOM     17  C   UNL A   1      33.726  21.796  26.843  1.00  0.00     0.321 C 
ATOM     18  H   UNL A   1      34.771  20.681  25.592  1.00  0.00     0.165 HD
ATOM     19  O   UNL A   1      34.707  22.450  27.192  1.00  0.00    -0.248 OA
ATOM     20  N   UNL A   1      32.483  22.122  27.277  1.00  0.00    -0.273 N 
ATOM     21  H   UNL A   1      32.314  21.924  28.226  1.00  0.00     0.175 HD
ATOM     22  O   UNL A   1      30.656  23.401  27.267  1.00  0.00    -0.268 OA
BRANCH  16  23
ATOM     23  C   UNL A   1      33.092  19.517  25.920  1.00  0.00     0.146 C 
BRANCH  23  24
ATOM     24  C   UNL A   1      33.528  18.591  24.772  1.00  0.00     0.181 C 
BRANCH  24  25
ATOM     25  O   UNL A   1      32.847  17.335  24.746  1.00  0.00    -0.383 OA
ATOM     26  C   UNL A   1      33.446  16.336  23.929  1.00  0.00     0.194 C 
ENDBRANCH  24  25
ENDBRANCH  23  24
ENDBRANCH  16  23
ENDBRANCH  14  15
ENDBRANCH   8  14
ENDBRANCH   4   7
ENDBRANCH   2   3
ENDBRANCH   1   2
BRANCH   1  27
ATOM     27  C   UNL A   1      32.835  30.424  27.210  1.00  0.00     0.002 C 
BRANCH  27  28
ATOM     28  C   UNL A   1      31.750  31.265  26.530  1.00  0.00     0.002 C 
BRANCH  28  29
ATOM     29  C   UNL A   1      31.683  32.716  27.005  1.00  0.00     0.021 C 
BRANCH  29  30
ATOM     30  C   UNL A   1      33.030  33.300  27.402  1.00  0.00     0.116 C 
BRANCH  30  31
ATOM     31  N   UNL A   1      32.884  34.577  28.081  1.00  0.00    -0.352 N 
ATOM     32  C   UNL A   1      33.506  35.017  29.223  1.00  0.00     0.251 C 
ATOM     33  H   UNL A   1      32.255  35.212  27.666  1.00  0.00     0.163 HD
ATOM     34  O   UNL A   1      33.109  36.022  29.795  1.00  0.00    -0.269 OA
BRANCH  32  35
ATOM     35  C   UNL A   1      34.644  34.239  29.753  1.00  0.00     0.039 A 
ATOM     36  C   UNL A   1      35.933  34.528  29.303  1.00  0.00     0.014 A 
ATOM     37  C   UNL A   1      34.432  33.254  30.723  1.00  0.00     0.014 A 
ATOM     38  C   UNL A   1      37.019  33.860  29.869  1.00  0.00     0.010 A 
ATOM     39  C   UNL A   1      35.520  32.655  31.344  1.00  0.00     0.010 A 
ATOM     40  C   UNL A   1      36.825  32.946  30.919  1.00  0.00    -0.014 A 
BRANCH  40  41
ATOM     41  C   UNL A   1      37.975  32.275  31.576  1.00  0.00     0.031 A 
ATOM     42  C   UNL A   1      38.673  31.136  30.884  1.00  0.00     0.074 A 
ATOM     43  C   UNL A   1      38.351  32.656  32.812  1.00  0.00     0.049 A 
ATOM     44  N   UNL A   1      39.652  30.383  31.314  1.00  0.00    -0.248 NA
ATOM     45  C   UNL A   1      38.183  30.776  29.544  1.00  0.00     0.031 C 
ATOM     46  C   UNL A   1      37.721  33.721  33.595  1.00  0.00     0.029 A 
ATOM     47  N   UNL A   1      39.349  32.190  33.631  1.00  0.00    -0.354 N 
ATOM     48  C   UNL A   1      39.889  29.457  30.304  1.00  0.00     0.074 A 
ATOM     49  C   UNL A   1      38.903  29.699  29.273  1.00  0.00     0.031 C 
ATOM     50  C   UNL A   1      38.368  33.850  34.764  1.00  0.00     0.029 A 
ATOM     51  C   UNL A   1      39.422  32.843  34.840  1.00  0.00     0.049 A 
ATOM     52  H   UNL A   1      39.957  31.459  33.376  1.00  0.00     0.167 HD
ATOM     53  C   UNL A   1      40.856  28.510  30.233  1.00  0.00     0.034 A 
ATOM     54  C   UNL A   1      40.236  32.644  35.895  1.00  0.00     0.034 A 
ATOM     55  C   UNL A   1      41.835  28.290  31.270  1.00  0.00     0.049 A 
ATOM     56  C   UNL A   1      41.280  31.558  35.809  1.00  0.00     0.074 A 
ATOM     57  C   UNL A   1      42.890  27.394  31.283  1.00  0.00     0.029 A 
ATOM     58  N   UNL A   1      41.872  28.962  32.486  1.00  0.00    -0.354 N 
ATOM     59  N   UNL A   1      41.526  30.724  34.825  1.00  0.00    -0.248 NA
ATOM     60  C   UNL A   1      42.163  31.394  36.970  1.00  0.00     0.031 C 
ATOM     61  C   UNL A   1      43.511  27.467  32.533  1.00  0.00     0.029 A 
ATOM     62  C   UNL A   1      42.907  28.474  33.268  1.00  0.00     0.049 A 
ATOM     63  H   UNL A   1      41.252  29.679  32.753  1.00  0.00     0.167 HD
ATOM     64  C   UNL A   1      42.616  29.962  35.236  1.00  0.00     0.074 A 
ATOM     65  C   UNL A   1      42.985  30.444  36.551  1.00  0.00     0.031 C 
ATOM     66  C   UNL A   1      43.259  28.960  34.583  1.00  0.00     0.034 A 
BRANCH  53  67
ATOM     67  C   UNL A   1      40.881  27.628  29.005  1.00  0.00     0.023 A 
ATOM     68  C   UNL A   1      41.840  27.798  27.990  1.00  0.00     0.031 A 
ATOM     69  C   UNL A   1      39.915  26.621  28.832  1.00  0.00     0.131 A 
ATOM     70  C   UNL A   1      41.765  27.031  26.819  1.00  0.00     0.055 A 
ATOM     71  C   UNL A   1      39.900  25.800  27.703  1.00  0.00     0.041 A 
ATOM     72  F   UNL A   1      38.957  26.426  29.752  1.00  0.00    -0.206 F 
ATOM     73  C   UNL A   1      40.819  26.013  26.679  1.00  0.00     0.022 A 
BRANCH  70  74
ATOM     74  S   UNL A   1      42.818  27.490  25.415  1.00  0.00     0.124 S 
ATOM     75  O   UNL A   1      42.007  28.514  24.760  1.00  0.00    -0.237 OA
ATOM     76  O   UNL A   1      44.032  27.961  26.073  1.00  0.00    -0.237 OA
ATOM     77  O   UNL A   1      42.956  26.243  24.667  1.00  0.00    -0.744 OA
ENDBRANCH  70  74
ENDBRANCH  53  67
BRANCH  54  78
ATOM     78  C   UNL A   1      40.096  33.475  37.126  1.00  0.00     0.023 A 
ATOM     79  C   UNL A   1      39.455  32.975  38.270  1.00  0.00     0.031 A 
ATOM     80  C   UNL A   1      40.567  34.800  37.163  1.00  0.00     0.131 A 
ATOM     81  C   UNL A   1      39.256  33.807  39.382  1.00  0.00     0.055 A 
ATOM     82  C   UNL A   1      40.421  35.605  38.295  1.00  0.00     0.041 A 
ATOM     83  F   UNL A   1      41.190  35.330  36.098  1.00  0.00    -0.206 F 
ATOM     84  C   UNL A   1      39.749  35.113  39.409  1.00  0.00     0.022 A 
BRANCH  81  85
ATOM     85  S   UNL A   1      38.256  33.187  40.762  1.00  0.00     0.124 S 
ATOM     86  O   UNL A   1      36.984  32.910  40.105  1.00  0.00    -0.237 OA
ATOM     87  O   UNL A   1      39.022  32.023  41.193  1.00  0.00    -0.237 OA
ATOM     88  O   UNL A   1      38.243  34.306  41.702  1.00  0.00    -0.744 OA
ENDBRANCH  81  85
ENDBRANCH  54  78
BRANCH  66  89
ATOM     89  C   UNL A   1      44.464  28.355  35.263  1.00  0.00     0.023 A 
ATOM     90  C   UNL A   1      45.760  28.870  35.081  1.00  0.00     0.031 A 
ATOM     91  C   UNL A   1      44.308  27.242  36.109  1.00  0.00     0.131 A 
ATOM     92  C   UNL A   1      46.854  28.239  35.693  1.00  0.00     0.055 A 
ATOM     93  C   UNL A   1      45.392  26.660  36.768  1.00  0.00     0.041 A 
ATOM     94  F   UNL A   1      43.096  26.705  36.316  1.00  0.00    -0.206 F 
ATOM     95  C   UNL A   1      46.676  27.150  36.551  1.00  0.00     0.022 A 
BRANCH  92  96
ATOM     96  S   UNL A   1      48.528  28.799  35.275  1.00  0.00     0.124 S 
ATOM     97  O   UNL A   1      48.854  27.953  34.131  1.00  0.00    -0.237 OA
ATOM     98  O   UNL A   1      48.320  30.213  34.982  1.00  0.00    -0.237 OA
ATOM     99  O   UNL A   1      49.295  28.523  36.489  1.00  0.00    -0.744 OA
ENDBRANCH  92  96
ENDBRANCH  66  89
ENDBRANCH  40  41
ENDBRANCH  32  35
ENDBRANCH  30  31
ENDBRANCH  29  30
ENDBRANCH  28  29
ENDBRANCH  27  28
ENDBRANCH   1  27
TORSDOF 21
ENDMDL
