MODEL 1
REMARK VINA RESULT:      -9.9      0.000      0.000
REMARK SMILES CCN(C(=O)N(CCOC)CC(=O)NCCCCCCNC(=O)c1ccc(-c2c3nc(c(-c4cc(S(=O)(=O)[O-])ccc4F)c4ccc([nH]4)c(-c4cc(S(=O)(=O)[O-])ccc4F)c4nc(c(-c5cc(S(=O)(=O)[O-])ccc5F)c5ccc2[nH]5)C=C4)C=C3)cc1)C1CCCC1
REMARK SMILES IDX 17 1 16 2 15 3 14 4 12 5 13 6 11 8 6 9 4 10 5 11 3 12 2 13
REMARK SMILES IDX 1 14 87 15 88 16 91 17 89 18 90 19 7 20 8 21 9 22 10 23
REMARK SMILES IDX 18 24 19 25 20 26 21 27 22 28 23 30 24 31 25 32 86 33 26 34
REMARK SMILES IDX 85 35 27 36 28 37 29 38 79 39 30 40 84 41 78 42 80 43 31 44
REMARK SMILES IDX 83 45 77 46 76 47 32 49 64 50 44 51 63 52 45 53 48 54 62 55
REMARK SMILES IDX 81 56 46 57 47 58 61 60 82 61 49 62 33 63 34 64 42 65 35 66
REMARK SMILES IDX 41 67 43 68 40 69 36 70 37 71 38 72 39 73 65 74 66 75 74 76
REMARK SMILES IDX 67 77 73 78 75 79 72 80 68 81 69 82 70 83 71 84 50 85 51 86
REMARK SMILES IDX 59 87 52 88 58 89 60 90 57 91 53 92 54 93 55 94 56 95
REMARK H PARENT 14 7 21 29 80 48 48 59
REMARK Flexibility Score: inf
ROOT
ATOM      1  C   UNL A   1      33.334  28.941  23.994  1.00  0.00     0.002 C 
ENDROOT
BRANCH   1   2
ATOM      2  C   UNL A   1      32.986  28.589  22.549  1.00  0.00     0.021 C 
BRANCH   2   3
ATOM      3  C   UNL A   1      32.100  27.364  22.372  1.00  0.00     0.116 C 
BRANCH   3   4
ATOM      4  N   UNL A   1      32.766  26.210  21.819  1.00  0.00    -0.355 N 
ATOM      5  C   UNL A   1      33.437  25.207  22.465  1.00  0.00     0.239 C 
ATOM      6  O   UNL A   1      33.620  24.165  21.821  1.00  0.00    -0.273 OA
ATOM      7  H   UNL A   1      32.736  26.134  20.838  1.00  0.00     0.163 HD
BRANCH   5   8
ATOM      8  C   UNL A   1      33.765  25.249  23.979  1.00  0.00     0.221 C 
BRANCH   8   9
ATOM      9  N   UNL A   1      33.004  24.383  24.895  1.00  0.00    -0.313 N 
BRANCH   9  10
ATOM     10  C   UNL A   1      33.805  23.449  25.535  1.00  0.00     0.320 C 
ATOM     11  O   UNL A   1      33.983  23.574  26.753  1.00  0.00    -0.248 OA
BRANCH  10  12
ATOM     12  N   UNL A   1      34.346  22.358  24.875  1.00  0.00    -0.322 N 
BRANCH  12  13
ATOM     13  C   UNL A   1      35.613  22.279  24.144  1.00  0.00     0.118 C 
ATOM     14  C   UNL A   1      36.627  23.286  24.684  1.00  0.00     0.027 C 
ENDBRANCH  12  13
BRANCH  12  15
ATOM     15  C   UNL A   1      33.541  21.118  24.818  1.00  0.00     0.087 C 
ATOM     16  C   UNL A   1      32.729  20.930  23.535  1.00  0.00     0.025 C 
ATOM     17  C   UNL A   1      34.308  19.800  25.002  1.00  0.00     0.025 C 
ATOM     18  C   UNL A   1      32.322  19.466  23.596  1.00  0.00     0.002 C 
ATOM     19  C   UNL A   1      33.499  18.744  24.246  1.00  0.00     0.002 C 
ENDBRANCH  12  15
ENDBRANCH  10  12
ENDBRANCH   9  10
BRANCH   9  20
ATOM     20  C   UNL A   1      31.561  24.271  24.594  1.00  0.00     0.150 C 
BRANCH  20  21
ATOM     21  C   UNL A   1      30.601  24.919  25.617  1.00  0.00     0.181 C 
BRANCH  21  22
ATOM     22  O   UNL A   1      30.706  24.276  26.891  1.00  0.00    -0.383 OA
ATOM     23  C   UNL A   1      30.265  22.926  26.909  1.00  0.00     0.194 C 
ENDBRANCH  21  22
ENDBRANCH  20  21
ENDBRANCH   9  20
ENDBRANCH   8   9
ENDBRANCH   5   8
ENDBRANCH   3   4
ENDBRANCH   2   3
ENDBRANCH   1   2
BRANCH   1  24
ATOM     24  C   UNL A   1      32.161  29.355  24.890  1.00  0.00     0.002 C 
BRANCH  24  25
ATOM     25  C   UNL A   1      32.107  28.723  26.286  1.00  0.00     0.021 C 
BRANCH  25  26
ATOM     26  C   UNL A   1      33.168  29.192  27.280  1.00  0.00     0.116 C 
BRANCH  26  27
ATOM     27  N   UNL A   1      33.267  30.637  27.355  1.00  0.00    -0.352 N 
ATOM     28  C   UNL A   1      34.248  31.439  27.882  1.00  0.00     0.251 C 
ATOM     29  H   UNL A   1      32.505  31.122  26.965  1.00  0.00     0.163 HD
ATOM     30  O   UNL A   1      34.040  32.647  27.960  1.00  0.00    -0.269 OA
BRANCH  28  31
ATOM     31  C   UNL A   1      35.529  30.876  28.372  1.00  0.00     0.039 A 
ATOM     32  C   UNL A   1      35.481  29.895  29.368  1.00  0.00     0.014 A 
ATOM     33  C   UNL A   1      36.768  31.337  27.918  1.00  0.00     0.014 A 
ATOM     34  C   UNL A   1      36.664  29.353  29.878  1.00  0.00     0.010 A 
ATOM     35  C   UNL A   1      37.948  30.745  28.377  1.00  0.00     0.010 A 
ATOM     36  C   UNL A   1      37.909  29.757  29.373  1.00  0.00    -0.014 A 
BRANCH  36  37
ATOM     37  C   UNL A   1      39.170  29.169  29.902  1.00  0.00     0.031 A 
ATOM     38  C   UNL A   1      39.806  29.730  31.148  1.00  0.00     0.074 A 
ATOM     39  C   UNL A   1      39.754  28.145  29.249  1.00  0.00     0.049 A 
ATOM     40  N   UNL A   1      40.907  29.363  31.754  1.00  0.00    -0.248 NA
ATOM     41  C   UNL A   1      39.128  30.872  31.777  1.00  0.00     0.031 C 
ATOM     42  C   UNL A   1      39.258  27.542  28.011  1.00  0.00     0.029 A 
ATOM     43  N   UNL A   1      40.890  27.428  29.533  1.00  0.00    -0.354 N 
ATOM     44  C   UNL A   1      41.058  30.232  32.830  1.00  0.00     0.074 A 
ATOM     45  C   UNL A   1      39.971  31.185  32.750  1.00  0.00     0.031 C 
ATOM     46  C   UNL A   1      40.064  26.527  27.661  1.00  0.00     0.029 A 
ATOM     47  C   UNL A   1      41.157  26.431  28.623  1.00  0.00     0.049 A 
ATOM     48  H   UNL A   1      41.460  27.610  30.315  1.00  0.00     0.167 HD
ATOM     49  C   UNL A   1      41.999  30.221  33.808  1.00  0.00     0.034 A 
ATOM     50  C   UNL A   1      42.168  25.540  28.570  1.00  0.00     0.034 A 
ATOM     51  C   UNL A   1      43.070  29.256  33.880  1.00  0.00     0.049 A 
ATOM     52  C   UNL A   1      43.207  25.553  29.663  1.00  0.00     0.074 A 
ATOM     53  C   UNL A   1      44.050  29.123  34.850  1.00  0.00     0.029 A 
ATOM     54  N   UNL A   1      43.308  28.258  32.942  1.00  0.00    -0.354 N 
ATOM     55  N   UNL A   1      43.305  26.350  30.703  1.00  0.00    -0.248 NA
ATOM     56  C   UNL A   1      44.259  24.532  29.584  1.00  0.00     0.031 C 
ATOM     57  C   UNL A   1      44.916  28.093  34.464  1.00  0.00     0.029 A 
ATOM     58  C   UNL A   1      44.433  27.528  33.295  1.00  0.00     0.049 A 
ATOM     59  H   UNL A   1      42.758  28.094  32.141  1.00  0.00     0.167 HD
ATOM     60  C   UNL A   1      44.412  25.903  31.418  1.00  0.00     0.074 A 
ATOM     61  C   UNL A   1      44.932  24.755  30.702  1.00  0.00     0.031 C 
ATOM     62  C   UNL A   1      44.951  26.394  32.564  1.00  0.00     0.034 A 
BRANCH  49  63
ATOM     63  C   UNL A   1      41.920  31.304  34.861  1.00  0.00     0.023 A 
ATOM     64  C   UNL A   1      40.869  31.351  35.796  1.00  0.00     0.031 A 
ATOM     65  C   UNL A   1      42.890  32.321  34.916  1.00  0.00     0.131 A 
ATOM     66  C   UNL A   1      40.767  32.432  36.685  1.00  0.00     0.055 A 
ATOM     67  C   UNL A   1      42.831  33.347  35.861  1.00  0.00     0.041 A 
ATOM     68  F   UNL A   1      43.906  32.344  34.038  1.00  0.00    -0.206 F 
ATOM     69  C   UNL A   1      41.755  33.417  36.742  1.00  0.00     0.022 A 
BRANCH  66  70
ATOM     70  S   UNL A   1      39.246  32.614  37.656  1.00  0.00     0.124 S 
ATOM     71  O   UNL A   1      39.778  32.762  39.009  1.00  0.00    -0.237 OA
ATOM     72  O   UNL A   1      38.641  33.805  37.073  1.00  0.00    -0.237 OA
ATOM     73  O   UNL A   1      38.530  31.364  37.410  1.00  0.00    -0.744 OA
ENDBRANCH  66  70
ENDBRANCH  49  63
BRANCH  50  74
ATOM     74  C   UNL A   1      42.253  24.560  27.449  1.00  0.00     0.023 A 
ATOM     75  C   UNL A   1      41.480  23.387  27.451  1.00  0.00     0.031 A 
ATOM     76  C   UNL A   1      43.144  24.759  26.380  1.00  0.00     0.131 A 
ATOM     77  C   UNL A   1      41.650  22.436  26.432  1.00  0.00     0.055 A 
ATOM     78  C   UNL A   1      43.269  23.836  25.341  1.00  0.00     0.041 A 
ATOM     79  F   UNL A   1      43.903  25.866  26.325  1.00  0.00    -0.206 F 
ATOM     80  C   UNL A   1      42.529  22.659  25.370  1.00  0.00     0.022 A 
BRANCH  77  81
ATOM     81  S   UNL A   1      40.765  20.857  26.564  1.00  0.00     0.124 S 
ATOM     82  O   UNL A   1      39.457  21.204  26.018  1.00  0.00    -0.237 OA
ATOM     83  O   UNL A   1      41.591  19.979  25.743  1.00  0.00    -0.237 OA
ATOM     84  O   UNL A   1      40.789  20.574  27.997  1.00  0.00    -0.744 OA
ENDBRANCH  77  81
ENDBRANCH  50  74
BRANCH  62  85
ATOM     85  C   UNL A   1      46.141  25.655  33.130  1.00  0.00     0.023 A 
ATOM     86  C   UNL A   1      47.430  25.799  32.586  1.00  0.00     0.031 A 
ATOM     87  C   UNL A   1      45.976  24.766  34.208  1.00  0.00     0.131 A 
ATOM     88  C   UNL A   1      48.486  25.012  33.070  1.00  0.00     0.055 A 
ATOM     89  C   UNL A   1      47.046  24.038  34.732  1.00  0.00     0.041 A 
ATOM     90  F   UNL A   1      44.769  24.587  34.767  1.00  0.00    -0.206 F 
ATOM     91  C   UNL A   1      48.306  24.145  34.152  1.00  0.00     0.022 A 
BRANCH  88  92
ATOM     92  S   UNL A   1      50.072  25.048  32.190  1.00  0.00     0.124 S 
ATOM     93  O   UNL A   1      50.513  23.662  32.303  1.00  0.00    -0.237 OA
ATOM     94  O   UNL A   1      49.677  25.485  30.855  1.00  0.00    -0.237 OA
ATOM     95  O   UNL A   1      50.863  26.015  32.949  1.00  0.00    -0.744 OA
ENDBRANCH  88  92
ENDBRANCH  62  85
ENDBRANCH  36  37
ENDBRANCH  28  31
ENDBRANCH  26  27
ENDBRANCH  25  26
ENDBRANCH  24  25
ENDBRANCH   1  24
TORSDOF 24
ENDMDL
MODEL 2
REMARK VINA RESULT:      -9.5      5.242      9.991
REMARK SMILES CCN(C(=O)N(CCOC)CC(=O)NCCCCCCNC(=O)c1ccc(-c2c3nc(c(-c4cc(S(=O)(=O)[O-])ccc4F)c4ccc([nH]4)c(-c4cc(S(=O)(=O)[O-])ccc4F)c4nc(c(-c5cc(S(=O)(=O)[O-])ccc5F)c5ccc2[nH]5)C=C4)C=C3)cc1)C1CCCC1
REMARK SMILES IDX 17 1 16 2 15 3 14 4 12 5 13 6 11 8 6 9 4 10 5 11 3 12 2 13
REMARK SMILES IDX 1 14 87 15 88 16 91 17 89 18 90 19 7 20 8 21 9 22 10 23
REMARK SMILES IDX 18 24 19 25 20 26 21 27 22 28 23 30 24 31 25 32 86 33 26 34
REMARK SMILES IDX 85 35 27 36 28 37 29 38 79 39 30 40 84 41 78 42 80 43 31 44
REMARK SMILES IDX 83 45 77 46 76 47 32 49 64 50 44 51 63 52 45 53 48 54 62 55
REMARK SMILES IDX 81 56 46 57 47 58 61 60 82 61 49 62 33 63 34 64 42 65 35 66
REMARK SMILES IDX 41 67 43 68 40 69 36 70 37 71 38 72 39 73 65 74 66 75 74 76
REMARK SMILES IDX 67 77 73 78 75 79 72 80 68 81 69 82 70 83 71 84 50 85 51 86
REMARK SMILES IDX 59 87 52 88 58 89 60 90 57 91 53 92 54 93 55 94 56 95
REMARK H PARENT 14 7 21 29 80 48 48 59
REMARK Flexibility Score: inf
ROOT
ATOM      1  C   UNL A   1      40.300  22.749  26.328  1.00  0.00     0.002 C 
ENDROOT
BRANCH   1   2
ATOM      2  C   UNL A   1      39.007  23.536  26.530  1.00  0.00     0.021 C 
BRANCH   2   3
ATOM      3  C   UNL A   1      37.788  22.987  25.803  1.00  0.00     0.116 C 
BRANCH   3   4
ATOM      4  N   UNL A   1      36.573  22.978  26.579  1.00  0.00    -0.355 N 
ATOM      5  C   UNL A   1      35.399  23.645  26.356  1.00  0.00     0.239 C 
ATOM      6  O   UNL A   1      34.402  23.218  26.954  1.00  0.00    -0.273 OA
ATOM      7  H   UNL A   1      36.590  22.412  27.385  1.00  0.00     0.163 HD
BRANCH   5   8
ATOM      8  C   UNL A   1      35.239  24.729  25.260  1.00  0.00     0.221 C 
BRANCH   8   9
ATOM      9  N   UNL A   1      34.070  24.670  24.367  1.00  0.00    -0.313 N 
BRANCH   9  10
ATOM     10  C   UNL A   1      34.036  23.508  23.610  1.00  0.00     0.320 C 
ATOM     11  O   UNL A   1      34.989  23.279  22.855  1.00  0.00    -0.248 OA
BRANCH  10  12
ATOM     12  N   UNL A   1      33.017  22.577  23.724  1.00  0.00    -0.322 N 
BRANCH  12  13
ATOM     13  C   UNL A   1      31.600  22.815  24.009  1.00  0.00     0.118 C 
ATOM     14  C   UNL A   1      31.341  22.869  25.514  1.00  0.00     0.027 C 
ENDBRANCH  12  13
BRANCH  12  15
ATOM     15  C   UNL A   1      33.377  21.146  23.621  1.00  0.00     0.087 C 
ATOM     16  C   UNL A   1      33.970  20.531  24.891  1.00  0.00     0.025 C 
ATOM     17  C   UNL A   1      32.249  20.189  23.204  1.00  0.00     0.025 C 
ATOM     18  C   UNL A   1      33.892  19.037  24.620  1.00  0.00     0.002 C 
ATOM     19  C   UNL A   1      32.609  18.835  23.819  1.00  0.00     0.002 C 
ENDBRANCH  12  15
ENDBRANCH  10  12
ENDBRANCH   9  10
BRANCH   9  20
ATOM     20  C   UNL A   1      33.478  25.980  24.026  1.00  0.00     0.150 C 
BRANCH  20  21
ATOM     21  C   UNL A   1      32.759  26.066  22.661  1.00  0.00     0.181 C 
BRANCH  21  22
ATOM     22  O   UNL A   1      32.327  27.404  22.397  1.00  0.00    -0.383 OA
ATOM     23  C   UNL A   1      30.922  27.596  22.468  1.00  0.00     0.194 C 
ENDBRANCH  21  22
ENDBRANCH  20  21
ENDBRANCH   9  20
ENDBRANCH   8   9
ENDBRANCH   5   8
ENDBRANCH   3   4
ENDBRANCH   2   3
ENDBRANCH   1   2
BRANCH   1  24
ATOM     24  C   UNL A   1      40.472  21.498  27.196  1.00  0.00     0.002 C 
BRANCH  24  25
ATOM     25  C   UNL A   1      40.726  20.179  26.457  1.00  0.00     0.021 C 
BRANCH  25  26
ATOM     26  C   UNL A   1      42.012  19.440  26.820  1.00  0.00     0.116 C 
BRANCH  26  27
ATOM     27  N   UNL A   1      42.896  19.258  25.684  1.00  0.00    -0.352 N 
ATOM     28  C   UNL A   1      43.708  20.151  25.033  1.00  0.00     0.251 C 
ATOM     29  H   UNL A   1      42.914  18.344  25.321  1.00  0.00     0.163 HD
ATOM     30  O   UNL A   1      44.260  19.795  23.995  1.00  0.00    -0.269 OA
BRANCH  28  31
ATOM     31  C   UNL A   1      43.912  21.528  25.543  1.00  0.00     0.039 A 
ATOM     32  C   UNL A   1      43.701  22.596  24.663  1.00  0.00     0.014 A 
ATOM     33  C   UNL A   1      44.362  21.784  26.842  1.00  0.00     0.014 A 
ATOM     34  C   UNL A   1      43.904  23.910  25.093  1.00  0.00     0.010 A 
ATOM     35  C   UNL A   1      44.496  23.100  27.291  1.00  0.00     0.010 A 
ATOM     36  C   UNL A   1      44.283  24.177  26.417  1.00  0.00    -0.014 A 
BRANCH  36  37
ATOM     37  C   UNL A   1      44.483  25.577  26.881  1.00  0.00     0.031 A 
ATOM     38  C   UNL A   1      45.849  26.210  26.823  1.00  0.00     0.074 A 
ATOM     39  C   UNL A   1      43.439  26.271  27.377  1.00  0.00     0.049 A 
ATOM     40  N   UNL A   1      46.225  27.409  27.192  1.00  0.00    -0.248 NA
ATOM     41  C   UNL A   1      46.942  25.372  26.308  1.00  0.00     0.031 C 
ATOM     42  C   UNL A   1      42.076  25.755  27.523  1.00  0.00     0.029 A 
ATOM     43  N   UNL A   1      43.356  27.559  27.846  1.00  0.00    -0.354 N 
ATOM     44  C   UNL A   1      47.595  27.467  26.961  1.00  0.00     0.074 A 
ATOM     45  C   UNL A   1      47.993  26.159  26.485  1.00  0.00     0.031 C 
ATOM     46  C   UNL A   1      41.289  26.725  28.015  1.00  0.00     0.029 A 
ATOM     47  C   UNL A   1      42.094  27.918  28.258  1.00  0.00     0.049 A 
ATOM     48  H   UNL A   1      44.129  28.168  27.886  1.00  0.00     0.167 HD
ATOM     49  C   UNL A   1      48.440  28.520  27.108  1.00  0.00     0.034 A 
ATOM     50  C   UNL A   1      41.636  29.076  28.773  1.00  0.00     0.034 A 
ATOM     51  C   UNL A   1      48.024  29.822  27.573  1.00  0.00     0.049 A 
ATOM     52  C   UNL A   1      42.594  30.230  28.934  1.00  0.00     0.074 A 
ATOM     53  C   UNL A   1      48.784  30.971  27.714  1.00  0.00     0.029 A 
ATOM     54  N   UNL A   1      46.737  30.151  27.978  1.00  0.00    -0.354 N 
ATOM     55  N   UNL A   1      43.878  30.284  28.662  1.00  0.00    -0.248 NA
ATOM     56  C   UNL A   1      42.034  31.484  29.454  1.00  0.00     0.031 C 
ATOM     57  C   UNL A   1      47.974  31.970  28.268  1.00  0.00     0.029 A 
ATOM     58  C   UNL A   1      46.688  31.472  28.396  1.00  0.00     0.049 A 
ATOM     59  H   UNL A   1      45.969  29.533  27.970  1.00  0.00     0.167 HD
ATOM     60  C   UNL A   1      44.271  31.589  28.948  1.00  0.00     0.074 A 
ATOM     61  C   UNL A   1      43.083  32.290  29.392  1.00  0.00     0.031 C 
ATOM     62  C   UNL A   1      45.500  32.157  28.851  1.00  0.00     0.034 A 
BRANCH  49  63
ATOM     63  C   UNL A   1      49.899  28.291  26.783  1.00  0.00     0.023 A 
ATOM     64  C   UNL A   1      50.395  28.424  25.473  1.00  0.00     0.031 A 
ATOM     65  C   UNL A   1      50.804  27.907  27.789  1.00  0.00     0.131 A 
ATOM     66  C   UNL A   1      51.729  28.095  25.190  1.00  0.00     0.055 A 
ATOM     67  C   UNL A   1      52.152  27.665  27.516  1.00  0.00     0.041 A 
ATOM     68  F   UNL A   1      50.388  27.742  29.055  1.00  0.00    -0.206 F 
ATOM     69  C   UNL A   1      52.619  27.741  26.207  1.00  0.00     0.022 A 
BRANCH  66  70
ATOM     70  S   UNL A   1      52.245  27.983  23.454  1.00  0.00     0.124 S 
ATOM     71  O   UNL A   1      53.563  27.365  23.579  1.00  0.00    -0.237 OA
ATOM     72  O   UNL A   1      51.201  27.152  22.868  1.00  0.00    -0.237 OA
ATOM     73  O   UNL A   1      52.258  29.376  23.011  1.00  0.00    -0.744 OA
ENDBRANCH  66  70
ENDBRANCH  49  63
BRANCH  50  74
ATOM     74  C   UNL A   1      40.205  29.213  29.173  1.00  0.00     0.023 A 
ATOM     75  C   UNL A   1      39.821  29.150  30.523  1.00  0.00     0.031 A 
ATOM     76  C   UNL A   1      39.195  29.361  28.208  1.00  0.00     0.131 A 
ATOM     77  C   UNL A   1      38.460  29.185  30.866  1.00  0.00     0.055 A 
ATOM     78  C   UNL A   1      37.846  29.451  28.558  1.00  0.00     0.041 A 
ATOM     79  F   UNL A   1      39.506  29.432  26.903  1.00  0.00    -0.206 F 
ATOM     80  C   UNL A   1      37.471  29.349  29.894  1.00  0.00     0.022 A 
BRANCH  77  81
ATOM     81  S   UNL A   1      37.995  28.925  32.600  1.00  0.00     0.124 S 
ATOM     82  O   UNL A   1      38.117  27.477  32.726  1.00  0.00    -0.237 OA
ATOM     83  O   UNL A   1      38.998  29.717  33.304  1.00  0.00    -0.237 OA
ATOM     84  O   UNL A   1      36.632  29.446  32.668  1.00  0.00    -0.744 OA
ENDBRANCH  77  81
ENDBRANCH  50  74
BRANCH  62  85
ATOM     85  C   UNL A   1      45.602  33.625  29.194  1.00  0.00     0.023 A 
ATOM     86  C   UNL A   1      45.385  34.628  28.232  1.00  0.00     0.031 A 
ATOM     87  C   UNL A   1      45.956  34.025  30.495  1.00  0.00     0.131 A 
ATOM     88  C   UNL A   1      45.597  35.974  28.564  1.00  0.00     0.055 A 
ATOM     89  C   UNL A   1      46.097  35.372  30.838  1.00  0.00     0.041 A 
ATOM     90  F   UNL A   1      46.178  33.113  31.455  1.00  0.00    -0.206 F 
ATOM     91  C   UNL A   1      45.935  36.354  29.866  1.00  0.00     0.022 A 
BRANCH  88  92
ATOM     92  S   UNL A   1      45.541  37.215  27.242  1.00  0.00     0.124 S 
ATOM     93  O   UNL A   1      46.165  38.368  27.882  1.00  0.00    -0.237 OA
ATOM     94  O   UNL A   1      46.317  36.577  26.183  1.00  0.00    -0.237 OA
ATOM     95  O   UNL A   1      44.113  37.356  26.964  1.00  0.00    -0.744 OA
ENDBRANCH  88  92
ENDBRANCH  62  85
ENDBRANCH  36  37
ENDBRANCH  28  31
ENDBRANCH  26  27
ENDBRANCH  25  26
ENDBRANCH  24  25
ENDBRANCH   1  24
TORSDOF 24
ENDMDL
MODEL 3
REMARK VINA RESULT:      -9.3      3.425      8.740
REMARK SMILES CCN(C(=O)N(CCOC)CC(=O)NCCCCCCNC(=O)c1ccc(-c2c3nc(c(-c4cc(S(=O)(=O)[O-])ccc4F)c4ccc([nH]4)c(-c4cc(S(=O)(=O)[O-])ccc4F)c4nc(c(-c5cc(S(=O)(=O)[O-])ccc5F)c5ccc2[nH]5)C=C4)C=C3)cc1)C1CCCC1
REMARK SMILES IDX 17 1 16 2 15 3 14 4 12 5 13 6 11 8 6 9 4 10 5 11 3 12 2 13
REMARK SMILES IDX 1 14 87 15 88 16 91 17 89 18 90 19 7 20 8 21 9 22 10 23
REMARK SMILES IDX 18 24 19 25 20 26 21 27 22 28 23 30 24 31 25 32 86 33 26 34
REMARK SMILES IDX 85 35 27 36 28 37 29 38 79 39 30 40 84 41 78 42 80 43 31 44
REMARK SMILES IDX 83 45 77 46 76 47 32 49 64 50 44 51 63 52 45 53 48 54 62 55
REMARK SMILES IDX 81 56 46 57 47 58 61 60 82 61 49 62 33 63 34 64 42 65 35 66
REMARK SMILES IDX 41 67 43 68 40 69 36 70 37 71 38 72 39 73 65 74 66 75 74 76
REMARK SMILES IDX 67 77 73 78 75 79 72 80 68 81 69 82 70 83 71 84 50 85 51 86
REMARK SMILES IDX 59 87 52 88 58 89 60 90 57 91 53 92 54 93 55 94 56 95
REMARK H PARENT 14 7 21 29 80 48 48 59
REMARK Flexibility Score: inf
ROOT
ATOM      1  C   UNL A   1      32.422  30.309  26.978  1.00  0.00     0.002 C 
ENDROOT
BRANCH   1   2
ATOM      2  C   UNL A   1      32.523  29.112  26.034  1.00  0.00     0.021 C 
BRANCH   2   3
ATOM      3  C   UNL A   1      32.456  27.747  26.701  1.00  0.00     0.116 C 
BRANCH   3   4
ATOM      4  N   UNL A   1      31.189  27.070  26.569  1.00  0.00    -0.355 N 
ATOM      5  C   UNL A   1      30.936  25.754  26.290  1.00  0.00     0.239 C 
ATOM      6  O   UNL A   1      29.802  25.341  26.565  1.00  0.00    -0.273 OA
ATOM      7  H   UNL A   1      30.393  27.634  26.696  1.00  0.00     0.163 HD
BRANCH   5   8
ATOM      8  C   UNL A   1      32.042  24.754  25.864  1.00  0.00     0.221 C 
BRANCH   8   9
ATOM      9  N   UNL A   1      31.788  23.857  24.725  1.00  0.00    -0.313 N 
BRANCH   9  10
ATOM     10  C   UNL A   1      31.795  22.518  25.088  1.00  0.00     0.320 C 
ATOM     11  O   UNL A   1      30.952  22.135  25.909  1.00  0.00    -0.248 OA
BRANCH  10  12
ATOM     12  N   UNL A   1      32.658  21.598  24.516  1.00  0.00    -0.322 N 
BRANCH  12  13
ATOM     13  C   UNL A   1      32.337  20.509  23.590  1.00  0.00     0.118 C 
ATOM     14  C   UNL A   1      31.981  21.049  22.205  1.00  0.00     0.027 C 
ENDBRANCH  12  13
BRANCH  12  15
ATOM     15  C   UNL A   1      34.080  21.642  24.922  1.00  0.00     0.087 C 
ATOM     16  C   UNL A   1      34.781  20.283  24.980  1.00  0.00     0.025 C 
ATOM     17  C   UNL A   1      35.002  22.532  24.074  1.00  0.00     0.025 C 
ATOM     18  C   UNL A   1      36.253  20.658  25.052  1.00  0.00     0.002 C 
ATOM     19  C   UNL A   1      36.396  21.913  24.194  1.00  0.00     0.002 C 
ENDBRANCH  12  15
ENDBRANCH  10  12
ENDBRANCH   9  10
BRANCH   9  20
ATOM     20  C   UNL A   1      32.102  24.428  23.398  1.00  0.00     0.150 C 
BRANCH  20  21
ATOM     21  C   UNL A   1      30.998  25.296  22.753  1.00  0.00     0.181 C 
BRANCH  21  22
ATOM     22  O   UNL A   1      31.559  26.462  22.144  1.00  0.00    -0.383 OA
ATOM     23  C   UNL A   1      32.979  26.493  22.124  1.00  0.00     0.194 C 
ENDBRANCH  21  22
ENDBRANCH  20  21
ENDBRANCH   9  20
ENDBRANCH   8   9
ENDBRANCH   5   8
ENDBRANCH   3   4
ENDBRANCH   2   3
ENDBRANCH   1   2
BRANCH   1  24
ATOM     24  C   UNL A   1      33.746  30.846  27.533  1.00  0.00     0.002 C 
BRANCH  24  25
ATOM     25  C   UNL A   1      33.880  32.369  27.636  1.00  0.00     0.021 C 
BRANCH  25  26
ATOM     26  C   UNL A   1      32.575  33.163  27.630  1.00  0.00     0.116 C 
BRANCH  26  27
ATOM     27  N   UNL A   1      32.778  34.581  27.853  1.00  0.00    -0.352 N 
ATOM     28  C   UNL A   1      33.652  35.238  28.681  1.00  0.00     0.251 C 
ATOM     29  H   UNL A   1      32.193  35.168  27.323  1.00  0.00     0.163 HD
ATOM     30  O   UNL A   1      33.540  36.455  28.808  1.00  0.00    -0.269 OA
BRANCH  28  31
ATOM     31  C   UNL A   1      34.702  34.511  29.434  1.00  0.00     0.039 A 
ATOM     32  C   UNL A   1      36.016  34.564  28.956  1.00  0.00     0.014 A 
ATOM     33  C   UNL A   1      34.409  33.733  30.559  1.00  0.00     0.014 A 
ATOM     34  C   UNL A   1      37.034  33.875  29.619  1.00  0.00     0.010 A 
ATOM     35  C   UNL A   1      35.439  33.102  31.262  1.00  0.00     0.010 A 
ATOM     36  C   UNL A   1      36.760  33.153  30.792  1.00  0.00    -0.014 A 
BRANCH  36  37
ATOM     37  C   UNL A   1      37.846  32.432  31.510  1.00  0.00     0.031 A 
ATOM     38  C   UNL A   1      38.570  31.290  30.845  1.00  0.00     0.074 A 
ATOM     39  C   UNL A   1      38.165  32.790  32.770  1.00  0.00     0.049 A 
ATOM     40  N   UNL A   1      39.531  30.533  31.311  1.00  0.00    -0.248 NA
ATOM     41  C   UNL A   1      38.134  30.936  29.486  1.00  0.00     0.031 C 
ATOM     42  C   UNL A   1      37.510  33.852  33.536  1.00  0.00     0.029 A 
ATOM     43  N   UNL A   1      39.120  32.305  33.628  1.00  0.00    -0.354 N 
ATOM     44  C   UNL A   1      39.810  29.610  30.308  1.00  0.00     0.074 A 
ATOM     45  C   UNL A   1      38.868  29.861  29.238  1.00  0.00     0.031 C 
ATOM     46  C   UNL A   1      38.102  33.959  34.736  1.00  0.00     0.029 A 
ATOM     47  C   UNL A   1      39.152  32.950  34.843  1.00  0.00     0.049 A 
ATOM     48  H   UNL A   1      39.726  31.564  33.396  1.00  0.00     0.167 HD
ATOM     49  C   UNL A   1      40.777  28.658  30.272  1.00  0.00     0.034 A 
ATOM     50  C   UNL A   1      39.936  32.752  35.921  1.00  0.00     0.034 A 
ATOM     51  C   UNL A   1      41.716  28.428  31.344  1.00  0.00     0.049 A 
ATOM     52  C   UNL A   1      40.999  31.683  35.861  1.00  0.00     0.074 A 
ATOM     53  C   UNL A   1      42.765  27.524  31.394  1.00  0.00     0.029 A 
ATOM     54  N   UNL A   1      41.721  29.102  32.559  1.00  0.00    -0.354 N 
ATOM     55  N   UNL A   1      41.283  30.853  34.883  1.00  0.00    -0.248 NA
ATOM     56  C   UNL A   1      41.858  31.540  37.043  1.00  0.00     0.031 C 
ATOM     57  C   UNL A   1      43.356  27.606  32.661  1.00  0.00     0.029 A 
ATOM     58  C   UNL A   1      42.732  28.616  33.373  1.00  0.00     0.049 A 
ATOM     59  H   UNL A   1      41.095  29.823  32.806  1.00  0.00     0.167 HD
ATOM     60  C   UNL A   1      42.377  30.111  35.323  1.00  0.00     0.074 A 
ATOM     61  C   UNL A   1      42.711  30.609  36.642  1.00  0.00     0.031 C 
ATOM     62  C   UNL A   1      43.046  29.111  34.694  1.00  0.00     0.034 A 
BRANCH  49  63
ATOM     63  C   UNL A   1      40.845  27.783  29.040  1.00  0.00     0.023 A 
ATOM     64  C   UNL A   1      41.810  27.991  28.037  1.00  0.00     0.031 A 
ATOM     65  C   UNL A   1      39.917  26.744  28.850  1.00  0.00     0.131 A 
ATOM     66  C   UNL A   1      41.771  27.232  26.858  1.00  0.00     0.055 A 
ATOM     67  C   UNL A   1      39.939  25.934  27.712  1.00  0.00     0.041 A 
ATOM     68  F   UNL A   1      38.958  26.508  29.760  1.00  0.00    -0.206 F 
ATOM     69  C   UNL A   1      40.859  26.186  26.699  1.00  0.00     0.022 A 
BRANCH  66  70
ATOM     70  S   UNL A   1      42.828  27.732  25.471  1.00  0.00     0.124 S 
ATOM     71  O   UNL A   1      41.947  28.644  24.745  1.00  0.00    -0.237 OA
ATOM     72  O   UNL A   1      43.966  28.344  26.146  1.00  0.00    -0.237 OA
ATOM     73  O   UNL A   1      43.111  26.474  24.784  1.00  0.00    -0.744 OA
ENDBRANCH  66  70
ENDBRANCH  49  63
BRANCH  50  74
ATOM     74  C   UNL A   1      39.756  33.578  37.150  1.00  0.00     0.023 A 
ATOM     75  C   UNL A   1      40.594  34.673  37.417  1.00  0.00     0.031 A 
ATOM     76  C   UNL A   1      38.771  33.256  38.099  1.00  0.00     0.131 A 
ATOM     77  C   UNL A   1      40.464  35.374  38.626  1.00  0.00     0.055 A 
ATOM     78  C   UNL A   1      38.610  33.991  39.275  1.00  0.00     0.041 A 
ATOM     79  F   UNL A   1      37.938  32.222  37.892  1.00  0.00    -0.206 F 
ATOM     80  C   UNL A   1      39.470  35.050  39.550  1.00  0.00     0.022 A 
BRANCH  77  81
ATOM     81  S   UNL A   1      41.678  36.667  39.013  1.00  0.00     0.124 S 
ATOM     82  O   UNL A   1      40.870  37.613  39.774  1.00  0.00    -0.237 OA
ATOM     83  O   UNL A   1      42.680  35.924  39.769  1.00  0.00    -0.237 OA
ATOM     84  O   UNL A   1      42.110  37.131  37.697  1.00  0.00    -0.744 OA
ENDBRANCH  77  81
ENDBRANCH  50  74
BRANCH  62  85
ATOM     85  C   UNL A   1      44.235  28.525  35.419  1.00  0.00     0.023 A 
ATOM     86  C   UNL A   1      44.094  27.483  36.353  1.00  0.00     0.031 A 
ATOM     87  C   UNL A   1      45.525  29.041  35.196  1.00  0.00     0.131 A 
ATOM     88  C   UNL A   1      45.208  27.043  37.084  1.00  0.00     0.055 A 
ATOM     89  C   UNL A   1      46.641  28.550  35.876  1.00  0.00     0.041 A 
ATOM     90  F   UNL A   1      45.721  30.036  34.317  1.00  0.00    -0.206 F 
ATOM     91  C   UNL A   1      46.484  27.558  36.839  1.00  0.00     0.022 A 
BRANCH  88  92
ATOM     92  S   UNL A   1      44.947  25.872  38.445  1.00  0.00     0.124 S 
ATOM     93  O   UNL A   1      44.287  24.762  37.767  1.00  0.00    -0.237 OA
ATOM     94  O   UNL A   1      46.310  25.619  38.903  1.00  0.00    -0.237 OA
ATOM     95  O   UNL A   1      44.107  26.616  39.382  1.00  0.00    -0.744 OA
ENDBRANCH  88  92
ENDBRANCH  62  85
ENDBRANCH  36  37
ENDBRANCH  28  31
ENDBRANCH  26  27
ENDBRANCH  25  26
ENDBRANCH  24  25
ENDBRANCH   1  24
TORSDOF 24
ENDMDL
