MODEL 1
REMARK VINA RESULT:     -13.0      0.000      0.000
REMARK SMILES O=C(NCCCCCCNC(=O)c1cc(-c2ccc(C(F)(F)F)cc2)cc([N+](=O)[O-])c1)c1ccc(-c2c3nc(c(-c4cc(S(=O)(=O)[O-])ccc4F)c4ccc([nH]4)c(-c4cc(S(=O)(=O)[O-])ccc4F)c4nc(c(-c5cc(S(=O)(=O)[O-])ccc5F)c5ccc2[nH]5)C=C4)C=C3)cc1
REMARK SMILES IDX 6 1 5 2 4 3 3 4 1 5 2 6 32 8 33 9 94 10 34 11 93 12 35 13
REMARK SMILES IDX 36 14 37 15 87 16 38 17 92 18 86 19 88 20 39 21 91 22 85 23
REMARK SMILES IDX 84 24 40 26 72 27 52 28 71 29 53 30 56 31 70 32 89 33 54 34
REMARK SMILES IDX 55 35 69 37 90 38 57 39 41 40 42 41 50 42 43 43 49 44 51 45
REMARK SMILES IDX 48 46 44 47 45 48 46 49 47 50 73 51 74 52 82 53 75 54 81 55
REMARK SMILES IDX 83 56 80 57 76 58 77 59 78 60 79 61 58 62 59 63 67 64 60 65
REMARK SMILES IDX 66 66 68 67 65 68 61 69 62 70 63 71 64 72 7 73 8 74 9 75
REMARK SMILES IDX 10 76 11 77 12 79 13 80 14 81 31 82 15 83 27 84 26 85 16 86
REMARK SMILES IDX 17 87 25 88 18 89 24 90 19 91 20 92 21 93 22 94 23 95 28 96
REMARK SMILES IDX 29 97 30 98
REMARK H PARENT 3 7 88 25 56 36 10 78
REMARK Flexibility Score: inf
ROOT
ATOM      1  C   UNL A   1      31.907  30.320  26.086  1.00  0.00     0.002 C 
ENDROOT
BRANCH   1   2
ATOM      2  C   UNL A   1      31.639  31.680  26.731  1.00  0.00     0.021 C 
BRANCH   2   3
ATOM      3  C   UNL A   1      32.880  32.408  27.223  1.00  0.00     0.116 C 
BRANCH   3   4
ATOM      4  N   UNL A   1      32.600  33.780  27.606  1.00  0.00    -0.352 N 
ATOM      5  O   UNL A   1      32.705  35.609  28.926  1.00  0.00    -0.269 OA
ATOM      6  C   UNL A   1      33.176  34.516  28.612  1.00  0.00     0.251 C 
ATOM      7  H   UNL A   1      31.908  34.242  27.078  1.00  0.00     0.163 HD
BRANCH   6   8
ATOM      8  C   UNL A   1      34.356  33.977  29.320  1.00  0.00     0.039 A 
ATOM      9  C   UNL A   1      34.197  33.028  30.334  1.00  0.00     0.014 A 
ATOM     10  C   UNL A   1      35.633  34.415  28.958  1.00  0.00     0.014 A 
ATOM     11  C   UNL A   1      35.302  32.593  31.054  1.00  0.00     0.010 A 
ATOM     12  C   UNL A   1      36.751  33.913  29.630  1.00  0.00     0.010 A 
ATOM     13  C   UNL A   1      36.593  33.000  30.684  1.00  0.00    -0.014 A 
BRANCH  13  14
ATOM     14  C   UNL A   1      37.764  32.350  31.324  1.00  0.00     0.031 A 
ATOM     15  C   UNL A   1      38.526  31.252  30.638  1.00  0.00     0.074 A 
ATOM     16  C   UNL A   1      38.126  32.775  32.551  1.00  0.00     0.049 A 
ATOM     17  N   UNL A   1      39.555  30.573  31.075  1.00  0.00    -0.248 NA
ATOM     18  C   UNL A   1      38.075  30.861  29.293  1.00  0.00     0.031 C 
ATOM     19  C   UNL A   1      37.442  33.830  33.309  1.00  0.00     0.029 A 
ATOM     20  N   UNL A   1      39.148  32.390  33.379  1.00  0.00    -0.354 N 
ATOM     21  C   UNL A   1      39.866  29.661  30.072  1.00  0.00     0.074 A 
ATOM     22  C   UNL A   1      38.907  29.866  29.008  1.00  0.00     0.031 C 
ATOM     23  C   UNL A   1      38.080  34.026  34.470  1.00  0.00     0.029 A 
ATOM     24  C   UNL A   1      39.165  33.060  34.581  1.00  0.00     0.049 A 
ATOM     25  H   UNL A   1      39.806  31.698  33.137  1.00  0.00     0.167 HD
ATOM     26  C   UNL A   1      40.863  28.743  30.053  1.00  0.00     0.034 A 
ATOM     27  C   UNL A   1      39.940  32.891  35.669  1.00  0.00     0.034 A 
ATOM     28  C   UNL A   1      41.814  28.565  31.127  1.00  0.00     0.049 A 
ATOM     29  C   UNL A   1      41.004  31.828  35.630  1.00  0.00     0.074 A 
ATOM     30  C   UNL A   1      42.905  27.715  31.176  1.00  0.00     0.029 A 
ATOM     31  N   UNL A   1      41.776  29.230  32.346  1.00  0.00    -0.354 N 
ATOM     32  N   UNL A   1      41.321  31.016  34.648  1.00  0.00    -0.248 NA
ATOM     33  C   UNL A   1      41.812  31.657  36.843  1.00  0.00     0.031 C 
ATOM     34  C   UNL A   1      43.476  27.806  32.450  1.00  0.00     0.029 A 
ATOM     35  C   UNL A   1      42.792  28.772  33.171  1.00  0.00     0.049 A 
ATOM     36  H   UNL A   1      41.123  29.926  32.589  1.00  0.00     0.167 HD
ATOM     37  C   UNL A   1      42.377  30.246  35.125  1.00  0.00     0.074 A 
ATOM     38  C   UNL A   1      42.663  30.715  36.464  1.00  0.00     0.031 C 
ATOM     39  C   UNL A   1      43.047  29.236  34.513  1.00  0.00     0.034 A 
BRANCH  26  40
ATOM     40  C   UNL A   1      40.961  27.820  28.863  1.00  0.00     0.023 A 
ATOM     41  C   UNL A   1      41.934  27.988  27.865  1.00  0.00     0.031 A 
ATOM     42  C   UNL A   1      40.090  26.720  28.758  1.00  0.00     0.131 A 
ATOM     43  C   UNL A   1      41.992  27.089  26.787  1.00  0.00     0.055 A 
ATOM     44  C   UNL A   1      40.191  25.795  27.717  1.00  0.00     0.041 A 
ATOM     45  F   UNL A   1      39.128  26.521  29.674  1.00  0.00    -0.206 F 
ATOM     46  C   UNL A   1      41.143  25.981  26.721  1.00  0.00     0.022 A 
BRANCH  43  47
ATOM     47  S   UNL A   1      43.142  27.430  25.428  1.00  0.00     0.124 S 
ATOM     48  O   UNL A   1      42.303  28.205  24.517  1.00  0.00    -0.237 OA
ATOM     49  O   UNL A   1      44.210  28.167  26.094  1.00  0.00    -0.237 OA
ATOM     50  O   UNL A   1      43.510  26.100  24.945  1.00  0.00    -0.744 OA
ENDBRANCH  43  47
ENDBRANCH  26  40
BRANCH  27  51
ATOM     51  C   UNL A   1      39.699  33.693  36.903  1.00  0.00     0.023 A 
ATOM     52  C   UNL A   1      39.152  33.107  38.054  1.00  0.00     0.031 A 
ATOM     53  C   UNL A   1      39.956  35.077  36.928  1.00  0.00     0.131 A 
ATOM     54  C   UNL A   1      38.823  33.909  39.157  1.00  0.00     0.055 A 
ATOM     55  C   UNL A   1      39.692  35.858  38.053  1.00  0.00     0.041 A 
ATOM     56  F   UNL A   1      40.478  35.692  35.855  1.00  0.00    -0.206 F 
ATOM     57  C   UNL A   1      39.103  35.276  39.171  1.00  0.00     0.022 A 
BRANCH  54  58
ATOM     58  S   UNL A   1      37.904  33.157  40.529  1.00  0.00     0.124 S 
ATOM     59  O   UNL A   1      38.299  34.002  41.649  1.00  0.00    -0.237 OA
ATOM     60  O   UNL A   1      36.523  33.294  40.077  1.00  0.00    -0.237 OA
ATOM     61  O   UNL A   1      38.414  31.788  40.568  1.00  0.00    -0.744 OA
ENDBRANCH  54  58
ENDBRANCH  27  51
BRANCH  39  62
ATOM     62  C   UNL A   1      44.164  28.597  35.298  1.00  0.00     0.023 A 
ATOM     63  C   UNL A   1      43.930  27.498  36.142  1.00  0.00     0.031 A 
ATOM     64  C   UNL A   1      45.471  29.109  35.222  1.00  0.00     0.131 A 
ATOM     65  C   UNL A   1      44.974  26.985  36.925  1.00  0.00     0.055 A 
ATOM     66  C   UNL A   1      46.520  28.553  35.955  1.00  0.00     0.041 A 
ATOM     67  F   UNL A   1      45.749  30.162  34.435  1.00  0.00    -0.206 F 
ATOM     68  C   UNL A   1      46.271  27.493  36.824  1.00  0.00     0.022 A 
BRANCH  65  69
ATOM     69  S   UNL A   1      44.593  25.703  38.151  1.00  0.00     0.124 S 
ATOM     70  O   UNL A   1      45.915  25.159  38.441  1.00  0.00    -0.237 OA
ATOM     71  O   UNL A   1      43.971  26.472  39.225  1.00  0.00    -0.237 OA
ATOM     72  O   UNL A   1      43.693  24.801  37.434  1.00  0.00    -0.744 OA
ENDBRANCH  65  69
ENDBRANCH  39  62
ENDBRANCH  13  14
ENDBRANCH   6   8
ENDBRANCH   3   4
ENDBRANCH   2   3
ENDBRANCH   1   2
BRANCH   1  73
ATOM     73  C   UNL A   1      31.844  29.120  27.036  1.00  0.00     0.002 C 
BRANCH  73  74
ATOM     74  C   UNL A   1      33.110  28.260  27.100  1.00  0.00     0.021 C 
BRANCH  74  75
ATOM     75  C   UNL A   1      32.986  26.881  26.460  1.00  0.00     0.116 C 
BRANCH  75  76
ATOM     76  N   UNL A   1      31.675  26.294  26.687  1.00  0.00    -0.352 N 
ATOM     77  C   UNL A   1      30.976  25.410  25.914  1.00  0.00     0.251 C 
ATOM     78  H   UNL A   1      31.227  26.575  27.517  1.00  0.00     0.163 HD
ATOM     79  O   UNL A   1      29.799  25.159  26.166  1.00  0.00    -0.269 OA
BRANCH  77  80
ATOM     80  C   UNL A   1      31.628  24.751  24.764  1.00  0.00     0.047 A 
ATOM     81  C   UNL A   1      31.840  23.368  24.822  1.00  0.00     0.023 A 
ATOM     82  C   UNL A   1      32.114  25.495  23.687  1.00  0.00     0.099 A 
ATOM     83  C   UNL A   1      32.513  22.700  23.789  1.00  0.00    -0.011 A 
ATOM     84  C   UNL A   1      32.738  24.829  22.629  1.00  0.00     0.270 A 
ATOM     85  C   UNL A   1      32.930  23.440  22.670  1.00  0.00     0.094 A 
BRANCH  83  86
ATOM     86  C   UNL A   1      32.880  21.285  23.934  1.00  0.00    -0.018 A 
ATOM     87  C   UNL A   1      33.971  20.872  24.711  1.00  0.00     0.009 A 
ATOM     88  C   UNL A   1      32.162  20.310  23.222  1.00  0.00     0.009 A 
ATOM     89  C   UNL A   1      34.345  19.523  24.756  1.00  0.00     0.014 A 
ATOM     90  C   UNL A   1      32.534  18.966  23.262  1.00  0.00     0.014 A 
ATOM     91  C   UNL A   1      33.637  18.559  24.021  1.00  0.00     0.056 A 
BRANCH  91  92
ATOM     92  C   UNL A   1      34.074  17.115  24.034  1.00  0.00     0.416 C 
ATOM     93  F   UNL A   1      33.127  16.291  24.564  1.00  0.00    -0.166 F 
ATOM     94  F   UNL A   1      34.335  16.633  22.788  1.00  0.00    -0.166 F 
ATOM     95  F   UNL A   1      35.205  16.894  24.762  1.00  0.00    -0.166 F 
ENDBRANCH  91  92
ENDBRANCH  83  86
BRANCH  84  96
ATOM     96  N   UNL A   1      33.236  25.600  21.484  1.00  0.00     0.062 N 
ATOM     97  O   UNL A   1      33.903  26.616  21.723  1.00  0.00    -0.258 OA
ATOM     98  O   UNL A   1      32.945  25.192  20.352  1.00  0.00    -0.258 OA
ENDBRANCH  84  96
ENDBRANCH  77  80
ENDBRANCH  75  76
ENDBRANCH  74  75
ENDBRANCH  73  74
ENDBRANCH   1  73
TORSDOF 19
ENDMDL
MODEL 2
REMARK VINA RESULT:     -12.8      1.875      7.881
REMARK SMILES O=C(NCCCCCCNC(=O)c1cc(-c2ccc(C(F)(F)F)cc2)cc([N+](=O)[O-])c1)c1ccc(-c2c3nc(c(-c4cc(S(=O)(=O)[O-])ccc4F)c4ccc([nH]4)c(-c4cc(S(=O)(=O)[O-])ccc4F)c4nc(c(-c5cc(S(=O)(=O)[O-])ccc5F)c5ccc2[nH]5)C=C4)C=C3)cc1
REMARK SMILES IDX 6 1 5 2 4 3 3 4 1 5 2 6 32 8 33 9 94 10 34 11 93 12 35 13
REMARK SMILES IDX 36 14 37 15 87 16 38 17 92 18 86 19 88 20 39 21 91 22 85 23
REMARK SMILES IDX 84 24 40 26 72 27 52 28 71 29 53 30 56 31 70 32 89 33 54 34
REMARK SMILES IDX 55 35 69 37 90 38 57 39 41 40 42 41 50 42 43 43 49 44 51 45
REMARK SMILES IDX 48 46 44 47 45 48 46 49 47 50 73 51 74 52 82 53 75 54 81 55
REMARK SMILES IDX 83 56 80 57 76 58 77 59 78 60 79 61 58 62 59 63 67 64 60 65
REMARK SMILES IDX 66 66 68 67 65 68 61 69 62 70 63 71 64 72 7 73 8 74 9 75
REMARK SMILES IDX 10 76 11 77 12 79 13 80 14 81 31 82 15 83 27 84 26 85 16 86
REMARK SMILES IDX 17 87 25 88 18 89 24 90 19 91 20 92 21 93 22 94 23 95 28 96
REMARK SMILES IDX 29 97 30 98
REMARK H PARENT 3 7 88 25 56 36 10 78
REMARK Flexibility Score: inf
ROOT
ATOM      1  C   UNL A   1      31.773  30.492  26.169  1.00  0.00     0.002 C 
ENDROOT
BRANCH   1   2
ATOM      2  C   UNL A   1      31.557  31.938  26.617  1.00  0.00     0.021 C 
BRANCH   2   3
ATOM      3  C   UNL A   1      32.752  32.578  27.306  1.00  0.00     0.116 C 
BRANCH   3   4
ATOM      4  N   UNL A   1      32.523  33.976  27.624  1.00  0.00    -0.352 N 
ATOM      5  O   UNL A   1      32.666  35.850  28.874  1.00  0.00    -0.269 OA
ATOM      6  C   UNL A   1      33.095  34.725  28.622  1.00  0.00     0.251 C 
ATOM      7  H   UNL A   1      31.876  34.447  27.051  1.00  0.00     0.163 HD
BRANCH   6   8
ATOM      8  C   UNL A   1      34.221  34.162  29.398  1.00  0.00     0.039 A 
ATOM      9  C   UNL A   1      33.974  33.339  30.501  1.00  0.00     0.014 A 
ATOM     10  C   UNL A   1      35.533  34.448  29.011  1.00  0.00     0.014 A 
ATOM     11  C   UNL A   1      35.033  32.886  31.277  1.00  0.00     0.010 A 
ATOM     12  C   UNL A   1      36.599  33.922  29.745  1.00  0.00     0.010 A 
ATOM     13  C   UNL A   1      36.357  33.140  30.885  1.00  0.00    -0.014 A 
BRANCH  13  14
ATOM     14  C   UNL A   1      37.464  32.460  31.603  1.00  0.00     0.031 A 
ATOM     15  C   UNL A   1      37.921  32.918  32.958  1.00  0.00     0.074 A 
ATOM     16  C   UNL A   1      38.054  31.410  30.996  1.00  0.00     0.049 A 
ATOM     17  N   UNL A   1      38.886  32.441  33.701  1.00  0.00    -0.248 NA
ATOM     18  C   UNL A   1      37.210  34.059  33.556  1.00  0.00     0.031 C 
ATOM     19  C   UNL A   1      37.691  30.894  29.671  1.00  0.00     0.029 A 
ATOM     20  N   UNL A   1      39.073  30.586  31.399  1.00  0.00    -0.354 N 
ATOM     21  C   UNL A   1      38.915  33.230  34.846  1.00  0.00     0.074 A 
ATOM     22  C   UNL A   1      37.877  34.228  34.692  1.00  0.00     0.031 C 
ATOM     23  C   UNL A   1      38.450  29.827  29.388  1.00  0.00     0.029 A 
ATOM     24  C   UNL A   1      39.409  29.631  30.467  1.00  0.00     0.049 A 
ATOM     25  H   UNL A   1      39.521  30.670  32.272  1.00  0.00     0.167 HD
ATOM     26  C   UNL A   1      39.737  33.123  35.918  1.00  0.00     0.034 A 
ATOM     27  C   UNL A   1      40.405  28.725  30.459  1.00  0.00     0.034 A 
ATOM     28  C   UNL A   1      40.760  32.111  36.050  1.00  0.00     0.049 A 
ATOM     29  C   UNL A   1      41.328  28.668  31.645  1.00  0.00     0.074 A 
ATOM     30  C   UNL A   1      41.596  31.871  37.126  1.00  0.00     0.029 A 
ATOM     31  N   UNL A   1      41.102  31.189  35.069  1.00  0.00    -0.354 N 
ATOM     32  N   UNL A   1      41.302  29.386  32.745  1.00  0.00    -0.248 NA
ATOM     33  C   UNL A   1      42.415  27.684  31.590  1.00  0.00     0.031 C 
ATOM     34  C   UNL A   1      42.494  30.860  36.767  1.00  0.00     0.029 A 
ATOM     35  C   UNL A   1      42.169  30.413  35.497  1.00  0.00     0.049 A 
ATOM     36  H   UNL A   1      40.652  31.098  34.199  1.00  0.00     0.167 HD
ATOM     37  C   UNL A   1      42.363  28.926  33.518  1.00  0.00     0.074 A 
ATOM     38  C   UNL A   1      42.985  27.850  32.774  1.00  0.00     0.031 C 
ATOM     39  C   UNL A   1      42.791  29.360  34.731  1.00  0.00     0.034 A 
BRANCH  26  40
ATOM     40  C   UNL A   1      39.609  34.146  37.020  1.00  0.00     0.023 A 
ATOM     41  C   UNL A   1      39.106  33.819  38.289  1.00  0.00     0.031 A 
ATOM     42  C   UNL A   1      40.049  35.465  36.804  1.00  0.00     0.131 A 
ATOM     43  C   UNL A   1      39.026  34.807  39.285  1.00  0.00     0.055 A 
ATOM     44  C   UNL A   1      40.024  36.427  37.815  1.00  0.00     0.041 A 
ATOM     45  F   UNL A   1      40.522  35.839  35.604  1.00  0.00    -0.206 F 
ATOM     46  C   UNL A   1      39.504  36.101  39.064  1.00  0.00     0.022 A 
BRANCH  43  47
ATOM     47  S   UNL A   1      38.213  34.399  40.854  1.00  0.00     0.124 S 
ATOM     48  O   UNL A   1      37.094  33.575  40.403  1.00  0.00    -0.237 OA
ATOM     49  O   UNL A   1      39.266  33.701  41.584  1.00  0.00    -0.237 OA
ATOM     50  O   UNL A   1      37.838  35.704  41.397  1.00  0.00    -0.744 OA
ENDBRANCH  43  47
ENDBRANCH  26  40
BRANCH  27  51
ATOM     51  C   UNL A   1      40.623  27.848  29.272  1.00  0.00     0.023 A 
ATOM     52  C   UNL A   1      41.575  28.174  28.295  1.00  0.00     0.031 A 
ATOM     53  C   UNL A   1      39.835  26.700  29.066  1.00  0.00     0.131 A 
ATOM     54  C   UNL A   1      41.674  27.399  27.130  1.00  0.00     0.055 A 
ATOM     55  C   UNL A   1      39.986  25.892  27.939  1.00  0.00     0.041 A 
ATOM     56  F   UNL A   1      38.908  26.340  29.968  1.00  0.00    -0.206 F 
ATOM     57  C   UNL A   1      40.897  26.252  26.953  1.00  0.00     0.022 A 
BRANCH  54  58
ATOM     58  S   UNL A   1      42.746  27.986  25.789  1.00  0.00     0.124 S 
ATOM     59  O   UNL A   1      44.070  27.656  26.302  1.00  0.00    -0.237 OA
ATOM     60  O   UNL A   1      42.278  27.189  24.660  1.00  0.00    -0.237 OA
ATOM     61  O   UNL A   1      42.442  29.413  25.713  1.00  0.00    -0.744 OA
ENDBRANCH  54  58
ENDBRANCH  27  51
BRANCH  39  62
ATOM     62  C   UNL A   1      43.978  28.642  35.322  1.00  0.00     0.023 A 
ATOM     63  C   UNL A   1      43.819  27.650  36.304  1.00  0.00     0.031 A 
ATOM     64  C   UNL A   1      45.283  28.974  34.919  1.00  0.00     0.131 A 
ATOM     65  C   UNL A   1      44.948  27.066  36.896  1.00  0.00     0.055 A 
ATOM     66  C   UNL A   1      46.402  28.344  35.466  1.00  0.00     0.041 A 
ATOM     67  F   UNL A   1      45.493  29.919  33.988  1.00  0.00    -0.206 F 
ATOM     68  C   UNL A   1      46.238  27.393  36.471  1.00  0.00     0.022 A 
BRANCH  65  69
ATOM     69  S   UNL A   1      44.710  25.941  38.298  1.00  0.00     0.124 S 
ATOM     70  O   UNL A   1      44.752  24.635  37.649  1.00  0.00    -0.237 OA
ATOM     71  O   UNL A   1      45.848  26.262  39.155  1.00  0.00    -0.237 OA
ATOM     72  O   UNL A   1      43.405  26.329  38.832  1.00  0.00    -0.744 OA
ENDBRANCH  65  69
ENDBRANCH  39  62
ENDBRANCH  13  14
ENDBRANCH   6   8
ENDBRANCH   3   4
ENDBRANCH   2   3
ENDBRANCH   1   2
BRANCH   1  73
ATOM     73  C   UNL A   1      32.348  29.555  27.236  1.00  0.00     0.002 C 
BRANCH  73  74
ATOM     74  C   UNL A   1      32.712  28.148  26.753  1.00  0.00     0.021 C 
BRANCH  74  75
ATOM     75  C   UNL A   1      31.563  27.362  26.130  1.00  0.00     0.116 C 
BRANCH  75  76
ATOM     76  N   UNL A   1      31.271  26.148  26.876  1.00  0.00    -0.352 N 
ATOM     77  C   UNL A   1      31.568  24.850  26.569  1.00  0.00     0.251 C 
ATOM     78  H   UNL A   1      30.791  26.282  27.724  1.00  0.00     0.163 HD
ATOM     79  O   UNL A   1      31.083  23.930  27.225  1.00  0.00    -0.269 OA
BRANCH  77  80
ATOM     80  C   UNL A   1      32.471  24.540  25.442  1.00  0.00     0.047 A 
ATOM     81  C   UNL A   1      33.696  23.923  25.722  1.00  0.00     0.023 A 
ATOM     82  C   UNL A   1      32.163  24.941  24.141  1.00  0.00     0.099 A 
ATOM     83  C   UNL A   1      34.622  23.666  24.699  1.00  0.00    -0.011 A 
ATOM     84  C   UNL A   1      33.055  24.640  23.109  1.00  0.00     0.270 A 
ATOM     85  C   UNL A   1      34.273  23.998  23.380  1.00  0.00     0.094 A 
BRANCH  83  86
ATOM     86  C   UNL A   1      35.968  23.175  25.021  1.00  0.00    -0.018 A 
ATOM     87  C   UNL A   1      36.388  21.878  24.696  1.00  0.00     0.009 A 
ATOM     88  C   UNL A   1      36.850  24.000  25.739  1.00  0.00     0.009 A 
ATOM     89  C   UNL A   1      37.647  21.414  25.096  1.00  0.00     0.014 A 
ATOM     90  C   UNL A   1      38.103  23.539  26.143  1.00  0.00     0.014 A 
ATOM     91  C   UNL A   1      38.512  22.237  25.835  1.00  0.00     0.056 A 
BRANCH  91  92
ATOM     92  C   UNL A   1      39.847  21.716  26.306  1.00  0.00     0.416 C 
ATOM     93  F   UNL A   1      40.021  20.396  26.016  1.00  0.00    -0.166 F 
ATOM     94  F   UNL A   1      40.897  22.366  25.735  1.00  0.00    -0.166 F 
ATOM     95  F   UNL A   1      40.030  21.825  27.652  1.00  0.00    -0.166 F 
ENDBRANCH  91  92
ENDBRANCH  83  86
BRANCH  84  96
ATOM     96  N   UNL A   1      32.733  25.040  21.735  1.00  0.00     0.062 N 
ATOM     97  O   UNL A   1      31.926  25.967  21.581  1.00  0.00    -0.258 OA
ATOM     98  O   UNL A   1      33.278  24.415  20.816  1.00  0.00    -0.258 OA
ENDBRANCH  84  96
ENDBRANCH  77  80
ENDBRANCH  75  76
ENDBRANCH  74  75
ENDBRANCH  73  74
ENDBRANCH   1  73
TORSDOF 19
ENDMDL
MODEL 3
REMARK VINA RESULT:     -12.6      1.803      2.506
REMARK SMILES O=C(NCCCCCCNC(=O)c1cc(-c2ccc(C(F)(F)F)cc2)cc([N+](=O)[O-])c1)c1ccc(-c2c3nc(c(-c4cc(S(=O)(=O)[O-])ccc4F)c4ccc([nH]4)c(-c4cc(S(=O)(=O)[O-])ccc4F)c4nc(c(-c5cc(S(=O)(=O)[O-])ccc5F)c5ccc2[nH]5)C=C4)C=C3)cc1
REMARK SMILES IDX 6 1 5 2 4 3 3 4 1 5 2 6 32 8 33 9 94 10 34 11 93 12 35 13
REMARK SMILES IDX 36 14 37 15 87 16 38 17 92 18 86 19 88 20 39 21 91 22 85 23
REMARK SMILES IDX 84 24 40 26 72 27 52 28 71 29 53 30 56 31 70 32 89 33 54 34
REMARK SMILES IDX 55 35 69 37 90 38 57 39 41 40 42 41 50 42 43 43 49 44 51 45
REMARK SMILES IDX 48 46 44 47 45 48 46 49 47 50 73 51 74 52 82 53 75 54 81 55
REMARK SMILES IDX 83 56 80 57 76 58 77 59 78 60 79 61 58 62 59 63 67 64 60 65
REMARK SMILES IDX 66 66 68 67 65 68 61 69 62 70 63 71 64 72 7 73 8 74 9 75
REMARK SMILES IDX 10 76 11 77 12 79 13 80 14 81 31 82 15 83 27 84 26 85 16 86
REMARK SMILES IDX 17 87 25 88 18 89 24 90 19 91 20 92 21 93 22 94 23 95 28 96
REMARK SMILES IDX 29 97 30 98
REMARK H PARENT 3 7 88 25 56 36 10 78
REMARK Flexibility Score: inf
ROOT
ATOM      1  C   UNL A   1      31.485  30.799  26.111  1.00  0.00     0.002 C 
ENDROOT
BRANCH   1   2
ATOM      2  C   UNL A   1      31.380  32.148  26.822  1.00  0.00     0.021 C 
BRANCH   2   3
ATOM      3  C   UNL A   1      32.694  32.903  26.953  1.00  0.00     0.116 C 
BRANCH   3   4
ATOM      4  N   UNL A   1      32.531  34.184  27.619  1.00  0.00    -0.352 N 
ATOM      5  O   UNL A   1      32.819  35.692  29.273  1.00  0.00    -0.269 OA
ATOM      6  C   UNL A   1      33.194  34.658  28.723  1.00  0.00     0.251 C 
ATOM      7  H   UNL A   1      31.859  34.789  27.229  1.00  0.00     0.163 HD
BRANCH   6   8
ATOM      8  C   UNL A   1      34.355  33.908  29.249  1.00  0.00     0.039 A 
ATOM      9  C   UNL A   1      35.655  34.337  28.971  1.00  0.00     0.014 A 
ATOM     10  C   UNL A   1      34.140  32.774  30.037  1.00  0.00     0.014 A 
ATOM     11  C   UNL A   1      36.740  33.579  29.393  1.00  0.00     0.010 A 
ATOM     12  C   UNL A   1      35.234  32.058  30.530  1.00  0.00     0.010 A 
ATOM     13  C   UNL A   1      36.542  32.454  30.210  1.00  0.00    -0.014 A 
BRANCH  13  14
ATOM     14  C   UNL A   1      37.720  31.797  30.828  1.00  0.00     0.031 A 
ATOM     15  C   UNL A   1      38.517  30.758  30.092  1.00  0.00     0.074 A 
ATOM     16  C   UNL A   1      38.057  32.161  32.082  1.00  0.00     0.049 A 
ATOM     17  N   UNL A   1      39.556  30.079  30.504  1.00  0.00    -0.248 NA
ATOM     18  C   UNL A   1      38.093  30.433  28.721  1.00  0.00     0.031 C 
ATOM     19  C   UNL A   1      37.337  33.155  32.889  1.00  0.00     0.029 A 
ATOM     20  N   UNL A   1      39.077  31.753  32.901  1.00  0.00    -0.354 N 
ATOM     21  C   UNL A   1      39.903  29.233  29.457  1.00  0.00     0.074 A 
ATOM     22  C   UNL A   1      38.952  29.475  28.392  1.00  0.00     0.031 C 
ATOM     23  C   UNL A   1      37.957  33.299  34.067  1.00  0.00     0.029 A 
ATOM     24  C   UNL A   1      39.063  32.355  34.139  1.00  0.00     0.049 A 
ATOM     25  H   UNL A   1      39.755  31.092  32.630  1.00  0.00     0.167 HD
ATOM     26  C   UNL A   1      40.922  28.341  29.400  1.00  0.00     0.034 A 
ATOM     27  C   UNL A   1      39.828  32.143  35.227  1.00  0.00     0.034 A 
ATOM     28  C   UNL A   1      41.863  28.126  30.475  1.00  0.00     0.049 A 
ATOM     29  C   UNL A   1      40.917  31.109  35.143  1.00  0.00     0.074 A 
ATOM     30  C   UNL A   1      42.973  27.300  30.491  1.00  0.00     0.029 A 
ATOM     31  N   UNL A   1      41.794  28.720  31.729  1.00  0.00    -0.354 N 
ATOM     32  N   UNL A   1      41.267  30.361  34.121  1.00  0.00    -0.248 NA
ATOM     33  C   UNL A   1      41.714  30.889  36.355  1.00  0.00     0.031 C 
ATOM     34  C   UNL A   1      43.526  27.332  31.776  1.00  0.00     0.029 A 
ATOM     35  C   UNL A   1      42.810  28.239  32.541  1.00  0.00     0.049 A 
ATOM     36  H   UNL A   1      41.121  29.385  32.001  1.00  0.00     0.167 HD
ATOM     37  C   UNL A   1      42.336  29.591  34.568  1.00  0.00     0.074 A 
ATOM     38  C   UNL A   1      42.593  29.990  35.936  1.00  0.00     0.031 C 
ATOM     39  C   UNL A   1      43.036  28.633  33.910  1.00  0.00     0.034 A 
BRANCH  26  40
ATOM     40  C   UNL A   1      41.057  27.489  28.162  1.00  0.00     0.023 A 
ATOM     41  C   UNL A   1      40.654  26.144  28.132  1.00  0.00     0.031 A 
ATOM     42  C   UNL A   1      41.555  28.056  26.974  1.00  0.00     0.131 A 
ATOM     43  C   UNL A   1      40.785  25.403  26.946  1.00  0.00     0.055 A 
ATOM     44  C   UNL A   1      41.626  27.332  25.783  1.00  0.00     0.041 A 
ATOM     45  F   UNL A   1      41.973  29.333  26.951  1.00  0.00    -0.206 F 
ATOM     46  C   UNL A   1      41.245  25.994  25.767  1.00  0.00     0.022 A 
BRANCH  43  47
ATOM     47  S   UNL A   1      40.420  23.627  26.983  1.00  0.00     0.124 S 
ATOM     48  O   UNL A   1      41.422  23.098  26.060  1.00  0.00    -0.237 OA
ATOM     49  O   UNL A   1      40.612  23.294  28.391  1.00  0.00    -0.237 OA
ATOM     50  O   UNL A   1      39.040  23.548  26.507  1.00  0.00    -0.744 OA
ENDBRANCH  43  47
ENDBRANCH  26  40
BRANCH  27  51
ATOM     51  C   UNL A   1      39.552  32.868  36.500  1.00  0.00     0.023 A 
ATOM     52  C   UNL A   1      38.722  32.314  37.486  1.00  0.00     0.031 A 
ATOM     53  C   UNL A   1      40.068  34.159  36.724  1.00  0.00     0.131 A 
ATOM     54  C   UNL A   1      38.382  33.069  38.618  1.00  0.00     0.055 A 
ATOM     55  C   UNL A   1      39.784  34.878  37.884  1.00  0.00     0.041 A 
ATOM     56  F   UNL A   1      40.868  34.739  35.815  1.00  0.00    -0.206 F 
ATOM     57  C   UNL A   1      38.919  34.340  38.832  1.00  0.00     0.022 A 
BRANCH  54  58
ATOM     58  S   UNL A   1      37.123  32.414  39.748  1.00  0.00     0.124 S 
ATOM     59  O   UNL A   1      35.966  32.301  38.869  1.00  0.00    -0.237 OA
ATOM     60  O   UNL A   1      37.729  31.157  40.177  1.00  0.00    -0.237 OA
ATOM     61  O   UNL A   1      37.027  33.443  40.781  1.00  0.00    -0.744 OA
ENDBRANCH  54  58
ENDBRANCH  27  51
BRANCH  39  62
ATOM     62  C   UNL A   1      44.160  27.977  34.673  1.00  0.00     0.023 A 
ATOM     63  C   UNL A   1      43.954  26.794  35.405  1.00  0.00     0.031 A 
ATOM     64  C   UNL A   1      45.440  28.555  34.692  1.00  0.00     0.131 A 
ATOM     65  C   UNL A   1      44.997  26.261  36.175  1.00  0.00     0.055 A 
ATOM     66  C   UNL A   1      46.492  27.984  35.409  1.00  0.00     0.041 A 
ATOM     67  F   UNL A   1      45.690  29.688  34.015  1.00  0.00    -0.206 F 
ATOM     68  C   UNL A   1      46.270  26.837  36.168  1.00  0.00     0.022 A 
BRANCH  65  69
ATOM     69  S   UNL A   1      44.642  24.854  37.264  1.00  0.00     0.124 S 
ATOM     70  O   UNL A   1      45.257  25.279  38.518  1.00  0.00    -0.237 OA
ATOM     71  O   UNL A   1      43.183  24.810  37.253  1.00  0.00    -0.237 OA
ATOM     72  O   UNL A   1      45.301  23.731  36.599  1.00  0.00    -0.744 OA
ENDBRANCH  65  69
ENDBRANCH  39  62
ENDBRANCH  13  14
ENDBRANCH   6   8
ENDBRANCH   3   4
ENDBRANCH   2   3
ENDBRANCH   1   2
BRANCH   1  73
ATOM     73  C   UNL A   1      31.951  29.631  26.986  1.00  0.00     0.002 C 
BRANCH  73  74
ATOM     74  C   UNL A   1      33.467  29.443  27.085  1.00  0.00     0.021 C 
BRANCH  74  75
ATOM     75  C   UNL A   1      34.032  28.301  26.245  1.00  0.00     0.116 C 
BRANCH  75  76
ATOM     76  N   UNL A   1      34.220  28.691  24.858  1.00  0.00    -0.352 N 
ATOM     77  C   UNL A   1      33.597  28.226  23.734  1.00  0.00     0.251 C 
ATOM     78  H   UNL A   1      34.894  29.393  24.706  1.00  0.00     0.163 HD
ATOM     79  O   UNL A   1      34.011  28.538  22.619  1.00  0.00    -0.269 OA
BRANCH  77  80
ATOM     80  C   UNL A   1      32.422  27.338  23.849  1.00  0.00     0.047 A 
ATOM     81  C   UNL A   1      32.639  25.976  24.093  1.00  0.00     0.023 A 
ATOM     82  C   UNL A   1      31.131  27.817  23.621  1.00  0.00     0.099 A 
ATOM     83  C   UNL A   1      31.565  25.075  24.145  1.00  0.00    -0.011 A 
ATOM     84  C   UNL A   1      30.052  26.937  23.725  1.00  0.00     0.270 A 
ATOM     85  C   UNL A   1      30.261  25.576  23.994  1.00  0.00     0.094 A 
BRANCH  83  86
ATOM     86  C   UNL A   1      31.811  23.630  24.231  1.00  0.00    -0.018 A 
ATOM     87  C   UNL A   1      32.029  22.981  25.455  1.00  0.00     0.009 A 
ATOM     88  C   UNL A   1      31.898  22.873  23.052  1.00  0.00     0.009 A 
ATOM     89  C   UNL A   1      32.348  21.618  25.493  1.00  0.00     0.014 A 
ATOM     90  C   UNL A   1      32.220  21.516  23.086  1.00  0.00     0.014 A 
ATOM     91  C   UNL A   1      32.459  20.875  24.308  1.00  0.00     0.056 A 
BRANCH  91  92
ATOM     92  C   UNL A   1      32.850  19.419  24.351  1.00  0.00     0.416 C 
ATOM     93  F   UNL A   1      32.477  18.815  25.514  1.00  0.00    -0.166 F 
ATOM     94  F   UNL A   1      32.281  18.691  23.352  1.00  0.00    -0.166 F 
ATOM     95  F   UNL A   1      34.193  19.213  24.242  1.00  0.00    -0.166 F 
ENDBRANCH  91  92
ENDBRANCH  83  86
BRANCH  84  96
ATOM     96  N   UNL A   1      28.689  27.434  23.506  1.00  0.00     0.062 N 
ATOM     97  O   UNL A   1      27.750  26.715  23.872  1.00  0.00    -0.258 OA
ATOM     98  O   UNL A   1      28.566  28.536  22.955  1.00  0.00    -0.258 OA
ENDBRANCH  84  96
ENDBRANCH  77  80
ENDBRANCH  75  76
ENDBRANCH  74  75
ENDBRANCH  73  74
ENDBRANCH   1  73
TORSDOF 19
ENDMDL
