MODEL 1
REMARK VINA RESULT:     -10.7      0.000      0.000
REMARK SMILES O=C(NCCCCCCNC(=O)[C@@H](Cc1ccccc1Br)CC(F)(F)F)c1ccc(-c2c3nc(c(-c4cc(S(=O)(=O)[O-])ccc4F)c4ccc([nH]4)c(-c4cc(S(=O)(=O)[O-])ccc4F)c4nc(c(-c5cc(S(=O)(=O)[O-])ccc5F)c5ccc2[nH]5)C=C4)C=C3)cc1
REMARK SMILES IDX 6 1 5 2 4 3 3 4 1 5 2 6 27 8 28 9 89 10 29 11 88 12 30 13
REMARK SMILES IDX 31 14 32 15 82 16 33 17 87 18 81 19 83 20 34 21 86 22 80 23
REMARK SMILES IDX 79 24 35 26 67 27 47 28 66 29 48 30 51 31 65 32 84 33 49 34
REMARK SMILES IDX 50 35 64 37 85 38 52 39 36 40 37 41 45 42 38 43 44 44 46 45
REMARK SMILES IDX 43 46 39 47 40 48 41 49 42 50 68 51 69 52 77 53 70 54 76 55
REMARK SMILES IDX 78 56 75 57 71 58 72 59 73 60 74 61 53 62 54 63 62 64 55 65
REMARK SMILES IDX 61 66 63 67 60 68 56 69 57 70 58 71 59 72 7 73 8 74 9 75
REMARK SMILES IDX 10 76 11 77 12 79 13 80 14 81 15 82 16 83 20 84 17 85 19 86
REMARK SMILES IDX 21 87 18 88 22 89 23 90 24 91 25 92 26 93
REMARK H PARENT 3 7 83 25 51 36 10 78
REMARK Flexibility Score: inf
ROOT
ATOM      1  C   UNL A   1      31.402  29.653  25.620  1.00  0.00     0.002 C 
ENDROOT
BRANCH   1   2
ATOM      2  C   UNL A   1      31.435  31.102  26.114  1.00  0.00     0.021 C 
BRANCH   2   3
ATOM      3  C   UNL A   1      32.701  31.491  26.869  1.00  0.00     0.116 C 
BRANCH   3   4
ATOM      4  N   UNL A   1      32.755  32.920  27.135  1.00  0.00    -0.352 N 
ATOM      5  O   UNL A   1      33.276  34.792  28.274  1.00  0.00    -0.269 OA
ATOM      6  C   UNL A   1      33.544  33.616  28.012  1.00  0.00     0.251 C 
ATOM      7  H   UNL A   1      32.130  33.469  26.607  1.00  0.00     0.163 HD
BRANCH   6   8
ATOM      8  C   UNL A   1      34.714  32.968  28.641  1.00  0.00     0.039 A 
ATOM      9  C   UNL A   1      36.010  33.346  28.284  1.00  0.00     0.014 A 
ATOM     10  C   UNL A   1      34.515  32.002  29.633  1.00  0.00     0.014 A 
ATOM     11  C   UNL A   1      37.102  32.677  28.826  1.00  0.00     0.010 A 
ATOM     12  C   UNL A   1      35.617  31.392  30.241  1.00  0.00     0.010 A 
ATOM     13  C   UNL A   1      36.921  31.711  29.829  1.00  0.00    -0.014 A 
BRANCH  13  14
ATOM     14  C   UNL A   1      38.114  31.108  30.479  1.00  0.00     0.031 A 
ATOM     15  C   UNL A   1      38.537  31.515  31.863  1.00  0.00     0.074 A 
ATOM     16  C   UNL A   1      38.799  30.156  29.813  1.00  0.00     0.049 A 
ATOM     17  N   UNL A   1      39.543  31.081  32.578  1.00  0.00    -0.248 NA
ATOM     18  C   UNL A   1      37.728  32.547  32.528  1.00  0.00     0.031 C 
ATOM     19  C   UNL A   1      38.482  29.685  28.461  1.00  0.00     0.029 A 
ATOM     20  N   UNL A   1      39.885  29.403  30.178  1.00  0.00    -0.354 N 
ATOM     21  C   UNL A   1      39.492  31.783  33.778  1.00  0.00     0.074 A 
ATOM     22  C   UNL A   1      38.382  32.707  33.670  1.00  0.00     0.031 C 
ATOM     23  C   UNL A   1      39.324  28.696  28.131  1.00  0.00     0.029 A 
ATOM     24  C   UNL A   1      40.288  28.514  29.209  1.00  0.00     0.049 A 
ATOM     25  H   UNL A   1      40.334  29.491  31.050  1.00  0.00     0.167 HD
ATOM     26  C   UNL A   1      40.288  31.655  34.869  1.00  0.00     0.034 A 
ATOM     27  C   UNL A   1      41.333  27.663  29.177  1.00  0.00     0.034 A 
ATOM     28  C   UNL A   1      41.403  30.740  34.950  1.00  0.00     0.049 A 
ATOM     29  C   UNL A   1      42.243  27.595  30.374  1.00  0.00     0.074 A 
ATOM     30  C   UNL A   1      42.273  30.530  36.008  1.00  0.00     0.029 A 
ATOM     31  N   UNL A   1      41.812  29.886  33.932  1.00  0.00    -0.354 N 
ATOM     32  N   UNL A   1      42.170  28.256  31.507  1.00  0.00    -0.248 NA
ATOM     33  C   UNL A   1      43.373  26.661  30.293  1.00  0.00     0.031 C 
ATOM     34  C   UNL A   1      43.243  29.605  35.605  1.00  0.00     0.029 A 
ATOM     35  C   UNL A   1      42.934  29.172  34.326  1.00  0.00     0.049 A 
ATOM     36  H   UNL A   1      41.368  29.801  33.057  1.00  0.00     0.167 HD
ATOM     37  C   UNL A   1      43.229  27.794  32.282  1.00  0.00     0.074 A 
ATOM     38  C   UNL A   1      43.907  26.783  31.497  1.00  0.00     0.031 C 
ATOM     39  C   UNL A   1      43.609  28.173  33.529  1.00  0.00     0.034 A 
BRANCH  26  40
ATOM     40  C   UNL A   1      39.999  32.553  36.051  1.00  0.00     0.023 A 
ATOM     41  C   UNL A   1      39.115  32.162  37.072  1.00  0.00     0.031 A 
ATOM     42  C   UNL A   1      40.603  33.819  36.154  1.00  0.00     0.131 A 
ATOM     43  C   UNL A   1      38.808  33.051  38.115  1.00  0.00     0.055 A 
ATOM     44  C   UNL A   1      40.356  34.667  37.237  1.00  0.00     0.041 A 
ATOM     45  F   UNL A   1      41.440  34.258  35.202  1.00  0.00    -0.206 F 
ATOM     46  C   UNL A   1      39.443  34.291  38.217  1.00  0.00     0.022 A 
BRANCH  43  47
ATOM     47  S   UNL A   1      37.465  32.617  39.253  1.00  0.00     0.124 S 
ATOM     48  O   UNL A   1      37.706  33.537  40.362  1.00  0.00    -0.237 OA
ATOM     49  O   UNL A   1      36.275  32.881  38.453  1.00  0.00    -0.237 OA
ATOM     50  O   UNL A   1      37.714  31.209  39.558  1.00  0.00    -0.744 OA
ENDBRANCH  43  47
ENDBRANCH  26  40
BRANCH  27  51
ATOM     51  C   UNL A   1      41.600  26.839  27.962  1.00  0.00     0.023 A 
ATOM     52  C   UNL A   1      41.157  25.512  27.873  1.00  0.00     0.031 A 
ATOM     53  C   UNL A   1      42.354  27.355  26.892  1.00  0.00     0.131 A 
ATOM     54  C   UNL A   1      41.520  24.727  26.768  1.00  0.00     0.055 A 
ATOM     55  C   UNL A   1      42.655  26.591  25.764  1.00  0.00     0.041 A 
ATOM     56  F   UNL A   1      42.804  28.620  26.923  1.00  0.00    -0.206 F 
ATOM     57  C   UNL A   1      42.252  25.261  25.706  1.00  0.00     0.022 A 
BRANCH  54  58
ATOM     58  S   UNL A   1      41.121  22.958  26.795  1.00  0.00     0.124 S 
ATOM     59  O   UNL A   1      41.954  22.450  25.711  1.00  0.00    -0.237 OA
ATOM     60  O   UNL A   1      41.525  22.578  28.146  1.00  0.00    -0.237 OA
ATOM     61  O   UNL A   1      39.682  22.930  26.544  1.00  0.00    -0.744 OA
ENDBRANCH  54  58
ENDBRANCH  27  51
BRANCH  39  62
ATOM     62  C   UNL A   1      44.786  27.445  34.132  1.00  0.00     0.023 A 
ATOM     63  C   UNL A   1      44.625  26.266  34.881  1.00  0.00     0.031 A 
ATOM     64  C   UNL A   1      46.087  27.959  33.981  1.00  0.00     0.131 A 
ATOM     65  C   UNL A   1      45.734  25.679  35.508  1.00  0.00     0.055 A 
ATOM     66  C   UNL A   1      47.196  27.331  34.549  1.00  0.00     0.041 A 
ATOM     67  F   UNL A   1      46.301  29.083  33.279  1.00  0.00    -0.206 F 
ATOM     68  C   UNL A   1      47.022  26.193  35.331  1.00  0.00     0.022 A 
BRANCH  65  69
ATOM     69  S   UNL A   1      45.458  24.295  36.649  1.00  0.00     0.124 S 
ATOM     70  O   UNL A   1      44.555  24.887  37.630  1.00  0.00    -0.237 OA
ATOM     71  O   UNL A   1      44.876  23.283  35.774  1.00  0.00    -0.237 OA
ATOM     72  O   UNL A   1      46.799  23.988  37.146  1.00  0.00    -0.744 OA
ENDBRANCH  65  69
ENDBRANCH  39  62
ENDBRANCH  13  14
ENDBRANCH   6   8
ENDBRANCH   3   4
ENDBRANCH   2   3
ENDBRANCH   1   2
BRANCH   1  73
ATOM     73  C   UNL A   1      30.798  29.441  24.228  1.00  0.00     0.002 C 
BRANCH  73  74
ATOM     74  C   UNL A   1      31.642  28.582  23.288  1.00  0.00     0.021 C 
BRANCH  74  75
ATOM     75  C   UNL A   1      30.892  27.410  22.662  1.00  0.00     0.116 C 
BRANCH  75  76
ATOM     76  N   UNL A   1      31.653  26.842  21.571  1.00  0.00    -0.356 N 
ATOM     77  C   UNL A   1      32.628  25.906  21.541  1.00  0.00     0.223 C 
ATOM     78  H   UNL A   1      31.418  27.205  20.686  1.00  0.00     0.163 HD
ATOM     79  O   UNL A   1      33.184  25.711  20.455  1.00  0.00    -0.275 OA
BRANCH  77  80
ATOM     80  C   UNL A   1      33.034  25.066  22.751  1.00  0.00     0.092 C 
BRANCH  80  81
ATOM     81  C   UNL A   1      33.398  23.594  22.428  1.00  0.00     0.050 C 
BRANCH  81  82
ATOM     82  C   UNL A   1      33.475  22.527  23.503  1.00  0.00    -0.033 A 
ATOM     83  C   UNL A   1      32.300  21.857  23.898  1.00  0.00     0.005 A 
ATOM     84  C   UNL A   1      34.686  22.090  24.078  1.00  0.00     0.021 A 
ATOM     85  C   UNL A   1      32.311  20.886  24.905  1.00  0.00     0.000 A 
ATOM     86  C   UNL A   1      34.697  21.093  25.068  1.00  0.00     0.016 A 
ATOM     87  Br  UNL A   1      36.387  22.785  23.583  1.00  0.00    -0.051 Br
ATOM     88  C   UNL A   1      33.508  20.511  25.498  1.00  0.00     0.001 A 
ENDBRANCH  81  82
ENDBRANCH  80  81
BRANCH  80  89
ATOM     89  C   UNL A   1      33.907  25.793  23.780  1.00  0.00     0.129 C 
BRANCH  89  90
ATOM     90  C   UNL A   1      33.336  25.744  25.185  1.00  0.00     0.389 C 
ATOM     91  F   UNL A   1      33.951  24.810  25.938  1.00  0.00    -0.171 F 
ATOM     92  F   UNL A   1      33.515  26.938  25.796  1.00  0.00    -0.171 F 
ATOM     93  F   UNL A   1      32.013  25.489  25.186  1.00  0.00    -0.171 F 
ENDBRANCH  89  90
ENDBRANCH  80  89
ENDBRANCH  77  80
ENDBRANCH  75  76
ENDBRANCH  74  75
ENDBRANCH  73  74
ENDBRANCH   1  73
TORSDOF 20
ENDMDL
MODEL 2
REMARK VINA RESULT:     -10.7      1.430      7.678
REMARK SMILES O=C(NCCCCCCNC(=O)[C@@H](Cc1ccccc1Br)CC(F)(F)F)c1ccc(-c2c3nc(c(-c4cc(S(=O)(=O)[O-])ccc4F)c4ccc([nH]4)c(-c4cc(S(=O)(=O)[O-])ccc4F)c4nc(c(-c5cc(S(=O)(=O)[O-])ccc5F)c5ccc2[nH]5)C=C4)C=C3)cc1
REMARK SMILES IDX 6 1 5 2 4 3 3 4 1 5 2 6 27 8 28 9 89 10 29 11 88 12 30 13
REMARK SMILES IDX 31 14 32 15 82 16 33 17 87 18 81 19 83 20 34 21 86 22 80 23
REMARK SMILES IDX 79 24 35 26 67 27 47 28 66 29 48 30 51 31 65 32 84 33 49 34
REMARK SMILES IDX 50 35 64 37 85 38 52 39 36 40 37 41 45 42 38 43 44 44 46 45
REMARK SMILES IDX 43 46 39 47 40 48 41 49 42 50 68 51 69 52 77 53 70 54 76 55
REMARK SMILES IDX 78 56 75 57 71 58 72 59 73 60 74 61 53 62 54 63 62 64 55 65
REMARK SMILES IDX 61 66 63 67 60 68 56 69 57 70 58 71 59 72 7 73 8 74 9 75
REMARK SMILES IDX 10 76 11 77 12 79 13 80 14 81 15 82 16 83 20 84 17 85 19 86
REMARK SMILES IDX 21 87 18 88 22 89 23 90 24 91 25 92 26 93
REMARK H PARENT 3 7 83 25 51 36 10 78
REMARK Flexibility Score: inf
ROOT
ATOM      1  C   UNL A   1      31.206  28.136  25.370  1.00  0.00     0.002 C 
ENDROOT
BRANCH   1   2
ATOM      2  C   UNL A   1      32.733  28.101  25.480  1.00  0.00     0.021 C 
BRANCH   2   3
ATOM      3  C   UNL A   1      33.436  29.369  25.007  1.00  0.00     0.116 C 
BRANCH   3   4
ATOM      4  N   UNL A   1      32.825  30.566  25.565  1.00  0.00    -0.352 N 
ATOM      5  O   UNL A   1      32.292  32.063  27.161  1.00  0.00    -0.269 OA
ATOM      6  C   UNL A   1      33.079  31.207  26.748  1.00  0.00     0.251 C 
ATOM      7  H   UNL A   1      32.123  30.977  25.008  1.00  0.00     0.163 HD
BRANCH   6   8
ATOM      8  C   UNL A   1      34.290  30.880  27.530  1.00  0.00     0.039 A 
ATOM      9  C   UNL A   1      34.433  29.623  28.121  1.00  0.00     0.014 A 
ATOM     10  C   UNL A   1      35.316  31.824  27.637  1.00  0.00     0.014 A 
ATOM     11  C   UNL A   1      35.540  29.353  28.918  1.00  0.00     0.010 A 
ATOM     12  C   UNL A   1      36.470  31.518  28.366  1.00  0.00     0.010 A 
ATOM     13  C   UNL A   1      36.584  30.286  29.029  1.00  0.00    -0.014 A 
BRANCH  13  14
ATOM     14  C   UNL A   1      37.811  29.915  29.782  1.00  0.00     0.031 A 
ATOM     15  C   UNL A   1      38.829  28.975  29.198  1.00  0.00     0.074 A 
ATOM     16  C   UNL A   1      38.015  30.468  30.995  1.00  0.00     0.049 A 
ATOM     17  N   UNL A   1      39.956  28.558  29.716  1.00  0.00    -0.248 NA
ATOM     18  C   UNL A   1      38.541  28.429  27.865  1.00  0.00     0.031 C 
ATOM     19  C   UNL A   1      37.091  31.390  31.662  1.00  0.00     0.029 A 
ATOM     20  N   UNL A   1      39.059  30.354  31.875  1.00  0.00    -0.354 N 
ATOM     21  C   UNL A   1      40.517  27.701  28.775  1.00  0.00     0.074 A 
ATOM     22  C   UNL A   1      39.576  27.621  27.675  1.00  0.00     0.031 C 
ATOM     23  C   UNL A   1      37.630  31.791  32.822  1.00  0.00     0.029 A 
ATOM     24  C   UNL A   1      38.897  31.098  33.021  1.00  0.00     0.049 A 
ATOM     25  H   UNL A   1      39.850  29.793  31.705  1.00  0.00     0.167 HD
ATOM     26  C   UNL A   1      41.709  27.055  28.820  1.00  0.00     0.034 A 
ATOM     27  C   UNL A   1      39.667  31.195  34.123  1.00  0.00     0.034 A 
ATOM     28  C   UNL A   1      42.625  27.131  29.934  1.00  0.00     0.049 A 
ATOM     29  C   UNL A   1      40.950  30.409  34.175  1.00  0.00     0.074 A 
ATOM     30  C   UNL A   1      43.859  26.518  30.082  1.00  0.00     0.029 A 
ATOM     31  N   UNL A   1      42.407  27.858  31.099  1.00  0.00    -0.354 N 
ATOM     32  N   UNL A   1      41.471  29.616  33.268  1.00  0.00    -0.248 NA
ATOM     33  C   UNL A   1      41.753  30.538  35.397  1.00  0.00     0.031 C 
ATOM     34  C   UNL A   1      44.351  26.818  31.357  1.00  0.00     0.029 A 
ATOM     35  C   UNL A   1      43.467  27.686  31.977  1.00  0.00     0.049 A 
ATOM     36  H   UNL A   1      41.615  28.416  31.274  1.00  0.00     0.167 HD
ATOM     37  C   UNL A   1      42.678  29.173  33.801  1.00  0.00     0.074 A 
ATOM     38  C   UNL A   1      42.816  29.810  35.095  1.00  0.00     0.031 C 
ATOM     39  C   UNL A   1      43.589  28.318  33.271  1.00  0.00     0.034 A 
BRANCH  26  40
ATOM     40  C   UNL A   1      42.073  26.181  27.640  1.00  0.00     0.023 A 
ATOM     41  C   UNL A   1      41.648  24.843  27.559  1.00  0.00     0.031 A 
ATOM     42  C   UNL A   1      42.862  26.685  26.591  1.00  0.00     0.131 A 
ATOM     43  C   UNL A   1      42.069  24.036  26.489  1.00  0.00     0.055 A 
ATOM     44  C   UNL A   1      43.210  25.900  25.488  1.00  0.00     0.041 A 
ATOM     45  F   UNL A   1      43.315  27.948  26.621  1.00  0.00    -0.206 F 
ATOM     46  C   UNL A   1      42.825  24.564  25.440  1.00  0.00     0.022 A 
BRANCH  43  47
ATOM     47  S   UNL A   1      41.729  22.256  26.564  1.00  0.00     0.124 S 
ATOM     48  O   UNL A   1      42.307  21.898  27.858  1.00  0.00    -0.237 OA
ATOM     49  O   UNL A   1      40.275  22.208  26.481  1.00  0.00    -0.237 OA
ATOM     50  O   UNL A   1      42.441  21.722  25.404  1.00  0.00    -0.744 OA
ENDBRANCH  43  47
ENDBRANCH  26  40
BRANCH  27  51
ATOM     51  C   UNL A   1      39.232  32.032  35.278  1.00  0.00     0.023 A 
ATOM     52  C   UNL A   1      38.615  31.457  36.399  1.00  0.00     0.031 A 
ATOM     53  C   UNL A   1      39.378  33.431  35.252  1.00  0.00     0.131 A 
ATOM     54  C   UNL A   1      38.115  32.280  37.419  1.00  0.00     0.055 A 
ATOM     55  C   UNL A   1      38.940  34.240  36.301  1.00  0.00     0.041 A 
ATOM     56  F   UNL A   1      39.961  34.035  34.204  1.00  0.00    -0.206 F 
ATOM     57  C   UNL A   1      38.287  33.665  37.387  1.00  0.00     0.022 A 
BRANCH  54  58
ATOM     58  S   UNL A   1      37.129  31.520  38.738  1.00  0.00     0.124 S 
ATOM     59  O   UNL A   1      35.903  32.309  38.684  1.00  0.00    -0.237 OA
ATOM     60  O   UNL A   1      37.023  30.138  38.278  1.00  0.00    -0.237 OA
ATOM     61  O   UNL A   1      37.947  31.717  39.932  1.00  0.00    -0.744 OA
ENDBRANCH  54  58
ENDBRANCH  27  51
BRANCH  39  62
ATOM     62  C   UNL A   1      44.838  28.067  34.081  1.00  0.00     0.023 A 
ATOM     63  C   UNL A   1      44.922  27.013  35.008  1.00  0.00     0.031 A 
ATOM     64  C   UNL A   1      45.951  28.916  33.945  1.00  0.00     0.131 A 
ATOM     65  C   UNL A   1      46.064  26.877  35.811  1.00  0.00     0.055 A 
ATOM     66  C   UNL A   1      47.112  28.734  34.697  1.00  0.00     0.041 A 
ATOM     67  F   UNL A   1      45.927  29.941  33.077  1.00  0.00    -0.206 F 
ATOM     68  C   UNL A   1      47.167  27.720  35.649  1.00  0.00     0.022 A 
BRANCH  65  69
ATOM     69  S   UNL A   1      46.046  25.652  37.149  1.00  0.00     0.124 S 
ATOM     70  O   UNL A   1      46.488  26.444  38.292  1.00  0.00    -0.237 OA
ATOM     71  O   UNL A   1      44.649  25.231  37.167  1.00  0.00    -0.237 OA
ATOM     72  O   UNL A   1      46.994  24.635  36.695  1.00  0.00    -0.744 OA
ENDBRANCH  65  69
ENDBRANCH  39  62
ENDBRANCH  13  14
ENDBRANCH   6   8
ENDBRANCH   3   4
ENDBRANCH   2   3
ENDBRANCH   1   2
BRANCH   1  73
ATOM     73  C   UNL A   1      30.640  27.963  23.956  1.00  0.00     0.002 C 
BRANCH  73  74
ATOM     74  C   UNL A   1      29.721  26.755  23.779  1.00  0.00     0.021 C 
BRANCH  74  75
ATOM     75  C   UNL A   1      30.432  25.485  23.321  1.00  0.00     0.116 C 
BRANCH  75  76
ATOM     76  N   UNL A   1      31.557  25.809  22.471  1.00  0.00    -0.356 N 
ATOM     77  C   UNL A   1      32.859  25.448  22.521  1.00  0.00     0.223 C 
ATOM     78  H   UNL A   1      31.333  26.402  21.718  1.00  0.00     0.163 HD
ATOM     79  O   UNL A   1      33.621  25.991  21.713  1.00  0.00    -0.275 OA
BRANCH  77  80
ATOM     80  C   UNL A   1      33.412  24.394  23.479  1.00  0.00     0.092 C 
BRANCH  80  81
ATOM     81  C   UNL A   1      34.364  23.360  22.826  1.00  0.00     0.050 C 
BRANCH  81  82
ATOM     82  C   UNL A   1      35.190  22.391  23.651  1.00  0.00    -0.033 A 
ATOM     83  C   UNL A   1      36.538  22.693  23.930  1.00  0.00     0.005 A 
ATOM     84  C   UNL A   1      34.658  21.229  24.247  1.00  0.00     0.021 A 
ATOM     85  C   UNL A   1      37.351  21.821  24.662  1.00  0.00     0.000 A 
ATOM     86  C   UNL A   1      35.470  20.370  25.006  1.00  0.00     0.016 A 
ATOM     87  Br  UNL A   1      32.832  20.719  24.091  1.00  0.00    -0.051 Br
ATOM     88  C   UNL A   1      36.820  20.653  25.191  1.00  0.00     0.001 A 
ENDBRANCH  81  82
ENDBRANCH  80  81
BRANCH  80  89
ATOM     89  C   UNL A   1      33.791  24.917  24.869  1.00  0.00     0.129 C 
BRANCH  89  90
ATOM     90  C   UNL A   1      33.018  24.245  25.988  1.00  0.00     0.389 C 
ATOM     91  F   UNL A   1      31.960  23.555  25.516  1.00  0.00    -0.171 F 
ATOM     92  F   UNL A   1      33.817  23.366  26.635  1.00  0.00    -0.171 F 
ATOM     93  F   UNL A   1      32.576  25.131  26.902  1.00  0.00    -0.171 F 
ENDBRANCH  89  90
ENDBRANCH  80  89
ENDBRANCH  77  80
ENDBRANCH  75  76
ENDBRANCH  74  75
ENDBRANCH  73  74
ENDBRANCH   1  73
TORSDOF 20
ENDMDL
MODEL 3
REMARK VINA RESULT:     -10.6      4.830      9.633
REMARK SMILES O=C(NCCCCCCNC(=O)[C@@H](Cc1ccccc1Br)CC(F)(F)F)c1ccc(-c2c3nc(c(-c4cc(S(=O)(=O)[O-])ccc4F)c4ccc([nH]4)c(-c4cc(S(=O)(=O)[O-])ccc4F)c4nc(c(-c5cc(S(=O)(=O)[O-])ccc5F)c5ccc2[nH]5)C=C4)C=C3)cc1
REMARK SMILES IDX 6 1 5 2 4 3 3 4 1 5 2 6 27 8 28 9 89 10 29 11 88 12 30 13
REMARK SMILES IDX 31 14 32 15 82 16 33 17 87 18 81 19 83 20 34 21 86 22 80 23
REMARK SMILES IDX 79 24 35 26 67 27 47 28 66 29 48 30 51 31 65 32 84 33 49 34
REMARK SMILES IDX 50 35 64 37 85 38 52 39 36 40 37 41 45 42 38 43 44 44 46 45
REMARK SMILES IDX 43 46 39 47 40 48 41 49 42 50 68 51 69 52 77 53 70 54 76 55
REMARK SMILES IDX 78 56 75 57 71 58 72 59 73 60 74 61 53 62 54 63 62 64 55 65
REMARK SMILES IDX 61 66 63 67 60 68 56 69 57 70 58 71 59 72 7 73 8 74 9 75
REMARK SMILES IDX 10 76 11 77 12 79 13 80 14 81 15 82 16 83 20 84 17 85 19 86
REMARK SMILES IDX 21 87 18 88 22 89 23 90 24 91 25 92 26 93
REMARK H PARENT 3 7 83 25 51 36 10 78
REMARK Flexibility Score: inf
ROOT
ATOM      1  C   UNL A   1      35.386  22.938  23.837  1.00  0.00     0.002 C 
ENDROOT
BRANCH   1   2
ATOM      2  C   UNL A   1      36.459  23.741  24.578  1.00  0.00     0.021 C 
BRANCH   2   3
ATOM      3  C   UNL A   1      36.691  23.313  26.024  1.00  0.00     0.116 C 
BRANCH   3   4
ATOM      4  N   UNL A   1      37.812  22.393  26.141  1.00  0.00    -0.352 N 
ATOM      5  O   UNL A   1      39.976  21.769  26.206  1.00  0.00    -0.269 OA
ATOM      6  C   UNL A   1      39.135  22.654  26.385  1.00  0.00     0.251 C 
ATOM      7  H   UNL A   1      37.587  21.441  26.028  1.00  0.00     0.163 HD
BRANCH   6   8
ATOM      8  C   UNL A   1      39.557  23.987  26.863  1.00  0.00     0.039 A 
ATOM      9  C   UNL A   1      39.508  24.300  28.224  1.00  0.00     0.014 A 
ATOM     10  C   UNL A   1      40.052  24.922  25.948  1.00  0.00     0.014 A 
ATOM     11  C   UNL A   1      39.834  25.582  28.653  1.00  0.00     0.010 A 
ATOM     12  C   UNL A   1      40.463  26.183  26.394  1.00  0.00     0.010 A 
ATOM     13  C   UNL A   1      40.341  26.530  27.749  1.00  0.00    -0.014 A 
BRANCH  13  14
ATOM     14  C   UNL A   1      40.803  27.847  28.262  1.00  0.00     0.031 A 
ATOM     15  C   UNL A   1      42.265  28.193  28.314  1.00  0.00     0.074 A 
ATOM     16  C   UNL A   1      39.878  28.747  28.652  1.00  0.00     0.049 A 
ATOM     17  N   UNL A   1      42.835  29.299  28.721  1.00  0.00    -0.248 NA
ATOM     18  C   UNL A   1      43.208  27.164  27.855  1.00  0.00     0.031 C 
ATOM     19  C   UNL A   1      38.430  28.517  28.650  1.00  0.00     0.029 A 
ATOM     20  N   UNL A   1      40.006  30.033  29.110  1.00  0.00    -0.354 N 
ATOM     21  C   UNL A   1      44.204  29.103  28.569  1.00  0.00     0.074 A 
ATOM     22  C   UNL A   1      44.376  27.751  28.077  1.00  0.00     0.031 C 
ATOM     23  C   UNL A   1      37.805  29.636  29.041  1.00  0.00     0.029 A 
ATOM     24  C   UNL A   1      38.804  30.637  29.396  1.00  0.00     0.049 A 
ATOM     25  H   UNL A   1      40.875  30.482  29.222  1.00  0.00     0.167 HD
ATOM     26  C   UNL A   1      45.216  29.976  28.803  1.00  0.00     0.034 A 
ATOM     27  C   UNL A   1      38.532  31.852  29.913  1.00  0.00     0.034 A 
ATOM     28  C   UNL A   1      45.025  31.314  29.312  1.00  0.00     0.049 A 
ATOM     29  C   UNL A   1      39.680  32.772  30.232  1.00  0.00     0.074 A 
ATOM     30  C   UNL A   1      45.980  32.279  29.584  1.00  0.00     0.029 A 
ATOM     31  N   UNL A   1      43.796  31.877  29.635  1.00  0.00    -0.354 N 
ATOM     32  N   UNL A   1      40.968  32.575  30.066  1.00  0.00    -0.248 NA
ATOM     33  C   UNL A   1      39.338  34.081  30.801  1.00  0.00     0.031 C 
ATOM     34  C   UNL A   1      45.338  33.394  30.134  1.00  0.00     0.029 A 
ATOM     35  C   UNL A   1      43.972  33.162  30.129  1.00  0.00     0.049 A 
ATOM     36  H   UNL A   1      42.925  31.429  29.529  1.00  0.00     0.167 HD
ATOM     37  C   UNL A   1      41.586  33.749  30.484  1.00  0.00     0.074 A 
ATOM     38  C   UNL A   1      40.528  34.654  30.885  1.00  0.00     0.031 C 
ATOM     39  C   UNL A   1      42.908  34.052  30.536  1.00  0.00     0.034 A 
BRANCH  26  40
ATOM     40  C   UNL A   1      46.625  29.493  28.542  1.00  0.00     0.023 A 
ATOM     41  C   UNL A   1      47.385  28.866  29.545  1.00  0.00     0.031 A 
ATOM     42  C   UNL A   1      47.222  29.672  27.282  1.00  0.00     0.131 A 
ATOM     43  C   UNL A   1      48.717  28.501  29.294  1.00  0.00     0.055 A 
ATOM     44  C   UNL A   1      48.522  29.233  27.013  1.00  0.00     0.041 A 
ATOM     45  F   UNL A   1      46.557  30.282  26.289  1.00  0.00    -0.206 F 
ATOM     46  C   UNL A   1      49.282  28.657  28.026  1.00  0.00     0.022 A 
BRANCH  43  47
ATOM     47  S   UNL A   1      49.740  27.951  30.686  1.00  0.00     0.124 S 
ATOM     48  O   UNL A   1      49.112  26.677  31.031  1.00  0.00    -0.237 OA
ATOM     49  O   UNL A   1      51.067  27.865  30.090  1.00  0.00    -0.237 OA
ATOM     50  O   UNL A   1      49.566  29.010  31.680  1.00  0.00    -0.744 OA
ENDBRANCH  43  47
ENDBRANCH  26  40
BRANCH  27  51
ATOM     51  C   UNL A   1      37.124  32.254  30.199  1.00  0.00     0.023 A 
ATOM     52  C   UNL A   1      36.356  32.937  29.245  1.00  0.00     0.031 A 
ATOM     53  C   UNL A   1      36.544  32.007  31.457  1.00  0.00     0.131 A 
ATOM     54  C   UNL A   1      35.076  33.401  29.582  1.00  0.00     0.055 A 
ATOM     55  C   UNL A   1      35.245  32.411  31.764  1.00  0.00     0.041 A 
ATOM     56  F   UNL A   1      37.234  31.357  32.409  1.00  0.00    -0.206 F 
ATOM     57  C   UNL A   1      34.508  33.130  30.828  1.00  0.00     0.022 A 
BRANCH  54  58
ATOM     58  S   UNL A   1      34.206  34.471  28.403  1.00  0.00     0.124 S 
ATOM     59  O   UNL A   1      34.271  35.765  29.074  1.00  0.00    -0.237 OA
ATOM     60  O   UNL A   1      35.027  34.329  27.204  1.00  0.00    -0.237 OA
ATOM     61  O   UNL A   1      32.875  33.875  28.321  1.00  0.00    -0.744 OA
ENDBRANCH  54  58
ENDBRANCH  27  51
BRANCH  39  62
ATOM     62  C   UNL A   1      43.271  35.443  30.998  1.00  0.00     0.023 A 
ATOM     63  C   UNL A   1      43.458  36.501  30.091  1.00  0.00     0.031 A 
ATOM     64  C   UNL A   1      43.463  35.705  32.367  1.00  0.00     0.131 A 
ATOM     65  C   UNL A   1      43.892  37.752  30.555  1.00  0.00     0.055 A 
ATOM     66  C   UNL A   1      43.827  36.970  32.829  1.00  0.00     0.041 A 
ATOM     67  F   UNL A   1      43.302  34.732  33.278  1.00  0.00    -0.206 F 
ATOM     68  C   UNL A   1      44.060  37.998  31.920  1.00  0.00     0.022 A 
BRANCH  65  69
ATOM     69  S   UNL A   1      44.341  39.022  29.340  1.00  0.00     0.124 S 
ATOM     70  O   UNL A   1      43.034  39.488  28.892  1.00  0.00    -0.237 OA
ATOM     71  O   UNL A   1      45.113  39.963  30.145  1.00  0.00    -0.237 OA
ATOM     72  O   UNL A   1      45.113  38.284  28.341  1.00  0.00    -0.744 OA
ENDBRANCH  65  69
ENDBRANCH  39  62
ENDBRANCH  13  14
ENDBRANCH   6   8
ENDBRANCH   3   4
ENDBRANCH   2   3
ENDBRANCH   1   2
BRANCH   1  73
ATOM     73  C   UNL A   1      34.014  22.880  24.518  1.00  0.00     0.002 C 
BRANCH  73  74
ATOM     74  C   UNL A   1      32.931  22.163  23.713  1.00  0.00     0.021 C 
BRANCH  74  75
ATOM     75  C   UNL A   1      31.919  23.094  23.051  1.00  0.00     0.116 C 
BRANCH  75  76
ATOM     76  N   UNL A   1      32.545  23.861  21.996  1.00  0.00    -0.356 N 
ATOM     77  C   UNL A   1      32.708  25.192  21.822  1.00  0.00     0.223 C 
ATOM     78  H   UNL A   1      32.919  23.312  21.270  1.00  0.00     0.163 HD
ATOM     79  O   UNL A   1      33.183  25.561  20.743  1.00  0.00    -0.275 OA
BRANCH  77  80
ATOM     80  C   UNL A   1      32.381  26.234  22.892  1.00  0.00     0.092 C 
BRANCH  80  81
ATOM     81  C   UNL A   1      33.437  26.359  24.020  1.00  0.00     0.050 C 
BRANCH  81  82
ATOM     82  C   UNL A   1      33.218  27.239  25.235  1.00  0.00    -0.033 A 
ATOM     83  C   UNL A   1      33.920  28.456  25.345  1.00  0.00     0.005 A 
ATOM     84  C   UNL A   1      32.267  26.957  26.238  1.00  0.00     0.021 A 
ATOM     85  C   UNL A   1      33.776  29.291  26.458  1.00  0.00     0.000 A 
ATOM     86  C   UNL A   1      32.104  27.812  27.340  1.00  0.00     0.016 A 
ATOM     87  Br  UNL A   1      31.135  25.428  26.201  1.00  0.00    -0.051 Br
ATOM     88  C   UNL A   1      32.876  28.964  27.462  1.00  0.00     0.001 A 
ENDBRANCH  81  82
ENDBRANCH  80  81
BRANCH  80  89
ATOM     89  C   UNL A   1      31.764  27.533  22.362  1.00  0.00     0.129 C 
BRANCH  89  90
ATOM     90  C   UNL A   1      30.397  27.825  22.952  1.00  0.00     0.389 C 
ATOM     91  F   UNL A   1      29.758  26.691  23.307  1.00  0.00    -0.171 F 
ATOM     92  F   UNL A   1      30.529  28.580  24.066  1.00  0.00    -0.171 F 
ATOM     93  F   UNL A   1      29.611  28.507  22.097  1.00  0.00    -0.171 F 
ENDBRANCH  89  90
ENDBRANCH  80  89
ENDBRANCH  77  80
ENDBRANCH  75  76
ENDBRANCH  74  75
ENDBRANCH  73  74
ENDBRANCH   1  73
TORSDOF 20
ENDMDL
