MODEL 1
REMARK VINA RESULT:     -13.4      0.000      0.000
REMARK SMILES COc1ccccc1[C@@H]1C[N@@H+](Cc2cn3cc(C)ccc3n2)C[C@H]1C(=O)NCCCCCCNC(=O)c1ccc(-c2c3nc(c(-c4cc(S(=O)(=O)[O-])ccc4F)c4ccc([nH]4)c(-c4cc(S(=O)(=O)[O-])ccc4F)c4nc(c(-c5cc(S(=O)(=O)[O-])ccc5F)c5ccc2[nH]5)C=C4)C=C3)cc1
REMARK SMILES IDX 31 1 30 2 29 3 28 4 27 5 25 6 26 7 24 9 9 10 10 11 11 12
REMARK SMILES IDX 23 13 8 15 3 16 4 17 5 18 7 19 6 20 2 21 1 22 12 23 13 24
REMARK SMILES IDX 14 25 22 26 15 27 21 28 16 29 20 30 17 31 19 32 18 33 32 34
REMARK SMILES IDX 33 35 34 36 35 37 36 39 37 40 38 41 99 42 39 43 98 44 40 45
REMARK SMILES IDX 41 46 42 47 92 48 43 49 97 50 91 51 93 52 44 53 96 54 90 55
REMARK SMILES IDX 89 56 45 58 77 59 57 60 76 61 58 62 61 63 75 64 94 65 59 66
REMARK SMILES IDX 60 67 74 69 95 70 62 71 46 72 47 73 55 74 48 75 54 76 56 77
REMARK SMILES IDX 53 78 49 79 50 80 51 81 52 82 78 83 79 84 87 85 80 86 86 87
REMARK SMILES IDX 88 88 85 89 81 90 82 91 83 92 84 93 63 94 64 95 72 96 65 97
REMARK SMILES IDX 71 98 73 99 70 100 66 101 67 102 68 103 69 104
REMARK H PARENT 27 8 11 14 34 38 93 57 61 68
REMARK Flexibility Score: inf
ROOT
ATOM      1  C   UNL A   1      32.370  28.959  27.215  1.00  0.00     0.002 C 
ENDROOT
BRANCH   1   2
ATOM      2  C   UNL A   1      33.594  28.108  26.883  1.00  0.00     0.002 C 
BRANCH   2   3
ATOM      3  C   UNL A   1      33.450  27.122  25.730  1.00  0.00     0.021 C 
BRANCH   3   4
ATOM      4  C   UNL A   1      33.716  25.622  25.952  1.00  0.00     0.116 C 
BRANCH   4   5
ATOM      5  N   UNL A   1      34.629  25.059  24.935  1.00  0.00    -0.356 N 
ATOM      6  C   UNL A   1      34.573  24.148  23.922  1.00  0.00     0.229 C 
ATOM      7  O   UNL A   1      35.696  23.752  23.561  1.00  0.00    -0.275 OA
ATOM      8  H   UNL A   1      35.529  25.451  25.012  1.00  0.00     0.163 HD
BRANCH   6   9
ATOM      9  C   UNL A   1      33.359  23.660  23.093  1.00  0.00     0.146 C 
ATOM     10  C   UNL A   1      32.458  22.566  23.743  1.00  0.00     0.096 C 
ATOM     11  C   UNL A   1      31.046  22.847  23.209  1.00  0.00     0.272 C 
ATOM     12  N   UNL A   1      30.991  24.304  22.993  1.00  0.00    -0.329 N 
ATOM     13  C   UNL A   1      32.349  24.673  22.549  1.00  0.00     0.276 C 
ATOM     14  H   UNL A   1      30.304  24.550  22.280  1.00  0.00     0.348 HD
BRANCH  10  15
ATOM     15  C   UNL A   1      32.816  21.106  23.974  1.00  0.00     0.004 A 
ATOM     16  C   UNL A   1      33.803  20.572  24.806  1.00  0.00     0.122 A 
ATOM     17  C   UNL A   1      34.089  19.189  24.767  1.00  0.00     0.047 A 
ATOM     18  C   UNL A   1      33.430  18.324  23.891  1.00  0.00     0.004 A 
ATOM     19  C   UNL A   1      32.179  20.189  23.086  1.00  0.00     0.008 A 
ATOM     20  C   UNL A   1      32.480  18.832  23.030  1.00  0.00     0.001 A 
BRANCH  16  21
ATOM     21  O   UNL A   1      34.695  21.292  25.552  1.00  0.00    -0.496 OA
ATOM     22  C   UNL A   1      34.314  21.502  26.900  1.00  0.00     0.278 C 
ENDBRANCH  16  21
ENDBRANCH  10  15
BRANCH  12  23
ATOM     23  C   UNL A   1      30.439  25.093  24.132  1.00  0.00     0.321 C 
BRANCH  23  24
ATOM     24  C   UNL A   1      30.009  26.510  23.841  1.00  0.00     0.114 A 
ATOM     25  C   UNL A   1      30.720  27.665  23.543  1.00  0.00     0.122 A 
ATOM     26  N   UNL A   1      28.678  26.809  23.849  1.00  0.00    -0.228 NA
ATOM     27  N   UNL A   1      29.775  28.641  23.268  1.00  0.00    -0.306 N 
ATOM     28  C   UNL A   1      28.552  28.010  23.343  1.00  0.00     0.137 A 
ATOM     29  C   UNL A   1      29.878  30.012  23.033  1.00  0.00     0.096 A 
ATOM     30  C   UNL A   1      27.388  28.730  22.961  1.00  0.00     0.048 A 
ATOM     31  C   UNL A   1      28.749  30.744  22.875  1.00  0.00    -0.034 A 
ATOM     32  C   UNL A   1      27.473  30.050  22.759  1.00  0.00     0.009 A 
ATOM     33  C   UNL A   1      28.663  32.235  22.863  1.00  0.00     0.046 C 
ENDBRANCH  23  24
ENDBRANCH  12  23
ENDBRANCH   6   9
ENDBRANCH   4   5
ENDBRANCH   3   4
ENDBRANCH   2   3
ENDBRANCH   1   2
BRANCH   1  34
ATOM     34  C   UNL A   1      32.554  30.486  27.218  1.00  0.00     0.021 C 
BRANCH  34  35
ATOM     35  C   UNL A   1      33.988  30.985  27.382  1.00  0.00     0.116 C 
BRANCH  35  36
ATOM     36  N   UNL A   1      34.106  32.063  28.352  1.00  0.00    -0.352 N 
ATOM     37  C   UNL A   1      34.988  32.185  29.407  1.00  0.00     0.251 C 
ATOM     38  H   UNL A   1      33.470  32.806  28.240  1.00  0.00     0.163 HD
ATOM     39  O   UNL A   1      34.748  32.980  30.303  1.00  0.00    -0.269 OA
BRANCH  37  40
ATOM     40  C   UNL A   1      36.222  31.362  29.449  1.00  0.00     0.039 A 
ATOM     41  C   UNL A   1      37.480  31.973  29.378  1.00  0.00     0.014 A 
ATOM     42  C   UNL A   1      36.131  29.973  29.489  1.00  0.00     0.014 A 
ATOM     43  C   UNL A   1      38.635  31.186  29.387  1.00  0.00     0.010 A 
ATOM     44  C   UNL A   1      37.277  29.209  29.576  1.00  0.00     0.010 A 
ATOM     45  C   UNL A   1      38.528  29.794  29.486  1.00  0.00    -0.014 A 
BRANCH  45  46
ATOM     46  C   UNL A   1      39.707  28.947  29.665  1.00  0.00     0.031 A 
ATOM     47  C   UNL A   1      40.040  28.675  31.081  1.00  0.00     0.074 A 
ATOM     48  C   UNL A   1      40.371  28.278  28.697  1.00  0.00     0.049 A 
ATOM     49  N   UNL A   1      40.996  29.216  31.753  1.00  0.00    -0.248 NA
ATOM     50  C   UNL A   1      39.141  27.839  31.886  1.00  0.00     0.031 C 
ATOM     51  C   UNL A   1      40.060  28.186  27.274  1.00  0.00     0.029 A 
ATOM     52  N   UNL A   1      41.454  27.457  28.817  1.00  0.00    -0.354 N 
ATOM     53  C   UNL A   1      40.982  28.611  33.001  1.00  0.00     0.074 A 
ATOM     54  C   UNL A   1      39.713  27.936  33.089  1.00  0.00     0.031 C 
ATOM     55  C   UNL A   1      40.778  27.188  26.707  1.00  0.00     0.029 A 
ATOM     56  C   UNL A   1      41.744  26.707  27.681  1.00  0.00     0.049 A 
ATOM     57  H   UNL A   1      41.988  27.400  29.642  1.00  0.00     0.167 HD
ATOM     58  C   UNL A   1      42.118  28.545  33.750  1.00  0.00     0.034 A 
ATOM     59  C   UNL A   1      42.726  25.778  27.529  1.00  0.00     0.034 A 
ATOM     60  C   UNL A   1      43.143  29.418  33.210  1.00  0.00     0.049 A 
ATOM     61  C   UNL A   1      43.782  26.111  28.516  1.00  0.00     0.074 A 
ATOM     62  C   UNL A   1      43.212  30.770  32.928  1.00  0.00     0.029 A 
ATOM     63  N   UNL A   1      44.171  28.845  32.491  1.00  0.00    -0.354 N 
ATOM     64  N   UNL A   1      44.495  27.203  28.452  1.00  0.00    -0.248 NA
ATOM     65  C   UNL A   1      43.725  25.491  29.830  1.00  0.00     0.031 C 
ATOM     66  C   UNL A   1      43.907  30.850  31.684  1.00  0.00     0.029 A 
ATOM     67  C   UNL A   1      44.302  29.560  31.325  1.00  0.00     0.049 A 
ATOM     68  H   UNL A   1      44.712  28.069  32.764  1.00  0.00     0.167 HD
ATOM     69  C   UNL A   1      44.583  27.649  29.760  1.00  0.00     0.074 A 
ATOM     70  C   UNL A   1      44.189  26.500  30.574  1.00  0.00     0.031 C 
ATOM     71  C   UNL A   1      44.696  28.980  30.052  1.00  0.00     0.034 A 
BRANCH  58  72
ATOM     72  C   UNL A   1      42.451  27.456  34.743  1.00  0.00     0.023 A 
ATOM     73  C   UNL A   1      43.303  26.428  34.297  1.00  0.00     0.031 A 
ATOM     74  C   UNL A   1      41.780  27.212  35.961  1.00  0.00     0.131 A 
ATOM     75  C   UNL A   1      43.365  25.197  34.968  1.00  0.00     0.055 A 
ATOM     76  C   UNL A   1      41.904  26.012  36.668  1.00  0.00     0.041 A 
ATOM     77  F   UNL A   1      40.899  28.069  36.488  1.00  0.00    -0.206 F 
ATOM     78  C   UNL A   1      42.671  24.980  36.153  1.00  0.00     0.022 A 
BRANCH  75  79
ATOM     79  S   UNL A   1      44.216  23.824  34.150  1.00  0.00     0.124 S 
ATOM     80  O   UNL A   1      43.926  22.720  35.060  1.00  0.00    -0.237 OA
ATOM     81  O   UNL A   1      43.546  23.784  32.855  1.00  0.00    -0.237 OA
ATOM     82  O   UNL A   1      45.609  24.260  34.121  1.00  0.00    -0.744 OA
ENDBRANCH  75  79
ENDBRANCH  58  72
BRANCH  59  83
ATOM     83  C   UNL A   1      42.663  24.493  26.783  1.00  0.00     0.023 A 
ATOM     84  C   UNL A   1      43.713  24.026  25.964  1.00  0.00     0.031 A 
ATOM     85  C   UNL A   1      41.636  23.570  27.086  1.00  0.00     0.131 A 
ATOM     86  C   UNL A   1      43.714  22.689  25.497  1.00  0.00     0.055 A 
ATOM     87  C   UNL A   1      41.642  22.252  26.623  1.00  0.00     0.041 A 
ATOM     88  F   UNL A   1      40.637  23.894  27.922  1.00  0.00    -0.206 F 
ATOM     89  C   UNL A   1      42.689  21.802  25.835  1.00  0.00     0.022 A 
BRANCH  86  90
ATOM     90  S   UNL A   1      45.115  22.047  24.522  1.00  0.00     0.124 S 
ATOM     91  O   UNL A   1      45.268  23.066  23.490  1.00  0.00    -0.237 OA
ATOM     92  O   UNL A   1      46.178  21.964  25.517  1.00  0.00    -0.237 OA
ATOM     93  O   UNL A   1      44.631  20.753  24.039  1.00  0.00    -0.744 OA
ENDBRANCH  86  90
ENDBRANCH  59  83
BRANCH  71  94
ATOM     94  C   UNL A   1      45.048  29.943  28.931  1.00  0.00     0.023 A 
ATOM     95  C   UNL A   1      46.359  30.350  28.590  1.00  0.00     0.031 A 
ATOM     96  C   UNL A   1      43.998  30.389  28.108  1.00  0.00     0.131 A 
ATOM     97  C   UNL A   1      46.574  31.186  27.475  1.00  0.00     0.055 A 
ATOM     98  C   UNL A   1      44.216  31.196  26.992  1.00  0.00     0.041 A 
ATOM     99  F   UNL A   1      42.731  30.021  28.360  1.00  0.00    -0.206 F 
ATOM    100  C   UNL A   1      45.506  31.606  26.676  1.00  0.00     0.022 A 
BRANCH  97 101
ATOM    101  S   UNL A   1      48.248  31.776  27.061  1.00  0.00     0.124 S 
ATOM    102  O   UNL A   1      48.782  32.228  28.341  1.00  0.00    -0.237 OA
ATOM    103  O   UNL A   1      48.872  30.581  26.499  1.00  0.00    -0.237 OA
ATOM    104  O   UNL A   1      47.999  32.844  26.092  1.00  0.00    -0.744 OA
ENDBRANCH  97 101
ENDBRANCH  71  94
ENDBRANCH  45  46
ENDBRANCH  37  40
ENDBRANCH  35  36
ENDBRANCH  34  35
ENDBRANCH   1  34
TORSDOF 20
ENDMDL
MODEL 2
REMARK VINA RESULT:     -13.3      3.331      7.541
REMARK SMILES COc1ccccc1[C@@H]1C[N@@H+](Cc2cn3cc(C)ccc3n2)C[C@H]1C(=O)NCCCCCCNC(=O)c1ccc(-c2c3nc(c(-c4cc(S(=O)(=O)[O-])ccc4F)c4ccc([nH]4)c(-c4cc(S(=O)(=O)[O-])ccc4F)c4nc(c(-c5cc(S(=O)(=O)[O-])ccc5F)c5ccc2[nH]5)C=C4)C=C3)cc1
REMARK SMILES IDX 31 1 30 2 29 3 28 4 27 5 25 6 26 7 24 9 9 10 10 11 11 12
REMARK SMILES IDX 23 13 8 15 3 16 4 17 5 18 7 19 6 20 2 21 1 22 12 23 13 24
REMARK SMILES IDX 14 25 22 26 15 27 21 28 16 29 20 30 17 31 19 32 18 33 32 34
REMARK SMILES IDX 33 35 34 36 35 37 36 39 37 40 38 41 99 42 39 43 98 44 40 45
REMARK SMILES IDX 41 46 42 47 92 48 43 49 97 50 91 51 93 52 44 53 96 54 90 55
REMARK SMILES IDX 89 56 45 58 77 59 57 60 76 61 58 62 61 63 75 64 94 65 59 66
REMARK SMILES IDX 60 67 74 69 95 70 62 71 46 72 47 73 55 74 48 75 54 76 56 77
REMARK SMILES IDX 53 78 49 79 50 80 51 81 52 82 78 83 79 84 87 85 80 86 86 87
REMARK SMILES IDX 88 88 85 89 81 90 82 91 83 92 84 93 63 94 64 95 72 96 65 97
REMARK SMILES IDX 71 98 73 99 70 100 66 101 67 102 68 103 69 104
REMARK H PARENT 27 8 11 14 34 38 93 57 61 68
REMARK Flexibility Score: inf
ROOT
ATOM      1  C   UNL A   1      32.237  27.296  26.756  1.00  0.00     0.002 C 
ENDROOT
BRANCH   1   2
ATOM      2  C   UNL A   1      33.658  27.136  26.219  1.00  0.00     0.002 C 
BRANCH   2   3
ATOM      3  C   UNL A   1      33.871  26.065  25.156  1.00  0.00     0.021 C 
BRANCH   3   4
ATOM      4  C   UNL A   1      34.676  24.794  25.485  1.00  0.00     0.116 C 
BRANCH   4   5
ATOM      5  N   UNL A   1      35.375  24.253  24.300  1.00  0.00    -0.356 N 
ATOM      6  C   UNL A   1      35.092  23.433  23.248  1.00  0.00     0.229 C 
ATOM      7  O   UNL A   1      36.112  22.990  22.688  1.00  0.00    -0.275 OA
ATOM      8  H   UNL A   1      36.305  24.574  24.260  1.00  0.00     0.163 HD
BRANCH   6   9
ATOM      9  C   UNL A   1      33.731  23.099  22.589  1.00  0.00     0.146 C 
ATOM     10  C   UNL A   1      32.744  22.223  23.420  1.00  0.00     0.096 C 
ATOM     11  C   UNL A   1      31.344  22.700  23.003  1.00  0.00     0.272 C 
ATOM     12  N   UNL A   1      31.501  24.125  22.664  1.00  0.00    -0.329 N 
ATOM     13  C   UNL A   1      32.842  24.227  22.058  1.00  0.00     0.276 C 
ATOM     14  H   UNL A   1      30.787  24.432  22.003  1.00  0.00     0.348 HD
BRANCH  10  15
ATOM     15  C   UNL A   1      32.886  20.743  23.744  1.00  0.00     0.004 A 
ATOM     16  C   UNL A   1      33.717  20.134  24.688  1.00  0.00     0.122 A 
ATOM     17  C   UNL A   1      33.822  18.727  24.733  1.00  0.00     0.047 A 
ATOM     18  C   UNL A   1      33.136  17.906  23.835  1.00  0.00     0.004 A 
ATOM     19  C   UNL A   1      32.216  19.869  22.838  1.00  0.00     0.008 A 
ATOM     20  C   UNL A   1      32.341  18.484  22.867  1.00  0.00     0.001 A 
BRANCH  16  21
ATOM     21  O   UNL A   1      34.626  20.775  25.484  1.00  0.00    -0.496 OA
ATOM     22  C   UNL A   1      35.982  20.545  25.147  1.00  0.00     0.278 C 
ENDBRANCH  16  21
ENDBRANCH  10  15
BRANCH  12  23
ATOM     23  C   UNL A   1      31.213  25.077  23.777  1.00  0.00     0.321 C 
BRANCH  23  24
ATOM     24  C   UNL A   1      30.634  26.418  23.400  1.00  0.00     0.114 A 
ATOM     25  C   UNL A   1      31.125  27.473  22.644  1.00  0.00     0.122 A 
ATOM     26  N   UNL A   1      29.388  26.746  23.846  1.00  0.00    -0.228 NA
ATOM     27  N   UNL A   1      30.097  28.400  22.558  1.00  0.00    -0.306 N 
ATOM     28  C   UNL A   1      29.022  27.826  23.203  1.00  0.00     0.137 A 
ATOM     29  C   UNL A   1      30.036  29.694  22.043  1.00  0.00     0.096 A 
ATOM     30  C   UNL A   1      27.765  28.486  23.151  1.00  0.00     0.048 A 
ATOM     31  C   UNL A   1      28.893  30.409  22.179  1.00  0.00    -0.034 A 
ATOM     32  C   UNL A   1      27.702  29.738  22.683  1.00  0.00     0.009 A 
ATOM     33  C   UNL A   1      28.733  31.870  21.914  1.00  0.00     0.046 C 
ENDBRANCH  23  24
ENDBRANCH  12  23
ENDBRANCH   6   9
ENDBRANCH   4   5
ENDBRANCH   3   4
ENDBRANCH   2   3
ENDBRANCH   1   2
BRANCH   1  34
ATOM     34  C   UNL A   1      31.419  28.492  26.240  1.00  0.00     0.021 C 
BRANCH  34  35
ATOM     35  C   UNL A   1      32.222  29.619  25.593  1.00  0.00     0.116 C 
BRANCH  35  36
ATOM     36  N   UNL A   1      31.677  30.939  25.876  1.00  0.00    -0.352 N 
ATOM     37  C   UNL A   1      32.102  31.870  26.802  1.00  0.00     0.251 C 
ATOM     38  H   UNL A   1      30.899  31.202  25.332  1.00  0.00     0.163 HD
ATOM     39  O   UNL A   1      31.353  32.778  27.130  1.00  0.00    -0.269 OA
BRANCH  37  40
ATOM     40  C   UNL A   1      33.462  31.775  27.387  1.00  0.00     0.039 A 
ATOM     41  C   UNL A   1      34.022  30.523  27.670  1.00  0.00     0.014 A 
ATOM     42  C   UNL A   1      34.158  32.934  27.720  1.00  0.00     0.014 A 
ATOM     43  C   UNL A   1      35.292  30.447  28.249  1.00  0.00     0.010 A 
ATOM     44  C   UNL A   1      35.442  32.848  28.220  1.00  0.00     0.010 A 
ATOM     45  C   UNL A   1      36.003  31.620  28.526  1.00  0.00    -0.014 A 
BRANCH  45  46
ATOM     46  C   UNL A   1      37.394  31.584  28.976  1.00  0.00     0.031 A 
ATOM     47  C   UNL A   1      38.077  30.298  28.710  1.00  0.00     0.074 A 
ATOM     48  C   UNL A   1      38.122  32.630  29.422  1.00  0.00     0.049 A 
ATOM     49  N   UNL A   1      38.340  29.385  29.579  1.00  0.00    -0.248 NA
ATOM     50  C   UNL A   1      38.366  29.908  27.324  1.00  0.00     0.031 C 
ATOM     51  C   UNL A   1      37.738  34.035  29.516  1.00  0.00     0.029 A 
ATOM     52  N   UNL A   1      39.426  32.653  29.825  1.00  0.00    -0.354 N 
ATOM     53  C   UNL A   1      39.050  28.403  28.904  1.00  0.00     0.074 A 
ATOM     54  C   UNL A   1      38.857  28.679  27.504  1.00  0.00     0.031 C 
ATOM     55  C   UNL A   1      38.835  34.803  29.721  1.00  0.00     0.029 A 
ATOM     56  C   UNL A   1      39.967  33.927  29.975  1.00  0.00     0.049 A 
ATOM     57  H   UNL A   1      39.943  31.833  29.997  1.00  0.00     0.167 HD
ATOM     58  C   UNL A   1      39.911  27.588  29.575  1.00  0.00     0.034 A 
ATOM     59  C   UNL A   1      41.243  34.252  30.315  1.00  0.00     0.034 A 
ATOM     60  C   UNL A   1      39.718  27.702  31.008  1.00  0.00     0.049 A 
ATOM     61  C   UNL A   1      41.789  33.096  31.067  1.00  0.00     0.074 A 
ATOM     62  C   UNL A   1      38.639  27.532  31.855  1.00  0.00     0.029 A 
ATOM     63  N   UNL A   1      40.632  28.442  31.729  1.00  0.00    -0.354 N 
ATOM     64  N   UNL A   1      41.333  32.728  32.234  1.00  0.00    -0.248 NA
ATOM     65  C   UNL A   1      42.498  32.061  30.331  1.00  0.00     0.031 C 
ATOM     66  C   UNL A   1      38.742  28.598  32.799  1.00  0.00     0.029 A 
ATOM     67  C   UNL A   1      39.920  29.300  32.533  1.00  0.00     0.049 A 
ATOM     68  H   UNL A   1      41.612  28.369  31.678  1.00  0.00     0.167 HD
ATOM     69  C   UNL A   1      41.287  31.345  32.180  1.00  0.00     0.074 A 
ATOM     70  C   UNL A   1      42.119  30.988  31.032  1.00  0.00     0.031 C 
ATOM     71  C   UNL A   1      40.360  30.636  32.894  1.00  0.00     0.034 A 
BRANCH  58  72
ATOM     72  C   UNL A   1      41.156  26.958  28.994  1.00  0.00     0.023 A 
ATOM     73  C   UNL A   1      42.250  27.813  28.761  1.00  0.00     0.031 A 
ATOM     74  C   UNL A   1      41.238  25.680  28.401  1.00  0.00     0.131 A 
ATOM     75  C   UNL A   1      43.285  27.443  27.887  1.00  0.00     0.055 A 
ATOM     76  C   UNL A   1      42.309  25.287  27.592  1.00  0.00     0.041 A 
ATOM     77  F   UNL A   1      40.257  24.775  28.487  1.00  0.00    -0.206 F 
ATOM     78  C   UNL A   1      43.323  26.183  27.300  1.00  0.00     0.022 A 
BRANCH  75  79
ATOM     79  S   UNL A   1      44.469  28.716  27.383  1.00  0.00     0.124 S 
ATOM     80  O   UNL A   1      45.603  27.903  26.955  1.00  0.00    -0.237 OA
ATOM     81  O   UNL A   1      43.736  29.407  26.327  1.00  0.00    -0.237 OA
ATOM     82  O   UNL A   1      44.677  29.486  28.606  1.00  0.00    -0.744 OA
ENDBRANCH  75  79
ENDBRANCH  58  72
BRANCH  59  83
ATOM     83  C   UNL A   1      42.074  35.367  29.790  1.00  0.00     0.023 A 
ATOM     84  C   UNL A   1      43.190  35.887  30.481  1.00  0.00     0.031 A 
ATOM     85  C   UNL A   1      41.919  35.770  28.444  1.00  0.00     0.131 A 
ATOM     86  C   UNL A   1      44.096  36.755  29.824  1.00  0.00     0.055 A 
ATOM     87  C   UNL A   1      42.815  36.626  27.801  1.00  0.00     0.041 A 
ATOM     88  F   UNL A   1      40.936  35.267  27.679  1.00  0.00    -0.206 F 
ATOM     89  C   UNL A   1      43.916  37.114  28.486  1.00  0.00     0.022 A 
BRANCH  86  90
ATOM     90  S   UNL A   1      45.594  37.351  30.677  1.00  0.00     0.124 S 
ATOM     91  O   UNL A   1      45.420  38.798  30.636  1.00  0.00    -0.237 OA
ATOM     92  O   UNL A   1      45.482  36.719  31.987  1.00  0.00    -0.237 OA
ATOM     93  O   UNL A   1      46.686  36.840  29.846  1.00  0.00    -0.744 OA
ENDBRANCH  86  90
ENDBRANCH  59  83
BRANCH  71  94
ATOM     94  C   UNL A   1      39.591  31.347  33.994  1.00  0.00     0.023 A 
ATOM     95  C   UNL A   1      38.412  32.105  33.803  1.00  0.00     0.031 A 
ATOM     96  C   UNL A   1      40.029  31.155  35.317  1.00  0.00     0.131 A 
ATOM     97  C   UNL A   1      37.735  32.654  34.912  1.00  0.00     0.055 A 
ATOM     98  C   UNL A   1      39.343  31.678  36.413  1.00  0.00     0.041 A 
ATOM     99  F   UNL A   1      41.127  30.425  35.573  1.00  0.00    -0.206 F 
ATOM    100  C   UNL A   1      38.197  32.438  36.214  1.00  0.00     0.022 A 
BRANCH  97 101
ATOM    101  S   UNL A   1      36.255  33.691  34.680  1.00  0.00     0.124 S 
ATOM    102  O   UNL A   1      36.770  34.889  34.027  1.00  0.00    -0.237 OA
ATOM    103  O   UNL A   1      35.399  32.838  33.859  1.00  0.00    -0.237 OA
ATOM    104  O   UNL A   1      35.771  33.900  36.045  1.00  0.00    -0.744 OA
ENDBRANCH  97 101
ENDBRANCH  71  94
ENDBRANCH  45  46
ENDBRANCH  37  40
ENDBRANCH  35  36
ENDBRANCH  34  35
ENDBRANCH   1  34
TORSDOF 20
ENDMDL
MODEL 3
REMARK VINA RESULT:     -13.2      2.482      6.867
REMARK SMILES COc1ccccc1[C@@H]1C[N@@H+](Cc2cn3cc(C)ccc3n2)C[C@H]1C(=O)NCCCCCCNC(=O)c1ccc(-c2c3nc(c(-c4cc(S(=O)(=O)[O-])ccc4F)c4ccc([nH]4)c(-c4cc(S(=O)(=O)[O-])ccc4F)c4nc(c(-c5cc(S(=O)(=O)[O-])ccc5F)c5ccc2[nH]5)C=C4)C=C3)cc1
REMARK SMILES IDX 31 1 30 2 29 3 28 4 27 5 25 6 26 7 24 9 9 10 10 11 11 12
REMARK SMILES IDX 23 13 8 15 3 16 4 17 5 18 7 19 6 20 2 21 1 22 12 23 13 24
REMARK SMILES IDX 14 25 22 26 15 27 21 28 16 29 20 30 17 31 19 32 18 33 32 34
REMARK SMILES IDX 33 35 34 36 35 37 36 39 37 40 38 41 99 42 39 43 98 44 40 45
REMARK SMILES IDX 41 46 42 47 92 48 43 49 97 50 91 51 93 52 44 53 96 54 90 55
REMARK SMILES IDX 89 56 45 58 77 59 57 60 76 61 58 62 61 63 75 64 94 65 59 66
REMARK SMILES IDX 60 67 74 69 95 70 62 71 46 72 47 73 55 74 48 75 54 76 56 77
REMARK SMILES IDX 53 78 49 79 50 80 51 81 52 82 78 83 79 84 87 85 80 86 86 87
REMARK SMILES IDX 88 88 85 89 81 90 82 91 83 92 84 93 63 94 64 95 72 96 65 97
REMARK SMILES IDX 71 98 73 99 70 100 66 101 67 102 68 103 69 104
REMARK H PARENT 27 8 11 14 34 38 93 57 61 68
REMARK Flexibility Score: inf
ROOT
ATOM      1  C   UNL A   1      33.094  30.040  26.849  1.00  0.00     0.002 C 
ENDROOT
BRANCH   1   2
ATOM      2  C   UNL A   1      31.658  29.632  27.176  1.00  0.00     0.002 C 
BRANCH   2   3
ATOM      3  C   UNL A   1      31.442  28.192  27.622  1.00  0.00     0.021 C 
BRANCH   3   4
ATOM      4  C   UNL A   1      31.217  27.081  26.580  1.00  0.00     0.116 C 
BRANCH   4   5
ATOM      5  N   UNL A   1      32.016  25.872  26.870  1.00  0.00    -0.356 N 
ATOM      6  C   UNL A   1      32.905  25.069  26.217  1.00  0.00     0.229 C 
ATOM      7  O   UNL A   1      33.051  23.960  26.764  1.00  0.00    -0.275 OA
ATOM      8  H   UNL A   1      31.864  25.559  27.791  1.00  0.00     0.163 HD
BRANCH   6   9
ATOM      9  C   UNL A   1      33.829  25.383  25.015  1.00  0.00     0.146 C 
ATOM     10  C   UNL A   1      34.081  24.224  24.001  1.00  0.00     0.096 C 
ATOM     11  C   UNL A   1      34.264  24.920  22.643  1.00  0.00     0.272 C 
ATOM     12  N   UNL A   1      33.434  26.135  22.710  1.00  0.00    -0.329 N 
ATOM     13  C   UNL A   1      33.527  26.582  24.113  1.00  0.00     0.276 C 
ATOM     14  H   UNL A   1      33.781  26.860  22.081  1.00  0.00     0.348 HD
BRANCH  10  15
ATOM     15  C   UNL A   1      34.908  22.969  24.235  1.00  0.00     0.004 A 
ATOM     16  C   UNL A   1      34.465  21.680  24.543  1.00  0.00     0.122 A 
ATOM     17  C   UNL A   1      35.398  20.675  24.880  1.00  0.00     0.047 A 
ATOM     18  C   UNL A   1      36.769  20.931  24.946  1.00  0.00     0.004 A 
ATOM     19  C   UNL A   1      36.313  23.191  24.329  1.00  0.00     0.008 A 
ATOM     20  C   UNL A   1      37.228  22.206  24.687  1.00  0.00     0.001 A 
BRANCH  16  21
ATOM     21  O   UNL A   1      33.165  21.310  24.750  1.00  0.00    -0.496 OA
ATOM     22  C   UNL A   1      32.371  21.240  23.578  1.00  0.00     0.278 C 
ENDBRANCH  16  21
ENDBRANCH  10  15
BRANCH  12  23
ATOM     23  C   UNL A   1      32.054  25.991  22.160  1.00  0.00     0.321 C 
BRANCH  23  24
ATOM     24  C   UNL A   1      31.077  27.101  22.460  1.00  0.00     0.114 A 
ATOM     25  C   UNL A   1      31.104  28.467  22.217  1.00  0.00     0.122 A 
ATOM     26  N   UNL A   1      29.908  26.795  23.093  1.00  0.00    -0.228 NA
ATOM     27  N   UNL A   1      29.873  28.958  22.625  1.00  0.00    -0.306 N 
ATOM     28  C   UNL A   1      29.145  27.857  23.024  1.00  0.00     0.137 A 
ATOM     29  C   UNL A   1      29.367  30.252  22.742  1.00  0.00     0.096 A 
ATOM     30  C   UNL A   1      27.776  28.031  23.360  1.00  0.00     0.048 A 
ATOM     31  C   UNL A   1      28.130  30.435  23.263  1.00  0.00    -0.034 A 
ATOM     32  C   UNL A   1      27.289  29.270  23.501  1.00  0.00     0.009 A 
ATOM     33  C   UNL A   1      27.538  31.740  23.686  1.00  0.00     0.046 C 
ENDBRANCH  23  24
ENDBRANCH  12  23
ENDBRANCH   6   9
ENDBRANCH   4   5
ENDBRANCH   3   4
ENDBRANCH   2   3
ENDBRANCH   1   2
BRANCH   1  34
ATOM     34  C   UNL A   1      34.173  28.947  26.929  1.00  0.00     0.021 C 
BRANCH  34  35
ATOM     35  C   UNL A   1      35.546  29.401  27.421  1.00  0.00     0.116 C 
BRANCH  35  36
ATOM     36  N   UNL A   1      35.552  29.765  28.830  1.00  0.00    -0.352 N 
ATOM     37  C   UNL A   1      36.494  29.471  29.796  1.00  0.00     0.251 C 
ATOM     38  H   UNL A   1      34.778  30.292  29.136  1.00  0.00     0.163 HD
ATOM     39  O   UNL A   1      36.197  29.572  30.977  1.00  0.00    -0.269 OA
BRANCH  37  40
ATOM     40  C   UNL A   1      37.859  29.046  29.402  1.00  0.00     0.039 A 
ATOM     41  C   UNL A   1      38.506  29.660  28.322  1.00  0.00     0.014 A 
ATOM     42  C   UNL A   1      38.476  27.988  30.064  1.00  0.00     0.014 A 
ATOM     43  C   UNL A   1      39.781  29.231  27.941  1.00  0.00     0.010 A 
ATOM     44  C   UNL A   1      39.765  27.622  29.731  1.00  0.00     0.010 A 
ATOM     45  C   UNL A   1      40.411  28.203  28.652  1.00  0.00    -0.014 A 
BRANCH  45  46
ATOM     46  C   UNL A   1      41.803  27.837  28.396  1.00  0.00     0.031 A 
ATOM     47  C   UNL A   1      41.961  26.614  27.579  1.00  0.00     0.074 A 
ATOM     48  C   UNL A   1      42.894  28.584  28.671  1.00  0.00     0.049 A 
ATOM     49  N   UNL A   1      42.302  25.450  28.013  1.00  0.00    -0.248 NA
ATOM     50  C   UNL A   1      41.556  26.632  26.167  1.00  0.00     0.031 C 
ATOM     51  C   UNL A   1      42.961  29.932  29.228  1.00  0.00     0.029 A 
ATOM     52  N   UNL A   1      44.206  28.300  28.427  1.00  0.00    -0.354 N 
ATOM     53  C   UNL A   1      42.398  24.634  26.895  1.00  0.00     0.074 A 
ATOM     54  C   UNL A   1      41.739  25.351  25.835  1.00  0.00     0.031 C 
ATOM     55  C   UNL A   1      44.206  30.438  29.067  1.00  0.00     0.029 A 
ATOM     56  C   UNL A   1      45.073  29.378  28.581  1.00  0.00     0.049 A 
ATOM     57  H   UNL A   1      44.515  27.404  28.163  1.00  0.00     0.167 HD
ATOM     58  C   UNL A   1      43.211  23.541  26.906  1.00  0.00     0.034 A 
ATOM     59  C   UNL A   1      46.415  29.402  28.359  1.00  0.00     0.034 A 
ATOM     60  C   UNL A   1      43.647  23.235  28.255  1.00  0.00     0.049 A 
ATOM     61  C   UNL A   1      46.895  28.006  28.511  1.00  0.00     0.074 A 
ATOM     62  C   UNL A   1      42.994  22.965  29.444  1.00  0.00     0.029 A 
ATOM     63  N   UNL A   1      44.931  23.584  28.617  1.00  0.00    -0.354 N 
ATOM     64  N   UNL A   1      46.868  27.366  29.648  1.00  0.00    -0.248 NA
ATOM     65  C   UNL A   1      46.953  27.160  27.329  1.00  0.00     0.031 C 
ATOM     66  C   UNL A   1      43.742  23.665  30.439  1.00  0.00     0.029 A 
ATOM     67  C   UNL A   1      44.852  24.243  29.820  1.00  0.00     0.049 A 
ATOM     68  H   UNL A   1      45.753  23.393  28.108  1.00  0.00     0.167 HD
ATOM     69  C   UNL A   1      46.444  26.087  29.327  1.00  0.00     0.074 A 
ATOM     70  C   UNL A   1      46.621  25.987  27.878  1.00  0.00     0.031 C 
ATOM     71  C   UNL A   1      45.733  25.329  30.216  1.00  0.00     0.034 A 
BRANCH  58  72
ATOM     72  C   UNL A   1      43.907  22.954  25.700  1.00  0.00     0.023 A 
ATOM     73  C   UNL A   1      43.768  21.568  25.498  1.00  0.00     0.031 A 
ATOM     74  C   UNL A   1      44.903  23.590  24.927  1.00  0.00     0.131 A 
ATOM     75  C   UNL A   1      44.659  20.862  24.674  1.00  0.00     0.055 A 
ATOM     76  C   UNL A   1      45.739  22.895  24.048  1.00  0.00     0.041 A 
ATOM     77  F   UNL A   1      45.191  24.891  25.043  1.00  0.00    -0.206 F 
ATOM     78  C   UNL A   1      45.646  21.517  23.945  1.00  0.00     0.022 A 
BRANCH  75  79
ATOM     79  S   UNL A   1      44.623  19.054  24.732  1.00  0.00     0.124 S 
ATOM     80  O   UNL A   1      43.247  18.805  25.148  1.00  0.00    -0.237 OA
ATOM     81  O   UNL A   1      44.955  18.702  23.356  1.00  0.00    -0.237 OA
ATOM     82  O   UNL A   1      45.644  18.728  25.724  1.00  0.00    -0.744 OA
ENDBRANCH  75  79
ENDBRANCH  58  72
BRANCH  59  83
ATOM     83  C   UNL A   1      47.225  30.498  27.764  1.00  0.00     0.023 A 
ATOM     84  C   UNL A   1      46.654  31.599  27.090  1.00  0.00     0.031 A 
ATOM     85  C   UNL A   1      48.597  30.597  28.090  1.00  0.00     0.131 A 
ATOM     86  C   UNL A   1      47.441  32.735  26.782  1.00  0.00     0.055 A 
ATOM     87  C   UNL A   1      49.369  31.720  27.784  1.00  0.00     0.041 A 
ATOM     88  F   UNL A   1      49.212  29.639  28.801  1.00  0.00    -0.206 F 
ATOM     89  C   UNL A   1      48.790  32.801  27.138  1.00  0.00     0.022 A 
BRANCH  86  90
ATOM     90  S   UNL A   1      46.688  34.201  26.001  1.00  0.00     0.124 S 
ATOM     91  O   UNL A   1      46.371  35.038  27.153  1.00  0.00    -0.237 OA
ATOM     92  O   UNL A   1      47.754  34.674  25.126  1.00  0.00    -0.237 OA
ATOM     93  O   UNL A   1      45.524  33.655  25.301  1.00  0.00    -0.744 OA
ENDBRANCH  86  90
ENDBRANCH  59  83
BRANCH  71  94
ATOM     94  C   UNL A   1      45.684  25.767  31.669  1.00  0.00     0.023 A 
ATOM     95  C   UNL A   1      46.686  25.504  32.632  1.00  0.00     0.031 A 
ATOM     96  C   UNL A   1      44.606  26.580  32.064  1.00  0.00     0.131 A 
ATOM     97  C   UNL A   1      46.572  26.031  33.935  1.00  0.00     0.055 A 
ATOM     98  C   UNL A   1      44.508  27.120  33.346  1.00  0.00     0.041 A 
ATOM     99  F   UNL A   1      43.630  26.889  31.193  1.00  0.00    -0.206 F 
ATOM    100  C   UNL A   1      45.488  26.840  34.290  1.00  0.00     0.022 A 
BRANCH  97 101
ATOM    101  S   UNL A   1      47.818  25.646  35.208  1.00  0.00     0.124 S 
ATOM    102  O   UNL A   1      47.365  24.375  35.763  1.00  0.00    -0.237 OA
ATOM    103  O   UNL A   1      49.055  25.596  34.433  1.00  0.00    -0.237 OA
ATOM    104  O   UNL A   1      47.723  26.781  36.127  1.00  0.00    -0.744 OA
ENDBRANCH  97 101
ENDBRANCH  71  94
ENDBRANCH  45  46
ENDBRANCH  37  40
ENDBRANCH  35  36
ENDBRANCH  34  35
ENDBRANCH   1  34
TORSDOF 20
ENDMDL
