MODEL 1
REMARK VINA RESULT:     -11.4      0.000      0.000
REMARK SMILES O=C(NCCCCCCNC(=O)c1ccc(-c2c3nc(c(-c4cc(S(=O)(=O)[O-])ccc4F)c4ccc([nH]4)c(-c4cc(S(=O)(=O)[O-])ccc4F)c4nc(c(-c5cc(S(=O)(=O)[O-])ccc5F)c5ccc2[nH]5)C=C4)C=C3)cc1)C1=Cc2cc(Cl)ccc2O[C@@H]1C(F)(F)F
REMARK SMILES IDX 7 1 6 2 5 3 4 4 3 5 1 6 2 7 76 9 77 10 86 11 78 12 85 13
REMARK SMILES IDX 79 14 84 15 80 16 83 17 81 18 82 19 87 20 88 21 89 22 90 23
REMARK SMILES IDX 8 24 9 25 10 26 11 27 12 29 13 30 14 31 75 32 15 33 74 34
REMARK SMILES IDX 16 35 17 36 18 37 68 38 19 39 73 40 67 41 69 42 20 43 72 44
REMARK SMILES IDX 66 45 65 46 21 48 53 49 33 50 52 51 34 52 37 53 51 54 70 55
REMARK SMILES IDX 35 56 36 57 50 59 71 60 38 61 22 62 23 63 31 64 24 65 30 66
REMARK SMILES IDX 32 67 29 68 25 69 26 70 27 71 28 72 54 73 55 74 63 75 56 76
REMARK SMILES IDX 62 77 64 78 61 79 57 80 58 81 59 82 60 83 39 84 40 85 48 86
REMARK SMILES IDX 41 87 47 88 49 89 46 90 42 91 43 92 44 93 45 94
REMARK H PARENT 3 8 10 28 69 47 37 58
REMARK Flexibility Score: inf
ROOT
ATOM      1  C   UNL A   1      38.245  21.432  25.123  1.00  0.00     0.002 C 
ENDROOT
BRANCH   1   2
ATOM      2  C   UNL A   1      38.676  22.492  26.144  1.00  0.00     0.002 C 
BRANCH   2   3
ATOM      3  C   UNL A   1      37.803  23.741  26.246  1.00  0.00     0.021 C 
BRANCH   3   4
ATOM      4  C   UNL A   1      36.343  23.582  25.841  1.00  0.00     0.116 C 
BRANCH   4   5
ATOM      5  N   UNL A   1      35.493  22.907  26.804  1.00  0.00    -0.352 N 
ATOM      6  O   UNL A   1      34.048  21.376  27.580  1.00  0.00    -0.270 OA
ATOM      7  C   UNL A   1      34.574  21.914  26.606  1.00  0.00     0.251 C 
ATOM      8  H   UNL A   1      35.592  23.208  27.736  1.00  0.00     0.163 HD
BRANCH   7   9
ATOM      9  C   UNL A   1      34.239  21.383  25.248  1.00  0.00     0.067 C 
ATOM     10  C   UNL A   1      34.976  20.442  24.631  1.00  0.00     0.025 C 
ATOM     11  C   UNL A   1      32.755  21.441  24.956  1.00  0.00     0.314 C 
ATOM     12  C   UNL A   1      34.283  19.126  24.664  1.00  0.00     0.019 A 
ATOM     13  O   UNL A   1      32.123  20.150  25.182  1.00  0.00    -0.475 OA
ATOM     14  C   UNL A   1      35.060  17.963  24.596  1.00  0.00     0.032 A 
ATOM     15  C   UNL A   1      32.930  19.049  25.039  1.00  0.00     0.128 A 
ATOM     16  C   UNL A   1      34.510  16.752  25.010  1.00  0.00     0.041 A 
ATOM     17  C   UNL A   1      32.381  17.825  25.415  1.00  0.00     0.048 A 
ATOM     18  Cl  UNL A   1      35.519  15.363  25.128  1.00  0.00    -0.084 Cl
ATOM     19  C   UNL A   1      33.182  16.680  25.428  1.00  0.00     0.024 A 
BRANCH  11  20
ATOM     20  C   UNL A   1      32.446  21.978  23.549  1.00  0.00     0.429 C 
ATOM     21  F   UNL A   1      31.918  21.012  22.758  1.00  0.00    -0.167 F 
ATOM     22  F   UNL A   1      31.543  22.987  23.587  1.00  0.00    -0.167 F 
ATOM     23  F   UNL A   1      33.545  22.454  22.919  1.00  0.00    -0.167 F 
ENDBRANCH  11  20
ENDBRANCH   7   9
ENDBRANCH   4   5
ENDBRANCH   3   4
ENDBRANCH   2   3
ENDBRANCH   1   2
BRANCH   1  24
ATOM     24  C   UNL A   1      38.870  20.040  25.259  1.00  0.00     0.021 C 
BRANCH  24  25
ATOM     25  C   UNL A   1      39.729  19.799  26.497  1.00  0.00     0.116 C 
BRANCH  25  26
ATOM     26  N   UNL A   1      41.038  19.256  26.179  1.00  0.00    -0.352 N 
ATOM     27  C   UNL A   1      42.254  19.885  26.059  1.00  0.00     0.251 C 
ATOM     28  H   UNL A   1      41.057  18.284  26.024  1.00  0.00     0.163 HD
ATOM     29  O   UNL A   1      43.212  19.253  25.625  1.00  0.00    -0.269 OA
BRANCH  27  30
ATOM     30  C   UNL A   1      42.411  21.315  26.420  1.00  0.00     0.039 A 
ATOM     31  C   UNL A   1      42.572  21.650  27.768  1.00  0.00     0.014 A 
ATOM     32  C   UNL A   1      42.367  22.326  25.456  1.00  0.00     0.014 A 
ATOM     33  C   UNL A   1      42.746  22.986  28.139  1.00  0.00     0.010 A 
ATOM     34  C   UNL A   1      42.616  23.650  25.819  1.00  0.00     0.010 A 
ATOM     35  C   UNL A   1      42.805  23.996  27.166  1.00  0.00    -0.014 A 
BRANCH  35  36
ATOM     36  C   UNL A   1      43.052  25.416  27.543  1.00  0.00     0.031 A 
ATOM     37  C   UNL A   1      44.430  26.009  27.400  1.00  0.00     0.074 A 
ATOM     38  C   UNL A   1      42.048  26.155  28.056  1.00  0.00     0.049 A 
ATOM     39  N   UNL A   1      44.854  27.204  27.723  1.00  0.00    -0.248 NA
ATOM     40  C   UNL A   1      45.474  25.134  26.845  1.00  0.00     0.031 C 
ATOM     41  C   UNL A   1      40.677  25.685  28.269  1.00  0.00     0.029 A 
ATOM     42  N   UNL A   1      42.020  27.457  28.494  1.00  0.00    -0.354 N 
ATOM     43  C   UNL A   1      46.214  27.221  27.427  1.00  0.00     0.074 A 
ATOM     44  C   UNL A   1      46.551  25.897  26.948  1.00  0.00     0.031 C 
ATOM     45  C   UNL A   1      39.937  26.690  28.762  1.00  0.00     0.029 A 
ATOM     46  C   UNL A   1      40.787  27.861  28.955  1.00  0.00     0.049 A 
ATOM     47  H   UNL A   1      42.808  28.045  28.480  1.00  0.00     0.167 HD
ATOM     48  C   UNL A   1      47.092  28.249  27.529  1.00  0.00     0.034 A 
ATOM     49  C   UNL A   1      40.388  29.037  29.483  1.00  0.00     0.034 A 
ATOM     50  C   UNL A   1      46.734  29.567  27.991  1.00  0.00     0.049 A 
ATOM     51  C   UNL A   1      41.398  30.152  29.619  1.00  0.00     0.074 A 
ATOM     52  C   UNL A   1      47.529  30.698  28.066  1.00  0.00     0.029 A 
ATOM     53  N   UNL A   1      45.481  29.934  28.467  1.00  0.00    -0.354 N 
ATOM     54  N   UNL A   1      42.666  30.166  29.277  1.00  0.00    -0.248 NA
ATOM     55  C   UNL A   1      40.918  31.412  30.202  1.00  0.00     0.031 C 
ATOM     56  C   UNL A   1      46.785  31.720  28.664  1.00  0.00     0.029 A 
ATOM     57  C   UNL A   1      45.497  31.259  28.876  1.00  0.00     0.049 A 
ATOM     58  H   UNL A   1      44.697  29.340  28.507  1.00  0.00     0.167 HD
ATOM     59  C   UNL A   1      43.122  31.449  29.569  1.00  0.00     0.074 A 
ATOM     60  C   UNL A   1      41.991  32.182  30.098  1.00  0.00     0.031 C 
ATOM     61  C   UNL A   1      44.362  31.978  29.408  1.00  0.00     0.034 A 
BRANCH  48  62
ATOM     62  C   UNL A   1      48.534  27.979  27.167  1.00  0.00     0.023 A 
ATOM     63  C   UNL A   1      49.046  28.255  25.886  1.00  0.00     0.031 A 
ATOM     64  C   UNL A   1      49.414  27.437  28.121  1.00  0.00     0.131 A 
ATOM     65  C   UNL A   1      50.375  27.929  25.577  1.00  0.00     0.055 A 
ATOM     66  C   UNL A   1      50.757  27.190  27.831  1.00  0.00     0.041 A 
ATOM     67  F   UNL A   1      48.981  27.131  29.355  1.00  0.00    -0.206 F 
ATOM     68  C   UNL A   1      51.242  27.424  26.548  1.00  0.00     0.022 A 
BRANCH  65  69
ATOM     69  S   UNL A   1      50.919  28.048  23.850  1.00  0.00     0.124 S 
ATOM     70  O   UNL A   1      49.650  27.930  23.133  1.00  0.00    -0.237 OA
ATOM     71  O   UNL A   1      51.555  29.360  23.809  1.00  0.00    -0.237 OA
ATOM     72  O   UNL A   1      51.822  26.910  23.695  1.00  0.00    -0.744 OA
ENDBRANCH  65  69
ENDBRANCH  48  62
BRANCH  49  73
ATOM     73  C   UNL A   1      38.980  29.234  29.936  1.00  0.00     0.023 A 
ATOM     74  C   UNL A   1      38.047  29.895  29.121  1.00  0.00     0.031 A 
ATOM     75  C   UNL A   1      38.562  28.828  31.216  1.00  0.00     0.131 A 
ATOM     76  C   UNL A   1      36.766  30.188  29.614  1.00  0.00     0.055 A 
ATOM     77  C   UNL A   1      37.265  29.063  31.679  1.00  0.00     0.041 A 
ATOM     78  F   UNL A   1      39.410  28.192  32.039  1.00  0.00    -0.206 F 
ATOM     79  C   UNL A   1      36.364  29.762  30.882  1.00  0.00     0.022 A 
BRANCH  76  80
ATOM     80  S   UNL A   1      35.670  31.234  28.618  1.00  0.00     0.124 S 
ATOM     81  O   UNL A   1      34.900  31.922  29.648  1.00  0.00    -0.237 OA
ATOM     82  O   UNL A   1      36.625  32.051  27.876  1.00  0.00    -0.237 OA
ATOM     83  O   UNL A   1      34.919  30.271  27.814  1.00  0.00    -0.744 OA
ENDBRANCH  76  80
ENDBRANCH  49  73
BRANCH  61  84
ATOM     84  C   UNL A   1      44.541  33.436  29.758  1.00  0.00     0.023 A 
ATOM     85  C   UNL A   1      44.262  34.461  28.838  1.00  0.00     0.031 A 
ATOM     86  C   UNL A   1      45.008  33.803  31.033  1.00  0.00     0.131 A 
ATOM     87  C   UNL A   1      44.511  35.798  29.184  1.00  0.00     0.055 A 
ATOM     88  C   UNL A   1      45.187  35.139  31.396  1.00  0.00     0.041 A 
ATOM     89  F   UNL A   1      45.294  32.867  31.952  1.00  0.00    -0.206 F 
ATOM     90  C   UNL A   1      44.953  36.145  30.463  1.00  0.00     0.022 A 
BRANCH  87  91
ATOM     91  S   UNL A   1      44.345  37.075  27.906  1.00  0.00     0.124 S 
ATOM     92  O   UNL A   1      43.550  38.088  28.591  1.00  0.00    -0.237 OA
ATOM     93  O   UNL A   1      45.736  37.431  27.638  1.00  0.00    -0.237 OA
ATOM     94  O   UNL A   1      43.663  36.381  26.815  1.00  0.00    -0.744 OA
ENDBRANCH  87  91
ENDBRANCH  61  84
ENDBRANCH  35  36
ENDBRANCH  27  30
ENDBRANCH  25  26
ENDBRANCH  24  25
ENDBRANCH   1  24
TORSDOF 17
ENDMDL
MODEL 2
REMARK VINA RESULT:     -11.2      5.418      8.253
REMARK SMILES O=C(NCCCCCCNC(=O)c1ccc(-c2c3nc(c(-c4cc(S(=O)(=O)[O-])ccc4F)c4ccc([nH]4)c(-c4cc(S(=O)(=O)[O-])ccc4F)c4nc(c(-c5cc(S(=O)(=O)[O-])ccc5F)c5ccc2[nH]5)C=C4)C=C3)cc1)C1=Cc2cc(Cl)ccc2O[C@@H]1C(F)(F)F
REMARK SMILES IDX 7 1 6 2 5 3 4 4 3 5 1 6 2 7 76 9 77 10 86 11 78 12 85 13
REMARK SMILES IDX 79 14 84 15 80 16 83 17 81 18 82 19 87 20 88 21 89 22 90 23
REMARK SMILES IDX 8 24 9 25 10 26 11 27 12 29 13 30 14 31 75 32 15 33 74 34
REMARK SMILES IDX 16 35 17 36 18 37 68 38 19 39 73 40 67 41 69 42 20 43 72 44
REMARK SMILES IDX 66 45 65 46 21 48 53 49 33 50 52 51 34 52 37 53 51 54 70 55
REMARK SMILES IDX 35 56 36 57 50 59 71 60 38 61 22 62 23 63 31 64 24 65 30 66
REMARK SMILES IDX 32 67 29 68 25 69 26 70 27 71 28 72 54 73 55 74 63 75 56 76
REMARK SMILES IDX 62 77 64 78 61 79 57 80 58 81 59 82 60 83 39 84 40 85 48 86
REMARK SMILES IDX 41 87 47 88 49 89 46 90 42 91 43 92 44 93 45 94
REMARK H PARENT 3 8 10 28 69 47 37 58
REMARK Flexibility Score: inf
ROOT
ATOM      1  C   UNL A   1      32.027  27.130  26.086  1.00  0.00     0.002 C 
ENDROOT
BRANCH   1   2
ATOM      2  C   UNL A   1      30.893  26.099  26.135  1.00  0.00     0.002 C 
BRANCH   2   3
ATOM      3  C   UNL A   1      31.284  24.638  25.926  1.00  0.00     0.021 C 
BRANCH   3   4
ATOM      4  C   UNL A   1      32.776  24.343  25.832  1.00  0.00     0.116 C 
BRANCH   4   5
ATOM      5  N   UNL A   1      33.273  23.321  26.734  1.00  0.00    -0.352 N 
ATOM      6  O   UNL A   1      34.230  21.388  27.355  1.00  0.00    -0.270 OA
ATOM      7  C   UNL A   1      33.720  22.058  26.457  1.00  0.00     0.251 C 
ATOM      8  H   UNL A   1      33.291  23.573  27.686  1.00  0.00     0.163 HD
BRANCH   7   9
ATOM      9  C   UNL A   1      33.698  21.479  25.078  1.00  0.00     0.067 C 
ATOM     10  C   UNL A   1      34.634  20.623  24.632  1.00  0.00     0.025 C 
ATOM     11  C   UNL A   1      32.294  21.365  24.522  1.00  0.00     0.314 C 
ATOM     12  C   UNL A   1      34.096  19.236  24.580  1.00  0.00     0.019 A 
ATOM     13  O   UNL A   1      31.778  20.013  24.671  1.00  0.00    -0.475 OA
ATOM     14  C   UNL A   1      34.996  18.169  24.688  1.00  0.00     0.032 A 
ATOM     15  C   UNL A   1      32.715  19.010  24.708  1.00  0.00     0.128 A 
ATOM     16  C   UNL A   1      34.517  16.907  25.034  1.00  0.00     0.041 A 
ATOM     17  C   UNL A   1      32.245  17.734  25.016  1.00  0.00     0.048 A 
ATOM     18  Cl  UNL A   1      35.635  15.644  25.372  1.00  0.00    -0.084 Cl
ATOM     19  C   UNL A   1      33.151  16.688  25.208  1.00  0.00     0.024 A 
BRANCH  11  20
ATOM     20  C   UNL A   1      32.189  21.849  23.068  1.00  0.00     0.429 C 
ATOM     21  F   UNL A   1      33.277  22.574  22.709  1.00  0.00    -0.167 F 
ATOM     22  F   UNL A   1      32.108  20.812  22.200  1.00  0.00    -0.167 F 
ATOM     23  F   UNL A   1      31.102  22.628  22.854  1.00  0.00    -0.167 F 
ENDBRANCH  11  20
ENDBRANCH   7   9
ENDBRANCH   4   5
ENDBRANCH   3   4
ENDBRANCH   2   3
ENDBRANCH   1   2
BRANCH   1  24
ATOM     24  C   UNL A   1      31.742  28.444  25.352  1.00  0.00     0.021 C 
BRANCH  24  25
ATOM     25  C   UNL A   1      32.859  29.483  25.360  1.00  0.00     0.116 C 
BRANCH  25  26
ATOM     26  N   UNL A   1      32.425  30.774  25.864  1.00  0.00    -0.352 N 
ATOM     27  C   UNL A   1      32.905  31.527  26.909  1.00  0.00     0.251 C 
ATOM     28  H   UNL A   1      31.665  31.173  25.381  1.00  0.00     0.163 HD
ATOM     29  O   UNL A   1      32.283  32.524  27.262  1.00  0.00    -0.269 OA
BRANCH  27  30
ATOM     30  C   UNL A   1      34.143  31.133  27.625  1.00  0.00     0.039 A 
ATOM     31  C   UNL A   1      35.099  32.116  27.898  1.00  0.00     0.014 A 
ATOM     32  C   UNL A   1      34.386  29.809  27.999  1.00  0.00     0.014 A 
ATOM     33  C   UNL A   1      36.265  31.783  28.593  1.00  0.00     0.010 A 
ATOM     34  C   UNL A   1      35.514  29.492  28.758  1.00  0.00     0.010 A 
ATOM     35  C   UNL A   1      36.469  30.475  29.060  1.00  0.00    -0.014 A 
BRANCH  35  36
ATOM     36  C   UNL A   1      37.677  30.121  29.855  1.00  0.00     0.031 A 
ATOM     37  C   UNL A   1      38.728  29.210  29.274  1.00  0.00     0.074 A 
ATOM     38  C   UNL A   1      37.807  30.583  31.115  1.00  0.00     0.049 A 
ATOM     39  N   UNL A   1      39.819  28.747  29.827  1.00  0.00    -0.248 NA
ATOM     40  C   UNL A   1      38.508  28.738  27.899  1.00  0.00     0.031 C 
ATOM     41  C   UNL A   1      36.844  31.451  31.799  1.00  0.00     0.029 A 
ATOM     42  N   UNL A   1      38.796  30.391  32.049  1.00  0.00    -0.354 N 
ATOM     43  C   UNL A   1      40.407  27.916  28.877  1.00  0.00     0.074 A 
ATOM     44  C   UNL A   1      39.520  27.901  27.733  1.00  0.00     0.031 C 
ATOM     45  C   UNL A   1      37.305  31.742  33.025  1.00  0.00     0.029 A 
ATOM     46  C   UNL A   1      38.567  31.041  33.241  1.00  0.00     0.049 A 
ATOM     47  H   UNL A   1      39.592  29.839  31.882  1.00  0.00     0.167 HD
ATOM     48  C   UNL A   1      41.583  27.245  28.948  1.00  0.00     0.034 A 
ATOM     49  C   UNL A   1      39.286  31.062  34.383  1.00  0.00     0.034 A 
ATOM     50  C   UNL A   1      42.463  27.287  30.090  1.00  0.00     0.049 A 
ATOM     51  C   UNL A   1      40.573  30.275  34.445  1.00  0.00     0.074 A 
ATOM     52  C   UNL A   1      43.709  26.702  30.237  1.00  0.00     0.029 A 
ATOM     53  N   UNL A   1      42.190  27.939  31.285  1.00  0.00    -0.354 N 
ATOM     54  N   UNL A   1      41.142  29.543  33.514  1.00  0.00    -0.248 NA
ATOM     55  C   UNL A   1      41.320  30.325  35.709  1.00  0.00     0.031 C 
ATOM     56  C   UNL A   1      44.149  26.928  31.545  1.00  0.00     0.029 A 
ATOM     57  C   UNL A   1      43.224  27.734  32.187  1.00  0.00     0.049 A 
ATOM     58  H   UNL A   1      41.381  28.471  31.466  1.00  0.00     0.167 HD
ATOM     59  C   UNL A   1      42.332  29.081  34.070  1.00  0.00     0.074 A 
ATOM     60  C   UNL A   1      42.405  29.628  35.408  1.00  0.00     0.031 C 
ATOM     61  C   UNL A   1      43.283  28.281  33.523  1.00  0.00     0.034 A 
BRANCH  48  62
ATOM     62  C   UNL A   1      41.970  26.381  27.770  1.00  0.00     0.023 A 
ATOM     63  C   UNL A   1      41.562  25.039  27.664  1.00  0.00     0.031 A 
ATOM     64  C   UNL A   1      42.761  26.910  26.734  1.00  0.00     0.131 A 
ATOM     65  C   UNL A   1      41.999  24.257  26.584  1.00  0.00     0.055 A 
ATOM     66  C   UNL A   1      43.125  26.149  25.621  1.00  0.00     0.041 A 
ATOM     67  F   UNL A   1      43.201  28.177  26.789  1.00  0.00    -0.206 F 
ATOM     68  C   UNL A   1      42.754  24.810  25.548  1.00  0.00     0.022 A 
BRANCH  65  69
ATOM     69  S   UNL A   1      41.678  22.472  26.619  1.00  0.00     0.124 S 
ATOM     70  O   UNL A   1      40.217  22.436  26.657  1.00  0.00    -0.237 OA
ATOM     71  O   UNL A   1      42.295  22.015  25.379  1.00  0.00    -0.237 OA
ATOM     72  O   UNL A   1      42.337  22.028  27.846  1.00  0.00    -0.744 OA
ENDBRANCH  65  69
ENDBRANCH  48  62
BRANCH  49  73
ATOM     73  C   UNL A   1      38.817  31.838  35.569  1.00  0.00     0.023 A 
ATOM     74  C   UNL A   1      38.256  31.187  36.679  1.00  0.00     0.031 A 
ATOM     75  C   UNL A   1      38.859  33.244  35.583  1.00  0.00     0.131 A 
ATOM     76  C   UNL A   1      37.702  31.939  37.727  1.00  0.00     0.055 A 
ATOM     77  C   UNL A   1      38.365  33.986  36.658  1.00  0.00     0.041 A 
ATOM     78  F   UNL A   1      39.384  33.920  34.550  1.00  0.00    -0.206 F 
ATOM     79  C   UNL A   1      37.767  33.334  37.731  1.00  0.00     0.022 A 
BRANCH  76  80
ATOM     80  S   UNL A   1      36.791  31.068  39.032  1.00  0.00     0.124 S 
ATOM     81  O   UNL A   1      37.698  31.202  40.166  1.00  0.00    -0.237 OA
ATOM     82  O   UNL A   1      35.554  31.838  39.103  1.00  0.00    -0.237 OA
ATOM     83  O   UNL A   1      36.650  29.713  38.501  1.00  0.00    -0.744 OA
ENDBRANCH  76  80
ENDBRANCH  49  73
BRANCH  61  84
ATOM     84  C   UNL A   1      44.510  27.999  34.356  1.00  0.00     0.023 A 
ATOM     85  C   UNL A   1      44.595  26.878  35.200  1.00  0.00     0.031 A 
ATOM     86  C   UNL A   1      45.610  28.875  34.311  1.00  0.00     0.131 A 
ATOM     87  C   UNL A   1      45.727  26.696  36.009  1.00  0.00     0.055 A 
ATOM     88  C   UNL A   1      46.762  28.652  35.066  1.00  0.00     0.041 A 
ATOM     89  F   UNL A   1      45.584  29.965  33.527  1.00  0.00    -0.206 F 
ATOM     90  C   UNL A   1      46.819  27.564  35.933  1.00  0.00     0.022 A 
BRANCH  87  91
ATOM     91  S   UNL A   1      45.714  25.363  37.239  1.00  0.00     0.124 S 
ATOM     92  O   UNL A   1      47.029  24.761  37.048  1.00  0.00    -0.237 OA
ATOM     93  O   UNL A   1      45.523  26.093  38.489  1.00  0.00    -0.237 OA
ATOM     94  O   UNL A   1      44.584  24.530  36.830  1.00  0.00    -0.744 OA
ENDBRANCH  87  91
ENDBRANCH  61  84
ENDBRANCH  35  36
ENDBRANCH  27  30
ENDBRANCH  25  26
ENDBRANCH  24  25
ENDBRANCH   1  24
TORSDOF 17
ENDMDL
MODEL 3
REMARK VINA RESULT:     -11.2      5.637      8.666
REMARK SMILES O=C(NCCCCCCNC(=O)c1ccc(-c2c3nc(c(-c4cc(S(=O)(=O)[O-])ccc4F)c4ccc([nH]4)c(-c4cc(S(=O)(=O)[O-])ccc4F)c4nc(c(-c5cc(S(=O)(=O)[O-])ccc5F)c5ccc2[nH]5)C=C4)C=C3)cc1)C1=Cc2cc(Cl)ccc2O[C@@H]1C(F)(F)F
REMARK SMILES IDX 7 1 6 2 5 3 4 4 3 5 1 6 2 7 76 9 77 10 86 11 78 12 85 13
REMARK SMILES IDX 79 14 84 15 80 16 83 17 81 18 82 19 87 20 88 21 89 22 90 23
REMARK SMILES IDX 8 24 9 25 10 26 11 27 12 29 13 30 14 31 75 32 15 33 74 34
REMARK SMILES IDX 16 35 17 36 18 37 68 38 19 39 73 40 67 41 69 42 20 43 72 44
REMARK SMILES IDX 66 45 65 46 21 48 53 49 33 50 52 51 34 52 37 53 51 54 70 55
REMARK SMILES IDX 35 56 36 57 50 59 71 60 38 61 22 62 23 63 31 64 24 65 30 66
REMARK SMILES IDX 32 67 29 68 25 69 26 70 27 71 28 72 54 73 55 74 63 75 56 76
REMARK SMILES IDX 62 77 64 78 61 79 57 80 58 81 59 82 60 83 39 84 40 85 48 86
REMARK SMILES IDX 41 87 47 88 49 89 46 90 42 91 43 92 44 93 45 94
REMARK H PARENT 3 8 10 28 69 47 37 58
REMARK Flexibility Score: inf
ROOT
ATOM      1  C   UNL A   1      30.649  28.957  24.021  1.00  0.00     0.002 C 
ENDROOT
BRANCH   1   2
ATOM      2  C   UNL A   1      30.141  27.898  23.035  1.00  0.00     0.002 C 
BRANCH   2   3
ATOM      3  C   UNL A   1      31.200  27.077  22.303  1.00  0.00     0.021 C 
BRANCH   3   4
ATOM      4  C   UNL A   1      31.116  25.565  22.466  1.00  0.00     0.116 C 
BRANCH   4   5
ATOM      5  N   UNL A   1      32.183  24.804  21.843  1.00  0.00    -0.352 N 
ATOM      6  O   UNL A   1      33.852  23.312  21.692  1.00  0.00    -0.270 OA
ATOM      7  C   UNL A   1      33.108  23.975  22.415  1.00  0.00     0.251 C 
ATOM      8  H   UNL A   1      32.253  24.900  20.865  1.00  0.00     0.163 HD
BRANCH   7   9
ATOM      9  C   UNL A   1      33.200  23.765  23.893  1.00  0.00     0.067 C 
ATOM     10  C   UNL A   1      33.395  22.555  24.447  1.00  0.00     0.025 C 
ATOM     11  C   UNL A   1      33.735  24.983  24.616  1.00  0.00     0.314 C 
ATOM     12  C   UNL A   1      34.793  22.422  24.941  1.00  0.00     0.019 A 
ATOM     13  O   UNL A   1      35.153  24.842  24.907  1.00  0.00    -0.475 OA
ATOM     14  C   UNL A   1      35.348  21.140  25.028  1.00  0.00     0.032 A 
ATOM     15  C   UNL A   1      35.617  23.556  25.040  1.00  0.00     0.128 A 
ATOM     16  C   UNL A   1      36.732  21.001  25.102  1.00  0.00     0.041 A 
ATOM     17  C   UNL A   1      36.997  23.405  25.152  1.00  0.00     0.048 A 
ATOM     18  Cl  UNL A   1      37.430  19.432  24.999  1.00  0.00    -0.084 Cl
ATOM     19  C   UNL A   1      37.557  22.125  25.153  1.00  0.00     0.024 A 
BRANCH  11  20
ATOM     20  C   UNL A   1      32.933  25.322  25.883  1.00  0.00     0.429 C 
ATOM     21  F   UNL A   1      33.084  24.366  26.832  1.00  0.00    -0.167 F 
ATOM     22  F   UNL A   1      33.342  26.489  26.436  1.00  0.00    -0.167 F 
ATOM     23  F   UNL A   1      31.606  25.442  25.644  1.00  0.00    -0.167 F 
ENDBRANCH  11  20
ENDBRANCH   7   9
ENDBRANCH   4   5
ENDBRANCH   3   4
ENDBRANCH   2   3
ENDBRANCH   1   2
BRANCH   1  24
ATOM     24  C   UNL A   1      32.163  29.183  24.080  1.00  0.00     0.021 C 
BRANCH  24  25
ATOM     25  C   UNL A   1      32.745  29.532  25.447  1.00  0.00     0.116 C 
BRANCH  25  26
ATOM     26  N   UNL A   1      32.342  30.847  25.913  1.00  0.00    -0.352 N 
ATOM     27  C   UNL A   1      32.844  31.621  26.932  1.00  0.00     0.251 C 
ATOM     28  H   UNL A   1      31.587  31.247  25.423  1.00  0.00     0.163 HD
ATOM     29  O   UNL A   1      32.245  32.641  27.257  1.00  0.00    -0.269 OA
BRANCH  27  30
ATOM     30  C   UNL A   1      34.078  31.223  27.653  1.00  0.00     0.039 A 
ATOM     31  C   UNL A   1      35.002  32.216  27.994  1.00  0.00     0.014 A 
ATOM     32  C   UNL A   1      34.349  29.889  27.965  1.00  0.00     0.014 A 
ATOM     33  C   UNL A   1      36.163  31.878  28.695  1.00  0.00     0.010 A 
ATOM     34  C   UNL A   1      35.470  29.563  28.729  1.00  0.00     0.010 A 
ATOM     35  C   UNL A   1      36.393  30.554  29.100  1.00  0.00    -0.014 A 
BRANCH  35  36
ATOM     36  C   UNL A   1      37.595  30.192  29.901  1.00  0.00     0.031 A 
ATOM     37  C   UNL A   1      38.653  29.292  29.317  1.00  0.00     0.074 A 
ATOM     38  C   UNL A   1      37.711  30.636  31.169  1.00  0.00     0.049 A 
ATOM     39  N   UNL A   1      39.740  28.823  29.873  1.00  0.00    -0.248 NA
ATOM     40  C   UNL A   1      38.446  28.839  27.933  1.00  0.00     0.031 C 
ATOM     41  C   UNL A   1      36.740  31.492  31.856  1.00  0.00     0.029 A 
ATOM     42  N   UNL A   1      38.692  30.433  32.109  1.00  0.00    -0.354 N 
ATOM     43  C   UNL A   1      40.338  28.008  28.917  1.00  0.00     0.074 A 
ATOM     44  C   UNL A   1      39.462  28.007  27.764  1.00  0.00     0.031 C 
ATOM     45  C   UNL A   1      37.190  31.766  33.091  1.00  0.00     0.029 A 
ATOM     46  C   UNL A   1      38.451  31.065  33.308  1.00  0.00     0.049 A 
ATOM     47  H   UNL A   1      39.492  29.885  31.941  1.00  0.00     0.167 HD
ATOM     48  C   UNL A   1      41.516  27.338  28.989  1.00  0.00     0.034 A 
ATOM     49  C   UNL A   1      39.159  31.071  34.456  1.00  0.00     0.034 A 
ATOM     50  C   UNL A   1      42.385  27.366  30.139  1.00  0.00     0.049 A 
ATOM     51  C   UNL A   1      40.448  30.286  34.519  1.00  0.00     0.074 A 
ATOM     52  C   UNL A   1      43.631  26.781  30.290  1.00  0.00     0.029 A 
ATOM     53  N   UNL A   1      42.099  28.000  31.341  1.00  0.00    -0.354 N 
ATOM     54  N   UNL A   1      41.027  29.570  33.583  1.00  0.00    -0.248 NA
ATOM     55  C   UNL A   1      41.183  30.320  35.790  1.00  0.00     0.031 C 
ATOM     56  C   UNL A   1      44.058  26.990  31.605  1.00  0.00     0.029 A 
ATOM     57  C   UNL A   1      43.125  27.785  32.249  1.00  0.00     0.049 A 
ATOM     58  H   UNL A   1      41.287  28.527  31.522  1.00  0.00     0.167 HD
ATOM     59  C   UNL A   1      42.213  29.102  34.143  1.00  0.00     0.074 A 
ATOM     60  C   UNL A   1      42.273  29.630  35.490  1.00  0.00     0.031 C 
ATOM     61  C   UNL A   1      43.171  28.313  33.593  1.00  0.00     0.034 A 
BRANCH  48  62
ATOM     62  C   UNL A   1      41.916  26.492  27.802  1.00  0.00     0.023 A 
ATOM     63  C   UNL A   1      41.604  25.123  27.724  1.00  0.00     0.031 A 
ATOM     64  C   UNL A   1      42.620  27.066  26.729  1.00  0.00     0.131 A 
ATOM     65  C   UNL A   1      42.052  24.363  26.633  1.00  0.00     0.055 A 
ATOM     66  C   UNL A   1      42.992  26.322  25.608  1.00  0.00     0.041 A 
ATOM     67  F   UNL A   1      42.966  28.363  26.754  1.00  0.00    -0.206 F 
ATOM     68  C   UNL A   1      42.719  24.958  25.561  1.00  0.00     0.022 A 
BRANCH  65  69
ATOM     69  S   UNL A   1      41.867  22.559  26.696  1.00  0.00     0.124 S 
ATOM     70  O   UNL A   1      40.436  22.420  26.963  1.00  0.00    -0.237 OA
ATOM     71  O   UNL A   1      42.311  22.149  25.369  1.00  0.00    -0.237 OA
ATOM     72  O   UNL A   1      42.740  22.163  27.798  1.00  0.00    -0.744 OA
ENDBRANCH  65  69
ENDBRANCH  48  62
BRANCH  49  73
ATOM     73  C   UNL A   1      38.678  31.829  35.649  1.00  0.00     0.023 A 
ATOM     74  C   UNL A   1      38.144  31.158  36.761  1.00  0.00     0.031 A 
ATOM     75  C   UNL A   1      38.678  33.236  35.668  1.00  0.00     0.131 A 
ATOM     76  C   UNL A   1      37.577  31.889  37.817  1.00  0.00     0.055 A 
ATOM     77  C   UNL A   1      38.172  33.959  36.750  1.00  0.00     0.041 A 
ATOM     78  F   UNL A   1      39.175  33.930  34.633  1.00  0.00    -0.206 F 
ATOM     79  C   UNL A   1      37.602  33.286  37.825  1.00  0.00     0.022 A 
BRANCH  76  80
ATOM     80  S   UNL A   1      36.703  30.988  39.125  1.00  0.00     0.124 S 
ATOM     81  O   UNL A   1      35.486  31.780  39.268  1.00  0.00    -0.237 OA
ATOM     82  O   UNL A   1      36.543  29.667  38.527  1.00  0.00    -0.237 OA
ATOM     83  O   UNL A   1      37.627  31.051  40.256  1.00  0.00    -0.744 OA
ENDBRANCH  76  80
ENDBRANCH  49  73
BRANCH  61  84
ATOM     84  C   UNL A   1      44.391  28.022  34.434  1.00  0.00     0.023 A 
ATOM     85  C   UNL A   1      44.453  26.914  35.298  1.00  0.00     0.031 A 
ATOM     86  C   UNL A   1      45.508  28.875  34.374  1.00  0.00     0.131 A 
ATOM     87  C   UNL A   1      45.580  26.725  36.112  1.00  0.00     0.055 A 
ATOM     88  C   UNL A   1      46.654  28.642  35.136  1.00  0.00     0.041 A 
ATOM     89  F   UNL A   1      45.505  29.950  33.571  1.00  0.00    -0.206 F 
ATOM     90  C   UNL A   1      46.688  27.570  36.022  1.00  0.00     0.022 A 
BRANCH  87  91
ATOM     91  S   UNL A   1      45.538  25.415  37.367  1.00  0.00     0.124 S 
ATOM     92  O   UNL A   1      45.988  24.254  36.606  1.00  0.00    -0.237 OA
ATOM     93  O   UNL A   1      46.469  25.917  38.373  1.00  0.00    -0.237 OA
ATOM     94  O   UNL A   1      44.137  25.382  37.782  1.00  0.00    -0.744 OA
ENDBRANCH  87  91
ENDBRANCH  61  84
ENDBRANCH  35  36
ENDBRANCH  27  30
ENDBRANCH  25  26
ENDBRANCH  24  25
ENDBRANCH   1  24
TORSDOF 17
ENDMDL
