MODEL 1
REMARK VINA RESULT:     -10.1      0.000      0.000
REMARK SMILES CCCCCCNC(=O)Oc1cccc(-c2ccc([C@@H](C)C(=O)NCCCCCCNC(=O)c3ccc(-c4c5nc(c(-c6cc(S(=O)(=O)[O-])ccc6F)c6ccc([nH]6)c(-c6cc(S(=O)(=O)[O-])ccc6F)c6nc(c(-c7cc(S(=O)(=O)[O-])ccc7F)c7ccc4[nH]7)C=C6)C=C5)cc3)cc2O)c1
REMARK SMILES IDX 22 1 23 2 24 3 20 5 21 6 19 7 16 8 17 9 98 10 18 11 97 12
REMARK SMILES IDX 15 13 11 14 12 15 100 16 13 17 14 18 10 19 8 20 7 21 9 23
REMARK SMILES IDX 6 24 5 25 4 26 3 27 2 28 1 29 99 30 25 32 26 33 27 34 28 35
REMARK SMILES IDX 29 36 30 37 31 38 32 39 33 41 34 42 35 43 96 44 36 45 95 46
REMARK SMILES IDX 37 47 38 48 39 49 89 50 40 51 94 52 88 53 90 54 41 55 93 56
REMARK SMILES IDX 87 57 86 58 42 60 74 61 54 62 73 63 55 64 58 65 72 66 91 67
REMARK SMILES IDX 56 68 57 69 71 71 92 72 59 73 43 74 44 75 52 76 45 77 51 78
REMARK SMILES IDX 53 79 50 80 46 81 47 82 48 83 49 84 75 85 76 86 84 87 77 88
REMARK SMILES IDX 83 89 85 90 82 91 78 92 79 93 80 94 81 95 60 96 61 97 69 98
REMARK SMILES IDX 62 99 68 100 70 101 67 102 63 103 64 104 65 105 66 106
REMARK H PARENT 24 4 7 22 99 31 31 40 90 59 58 70
REMARK Flexibility Score: inf
ROOT
ATOM      1  C   UNL A   1      32.257  29.651  27.157  1.00  0.00     0.227 C 
ATOM      2  O   UNL A   1      31.420  29.067  27.857  1.00  0.00    -0.274 OA
ATOM      3  N   UNL A   1      33.226  30.336  27.823  1.00  0.00    -0.356 N 
ATOM      4  H   UNL A   1      33.188  30.240  28.801  1.00  0.00     0.163 HD
ENDROOT
BRANCH   1   5
ATOM      5  C   UNL A   1      32.181  29.547  25.626  1.00  0.00     0.105 C 
ATOM      6  C   UNL A   1      31.108  30.436  24.996  1.00  0.00     0.023 C 
BRANCH   5   7
ATOM      7  C   UNL A   1      32.249  28.123  25.096  1.00  0.00    -0.032 A 
ATOM      8  C   UNL A   1      32.391  25.388  24.248  1.00  0.00     0.024 A 
ATOM      9  C   UNL A   1      31.301  26.211  23.923  1.00  0.00     0.013 A 
ATOM     10  C   UNL A   1      33.439  25.997  24.961  1.00  0.00     0.123 A 
ATOM     11  C   UNL A   1      31.254  27.559  24.296  1.00  0.00     0.005 A 
ATOM     12  C   UNL A   1      33.353  27.319  25.414  1.00  0.00     0.051 A 
BRANCH   8  13
ATOM     13  C   UNL A   1      32.375  23.962  23.847  1.00  0.00    -0.011 A 
ATOM     14  C   UNL A   1      31.937  21.617  24.319  1.00  0.00     0.133 A 
ATOM     15  C   UNL A   1      32.355  21.247  23.046  1.00  0.00     0.047 A 
ATOM     16  C   UNL A   1      31.926  22.955  24.720  1.00  0.00     0.056 A 
ATOM     17  C   UNL A   1      32.770  22.229  22.156  1.00  0.00     0.004 A 
ATOM     18  C   UNL A   1      32.794  23.568  22.559  1.00  0.00     0.009 A 
BRANCH  14  19
ATOM     19  O   UNL A   1      31.686  20.568  25.221  1.00  0.00    -0.410 OA
BRANCH  19  20
ATOM     20  C   UNL A   1      32.646  19.596  25.459  1.00  0.00     0.412 C 
ATOM     21  N   UNL A   1      33.474  19.920  26.499  1.00  0.00    -0.321 N 
ATOM     22  H   UNL A   1      34.206  19.292  26.695  1.00  0.00     0.167 HD
ATOM     23  O   UNL A   1      32.784  18.550  24.841  1.00  0.00    -0.224 OA
BRANCH  21  24
ATOM     24  C   UNL A   1      33.380  21.096  27.342  1.00  0.00     0.119 C 
BRANCH  24  25
ATOM     25  C   UNL A   1      34.556  22.048  27.123  1.00  0.00     0.021 C 
BRANCH  25  26
ATOM     26  C   UNL A   1      35.269  21.886  25.775  1.00  0.00     0.002 C 
BRANCH  26  27
ATOM     27  C   UNL A   1      36.636  22.573  25.669  1.00  0.00    -0.000 C 
BRANCH  27  28
ATOM     28  C   UNL A   1      37.342  22.422  24.320  1.00  0.00    -0.003 C 
ATOM     29  C   UNL A   1      36.512  22.921  23.148  1.00  0.00     0.004 C 
ENDBRANCH  27  28
ENDBRANCH  26  27
ENDBRANCH  25  26
ENDBRANCH  24  25
ENDBRANCH  21  24
ENDBRANCH  19  20
ENDBRANCH  14  19
ENDBRANCH   8  13
BRANCH  10  30
ATOM     30  O   UNL A   1      34.625  25.364  25.226  1.00  0.00    -0.507 OA
ATOM     31  H   UNL A   1      34.626  24.479  25.532  1.00  0.00     0.293 HD
ENDBRANCH  10  30
ENDBRANCH   5   7
ENDBRANCH   1   5
BRANCH   3  32
ATOM     32  C   UNL A   1      34.303  31.181  27.352  1.00  0.00     0.116 C 
BRANCH  32  33
ATOM     33  C   UNL A   1      35.388  31.360  28.416  1.00  0.00     0.021 C 
BRANCH  33  34
ATOM     34  C   UNL A   1      35.204  32.613  29.279  1.00  0.00     0.002 C 
BRANCH  34  35
ATOM     35  C   UNL A   1      35.493  33.939  28.563  1.00  0.00     0.002 C 
BRANCH  35  36
ATOM     36  C   UNL A   1      34.441  35.035  28.764  1.00  0.00     0.021 C 
BRANCH  36  37
ATOM     37  C   UNL A   1      33.146  34.560  29.419  1.00  0.00     0.116 C 
BRANCH  37  38
ATOM     38  N   UNL A   1      32.710  35.473  30.464  1.00  0.00    -0.352 N 
ATOM     39  C   UNL A   1      33.082  35.532  31.784  1.00  0.00     0.251 C 
ATOM     40  H   UNL A   1      32.050  36.147  30.185  1.00  0.00     0.163 HD
ATOM     41  O   UNL A   1      32.411  36.189  32.575  1.00  0.00    -0.269 OA
BRANCH  39  42
ATOM     42  C   UNL A   1      34.279  34.797  32.250  1.00  0.00     0.039 A 
ATOM     43  C   UNL A   1      34.120  33.529  32.816  1.00  0.00     0.014 A 
ATOM     44  C   UNL A   1      35.550  35.370  32.160  1.00  0.00     0.014 A 
ATOM     45  C   UNL A   1      35.243  32.815  33.240  1.00  0.00     0.010 A 
ATOM     46  C   UNL A   1      36.674  34.629  32.518  1.00  0.00     0.010 A 
ATOM     47  C   UNL A   1      36.532  33.345  33.067  1.00  0.00    -0.014 A 
BRANCH  47  48
ATOM     48  C   UNL A   1      37.742  32.579  33.466  1.00  0.00     0.031 A 
ATOM     49  C   UNL A   1      38.462  32.919  34.743  1.00  0.00     0.074 A 
ATOM     50  C   UNL A   1      38.223  31.621  32.649  1.00  0.00     0.049 A 
ATOM     51  N   UNL A   1      39.575  32.425  35.223  1.00  0.00    -0.248 NA
ATOM     52  C   UNL A   1      37.868  33.977  35.573  1.00  0.00     0.031 C 
ATOM     53  C   UNL A   1      37.630  31.228  31.369  1.00  0.00     0.029 A 
ATOM     54  N   UNL A   1      39.323  30.810  32.767  1.00  0.00    -0.354 N 
ATOM     55  C   UNL A   1      39.820  33.119  36.404  1.00  0.00     0.074 A 
ATOM     56  C   UNL A   1      38.773  34.110  36.531  1.00  0.00     0.031 C 
ATOM     57  C   UNL A   1      38.360  30.237  30.832  1.00  0.00     0.029 A 
ATOM     58  C   UNL A   1      39.498  29.956  31.702  1.00  0.00     0.049 A 
ATOM     59  H   UNL A   1      39.931  30.836  33.541  1.00  0.00     0.167 HD
ATOM     60  C   UNL A   1      40.814  32.931  37.308  1.00  0.00     0.034 A 
ATOM     61  C   UNL A   1      40.471  29.060  31.447  1.00  0.00     0.034 A 
ATOM     62  C   UNL A   1      41.843  31.928  37.170  1.00  0.00     0.049 A 
ATOM     63  C   UNL A   1      41.581  28.886  32.454  1.00  0.00     0.074 A 
ATOM     64  C   UNL A   1      42.865  31.614  38.048  1.00  0.00     0.029 A 
ATOM     65  N   UNL A   1      41.988  31.081  36.078  1.00  0.00    -0.354 N 
ATOM     66  N   UNL A   1      41.772  29.518  33.590  1.00  0.00    -0.248 NA
ATOM     67  C   UNL A   1      42.598  27.871  32.150  1.00  0.00     0.031 C 
ATOM     68  C   UNL A   1      43.666  30.631  37.458  1.00  0.00     0.029 A 
ATOM     69  C   UNL A   1      43.100  30.270  36.246  1.00  0.00     0.049 A 
ATOM     70  H   UNL A   1      41.388  31.059  35.297  1.00  0.00     0.167 HD
ATOM     71  C   UNL A   1      42.914  28.952  34.151  1.00  0.00     0.074 A 
ATOM     72  C   UNL A   1      43.357  27.920  33.235  1.00  0.00     0.031 C 
ATOM     73  C   UNL A   1      43.537  29.252  35.318  1.00  0.00     0.034 A 
BRANCH  60  74
ATOM     74  C   UNL A   1      40.847  33.848  38.508  1.00  0.00     0.023 A 
ATOM     75  C   UNL A   1      40.049  33.611  39.643  1.00  0.00     0.031 A 
ATOM     76  C   UNL A   1      41.667  34.990  38.511  1.00  0.00     0.131 A 
ATOM     77  C   UNL A   1      40.031  34.540  40.694  1.00  0.00     0.055 A 
ATOM     78  C   UNL A   1      41.708  35.866  39.598  1.00  0.00     0.041 A 
ATOM     79  F   UNL A   1      42.435  35.282  37.450  1.00  0.00    -0.206 F 
ATOM     80  C   UNL A   1      40.874  35.653  40.691  1.00  0.00     0.022 A 
BRANCH  77  81
ATOM     81  S   UNL A   1      38.780  34.352  41.993  1.00  0.00     0.124 S 
ATOM     82  O   UNL A   1      37.820  33.456  41.351  1.00  0.00    -0.237 OA
ATOM     83  O   UNL A   1      39.550  33.782  43.093  1.00  0.00    -0.237 OA
ATOM     84  O   UNL A   1      38.299  35.716  42.208  1.00  0.00    -0.744 OA
ENDBRANCH  77  81
ENDBRANCH  60  74
BRANCH  61  85
ATOM     85  C   UNL A   1      40.455  28.264  30.186  1.00  0.00     0.023 A 
ATOM     86  C   UNL A   1      41.357  28.537  29.146  1.00  0.00     0.031 A 
ATOM     87  C   UNL A   1      39.509  27.243  29.986  1.00  0.00     0.131 A 
ATOM     88  C   UNL A   1      41.263  27.833  27.934  1.00  0.00     0.055 A 
ATOM     89  C   UNL A   1      39.456  26.508  28.801  1.00  0.00     0.041 A 
ATOM     90  F   UNL A   1      38.626  26.937  30.950  1.00  0.00    -0.206 F 
ATOM     91  C   UNL A   1      40.328  26.811  27.760  1.00  0.00     0.022 A 
BRANCH  88  92
ATOM     92  S   UNL A   1      42.326  28.337  26.554  1.00  0.00     0.124 S 
ATOM     93  O   UNL A   1      43.299  29.191  27.224  1.00  0.00    -0.237 OA
ATOM     94  O   UNL A   1      42.822  27.053  26.070  1.00  0.00    -0.237 OA
ATOM     95  O   UNL A   1      41.405  29.027  25.652  1.00  0.00    -0.744 OA
ENDBRANCH  88  92
ENDBRANCH  61  85
BRANCH  73  96
ATOM     96  C   UNL A   1      44.740  28.418  35.689  1.00  0.00     0.023 A 
ATOM     97  C   UNL A   1      44.621  27.244  36.453  1.00  0.00     0.031 A 
ATOM     98  C   UNL A   1      46.026  28.813  35.279  1.00  0.00     0.131 A 
ATOM     99  C   UNL A   1      45.773  26.537  36.831  1.00  0.00     0.055 A 
ATOM    100  C   UNL A   1      47.162  28.071  35.604  1.00  0.00     0.041 A 
ATOM    101  F   UNL A   1      46.198  29.927  34.550  1.00  0.00    -0.206 F 
ATOM    102  C   UNL A   1      47.041  26.933  36.396  1.00  0.00     0.022 A 
BRANCH  99 103
ATOM    103  S   UNL A   1      45.603  25.145  37.980  1.00  0.00     0.124 S 
ATOM    104  O   UNL A   1      44.515  25.593  38.843  1.00  0.00    -0.237 OA
ATOM    105  O   UNL A   1      45.290  24.037  37.083  1.00  0.00    -0.237 OA
ATOM    106  O   UNL A   1      46.913  25.068  38.624  1.00  0.00    -0.744 OA
ENDBRANCH  99 103
ENDBRANCH  73  96
ENDBRANCH  47  48
ENDBRANCH  39  42
ENDBRANCH  37  38
ENDBRANCH  36  37
ENDBRANCH  35  36
ENDBRANCH  34  35
ENDBRANCH  33  34
ENDBRANCH  32  33
ENDBRANCH   3  32
TORSDOF 26
ENDMDL
MODEL 2
REMARK VINA RESULT:      -9.7      1.833      2.210
REMARK SMILES CCCCCCNC(=O)Oc1cccc(-c2ccc([C@@H](C)C(=O)NCCCCCCNC(=O)c3ccc(-c4c5nc(c(-c6cc(S(=O)(=O)[O-])ccc6F)c6ccc([nH]6)c(-c6cc(S(=O)(=O)[O-])ccc6F)c6nc(c(-c7cc(S(=O)(=O)[O-])ccc7F)c7ccc4[nH]7)C=C6)C=C5)cc3)cc2O)c1
REMARK SMILES IDX 22 1 23 2 24 3 20 5 21 6 19 7 16 8 17 9 98 10 18 11 97 12
REMARK SMILES IDX 15 13 11 14 12 15 100 16 13 17 14 18 10 19 8 20 7 21 9 23
REMARK SMILES IDX 6 24 5 25 4 26 3 27 2 28 1 29 99 30 25 32 26 33 27 34 28 35
REMARK SMILES IDX 29 36 30 37 31 38 32 39 33 41 34 42 35 43 96 44 36 45 95 46
REMARK SMILES IDX 37 47 38 48 39 49 89 50 40 51 94 52 88 53 90 54 41 55 93 56
REMARK SMILES IDX 87 57 86 58 42 60 74 61 54 62 73 63 55 64 58 65 72 66 91 67
REMARK SMILES IDX 56 68 57 69 71 71 92 72 59 73 43 74 44 75 52 76 45 77 51 78
REMARK SMILES IDX 53 79 50 80 46 81 47 82 48 83 49 84 75 85 76 86 84 87 77 88
REMARK SMILES IDX 83 89 85 90 82 91 78 92 79 93 80 94 81 95 60 96 61 97 69 98
REMARK SMILES IDX 62 99 68 100 70 101 67 102 63 103 64 104 65 105 66 106
REMARK H PARENT 24 4 7 22 99 31 31 40 90 59 58 70
REMARK Flexibility Score: inf
ROOT
ATOM      1  C   UNL A   1      32.155  29.127  27.011  1.00  0.00     0.227 C 
ATOM      2  O   UNL A   1      31.452  28.433  27.756  1.00  0.00    -0.274 OA
ATOM      3  N   UNL A   1      33.008  29.993  27.624  1.00  0.00    -0.356 N 
ATOM      4  H   UNL A   1      33.013  29.927  28.606  1.00  0.00     0.163 HD
ENDROOT
BRANCH   1   5
ATOM      5  C   UNL A   1      32.057  28.957  25.488  1.00  0.00     0.105 C 
ATOM      6  C   UNL A   1      30.978  29.821  24.834  1.00  0.00     0.023 C 
BRANCH   5   7
ATOM      7  C   UNL A   1      32.114  27.511  25.019  1.00  0.00    -0.032 A 
ATOM      8  C   UNL A   1      32.289  24.747  24.277  1.00  0.00     0.024 A 
ATOM      9  C   UNL A   1      31.067  25.440  24.282  1.00  0.00     0.013 A 
ATOM     10  C   UNL A   1      33.432  25.501  24.596  1.00  0.00     0.123 A 
ATOM     11  C   UNL A   1      30.989  26.800  24.598  1.00  0.00     0.005 A 
ATOM     12  C   UNL A   1      33.345  26.839  25.002  1.00  0.00     0.051 A 
BRANCH   8  13
ATOM     13  C   UNL A   1      32.307  23.301  23.956  1.00  0.00    -0.011 A 
ATOM     14  C   UNL A   1      32.660  20.980  24.590  1.00  0.00     0.133 A 
ATOM     15  C   UNL A   1      32.330  20.544  23.311  1.00  0.00     0.047 A 
ATOM     16  C   UNL A   1      32.636  22.335  24.924  1.00  0.00     0.056 A 
ATOM     17  C   UNL A   1      31.969  21.479  22.350  1.00  0.00     0.004 A 
ATOM     18  C   UNL A   1      31.973  22.841  22.666  1.00  0.00     0.009 A 
BRANCH  14  19
ATOM     19  O   UNL A   1      33.172  20.006  25.465  1.00  0.00    -0.410 OA
BRANCH  19  20
ATOM     20  C   UNL A   1      34.130  19.101  25.034  1.00  0.00     0.412 C 
ATOM     21  N   UNL A   1      35.392  19.628  25.045  1.00  0.00    -0.321 N 
ATOM     22  H   UNL A   1      36.115  19.052  24.710  1.00  0.00     0.167 HD
ATOM     23  O   UNL A   1      33.926  17.951  24.673  1.00  0.00    -0.224 OA
BRANCH  21  24
ATOM     24  C   UNL A   1      35.771  20.952  25.502  1.00  0.00     0.119 C 
BRANCH  24  25
ATOM     25  C   UNL A   1      36.306  21.815  24.360  1.00  0.00     0.021 C 
BRANCH  25  26
ATOM     26  C   UNL A   1      37.578  22.603  24.694  1.00  0.00     0.002 C 
BRANCH  26  27
ATOM     27  C   UNL A   1      38.169  22.336  26.084  1.00  0.00    -0.000 C 
BRANCH  27  28
ATOM     28  C   UNL A   1      39.503  21.586  26.096  1.00  0.00    -0.003 C 
ATOM     29  C   UNL A   1      40.681  22.461  26.492  1.00  0.00     0.004 C 
ENDBRANCH  27  28
ENDBRANCH  26  27
ENDBRANCH  25  26
ENDBRANCH  24  25
ENDBRANCH  21  24
ENDBRANCH  19  20
ENDBRANCH  14  19
ENDBRANCH   8  13
BRANCH  10  30
ATOM     30  O   UNL A   1      34.705  25.002  24.496  1.00  0.00    -0.507 OA
ATOM     31  H   UNL A   1      35.440  25.580  24.554  1.00  0.00     0.293 HD
ENDBRANCH  10  30
ENDBRANCH   5   7
ENDBRANCH   1   5
BRANCH   3  32
ATOM     32  C   UNL A   1      33.908  30.994  27.093  1.00  0.00     0.116 C 
BRANCH  32  33
ATOM     33  C   UNL A   1      35.256  30.985  27.817  1.00  0.00     0.021 C 
BRANCH  33  34
ATOM     34  C   UNL A   1      35.394  32.083  28.876  1.00  0.00     0.002 C 
BRANCH  34  35
ATOM     35  C   UNL A   1      35.638  33.492  28.319  1.00  0.00     0.002 C 
BRANCH  35  36
ATOM     36  C   UNL A   1      34.414  34.413  28.304  1.00  0.00     0.021 C 
BRANCH  36  37
ATOM     37  C   UNL A   1      33.319  34.031  29.296  1.00  0.00     0.116 C 
BRANCH  37  38
ATOM     38  N   UNL A   1      33.195  35.013  30.361  1.00  0.00    -0.352 N 
ATOM     39  C   UNL A   1      33.828  35.069  31.578  1.00  0.00     0.251 C 
ATOM     40  H   UNL A   1      32.563  35.747  30.184  1.00  0.00     0.163 HD
ATOM     41  O   UNL A   1      33.399  35.816  32.452  1.00  0.00    -0.269 OA
BRANCH  39  42
ATOM     42  C   UNL A   1      35.015  34.223  31.834  1.00  0.00     0.039 A 
ATOM     43  C   UNL A   1      36.282  34.714  31.511  1.00  0.00     0.014 A 
ATOM     44  C   UNL A   1      34.876  32.937  32.362  1.00  0.00     0.014 A 
ATOM     45  C   UNL A   1      37.413  33.936  31.769  1.00  0.00     0.010 A 
ATOM     46  C   UNL A   1      36.007  32.191  32.683  1.00  0.00     0.010 A 
ATOM     47  C   UNL A   1      37.288  32.680  32.384  1.00  0.00    -0.014 A 
BRANCH  47  48
ATOM     48  C   UNL A   1      38.483  31.859  32.712  1.00  0.00     0.031 A 
ATOM     49  C   UNL A   1      39.265  32.132  33.969  1.00  0.00     0.074 A 
ATOM     50  C   UNL A   1      38.896  30.909  31.849  1.00  0.00     0.049 A 
ATOM     51  N   UNL A   1      40.375  31.583  34.390  1.00  0.00    -0.248 NA
ATOM     52  C   UNL A   1      38.742  33.186  34.852  1.00  0.00     0.031 C 
ATOM     53  C   UNL A   1      38.240  30.577  30.583  1.00  0.00     0.029 A 
ATOM     54  N   UNL A   1      39.969  30.056  31.900  1.00  0.00    -0.354 N 
ATOM     55  C   UNL A   1      40.691  32.231  35.580  1.00  0.00     0.074 A 
ATOM     56  C   UNL A   1      39.688  33.255  35.777  1.00  0.00     0.031 C 
ATOM     57  C   UNL A   1      38.912  29.578  29.988  1.00  0.00     0.029 A 
ATOM     58  C   UNL A   1      40.071  29.229  30.804  1.00  0.00     0.049 A 
ATOM     59  H   UNL A   1      40.607  30.035  32.649  1.00  0.00     0.167 HD
ATOM     60  C   UNL A   1      41.712  31.980  36.438  1.00  0.00     0.034 A 
ATOM     61  C   UNL A   1      41.000  28.306  30.484  1.00  0.00     0.034 A 
ATOM     62  C   UNL A   1      42.696  30.945  36.230  1.00  0.00     0.049 A 
ATOM     63  C   UNL A   1      42.140  28.062  31.441  1.00  0.00     0.074 A 
ATOM     64  C   UNL A   1      43.738  30.568  37.058  1.00  0.00     0.029 A 
ATOM     65  N   UNL A   1      42.767  30.127  35.109  1.00  0.00    -0.354 N 
ATOM     66  N   UNL A   1      42.398  28.650  32.587  1.00  0.00    -0.248 NA
ATOM     67  C   UNL A   1      43.106  27.020  31.068  1.00  0.00     0.031 C 
ATOM     68  C   UNL A   1      44.480  29.575  36.408  1.00  0.00     0.029 A 
ATOM     69  C   UNL A   1      43.854  29.272  35.209  1.00  0.00     0.049 A 
ATOM     70  H   UNL A   1      42.137  30.151  34.352  1.00  0.00     0.167 HD
ATOM     71  C   UNL A   1      43.539  28.027  33.085  1.00  0.00     0.074 A 
ATOM     72  C   UNL A   1      43.907  27.008  32.123  1.00  0.00     0.031 C 
ATOM     73  C   UNL A   1      44.217  28.268  34.235  1.00  0.00     0.034 A 
BRANCH  60  74
ATOM     74  C   UNL A   1      41.825  32.858  37.663  1.00  0.00     0.023 A 
ATOM     75  C   UNL A   1      41.188  32.526  38.873  1.00  0.00     0.031 A 
ATOM     76  C   UNL A   1      42.558  34.056  37.615  1.00  0.00     0.131 A 
ATOM     77  C   UNL A   1      41.232  33.417  39.956  1.00  0.00     0.055 A 
ATOM     78  C   UNL A   1      42.668  34.898  38.725  1.00  0.00     0.041 A 
ATOM     79  F   UNL A   1      43.170  34.439  36.484  1.00  0.00    -0.206 F 
ATOM     80  C   UNL A   1      41.989  34.589  39.899  1.00  0.00     0.022 A 
BRANCH  77  81
ATOM     81  S   UNL A   1      40.163  33.094  41.385  1.00  0.00     0.124 S 
ATOM     82  O   UNL A   1      40.161  31.634  41.429  1.00  0.00    -0.237 OA
ATOM     83  O   UNL A   1      40.872  33.766  42.468  1.00  0.00    -0.237 OA
ATOM     84  O   UNL A   1      38.888  33.700  41.003  1.00  0.00    -0.744 OA
ENDBRANCH  77  81
ENDBRANCH  60  74
BRANCH  61  85
ATOM     85  C   UNL A   1      40.905  27.551  29.202  1.00  0.00     0.023 A 
ATOM     86  C   UNL A   1      41.796  27.802  28.146  1.00  0.00     0.031 A 
ATOM     87  C   UNL A   1      39.895  26.594  28.998  1.00  0.00     0.131 A 
ATOM     88  C   UNL A   1      41.630  27.141  26.918  1.00  0.00     0.055 A 
ATOM     89  C   UNL A   1      39.770  25.898  27.795  1.00  0.00     0.041 A 
ATOM     90  F   UNL A   1      39.020  26.311  29.976  1.00  0.00    -0.206 F 
ATOM     91  C   UNL A   1      40.633  26.181  26.740  1.00  0.00     0.022 A 
BRANCH  88  92
ATOM     92  S   UNL A   1      42.687  27.622  25.525  1.00  0.00     0.124 S 
ATOM     93  O   UNL A   1      43.945  27.925  26.197  1.00  0.00    -0.237 OA
ATOM     94  O   UNL A   1      42.670  26.418  24.702  1.00  0.00    -0.237 OA
ATOM     95  O   UNL A   1      41.990  28.774  24.954  1.00  0.00    -0.744 OA
ENDBRANCH  88  92
ENDBRANCH  61  85
BRANCH  73  96
ATOM     96  C   UNL A   1      45.401  27.380  34.534  1.00  0.00     0.023 A 
ATOM     97  C   UNL A   1      46.676  27.639  34.001  1.00  0.00     0.031 A 
ATOM     98  C   UNL A   1      45.246  26.250  35.357  1.00  0.00     0.131 A 
ATOM     99  C   UNL A   1      47.731  26.749  34.251  1.00  0.00     0.055 A 
ATOM    100  C   UNL A   1      46.314  25.403  35.653  1.00  0.00     0.041 A 
ATOM    101  F   UNL A   1      44.050  25.953  35.890  1.00  0.00    -0.206 F 
ATOM    102  C   UNL A   1      47.563  25.643  35.088  1.00  0.00     0.022 A 
BRANCH  99 103
ATOM    103  S   UNL A   1      49.307  27.003  33.390  1.00  0.00     0.124 S 
ATOM    104  O   UNL A   1      49.407  28.459  33.361  1.00  0.00    -0.237 OA
ATOM    105  O   UNL A   1      50.254  26.316  34.262  1.00  0.00    -0.237 OA
ATOM    106  O   UNL A   1      49.093  26.371  32.089  1.00  0.00    -0.744 OA
ENDBRANCH  99 103
ENDBRANCH  73  96
ENDBRANCH  47  48
ENDBRANCH  39  42
ENDBRANCH  37  38
ENDBRANCH  36  37
ENDBRANCH  35  36
ENDBRANCH  34  35
ENDBRANCH  33  34
ENDBRANCH  32  33
ENDBRANCH   3  32
TORSDOF 26
ENDMDL
MODEL 3
REMARK VINA RESULT:      -9.5      4.394      6.250
REMARK SMILES CCCCCCNC(=O)Oc1cccc(-c2ccc([C@@H](C)C(=O)NCCCCCCNC(=O)c3ccc(-c4c5nc(c(-c6cc(S(=O)(=O)[O-])ccc6F)c6ccc([nH]6)c(-c6cc(S(=O)(=O)[O-])ccc6F)c6nc(c(-c7cc(S(=O)(=O)[O-])ccc7F)c7ccc4[nH]7)C=C6)C=C5)cc3)cc2O)c1
REMARK SMILES IDX 22 1 23 2 24 3 20 5 21 6 19 7 16 8 17 9 98 10 18 11 97 12
REMARK SMILES IDX 15 13 11 14 12 15 100 16 13 17 14 18 10 19 8 20 7 21 9 23
REMARK SMILES IDX 6 24 5 25 4 26 3 27 2 28 1 29 99 30 25 32 26 33 27 34 28 35
REMARK SMILES IDX 29 36 30 37 31 38 32 39 33 41 34 42 35 43 96 44 36 45 95 46
REMARK SMILES IDX 37 47 38 48 39 49 89 50 40 51 94 52 88 53 90 54 41 55 93 56
REMARK SMILES IDX 87 57 86 58 42 60 74 61 54 62 73 63 55 64 58 65 72 66 91 67
REMARK SMILES IDX 56 68 57 69 71 71 92 72 59 73 43 74 44 75 52 76 45 77 51 78
REMARK SMILES IDX 53 79 50 80 46 81 47 82 48 83 49 84 75 85 76 86 84 87 77 88
REMARK SMILES IDX 83 89 85 90 82 91 78 92 79 93 80 94 81 95 60 96 61 97 69 98
REMARK SMILES IDX 62 99 68 100 70 101 67 102 63 103 64 104 65 105 66 106
REMARK H PARENT 24 4 7 22 99 31 31 40 90 59 58 70
REMARK Flexibility Score: inf
ROOT
ATOM      1  C   UNL A   1      39.120  28.954  28.203  1.00  0.00     0.227 C 
ATOM      2  O   UNL A   1      40.242  29.348  27.859  1.00  0.00    -0.274 OA
ATOM      3  N   UNL A   1      38.088  29.813  27.986  1.00  0.00    -0.356 N 
ATOM      4  H   UNL A   1      38.343  30.640  27.517  1.00  0.00     0.163 HD
ENDROOT
BRANCH   1   5
ATOM      5  C   UNL A   1      38.954  27.551  28.806  1.00  0.00     0.105 C 
ATOM      6  C   UNL A   1      38.850  27.538  30.332  1.00  0.00     0.023 C 
BRANCH   5   7
ATOM      7  C   UNL A   1      39.873  26.501  28.202  1.00  0.00    -0.032 A 
ATOM      8  C   UNL A   1      41.717  24.638  27.039  1.00  0.00     0.024 A 
ATOM      9  C   UNL A   1      41.201  24.465  28.334  1.00  0.00     0.013 A 
ATOM     10  C   UNL A   1      41.230  25.744  26.320  1.00  0.00     0.123 A 
ATOM     11  C   UNL A   1      40.266  25.348  28.883  1.00  0.00     0.005 A 
ATOM     12  C   UNL A   1      40.364  26.680  26.900  1.00  0.00     0.051 A 
BRANCH   8  13
ATOM     13  C   UNL A   1      42.723  23.684  26.518  1.00  0.00    -0.011 A 
ATOM     14  C   UNL A   1      45.028  22.996  26.164  1.00  0.00     0.133 A 
ATOM     15  C   UNL A   1      44.619  21.837  25.514  1.00  0.00     0.047 A 
ATOM     16  C   UNL A   1      44.102  23.906  26.678  1.00  0.00     0.056 A 
ATOM     17  C   UNL A   1      43.261  21.581  25.376  1.00  0.00     0.004 A 
ATOM     18  C   UNL A   1      42.326  22.502  25.858  1.00  0.00     0.009 A 
BRANCH  14  19
ATOM     19  O   UNL A   1      46.405  23.276  26.127  1.00  0.00    -0.410 OA
BRANCH  19  20
ATOM     20  C   UNL A   1      46.882  24.393  25.457  1.00  0.00     0.412 C 
ATOM     21  N   UNL A   1      47.423  25.322  26.305  1.00  0.00    -0.321 N 
ATOM     22  H   UNL A   1      47.742  26.159  25.899  1.00  0.00     0.167 HD
ATOM     23  O   UNL A   1      46.848  24.581  24.250  1.00  0.00    -0.224 OA
BRANCH  21  24
ATOM     24  C   UNL A   1      47.572  25.195  27.742  1.00  0.00     0.119 C 
BRANCH  24  25
ATOM     25  C   UNL A   1      46.472  25.941  28.496  1.00  0.00     0.021 C 
BRANCH  25  26
ATOM     26  C   UNL A   1      45.739  25.105  29.552  1.00  0.00     0.002 C 
BRANCH  26  27
ATOM     27  C   UNL A   1      45.719  25.702  30.964  1.00  0.00    -0.000 C 
BRANCH  27  28
ATOM     28  C   UNL A   1      44.551  25.257  31.847  1.00  0.00    -0.003 C 
ATOM     29  C   UNL A   1      44.744  25.597  33.316  1.00  0.00     0.004 C 
ENDBRANCH  27  28
ENDBRANCH  26  27
ENDBRANCH  25  26
ENDBRANCH  24  25
ENDBRANCH  21  24
ENDBRANCH  19  20
ENDBRANCH  14  19
ENDBRANCH   8  13
BRANCH  10  30
ATOM     30  O   UNL A   1      41.530  25.965  25.001  1.00  0.00    -0.507 OA
ATOM     31  H   UNL A   1      40.944  25.670  24.331  1.00  0.00     0.293 HD
ENDBRANCH  10  30
ENDBRANCH   5   7
ENDBRANCH   1   5
BRANCH   3  32
ATOM     32  C   UNL A   1      36.682  29.732  28.320  1.00  0.00     0.116 C 
BRANCH  32  33
ATOM     33  C   UNL A   1      36.312  30.697  29.449  1.00  0.00     0.021 C 
BRANCH  33  34
ATOM     34  C   UNL A   1      36.162  32.151  28.991  1.00  0.00     0.002 C 
BRANCH  34  35
ATOM     35  C   UNL A   1      35.076  32.387  27.933  1.00  0.00     0.002 C 
BRANCH  35  36
ATOM     36  C   UNL A   1      33.883  33.232  28.393  1.00  0.00     0.021 C 
BRANCH  36  37
ATOM     37  C   UNL A   1      34.251  34.619  28.916  1.00  0.00     0.116 C 
BRANCH  37  38
ATOM     38  N   UNL A   1      33.371  35.033  29.997  1.00  0.00    -0.352 N 
ATOM     39  C   UNL A   1      33.451  34.764  31.341  1.00  0.00     0.251 C 
ATOM     40  H   UNL A   1      32.605  35.588  29.726  1.00  0.00     0.163 HD
ATOM     41  O   UNL A   1      32.476  34.968  32.060  1.00  0.00    -0.269 OA
BRANCH  39  42
ATOM     42  C   UNL A   1      34.702  34.221  31.915  1.00  0.00     0.039 A 
ATOM     43  C   UNL A   1      35.823  35.050  32.007  1.00  0.00     0.014 A 
ATOM     44  C   UNL A   1      34.779  32.890  32.332  1.00  0.00     0.014 A 
ATOM     45  C   UNL A   1      37.004  34.558  32.567  1.00  0.00     0.010 A 
ATOM     46  C   UNL A   1      35.934  32.422  32.954  1.00  0.00     0.010 A 
ATOM     47  C   UNL A   1      37.061  33.249  33.073  1.00  0.00    -0.014 A 
BRANCH  47  48
ATOM     48  C   UNL A   1      38.293  32.724  33.719  1.00  0.00     0.031 A 
ATOM     49  C   UNL A   1      38.586  33.047  35.159  1.00  0.00     0.074 A 
ATOM     50  C   UNL A   1      39.172  32.007  32.991  1.00  0.00     0.049 A 
ATOM     51  N   UNL A   1      39.640  32.753  35.876  1.00  0.00    -0.248 NA
ATOM     52  C   UNL A   1      37.571  33.833  35.876  1.00  0.00     0.031 C 
ATOM     53  C   UNL A   1      39.013  31.661  31.577  1.00  0.00     0.029 A 
ATOM     54  N   UNL A   1      40.379  31.451  33.334  1.00  0.00    -0.354 N 
ATOM     55  C   UNL A   1      39.422  33.326  37.125  1.00  0.00     0.074 A 
ATOM     56  C   UNL A   1      38.164  34.038  37.043  1.00  0.00     0.031 C 
ATOM     57  C   UNL A   1      40.070  30.933  31.181  1.00  0.00     0.029 A 
ATOM     58  C   UNL A   1      41.004  30.801  32.295  1.00  0.00     0.049 A 
ATOM     59  H   UNL A   1      40.762  31.511  34.239  1.00  0.00     0.167 HD
ATOM     60  C   UNL A   1      40.190  33.248  38.241  1.00  0.00     0.034 A 
ATOM     61  C   UNL A   1      42.199  30.181  32.240  1.00  0.00     0.034 A 
ATOM     62  C   UNL A   1      41.436  32.523  38.305  1.00  0.00     0.049 A 
ATOM     63  C   UNL A   1      43.048  30.128  33.486  1.00  0.00     0.074 A 
ATOM     64  C   UNL A   1      42.267  32.332  39.395  1.00  0.00     0.029 A 
ATOM     65  N   UNL A   1      42.037  31.875  37.233  1.00  0.00    -0.354 N 
ATOM     66  N   UNL A   1      42.805  30.635  34.673  1.00  0.00    -0.248 NA
ATOM     67  C   UNL A   1      44.325  29.410  33.388  1.00  0.00     0.031 C 
ATOM     68  C   UNL A   1      43.401  31.633  38.967  1.00  0.00     0.029 A 
ATOM     69  C   UNL A   1      43.243  31.315  37.628  1.00  0.00     0.049 A 
ATOM     70  H   UNL A   1      41.663  31.822  36.323  1.00  0.00     0.167 HD
ATOM     71  C   UNL A   1      43.885  30.268  35.471  1.00  0.00     0.074 A 
ATOM     72  C   UNL A   1      44.771  29.485  34.633  1.00  0.00     0.031 C 
ATOM     73  C   UNL A   1      44.122  30.546  36.778  1.00  0.00     0.034 A 
BRANCH  60  74
ATOM     74  C   UNL A   1      39.713  33.988  39.468  1.00  0.00     0.023 A 
ATOM     75  C   UNL A   1      38.798  33.414  40.370  1.00  0.00     0.031 A 
ATOM     76  C   UNL A   1      40.156  35.296  39.729  1.00  0.00     0.131 A 
ATOM     77  C   UNL A   1      38.301  34.170  41.443  1.00  0.00     0.055 A 
ATOM     78  C   UNL A   1      39.722  36.014  40.847  1.00  0.00     0.041 A 
ATOM     79  F   UNL A   1      41.012  35.908  38.895  1.00  0.00    -0.206 F 
ATOM     80  C   UNL A   1      38.776  35.458  41.702  1.00  0.00     0.022 A 
BRANCH  77  81
ATOM     81  S   UNL A   1      36.915  33.502  42.402  1.00  0.00     0.124 S 
ATOM     82  O   UNL A   1      37.064  32.066  42.178  1.00  0.00    -0.237 OA
ATOM     83  O   UNL A   1      37.209  33.973  43.751  1.00  0.00    -0.237 OA
ATOM     84  O   UNL A   1      35.740  34.104  41.773  1.00  0.00    -0.744 OA
ENDBRANCH  77  81
ENDBRANCH  60  74
BRANCH  61  85
ATOM     85  C   UNL A   1      42.676  29.569  30.967  1.00  0.00     0.023 A 
ATOM     86  C   UNL A   1      43.270  30.353  29.964  1.00  0.00     0.031 A 
ATOM     87  C   UNL A   1      42.508  28.196  30.715  1.00  0.00     0.131 A 
ATOM     88  C   UNL A   1      43.629  29.769  28.739  1.00  0.00     0.055 A 
ATOM     89  C   UNL A   1      42.919  27.609  29.517  1.00  0.00     0.041 A 
ATOM     90  F   UNL A   1      41.951  27.399  31.641  1.00  0.00    -0.206 F 
ATOM     91  C   UNL A   1      43.471  28.400  28.514  1.00  0.00     0.022 A 
BRANCH  88  92
ATOM     92  S   UNL A   1      44.226  30.845  27.407  1.00  0.00     0.124 S 
ATOM     93  O   UNL A   1      45.631  30.465  27.325  1.00  0.00    -0.237 OA
ATOM     94  O   UNL A   1      43.383  30.438  26.288  1.00  0.00    -0.237 OA
ATOM     95  O   UNL A   1      43.971  32.191  27.919  1.00  0.00    -0.744 OA
ENDBRANCH  88  92
ENDBRANCH  61  85
BRANCH  73  96
ATOM     96  C   UNL A   1      45.371  29.957  37.390  1.00  0.00     0.023 A 
ATOM     97  C   UNL A   1      45.369  28.694  38.009  1.00  0.00     0.031 A 
ATOM     98  C   UNL A   1      46.578  30.677  37.361  1.00  0.00     0.131 A 
ATOM     99  C   UNL A   1      46.536  28.216  38.623  1.00  0.00     0.055 A 
ATOM    100  C   UNL A   1      47.752  30.169  37.919  1.00  0.00     0.041 A 
ATOM    101  F   UNL A   1      46.637  31.889  36.786  1.00  0.00    -0.206 F 
ATOM    102  C   UNL A   1      47.732  28.937  38.566  1.00  0.00     0.022 A 
BRANCH  99 103
ATOM    103  S   UNL A   1      46.449  26.680  39.582  1.00  0.00     0.124 S 
ATOM    104  O   UNL A   1      46.223  25.683  38.541  1.00  0.00    -0.237 OA
ATOM    105  O   UNL A   1      47.756  26.640  40.229  1.00  0.00    -0.237 OA
ATOM    106  O   UNL A   1      45.319  26.900  40.483  1.00  0.00    -0.744 OA
ENDBRANCH  99 103
ENDBRANCH  73  96
ENDBRANCH  47  48
ENDBRANCH  39  42
ENDBRANCH  37  38
ENDBRANCH  36  37
ENDBRANCH  35  36
ENDBRANCH  34  35
ENDBRANCH  33  34
ENDBRANCH  32  33
ENDBRANCH   3  32
TORSDOF 26
ENDMDL
