MODEL 1
REMARK VINA RESULT:      -9.8      0.000      0.000
REMARK SMILES CCCCNC(=O)c1cnn([C@@H](C)C(=O)NCCCCCCNC(=O)c2ccc(-c3c4nc(c(-c5cc(S(=O)(=O)[O-])ccc5F)c5ccc([nH]5)c(-c5cc(S(=O)(=O)[O-])ccc5F)c5nc(c(-c6cc(S(=O)(=O)[O-])ccc6F)c6ccc3[nH]6)C=C5)C=C4)cc2)c1
REMARK SMILES IDX 18 1 17 2 16 3 14 4 15 5 12 7 13 8 11 9 8 10 9 11 89 12
REMARK SMILES IDX 10 13 6 14 5 15 7 17 4 18 3 19 2 20 1 21 19 22 20 23 21 24
REMARK SMILES IDX 22 25 23 26 24 27 25 29 26 30 27 31 88 32 28 33 87 34 29 35
REMARK SMILES IDX 30 36 31 37 81 38 32 39 86 40 80 41 82 42 33 43 85 44 79 45
REMARK SMILES IDX 78 46 34 48 66 49 46 50 65 51 47 52 50 53 64 54 83 55 48 56
REMARK SMILES IDX 49 57 63 59 84 60 51 61 35 62 36 63 44 64 37 65 43 66 45 67
REMARK SMILES IDX 42 68 38 69 39 70 40 71 41 72 67 73 68 74 76 75 69 76 75 77
REMARK SMILES IDX 77 78 74 79 70 80 71 81 72 82 73 83 52 84 53 85 61 86 54 87
REMARK SMILES IDX 60 88 62 89 59 90 55 91 56 92 57 93 58 94
REMARK H PARENT 16 6 5 16 23 28 82 47 50 58
REMARK Flexibility Score: inf
ROOT
ATOM      1  C   UNL A   1      39.760  23.426  26.805  1.00  0.00     0.021 C 
ENDROOT
BRANCH   1   2
ATOM      2  C   UNL A   1      38.268  23.766  26.719  1.00  0.00     0.116 C 
BRANCH   2   3
ATOM      3  N   UNL A   1      37.783  23.752  25.349  1.00  0.00    -0.354 N 
ATOM      4  C   UNL A   1      36.872  22.949  24.731  1.00  0.00     0.244 C 
ATOM      5  O   UNL A   1      36.713  23.134  23.515  1.00  0.00    -0.273 OA
ATOM      6  H   UNL A   1      38.179  24.441  24.769  1.00  0.00     0.163 HD
BRANCH   4   7
ATOM      7  C   UNL A   1      36.000  21.921  25.452  1.00  0.00     0.193 C 
ATOM      8  C   UNL A   1      36.243  20.484  24.996  1.00  0.00     0.044 C 
BRANCH   7   9
ATOM      9  N   UNL A   1      34.596  22.302  25.505  1.00  0.00    -0.260 N 
ATOM     10  C   UNL A   1      32.638  23.119  26.114  1.00  0.00     0.077 A 
ATOM     11  C   UNL A   1      32.598  22.487  24.859  1.00  0.00     0.149 A 
ATOM     12  C   UNL A   1      33.970  23.027  26.483  1.00  0.00     0.123 A 
ATOM     13  N   UNL A   1      33.739  21.871  24.565  1.00  0.00    -0.180 NA
BRANCH  10  14
ATOM     14  C   UNL A   1      31.577  23.773  26.852  1.00  0.00     0.254 C 
ATOM     15  N   UNL A   1      31.478  25.143  26.782  1.00  0.00    -0.352 N 
ATOM     16  H   UNL A   1      30.855  25.549  27.428  1.00  0.00     0.163 HD
ATOM     17  O   UNL A   1      30.758  23.140  27.504  1.00  0.00    -0.269 OA
BRANCH  15  18
ATOM     18  C   UNL A   1      32.152  26.087  25.902  1.00  0.00     0.116 C 
BRANCH  18  19
ATOM     19  C   UNL A   1      32.406  27.432  26.577  1.00  0.00     0.021 C 
BRANCH  19  20
ATOM     20  C   UNL A   1      32.306  28.641  25.651  1.00  0.00    -0.002 C 
ATOM     21  C   UNL A   1      31.391  28.407  24.460  1.00  0.00     0.004 C 
ENDBRANCH  19  20
ENDBRANCH  18  19
ENDBRANCH  15  18
ENDBRANCH  10  14
ENDBRANCH   7   9
ENDBRANCH   4   7
ENDBRANCH   2   3
ENDBRANCH   1   2
BRANCH   1  22
ATOM     22  C   UNL A   1      40.058  21.960  27.129  1.00  0.00     0.002 C 
BRANCH  22  23
ATOM     23  C   UNL A   1      40.126  21.011  25.924  1.00  0.00     0.002 C 
BRANCH  23  24
ATOM     24  C   UNL A   1      40.903  19.703  26.129  1.00  0.00     0.021 C 
BRANCH  24  25
ATOM     25  C   UNL A   1      42.227  19.879  26.857  1.00  0.00     0.116 C 
BRANCH  25  26
ATOM     26  N   UNL A   1      43.340  20.109  25.938  1.00  0.00    -0.352 N 
ATOM     27  C   UNL A   1      43.789  21.311  25.426  1.00  0.00     0.251 C 
ATOM     28  H   UNL A   1      43.830  19.306  25.646  1.00  0.00     0.163 HD
ATOM     29  O   UNL A   1      44.460  21.335  24.401  1.00  0.00    -0.269 OA
BRANCH  27  30
ATOM     30  C   UNL A   1      43.428  22.556  26.129  1.00  0.00     0.039 A 
ATOM     31  C   UNL A   1      43.651  22.711  27.499  1.00  0.00     0.014 A 
ATOM     32  C   UNL A   1      42.906  23.603  25.375  1.00  0.00     0.014 A 
ATOM     33  C   UNL A   1      43.436  23.961  28.078  1.00  0.00     0.010 A 
ATOM     34  C   UNL A   1      42.850  24.866  25.911  1.00  0.00     0.010 A 
ATOM     35  C   UNL A   1      43.066  25.051  27.272  1.00  0.00    -0.014 A 
BRANCH  35  36
ATOM     36  C   UNL A   1      43.011  26.410  27.818  1.00  0.00     0.031 A 
ATOM     37  C   UNL A   1      44.082  27.325  27.340  1.00  0.00     0.074 A 
ATOM     38  C   UNL A   1      41.986  26.886  28.559  1.00  0.00     0.049 A 
ATOM     39  N   UNL A   1      45.067  27.797  28.028  1.00  0.00    -0.248 NA
ATOM     40  C   UNL A   1      44.155  27.649  25.907  1.00  0.00     0.031 C 
ATOM     41  C   UNL A   1      40.745  26.201  28.940  1.00  0.00     0.029 A 
ATOM     42  N   UNL A   1      41.798  28.139  29.066  1.00  0.00    -0.354 N 
ATOM     43  C   UNL A   1      45.755  28.662  27.184  1.00  0.00     0.074 A 
ATOM     44  C   UNL A   1      45.265  28.390  25.859  1.00  0.00     0.031 C 
ATOM     45  C   UNL A   1      39.849  27.095  29.412  1.00  0.00     0.029 A 
ATOM     46  C   UNL A   1      40.516  28.373  29.555  1.00  0.00     0.049 A 
ATOM     47  H   UNL A   1      42.509  28.820  29.083  1.00  0.00     0.167 HD
ATOM     48  C   UNL A   1      46.507  29.680  27.689  1.00  0.00     0.034 A 
ATOM     49  C   UNL A   1      40.025  29.515  30.099  1.00  0.00     0.034 A 
ATOM     50  C   UNL A   1      46.763  29.482  29.099  1.00  0.00     0.049 A 
ATOM     51  C   UNL A   1      41.187  30.257  30.633  1.00  0.00     0.074 A 
ATOM     52  C   UNL A   1      47.411  28.518  29.846  1.00  0.00     0.029 A 
ATOM     53  N   UNL A   1      45.963  30.165  29.987  1.00  0.00    -0.354 N 
ATOM     54  N   UNL A   1      41.926  29.802  31.607  1.00  0.00    -0.248 NA
ATOM     55  C   UNL A   1      41.817  31.270  29.803  1.00  0.00     0.031 C 
ATOM     56  C   UNL A   1      46.615  28.363  31.021  1.00  0.00     0.029 A 
ATOM     57  C   UNL A   1      45.566  29.285  30.965  1.00  0.00     0.049 A 
ATOM     58  H   UNL A   1      45.719  31.117  29.933  1.00  0.00     0.167 HD
ATOM     59  C   UNL A   1      43.226  30.117  31.245  1.00  0.00     0.074 A 
ATOM     60  C   UNL A   1      43.085  31.135  30.206  1.00  0.00     0.031 C 
ATOM     61  C   UNL A   1      44.274  29.328  31.629  1.00  0.00     0.034 A 
BRANCH  48  62
ATOM     62  C   UNL A   1      46.707  31.028  27.029  1.00  0.00     0.023 A 
ATOM     63  C   UNL A   1      48.033  31.475  26.847  1.00  0.00     0.031 A 
ATOM     64  C   UNL A   1      45.702  32.003  26.842  1.00  0.00     0.131 A 
ATOM     65  C   UNL A   1      48.313  32.829  26.591  1.00  0.00     0.055 A 
ATOM     66  C   UNL A   1      45.983  33.335  26.523  1.00  0.00     0.041 A 
ATOM     67  F   UNL A   1      44.404  31.754  27.053  1.00  0.00    -0.206 F 
ATOM     68  C   UNL A   1      47.295  33.763  26.427  1.00  0.00     0.022 A 
BRANCH  65  69
ATOM     69  S   UNL A   1      50.036  33.386  26.664  1.00  0.00     0.124 S 
ATOM     70  O   UNL A   1      50.273  33.798  25.284  1.00  0.00    -0.237 OA
ATOM     71  O   UNL A   1      49.964  34.456  27.654  1.00  0.00    -0.237 OA
ATOM     72  O   UNL A   1      50.760  32.190  27.090  1.00  0.00    -0.744 OA
ENDBRANCH  65  69
ENDBRANCH  48  62
BRANCH  49  73
ATOM     73  C   UNL A   1      38.670  30.090  29.893  1.00  0.00     0.023 A 
ATOM     74  C   UNL A   1      37.952  30.775  30.894  1.00  0.00     0.031 A 
ATOM     75  C   UNL A   1      38.156  30.163  28.578  1.00  0.00     0.131 A 
ATOM     76  C   UNL A   1      36.780  31.495  30.560  1.00  0.00     0.055 A 
ATOM     77  C   UNL A   1      36.996  30.869  28.256  1.00  0.00     0.041 A 
ATOM     78  F   UNL A   1      38.819  29.618  27.543  1.00  0.00    -0.206 F 
ATOM     79  C   UNL A   1      36.307  31.548  29.246  1.00  0.00     0.022 A 
BRANCH  76  80
ATOM     80  S   UNL A   1      35.880  32.443  31.831  1.00  0.00     0.124 S 
ATOM     81  O   UNL A   1      36.239  31.743  33.059  1.00  0.00    -0.237 OA
ATOM     82  O   UNL A   1      36.431  33.783  31.663  1.00  0.00    -0.237 OA
ATOM     83  O   UNL A   1      34.478  32.306  31.434  1.00  0.00    -0.744 OA
ENDBRANCH  76  80
ENDBRANCH  49  73
BRANCH  61  84
ATOM     84  C   UNL A   1      44.013  28.281  32.697  1.00  0.00     0.023 A 
ATOM     85  C   UNL A   1      44.168  26.886  32.517  1.00  0.00     0.031 A 
ATOM     86  C   UNL A   1      43.691  28.736  33.987  1.00  0.00     0.131 A 
ATOM     87  C   UNL A   1      43.985  26.006  33.605  1.00  0.00     0.055 A 
ATOM     88  C   UNL A   1      43.534  27.866  35.066  1.00  0.00     0.041 A 
ATOM     89  F   UNL A   1      43.559  30.052  34.229  1.00  0.00    -0.206 F 
ATOM     90  C   UNL A   1      43.675  26.496  34.877  1.00  0.00     0.022 A 
BRANCH  87  91
ATOM     91  S   UNL A   1      44.148  24.204  33.377  1.00  0.00     0.124 S 
ATOM     92  O   UNL A   1      43.048  23.661  34.165  1.00  0.00    -0.237 OA
ATOM     93  O   UNL A   1      44.033  24.050  31.930  1.00  0.00    -0.237 OA
ATOM     94  O   UNL A   1      45.481  23.912  33.912  1.00  0.00    -0.744 OA
ENDBRANCH  87  91
ENDBRANCH  61  84
ENDBRANCH  35  36
ENDBRANCH  27  30
ENDBRANCH  25  26
ENDBRANCH  24  25
ENDBRANCH  23  24
ENDBRANCH  22  23
ENDBRANCH   1  22
TORSDOF 21
ENDMDL
MODEL 2
REMARK VINA RESULT:      -9.8      2.589      9.077
REMARK SMILES CCCCNC(=O)c1cnn([C@@H](C)C(=O)NCCCCCCNC(=O)c2ccc(-c3c4nc(c(-c5cc(S(=O)(=O)[O-])ccc5F)c5ccc([nH]5)c(-c5cc(S(=O)(=O)[O-])ccc5F)c5nc(c(-c6cc(S(=O)(=O)[O-])ccc6F)c6ccc3[nH]6)C=C5)C=C4)cc2)c1
REMARK SMILES IDX 18 1 17 2 16 3 14 4 15 5 12 7 13 8 11 9 8 10 9 11 89 12
REMARK SMILES IDX 10 13 6 14 5 15 7 17 4 18 3 19 2 20 1 21 19 22 20 23 21 24
REMARK SMILES IDX 22 25 23 26 24 27 25 29 26 30 27 31 88 32 28 33 87 34 29 35
REMARK SMILES IDX 30 36 31 37 81 38 32 39 86 40 80 41 82 42 33 43 85 44 79 45
REMARK SMILES IDX 78 46 34 48 66 49 46 50 65 51 47 52 50 53 64 54 83 55 48 56
REMARK SMILES IDX 49 57 63 59 84 60 51 61 35 62 36 63 44 64 37 65 43 66 45 67
REMARK SMILES IDX 42 68 38 69 39 70 40 71 41 72 67 73 68 74 76 75 69 76 75 77
REMARK SMILES IDX 77 78 74 79 70 80 71 81 72 82 73 83 52 84 53 85 61 86 54 87
REMARK SMILES IDX 60 88 62 89 59 90 55 91 56 92 57 93 58 94
REMARK H PARENT 16 6 5 16 23 28 82 47 50 58
REMARK Flexibility Score: inf
ROOT
ATOM      1  C   UNL A   1      33.620  27.441  25.891  1.00  0.00     0.021 C 
ENDROOT
BRANCH   1   2
ATOM      2  C   UNL A   1      33.389  27.665  24.393  1.00  0.00     0.116 C 
BRANCH   2   3
ATOM      3  N   UNL A   1      32.078  27.204  23.967  1.00  0.00    -0.354 N 
ATOM      4  C   UNL A   1      31.714  26.287  23.026  1.00  0.00     0.244 C 
ATOM      5  O   UNL A   1      30.497  26.154  22.832  1.00  0.00    -0.273 OA
ATOM      6  H   UNL A   1      31.324  27.624  24.439  1.00  0.00     0.163 HD
BRANCH   4   7
ATOM      7  C   UNL A   1      32.695  25.381  22.281  1.00  0.00     0.193 C 
ATOM      8  C   UNL A   1      32.651  25.548  20.764  1.00  0.00     0.044 C 
BRANCH   7   9
ATOM      9  N   UNL A   1      32.647  23.998  22.733  1.00  0.00    -0.260 N 
ATOM     10  C   UNL A   1      32.576  22.166  23.961  1.00  0.00     0.077 A 
ATOM     11  C   UNL A   1      32.562  21.897  22.582  1.00  0.00     0.149 A 
ATOM     12  C   UNL A   1      32.578  23.549  24.024  1.00  0.00     0.123 A 
ATOM     13  N   UNL A   1      32.752  22.992  21.851  1.00  0.00    -0.180 NA
BRANCH  10  14
ATOM     14  C   UNL A   1      32.540  21.247  25.081  1.00  0.00     0.254 C 
ATOM     15  N   UNL A   1      33.280  21.548  26.200  1.00  0.00    -0.352 N 
ATOM     16  H   UNL A   1      33.358  20.819  26.857  1.00  0.00     0.163 HD
ATOM     17  O   UNL A   1      31.852  20.235  25.066  1.00  0.00    -0.269 OA
BRANCH  15  18
ATOM     18  C   UNL A   1      33.968  22.779  26.564  1.00  0.00     0.116 C 
BRANCH  18  19
ATOM     19  C   UNL A   1      35.450  22.553  26.852  1.00  0.00     0.021 C 
BRANCH  19  20
ATOM     20  C   UNL A   1      36.368  22.711  25.643  1.00  0.00    -0.002 C 
ATOM     21  C   UNL A   1      37.395  23.819  25.813  1.00  0.00     0.004 C 
ENDBRANCH  19  20
ENDBRANCH  18  19
ENDBRANCH  15  18
ENDBRANCH  10  14
ENDBRANCH   7   9
ENDBRANCH   4   7
ENDBRANCH   2   3
ENDBRANCH   1   2
BRANCH   1  22
ATOM     22  C   UNL A   1      33.146  28.589  26.784  1.00  0.00     0.002 C 
BRANCH  22  23
ATOM     23  C   UNL A   1      34.134  29.750  26.959  1.00  0.00     0.002 C 
BRANCH  23  24
ATOM     24  C   UNL A   1      33.621  30.972  27.735  1.00  0.00     0.021 C 
BRANCH  24  25
ATOM     25  C   UNL A   1      34.619  32.118  27.810  1.00  0.00     0.116 C 
BRANCH  25  26
ATOM     26  N   UNL A   1      34.647  32.744  29.131  1.00  0.00    -0.352 N 
ATOM     27  C   UNL A   1      35.415  32.394  30.224  1.00  0.00     0.251 C 
ATOM     28  H   UNL A   1      34.042  33.510  29.257  1.00  0.00     0.163 HD
ATOM     29  O   UNL A   1      35.081  32.737  31.352  1.00  0.00    -0.269 OA
BRANCH  27  30
ATOM     30  C   UNL A   1      36.630  31.587  30.003  1.00  0.00     0.039 A 
ATOM     31  C   UNL A   1      37.892  32.179  29.909  1.00  0.00     0.014 A 
ATOM     32  C   UNL A   1      36.492  30.203  29.947  1.00  0.00     0.014 A 
ATOM     33  C   UNL A   1      39.017  31.357  29.857  1.00  0.00     0.010 A 
ATOM     34  C   UNL A   1      37.602  29.402  30.058  1.00  0.00     0.010 A 
ATOM     35  C   UNL A   1      38.872  29.963  29.966  1.00  0.00    -0.014 A 
BRANCH  35  36
ATOM     36  C   UNL A   1      40.041  29.089  30.100  1.00  0.00     0.031 A 
ATOM     37  C   UNL A   1      40.399  28.723  31.496  1.00  0.00     0.074 A 
ATOM     38  C   UNL A   1      40.664  28.498  29.057  1.00  0.00     0.049 A 
ATOM     39  N   UNL A   1      41.436  29.110  32.161  1.00  0.00    -0.248 NA
ATOM     40  C   UNL A   1      39.437  27.955  32.300  1.00  0.00     0.031 C 
ATOM     41  C   UNL A   1      40.315  28.563  27.632  1.00  0.00     0.029 A 
ATOM     42  N   UNL A   1      41.713  27.625  29.063  1.00  0.00    -0.354 N 
ATOM     43  C   UNL A   1      41.385  28.452  33.385  1.00  0.00     0.074 A 
ATOM     44  C   UNL A   1      40.056  27.909  33.482  1.00  0.00     0.031 C 
ATOM     45  C   UNL A   1      40.978  27.605  26.948  1.00  0.00     0.029 A 
ATOM     46  C   UNL A   1      41.943  26.996  27.842  1.00  0.00     0.049 A 
ATOM     47  H   UNL A   1      42.261  27.454  29.863  1.00  0.00     0.167 HD
ATOM     48  C   UNL A   1      42.519  28.228  34.106  1.00  0.00     0.034 A 
ATOM     49  C   UNL A   1      42.893  26.074  27.542  1.00  0.00     0.034 A 
ATOM     50  C   UNL A   1      43.606  29.053  33.627  1.00  0.00     0.049 A 
ATOM     51  C   UNL A   1      43.994  26.280  28.508  1.00  0.00     0.074 A 
ATOM     52  C   UNL A   1      43.831  30.413  33.536  1.00  0.00     0.029 A 
ATOM     53  N   UNL A   1      44.512  28.469  32.772  1.00  0.00    -0.354 N 
ATOM     54  N   UNL A   1      44.700  27.376  28.550  1.00  0.00    -0.248 NA
ATOM     55  C   UNL A   1      44.021  25.484  29.724  1.00  0.00     0.031 C 
ATOM     56  C   UNL A   1      44.511  30.593  32.293  1.00  0.00     0.029 A 
ATOM     57  C   UNL A   1      44.730  29.334  31.727  1.00  0.00     0.049 A 
ATOM     58  H   UNL A   1      44.932  27.586  32.888  1.00  0.00     0.167 HD
ATOM     59  C   UNL A   1      44.876  27.636  29.900  1.00  0.00     0.074 A 
ATOM     60  C   UNL A   1      44.561  26.372  30.563  1.00  0.00     0.031 C 
ATOM     61  C   UNL A   1      44.995  28.916  30.360  1.00  0.00     0.034 A 
BRANCH  48  62
ATOM     62  C   UNL A   1      42.767  27.023  34.989  1.00  0.00     0.023 A 
ATOM     63  C   UNL A   1      43.576  25.990  34.470  1.00  0.00     0.031 A 
ATOM     64  C   UNL A   1      42.039  26.703  36.157  1.00  0.00     0.131 A 
ATOM     65  C   UNL A   1      43.565  24.705  35.042  1.00  0.00     0.055 A 
ATOM     66  C   UNL A   1      42.084  25.442  36.760  1.00  0.00     0.041 A 
ATOM     67  F   UNL A   1      41.172  27.549  36.724  1.00  0.00    -0.206 F 
ATOM     68  C   UNL A   1      42.824  24.425  36.186  1.00  0.00     0.022 A 
BRANCH  65  69
ATOM     69  S   UNL A   1      44.390  23.356  34.156  1.00  0.00     0.124 S 
ATOM     70  O   UNL A   1      45.557  24.036  33.602  1.00  0.00    -0.237 OA
ATOM     71  O   UNL A   1      44.647  22.404  35.231  1.00  0.00    -0.237 OA
ATOM     72  O   UNL A   1      43.392  22.935  33.175  1.00  0.00    -0.744 OA
ENDBRANCH  65  69
ENDBRANCH  48  62
BRANCH  49  73
ATOM     73  C   UNL A   1      42.731  24.877  26.678  1.00  0.00     0.023 A 
ATOM     74  C   UNL A   1      43.711  24.434  25.766  1.00  0.00     0.031 A 
ATOM     75  C   UNL A   1      41.652  23.999  26.930  1.00  0.00     0.131 A 
ATOM     76  C   UNL A   1      43.588  23.163  25.155  1.00  0.00     0.055 A 
ATOM     77  C   UNL A   1      41.534  22.750  26.319  1.00  0.00     0.041 A 
ATOM     78  F   UNL A   1      40.718  24.294  27.850  1.00  0.00    -0.206 F 
ATOM     79  C   UNL A   1      42.509  22.320  25.434  1.00  0.00     0.022 A 
BRANCH  76  80
ATOM     80  S   UNL A   1      44.883  22.548  24.027  1.00  0.00     0.124 S 
ATOM     81  O   UNL A   1      45.808  23.673  23.967  1.00  0.00    -0.237 OA
ATOM     82  O   UNL A   1      45.355  21.355  24.722  1.00  0.00    -0.237 OA
ATOM     83  O   UNL A   1      44.157  22.283  22.784  1.00  0.00    -0.744 OA
ENDBRANCH  76  80
ENDBRANCH  49  73
BRANCH  61  84
ATOM     84  C   UNL A   1      45.225  30.015  29.336  1.00  0.00     0.023 A 
ATOM     85  C   UNL A   1      46.483  30.355  28.784  1.00  0.00     0.031 A 
ATOM     86  C   UNL A   1      44.093  30.674  28.827  1.00  0.00     0.131 A 
ATOM     87  C   UNL A   1      46.571  31.334  27.772  1.00  0.00     0.055 A 
ATOM     88  C   UNL A   1      44.181  31.624  27.810  1.00  0.00     0.041 A 
ATOM     89  F   UNL A   1      42.867  30.374  29.289  1.00  0.00    -0.206 F 
ATOM     90  C   UNL A   1      45.422  31.962  27.282  1.00  0.00     0.022 A 
BRANCH  87  91
ATOM     91  S   UNL A   1      48.190  31.806  27.077  1.00  0.00     0.124 S 
ATOM     92  O   UNL A   1      47.862  32.890  26.159  1.00  0.00    -0.237 OA
ATOM     93  O   UNL A   1      48.952  32.183  28.264  1.00  0.00    -0.237 OA
ATOM     94  O   UNL A   1      48.652  30.577  26.426  1.00  0.00    -0.744 OA
ENDBRANCH  87  91
ENDBRANCH  61  84
ENDBRANCH  35  36
ENDBRANCH  27  30
ENDBRANCH  25  26
ENDBRANCH  24  25
ENDBRANCH  23  24
ENDBRANCH  22  23
ENDBRANCH   1  22
TORSDOF 21
ENDMDL
MODEL 3
REMARK VINA RESULT:      -9.7      8.038     14.243
REMARK SMILES CCCCNC(=O)c1cnn([C@@H](C)C(=O)NCCCCCCNC(=O)c2ccc(-c3c4nc(c(-c5cc(S(=O)(=O)[O-])ccc5F)c5ccc([nH]5)c(-c5cc(S(=O)(=O)[O-])ccc5F)c5nc(c(-c6cc(S(=O)(=O)[O-])ccc6F)c6ccc3[nH]6)C=C5)C=C4)cc2)c1
REMARK SMILES IDX 18 1 17 2 16 3 14 4 15 5 12 7 13 8 11 9 8 10 9 11 89 12
REMARK SMILES IDX 10 13 6 14 5 15 7 17 4 18 3 19 2 20 1 21 19 22 20 23 21 24
REMARK SMILES IDX 22 25 23 26 24 27 25 29 26 30 27 31 88 32 28 33 87 34 29 35
REMARK SMILES IDX 30 36 31 37 81 38 32 39 86 40 80 41 82 42 33 43 85 44 79 45
REMARK SMILES IDX 78 46 34 48 66 49 46 50 65 51 47 52 50 53 64 54 83 55 48 56
REMARK SMILES IDX 49 57 63 59 84 60 51 61 35 62 36 63 44 64 37 65 43 66 45 67
REMARK SMILES IDX 42 68 38 69 39 70 40 71 41 72 67 73 68 74 76 75 69 76 75 77
REMARK SMILES IDX 77 78 74 79 70 80 71 81 72 82 73 83 52 84 53 85 61 86 54 87
REMARK SMILES IDX 60 88 62 89 59 90 55 91 56 92 57 93 58 94
REMARK H PARENT 16 6 5 16 23 28 82 47 50 58
REMARK Flexibility Score: inf
ROOT
ATOM      1  C   UNL A   1      45.048  41.486  24.991  1.00  0.00     0.021 C 
ENDROOT
BRANCH   1   2
ATOM      2  C   UNL A   1      46.338  42.300  25.131  1.00  0.00     0.116 C 
BRANCH   2   3
ATOM      3  N   UNL A   1      46.286  43.542  24.379  1.00  0.00    -0.354 N 
ATOM      4  C   UNL A   1      46.136  43.775  23.044  1.00  0.00     0.244 C 
ATOM      5  O   UNL A   1      46.202  44.959  22.683  1.00  0.00    -0.273 OA
ATOM      6  H   UNL A   1      46.372  44.355  24.927  1.00  0.00     0.163 HD
BRANCH   4   7
ATOM      7  C   UNL A   1      45.816  42.694  22.012  1.00  0.00     0.193 C 
ATOM      8  C   UNL A   1      47.028  41.862  21.601  1.00  0.00     0.044 C 
BRANCH   7   9
ATOM      9  N   UNL A   1      45.024  43.190  20.895  1.00  0.00    -0.260 N 
ATOM     10  C   UNL A   1      43.376  43.893  19.606  1.00  0.00     0.077 A 
ATOM     11  C   UNL A   1      44.620  43.902  18.952  1.00  0.00     0.149 A 
ATOM     12  C   UNL A   1      43.685  43.473  20.889  1.00  0.00     0.123 A 
ATOM     13  N   UNL A   1      45.580  43.341  19.683  1.00  0.00    -0.180 NA
BRANCH  10  14
ATOM     14  C   UNL A   1      42.071  44.278  19.110  1.00  0.00     0.254 C 
ATOM     15  N   UNL A   1      42.003  45.046  17.971  1.00  0.00    -0.352 N 
ATOM     16  H   UNL A   1      41.114  45.420  17.773  1.00  0.00     0.163 HD
ATOM     17  O   UNL A   1      41.038  43.915  19.656  1.00  0.00    -0.269 OA
BRANCH  15  18
ATOM     18  C   UNL A   1      43.043  45.394  17.013  1.00  0.00     0.116 C 
BRANCH  18  19
ATOM     19  C   UNL A   1      43.439  46.866  17.094  1.00  0.00     0.021 C 
BRANCH  19  20
ATOM     20  C   UNL A   1      42.275  47.831  17.305  1.00  0.00    -0.002 C 
ATOM     21  C   UNL A   1      41.552  48.185  16.015  1.00  0.00     0.004 C 
ENDBRANCH  19  20
ENDBRANCH  18  19
ENDBRANCH  15  18
ENDBRANCH  10  14
ENDBRANCH   7   9
ENDBRANCH   4   7
ENDBRANCH   2   3
ENDBRANCH   1   2
BRANCH   1  22
ATOM     22  C   UNL A   1      44.744  40.569  26.177  1.00  0.00     0.002 C 
BRANCH  22  23
ATOM     23  C   UNL A   1      43.273  40.172  26.355  1.00  0.00     0.002 C 
BRANCH  23  24
ATOM     24  C   UNL A   1      42.985  39.049  27.362  1.00  0.00     0.021 C 
BRANCH  24  25
ATOM     25  C   UNL A   1      42.934  37.661  26.742  1.00  0.00     0.116 C 
BRANCH  25  26
ATOM     26  N   UNL A   1      44.254  37.039  26.664  1.00  0.00    -0.352 N 
ATOM     27  C   UNL A   1      44.911  36.307  27.635  1.00  0.00     0.251 C 
ATOM     28  H   UNL A   1      44.736  37.157  25.814  1.00  0.00     0.163 HD
ATOM     29  O   UNL A   1      46.127  36.171  27.590  1.00  0.00    -0.269 OA
BRANCH  27  30
ATOM     30  C   UNL A   1      44.118  35.712  28.727  1.00  0.00     0.039 A 
ATOM     31  C   UNL A   1      43.792  36.442  29.873  1.00  0.00     0.014 A 
ATOM     32  C   UNL A   1      43.650  34.413  28.560  1.00  0.00     0.014 A 
ATOM     33  C   UNL A   1      42.912  35.882  30.798  1.00  0.00     0.010 A 
ATOM     34  C   UNL A   1      42.663  33.932  29.386  1.00  0.00     0.010 A 
ATOM     35  C   UNL A   1      42.319  34.635  30.535  1.00  0.00    -0.014 A 
BRANCH  35  36
ATOM     36  C   UNL A   1      41.255  34.108  31.394  1.00  0.00     0.031 A 
ATOM     37  C   UNL A   1      41.590  34.039  32.842  1.00  0.00     0.074 A 
ATOM     38  C   UNL A   1      39.996  33.861  30.971  1.00  0.00     0.049 A 
ATOM     39  N   UNL A   1      41.781  32.974  33.546  1.00  0.00    -0.248 NA
ATOM     40  C   UNL A   1      41.882  35.286  33.565  1.00  0.00     0.031 C 
ATOM     41  C   UNL A   1      39.425  34.080  29.636  1.00  0.00     0.029 A 
ATOM     42  N   UNL A   1      38.916  33.431  31.685  1.00  0.00    -0.354 N 
ATOM     43  C   UNL A   1      41.988  33.402  34.853  1.00  0.00     0.074 A 
ATOM     44  C   UNL A   1      42.220  34.819  34.770  1.00  0.00     0.031 C 
ATOM     45  C   UNL A   1      38.078  34.002  29.690  1.00  0.00     0.029 A 
ATOM     46  C   UNL A   1      37.704  33.532  31.009  1.00  0.00     0.049 A 
ATOM     47  H   UNL A   1      38.988  33.080  32.603  1.00  0.00     0.167 HD
ATOM     48  C   UNL A   1      41.726  32.579  35.908  1.00  0.00     0.034 A 
ATOM     49  C   UNL A   1      36.465  33.203  31.458  1.00  0.00     0.034 A 
ATOM     50  C   UNL A   1      41.595  31.207  35.470  1.00  0.00     0.049 A 
ATOM     51  C   UNL A   1      36.660  32.190  32.516  1.00  0.00     0.074 A 
ATOM     52  C   UNL A   1      42.432  30.295  34.857  1.00  0.00     0.029 A 
ATOM     53  N   UNL A   1      40.321  30.720  35.288  1.00  0.00    -0.354 N 
ATOM     54  N   UNL A   1      37.172  31.013  32.280  1.00  0.00    -0.248 NA
ATOM     55  C   UNL A   1      36.729  32.623  33.902  1.00  0.00     0.031 C 
ATOM     56  C   UNL A   1      41.599  29.586  33.940  1.00  0.00     0.029 A 
ATOM     57  C   UNL A   1      40.288  30.047  34.091  1.00  0.00     0.049 A 
ATOM     58  H   UNL A   1      39.564  30.834  35.908  1.00  0.00     0.167 HD
ATOM     59  C   UNL A   1      38.012  30.767  33.354  1.00  0.00     0.074 A 
ATOM     60  C   UNL A   1      37.592  31.720  34.378  1.00  0.00     0.031 C 
ATOM     61  C   UNL A   1      39.135  30.003  33.207  1.00  0.00     0.034 A 
BRANCH  48  62
ATOM     62  C   UNL A   1      41.224  33.031  37.263  1.00  0.00     0.023 A 
ATOM     63  C   UNL A   1      42.041  32.767  38.382  1.00  0.00     0.031 A 
ATOM     64  C   UNL A   1      39.899  33.426  37.553  1.00  0.00     0.131 A 
ATOM     65  C   UNL A   1      41.519  32.809  39.687  1.00  0.00     0.055 A 
ATOM     66  C   UNL A   1      39.403  33.531  38.856  1.00  0.00     0.041 A 
ATOM     67  F   UNL A   1      38.982  33.637  36.602  1.00  0.00    -0.206 F 
ATOM     68  C   UNL A   1      40.204  33.191  39.932  1.00  0.00     0.022 A 
BRANCH  65  69
ATOM     69  S   UNL A   1      42.536  32.175  41.047  1.00  0.00     0.124 S 
ATOM     70  O   UNL A   1      43.355  31.179  40.365  1.00  0.00    -0.237 OA
ATOM     71  O   UNL A   1      43.224  33.382  41.494  1.00  0.00    -0.237 OA
ATOM     72  O   UNL A   1      41.551  31.637  41.983  1.00  0.00    -0.744 OA
ENDBRANCH  65  69
ENDBRANCH  48  62
BRANCH  49  73
ATOM     73  C   UNL A   1      35.203  33.948  31.214  1.00  0.00     0.023 A 
ATOM     74  C   UNL A   1      34.709  34.950  32.074  1.00  0.00     0.031 A 
ATOM     75  C   UNL A   1      34.573  33.822  29.954  1.00  0.00     0.131 A 
ATOM     76  C   UNL A   1      33.635  35.774  31.661  1.00  0.00     0.055 A 
ATOM     77  C   UNL A   1      33.510  34.634  29.555  1.00  0.00     0.041 A 
ATOM     78  F   UNL A   1      35.031  32.959  29.033  1.00  0.00    -0.206 F 
ATOM     79  C   UNL A   1      33.042  35.623  30.405  1.00  0.00     0.022 A 
BRANCH  76  80
ATOM     80  S   UNL A   1      33.032  37.119  32.735  1.00  0.00     0.124 S 
ATOM     81  O   UNL A   1      33.953  37.057  33.863  1.00  0.00    -0.237 OA
ATOM     82  O   UNL A   1      33.147  38.283  31.864  1.00  0.00    -0.237 OA
ATOM     83  O   UNL A   1      31.657  36.721  33.042  1.00  0.00    -0.744 OA
ENDBRANCH  76  80
ENDBRANCH  49  73
BRANCH  61  84
ATOM     84  C   UNL A   1      39.278  29.197  31.928  1.00  0.00     0.023 A 
ATOM     85  C   UNL A   1      40.150  29.520  30.862  1.00  0.00     0.031 A 
ATOM     86  C   UNL A   1      38.566  27.989  31.840  1.00  0.00     0.131 A 
ATOM     87  C   UNL A   1      40.270  28.652  29.756  1.00  0.00     0.055 A 
ATOM     88  C   UNL A   1      38.704  27.121  30.757  1.00  0.00     0.041 A 
ATOM     89  F   UNL A   1      37.743  27.612  32.834  1.00  0.00    -0.206 F 
ATOM     90  C   UNL A   1      39.554  27.453  29.707  1.00  0.00     0.022 A 
BRANCH  87  91
ATOM     91  S   UNL A   1      41.365  29.074  28.360  1.00  0.00     0.124 S 
ATOM     92  O   UNL A   1      40.438  29.296  27.257  1.00  0.00    -0.237 OA
ATOM     93  O   UNL A   1      42.070  30.256  28.850  1.00  0.00    -0.237 OA
ATOM     94  O   UNL A   1      42.209  27.884  28.216  1.00  0.00    -0.744 OA
ENDBRANCH  87  91
ENDBRANCH  61  84
ENDBRANCH  35  36
ENDBRANCH  27  30
ENDBRANCH  25  26
ENDBRANCH  24  25
ENDBRANCH  23  24
ENDBRANCH  22  23
ENDBRANCH   1  22
TORSDOF 21
ENDMDL
