MODEL 1
REMARK VINA RESULT:     -11.9      0.000      0.000
REMARK SMILES CC1=C(C)C[C@H](C(=O)N[C@@H](C)CCc2ccccc2)[C@@H](C(=O)NCCCCCCNC(=O)c2ccc(-c3c4nc(c(-c5cc(S(=O)(=O)[O-])ccc5F)c5ccc([nH]5)c(-c5cc(S(=O)(=O)[O-])ccc5F)c5nc(c(-c6cc(S(=O)(=O)[O-])ccc6F)c6ccc3[nH]6)C=C5)C=C4)cc2)C1
REMARK SMILES IDX 25 1 24 2 23 3 21 4 22 5 20 7 1 8 2 9 3 10 96 11 4 12 5 13
REMARK SMILES IDX 6 14 7 15 8 16 9 17 10 19 11 20 12 21 13 22 14 23 15 24
REMARK SMILES IDX 19 25 16 26 18 27 17 28 26 29 27 30 28 31 29 32 30 33 31 34
REMARK SMILES IDX 32 36 33 37 34 38 95 39 35 40 94 41 36 42 37 43 38 44 88 45
REMARK SMILES IDX 39 46 93 47 87 48 89 49 40 50 92 51 86 52 85 53 41 55 73 56
REMARK SMILES IDX 53 57 72 58 54 59 57 60 71 61 90 62 55 63 56 64 70 66 91 67
REMARK SMILES IDX 58 68 42 69 43 70 51 71 44 72 50 73 52 74 49 75 45 76 46 77
REMARK SMILES IDX 47 78 48 79 74 80 75 81 83 82 76 83 82 84 84 85 81 86 77 87
REMARK SMILES IDX 78 88 79 89 80 90 59 91 60 92 68 93 61 94 67 95 69 96 66 97
REMARK SMILES IDX 62 98 63 99 64 100 65 101
REMARK H PARENT 23 6 9 18 30 35 89 54 57 65
REMARK Flexibility Score: inf
ROOT
ATOM      1  C   UNL A   1      32.021  28.963  27.288  1.00  0.00     0.021 C 
ENDROOT
BRANCH   1   2
ATOM      2  C   UNL A   1      32.280  27.499  26.943  1.00  0.00     0.116 C 
BRANCH   2   3
ATOM      3  N   UNL A   1      31.113  26.651  27.079  1.00  0.00    -0.356 N 
ATOM      4  C   UNL A   1      30.469  25.917  26.126  1.00  0.00     0.224 C 
ATOM      5  O   UNL A   1      29.574  25.151  26.493  1.00  0.00    -0.275 OA
ATOM      6  H   UNL A   1      30.731  26.599  27.985  1.00  0.00     0.163 HD
BRANCH   4   7
ATOM      7  C   UNL A   1      30.848  26.047  24.649  1.00  0.00     0.095 C 
ATOM      8  C   UNL A   1      30.948  29.175  22.338  1.00  0.00     0.039 C 
ATOM      9  C   UNL A   1      31.536  28.054  23.153  1.00  0.00    -0.074 C 
ATOM     10  C   UNL A   1      32.801  27.605  23.025  1.00  0.00    -0.074 C 
ATOM     11  C   UNL A   1      30.629  27.507  24.231  1.00  0.00     0.045 C 
ATOM     12  C   UNL A   1      33.836  28.204  22.107  1.00  0.00     0.039 C 
ATOM     13  C   UNL A   1      33.315  26.470  23.875  1.00  0.00     0.045 C 
ATOM     14  C   UNL A   1      32.273  25.505  24.455  1.00  0.00     0.095 C 
BRANCH  14  15
ATOM     15  C   UNL A   1      32.292  24.139  23.760  1.00  0.00     0.224 C 
ATOM     16  O   UNL A   1      31.723  24.004  22.670  1.00  0.00    -0.275 OA
ATOM     17  N   UNL A   1      32.901  23.030  24.255  1.00  0.00    -0.353 N 
ATOM     18  H   UNL A   1      32.995  22.301  23.599  1.00  0.00     0.163 HD
BRANCH  17  19
ATOM     19  C   UNL A   1      33.443  22.711  25.574  1.00  0.00     0.079 C 
ATOM     20  C   UNL A   1      32.278  22.498  26.544  1.00  0.00     0.031 C 
BRANCH  19  21
ATOM     21  C   UNL A   1      34.301  21.426  25.547  1.00  0.00     0.029 C 
BRANCH  21  22
ATOM     22  C   UNL A   1      34.028  20.454  24.392  1.00  0.00     0.037 C 
BRANCH  22  23
ATOM     23  C   UNL A   1      33.883  18.976  24.691  1.00  0.00    -0.048 A 
ATOM     24  C   UNL A   1      32.782  18.571  25.465  1.00  0.00     0.004 A 
ATOM     25  C   UNL A   1      34.770  17.990  24.251  1.00  0.00     0.004 A 
ATOM     26  C   UNL A   1      32.528  17.220  25.715  1.00  0.00     0.000 A 
ATOM     27  C   UNL A   1      34.520  16.636  24.503  1.00  0.00     0.000 A 
ATOM     28  C   UNL A   1      33.388  16.250  25.215  1.00  0.00     0.000 A 
ENDBRANCH  22  23
ENDBRANCH  21  22
ENDBRANCH  19  21
ENDBRANCH  17  19
ENDBRANCH  14  15
ENDBRANCH   4   7
ENDBRANCH   2   3
ENDBRANCH   1   2
BRANCH   1  29
ATOM     29  C   UNL A   1      32.409  29.972  26.205  1.00  0.00     0.002 C 
BRANCH  29  30
ATOM     30  C   UNL A   1      31.321  30.975  25.805  1.00  0.00     0.002 C 
BRANCH  30  31
ATOM     31  C   UNL A   1      31.363  32.341  26.501  1.00  0.00     0.021 C 
BRANCH  31  32
ATOM     32  C   UNL A   1      32.698  32.749  27.121  1.00  0.00     0.116 C 
BRANCH  32  33
ATOM     33  N   UNL A   1      32.657  34.062  27.736  1.00  0.00    -0.352 N 
ATOM     34  C   UNL A   1      33.424  34.608  28.734  1.00  0.00     0.251 C 
ATOM     35  H   UNL A   1      31.962  34.662  27.379  1.00  0.00     0.163 HD
ATOM     36  O   UNL A   1      33.100  35.706  29.192  1.00  0.00    -0.269 OA
BRANCH  34  37
ATOM     37  C   UNL A   1      34.607  33.904  29.288  1.00  0.00     0.039 A 
ATOM     38  C   UNL A   1      34.400  32.944  30.286  1.00  0.00     0.014 A 
ATOM     39  C   UNL A   1      35.912  34.206  28.889  1.00  0.00     0.014 A 
ATOM     40  C   UNL A   1      35.486  32.261  30.844  1.00  0.00     0.010 A 
ATOM     41  C   UNL A   1      36.991  33.479  29.402  1.00  0.00     0.010 A 
ATOM     42  C   UNL A   1      36.791  32.500  30.389  1.00  0.00    -0.014 A 
BRANCH  42  43
ATOM     43  C   UNL A   1      37.946  31.740  30.945  1.00  0.00     0.031 A 
ATOM     44  C   UNL A   1      38.472  32.050  32.323  1.00  0.00     0.074 A 
ATOM     45  C   UNL A   1      38.548  30.795  30.194  1.00  0.00     0.049 A 
ATOM     46  N   UNL A   1      39.488  31.524  32.958  1.00  0.00    -0.248 NA
ATOM     47  C   UNL A   1      37.777  33.106  33.076  1.00  0.00     0.031 C 
ATOM     48  C   UNL A   1      38.156  30.424  28.831  1.00  0.00     0.029 A 
ATOM     49  N   UNL A   1      39.617  29.976  30.461  1.00  0.00    -0.354 N 
ATOM     50  C   UNL A   1      39.568  32.193  34.175  1.00  0.00     0.074 A 
ATOM     51  C   UNL A   1      38.522  33.194  34.169  1.00  0.00     0.031 C 
ATOM     52  C   UNL A   1      38.957  29.439  28.394  1.00  0.00     0.029 A 
ATOM     53  C   UNL A   1      39.947  29.134  29.423  1.00  0.00     0.049 A 
ATOM     54  H   UNL A   1      40.104  29.990  31.317  1.00  0.00     0.167 HD
ATOM     55  C   UNL A   1      40.421  31.981  35.208  1.00  0.00     0.034 A 
ATOM     56  C   UNL A   1      40.939  28.226  29.307  1.00  0.00     0.034 A 
ATOM     57  C   UNL A   1      41.439  30.960  35.217  1.00  0.00     0.049 A 
ATOM     58  C   UNL A   1      41.879  28.019  30.469  1.00  0.00     0.074 A 
ATOM     59  C   UNL A   1      42.303  30.613  36.243  1.00  0.00     0.029 A 
ATOM     60  N   UNL A   1      41.740  30.124  34.150  1.00  0.00    -0.354 N 
ATOM     61  N   UNL A   1      41.892  28.617  31.638  1.00  0.00    -0.248 NA
ATOM     62  C   UNL A   1      42.928  27.004  30.302  1.00  0.00     0.031 C 
ATOM     63  C   UNL A   1      43.166  29.617  35.775  1.00  0.00     0.029 A 
ATOM     64  C   UNL A   1      42.796  29.289  34.482  1.00  0.00     0.049 A 
ATOM     65  H   UNL A   1      41.272  30.125  33.284  1.00  0.00     0.167 HD
ATOM     66  C   UNL A   1      42.926  28.020  32.356  1.00  0.00     0.074 A 
ATOM     67  C   UNL A   1      43.501  27.008  31.496  1.00  0.00     0.031 C 
ATOM     68  C   UNL A   1      43.360  28.282  33.615  1.00  0.00     0.034 A 
BRANCH  55  69
ATOM     69  C   UNL A   1      40.309  32.887  36.412  1.00  0.00     0.023 A 
ATOM     70  C   UNL A   1      39.503  32.559  37.515  1.00  0.00     0.031 A 
ATOM     71  C   UNL A   1      41.035  34.090  36.460  1.00  0.00     0.131 A 
ATOM     72  C   UNL A   1      39.398  33.449  38.595  1.00  0.00     0.055 A 
ATOM     73  C   UNL A   1      40.982  34.938  37.568  1.00  0.00     0.041 A 
ATOM     74  F   UNL A   1      41.807  34.464  35.428  1.00  0.00    -0.206 F 
ATOM     75  C   UNL A   1      40.152  34.624  38.640  1.00  0.00     0.022 A 
BRANCH  72  76
ATOM     76  S   UNL A   1      38.181  33.101  39.893  1.00  0.00     0.124 S 
ATOM     77  O   UNL A   1      36.980  32.834  39.106  1.00  0.00    -0.237 OA
ATOM     78  O   UNL A   1      38.767  31.953  40.577  1.00  0.00    -0.237 OA
ATOM     79  O   UNL A   1      38.146  34.338  40.670  1.00  0.00    -0.744 OA
ENDBRANCH  72  76
ENDBRANCH  55  69
BRANCH  56  80
ATOM     80  C   UNL A   1      41.119  27.447  28.046  1.00  0.00     0.023 A 
ATOM     81  C   UNL A   1      40.777  26.085  27.985  1.00  0.00     0.031 A 
ATOM     82  C   UNL A   1      41.706  28.029  26.909  1.00  0.00     0.131 A 
ATOM     83  C   UNL A   1      41.087  25.337  26.839  1.00  0.00     0.055 A 
ATOM     84  C   UNL A   1      41.955  27.294  25.748  1.00  0.00     0.041 A 
ATOM     85  F   UNL A   1      42.050  29.327  26.911  1.00  0.00    -0.206 F 
ATOM     86  C   UNL A   1      41.662  25.934  25.716  1.00  0.00     0.022 A 
BRANCH  83  87
ATOM     87  S   UNL A   1      40.837  23.540  26.883  1.00  0.00     0.124 S 
ATOM     88  O   UNL A   1      39.425  23.429  26.530  1.00  0.00    -0.237 OA
ATOM     89  O   UNL A   1      41.788  23.080  25.876  1.00  0.00    -0.237 OA
ATOM     90  O   UNL A   1      41.167  23.185  28.260  1.00  0.00    -0.744 OA
ENDBRANCH  83  87
ENDBRANCH  56  80
BRANCH  68  91
ATOM     91  C   UNL A   1      44.475  27.419  34.151  1.00  0.00     0.023 A 
ATOM     92  C   UNL A   1      44.220  26.197  34.798  1.00  0.00     0.031 A 
ATOM     93  C   UNL A   1      45.813  27.834  34.025  1.00  0.00     0.131 A 
ATOM     94  C   UNL A   1      45.282  25.461  35.344  1.00  0.00     0.055 A 
ATOM     95  C   UNL A   1      46.869  27.069  34.517  1.00  0.00     0.041 A 
ATOM     96  F   UNL A   1      46.113  28.994  33.417  1.00  0.00    -0.206 F 
ATOM     97  C   UNL A   1      46.607  25.880  35.194  1.00  0.00     0.022 A 
BRANCH  94  98
ATOM     98  S   UNL A   1      44.904  23.987  36.332  1.00  0.00     0.124 S 
ATOM     99  O   UNL A   1      43.913  23.311  35.502  1.00  0.00    -0.237 OA
ATOM    100  O   UNL A   1      46.205  23.334  36.430  1.00  0.00    -0.237 OA
ATOM    101  O   UNL A   1      44.391  24.537  37.587  1.00  0.00    -0.744 OA
ENDBRANCH  94  98
ENDBRANCH  68  91
ENDBRANCH  42  43
ENDBRANCH  34  37
ENDBRANCH  32  33
ENDBRANCH  31  32
ENDBRANCH  30  31
ENDBRANCH  29  30
ENDBRANCH   1  29
TORSDOF 21
ENDMDL
MODEL 2
REMARK VINA RESULT:     -11.8      1.659      7.563
REMARK SMILES CC1=C(C)C[C@H](C(=O)N[C@@H](C)CCc2ccccc2)[C@@H](C(=O)NCCCCCCNC(=O)c2ccc(-c3c4nc(c(-c5cc(S(=O)(=O)[O-])ccc5F)c5ccc([nH]5)c(-c5cc(S(=O)(=O)[O-])ccc5F)c5nc(c(-c6cc(S(=O)(=O)[O-])ccc6F)c6ccc3[nH]6)C=C5)C=C4)cc2)C1
REMARK SMILES IDX 25 1 24 2 23 3 21 4 22 5 20 7 1 8 2 9 3 10 96 11 4 12 5 13
REMARK SMILES IDX 6 14 7 15 8 16 9 17 10 19 11 20 12 21 13 22 14 23 15 24
REMARK SMILES IDX 19 25 16 26 18 27 17 28 26 29 27 30 28 31 29 32 30 33 31 34
REMARK SMILES IDX 32 36 33 37 34 38 95 39 35 40 94 41 36 42 37 43 38 44 88 45
REMARK SMILES IDX 39 46 93 47 87 48 89 49 40 50 92 51 86 52 85 53 41 55 73 56
REMARK SMILES IDX 53 57 72 58 54 59 57 60 71 61 90 62 55 63 56 64 70 66 91 67
REMARK SMILES IDX 58 68 42 69 43 70 51 71 44 72 50 73 52 74 49 75 45 76 46 77
REMARK SMILES IDX 47 78 48 79 74 80 75 81 83 82 76 83 82 84 84 85 81 86 77 87
REMARK SMILES IDX 78 88 79 89 80 90 59 91 60 92 68 93 61 94 67 95 69 96 66 97
REMARK SMILES IDX 62 98 63 99 64 100 65 101
REMARK H PARENT 23 6 9 18 30 35 89 54 57 65
REMARK Flexibility Score: inf
ROOT
ATOM      1  C   UNL A   1      32.152  28.870  27.483  1.00  0.00     0.021 C 
ENDROOT
BRANCH   1   2
ATOM      2  C   UNL A   1      32.314  27.434  26.990  1.00  0.00     0.116 C 
BRANCH   2   3
ATOM      3  N   UNL A   1      31.094  26.655  27.051  1.00  0.00    -0.356 N 
ATOM      4  C   UNL A   1      30.437  26.007  26.046  1.00  0.00     0.224 C 
ATOM      5  O   UNL A   1      29.486  25.282  26.351  1.00  0.00    -0.275 OA
ATOM      6  H   UNL A   1      30.681  26.584  27.942  1.00  0.00     0.163 HD
BRANCH   4   7
ATOM      7  C   UNL A   1      30.868  26.183  24.588  1.00  0.00     0.095 C 
ATOM      8  C   UNL A   1      30.832  29.338  22.312  1.00  0.00     0.039 C 
ATOM      9  C   UNL A   1      31.468  28.254  23.142  1.00  0.00    -0.074 C 
ATOM     10  C   UNL A   1      32.767  27.903  23.065  1.00  0.00    -0.074 C 
ATOM     11  C   UNL A   1      30.558  27.628  24.174  1.00  0.00     0.045 C 
ATOM     12  C   UNL A   1      33.793  28.588  22.199  1.00  0.00     0.039 C 
ATOM     13  C   UNL A   1      33.327  26.799  23.927  1.00  0.00     0.045 C 
ATOM     14  C   UNL A   1      32.337  25.752  24.453  1.00  0.00     0.095 C 
BRANCH  14  15
ATOM     15  C   UNL A   1      32.488  24.400  23.747  1.00  0.00     0.224 C 
ATOM     16  O   UNL A   1      32.538  24.361  22.511  1.00  0.00    -0.275 OA
ATOM     17  N   UNL A   1      32.576  23.203  24.384  1.00  0.00    -0.353 N 
ATOM     18  H   UNL A   1      32.873  22.464  23.804  1.00  0.00     0.163 HD
BRANCH  17  19
ATOM     19  C   UNL A   1      32.316  22.801  25.764  1.00  0.00     0.079 C 
ATOM     20  C   UNL A   1      30.916  22.185  25.840  1.00  0.00     0.031 C 
BRANCH  19  21
ATOM     21  C   UNL A   1      33.339  21.755  26.261  1.00  0.00     0.029 C 
BRANCH  21  22
ATOM     22  C   UNL A   1      34.370  21.273  25.232  1.00  0.00     0.037 C 
BRANCH  22  23
ATOM     23  C   UNL A   1      35.809  21.728  25.361  1.00  0.00    -0.048 A 
ATOM     24  C   UNL A   1      36.042  23.076  25.683  1.00  0.00     0.004 A 
ATOM     25  C   UNL A   1      36.919  20.898  25.181  1.00  0.00     0.004 A 
ATOM     26  C   UNL A   1      37.335  23.556  25.905  1.00  0.00     0.000 A 
ATOM     27  C   UNL A   1      38.216  21.378  25.399  1.00  0.00     0.000 A 
ATOM     28  C   UNL A   1      38.422  22.700  25.782  1.00  0.00     0.000 A 
ENDBRANCH  22  23
ENDBRANCH  21  22
ENDBRANCH  19  21
ENDBRANCH  17  19
ENDBRANCH  14  15
ENDBRANCH   4   7
ENDBRANCH   2   3
ENDBRANCH   1   2
BRANCH   1  29
ATOM     29  C   UNL A   1      32.332  29.955  26.419  1.00  0.00     0.002 C 
BRANCH  29  30
ATOM     30  C   UNL A   1      31.132  30.883  26.201  1.00  0.00     0.002 C 
BRANCH  30  31
ATOM     31  C   UNL A   1      31.381  32.381  26.411  1.00  0.00     0.021 C 
BRANCH  31  32
ATOM     32  C   UNL A   1      32.646  32.761  27.179  1.00  0.00     0.116 C 
BRANCH  32  33
ATOM     33  N   UNL A   1      32.599  34.109  27.713  1.00  0.00    -0.352 N 
ATOM     34  C   UNL A   1      33.312  34.694  28.729  1.00  0.00     0.251 C 
ATOM     35  H   UNL A   1      31.946  34.702  27.275  1.00  0.00     0.163 HD
ATOM     36  O   UNL A   1      32.988  35.825  29.099  1.00  0.00    -0.269 OA
BRANCH  34  37
ATOM     37  C   UNL A   1      34.434  33.996  29.402  1.00  0.00     0.039 A 
ATOM     38  C   UNL A   1      35.741  34.315  29.015  1.00  0.00     0.014 A 
ATOM     39  C   UNL A   1      34.228  32.999  30.360  1.00  0.00     0.014 A 
ATOM     40  C   UNL A   1      36.831  33.677  29.617  1.00  0.00     0.010 A 
ATOM     41  C   UNL A   1      35.319  32.407  31.006  1.00  0.00     0.010 A 
ATOM     42  C   UNL A   1      36.634  32.736  30.638  1.00  0.00    -0.014 A 
BRANCH  42  43
ATOM     43  C   UNL A   1      37.792  32.088  31.317  1.00  0.00     0.031 A 
ATOM     44  C   UNL A   1      38.537  30.962  30.647  1.00  0.00     0.074 A 
ATOM     45  C   UNL A   1      38.151  32.489  32.553  1.00  0.00     0.049 A 
ATOM     46  N   UNL A   1      39.542  30.253  31.095  1.00  0.00    -0.248 NA
ATOM     47  C   UNL A   1      38.077  30.567  29.306  1.00  0.00     0.031 C 
ATOM     48  C   UNL A   1      37.489  33.546  33.324  1.00  0.00     0.029 A 
ATOM     49  N   UNL A   1      39.154  32.057  33.385  1.00  0.00    -0.354 N 
ATOM     50  C   UNL A   1      39.824  29.318  30.104  1.00  0.00     0.074 A 
ATOM     51  C   UNL A   1      38.854  29.523  29.050  1.00  0.00     0.031 C 
ATOM     52  C   UNL A   1      38.118  33.693  34.501  1.00  0.00     0.029 A 
ATOM     53  C   UNL A   1      39.199  32.717  34.593  1.00  0.00     0.049 A 
ATOM     54  H   UNL A   1      39.784  31.340  33.141  1.00  0.00     0.167 HD
ATOM     55  C   UNL A   1      40.810  28.388  30.069  1.00  0.00     0.034 A 
ATOM     56  C   UNL A   1      40.011  32.550  35.658  1.00  0.00     0.034 A 
ATOM     57  C   UNL A   1      41.792  28.212  31.112  1.00  0.00     0.049 A 
ATOM     58  C   UNL A   1      41.094  31.500  35.594  1.00  0.00     0.074 A 
ATOM     59  C   UNL A   1      42.876  27.351  31.137  1.00  0.00     0.029 A 
ATOM     60  N   UNL A   1      41.807  28.902  32.317  1.00  0.00    -0.354 N 
ATOM     61  N   UNL A   1      41.385  30.672  34.617  1.00  0.00    -0.248 NA
ATOM     62  C   UNL A   1      41.966  31.373  36.769  1.00  0.00     0.031 C 
ATOM     63  C   UNL A   1      43.507  27.473  32.380  1.00  0.00     0.029 A 
ATOM     64  C   UNL A   1      42.861  28.462  33.103  1.00  0.00     0.049 A 
ATOM     65  H   UNL A   1      41.164  29.601  32.575  1.00  0.00     0.167 HD
ATOM     66  C   UNL A   1      42.498  29.955  35.048  1.00  0.00     0.074 A 
ATOM     67  C   UNL A   1      42.833  30.458  36.364  1.00  0.00     0.031 C 
ATOM     68  C   UNL A   1      43.185  28.971  34.414  1.00  0.00     0.034 A 
BRANCH  55  69
ATOM     69  C   UNL A   1      40.867  27.467  28.874  1.00  0.00     0.023 A 
ATOM     70  C   UNL A   1      41.826  27.626  27.859  1.00  0.00     0.031 A 
ATOM     71  C   UNL A   1      39.956  26.402  28.758  1.00  0.00     0.131 A 
ATOM     72  C   UNL A   1      41.817  26.770  26.747  1.00  0.00     0.055 A 
ATOM     73  C   UNL A   1      39.997  25.511  27.685  1.00  0.00     0.041 A 
ATOM     74  F   UNL A   1      39.006  26.212  29.688  1.00  0.00    -0.206 F 
ATOM     75  C   UNL A   1      40.925  25.698  26.665  1.00  0.00     0.022 A 
BRANCH  72  76
ATOM     76  S   UNL A   1      42.919  27.141  25.355  1.00  0.00     0.124 S 
ATOM     77  O   UNL A   1      42.918  25.870  24.634  1.00  0.00    -0.237 OA
ATOM     78  O   UNL A   1      42.236  28.250  24.698  1.00  0.00    -0.237 OA
ATOM     79  O   UNL A   1      44.184  27.482  26.000  1.00  0.00    -0.744 OA
ENDBRANCH  72  76
ENDBRANCH  55  69
BRANCH  56  80
ATOM     80  C   UNL A   1      39.838  33.376  36.889  1.00  0.00     0.023 A 
ATOM     81  C   UNL A   1      39.126  32.884  37.995  1.00  0.00     0.031 A 
ATOM     82  C   UNL A   1      40.315  34.698  36.950  1.00  0.00     0.131 A 
ATOM     83  C   UNL A   1      38.852  33.727  39.083  1.00  0.00     0.055 A 
ATOM     84  C   UNL A   1      40.094  35.513  38.062  1.00  0.00     0.041 A 
ATOM     85  F   UNL A   1      41.005  35.220  35.922  1.00  0.00    -0.206 F 
ATOM     86  C   UNL A   1      39.341  35.034  39.130  1.00  0.00     0.022 A 
BRANCH  83  87
ATOM     87  S   UNL A   1      37.741  33.127  40.387  1.00  0.00     0.124 S 
ATOM     88  O   UNL A   1      37.590  34.318  41.217  1.00  0.00    -0.237 OA
ATOM     89  O   UNL A   1      36.567  32.727  39.620  1.00  0.00    -0.237 OA
ATOM     90  O   UNL A   1      38.491  32.032  40.995  1.00  0.00    -0.744 OA
ENDBRANCH  83  87
ENDBRANCH  56  80
BRANCH  68  91
ATOM     91  C   UNL A   1      44.400  28.418  35.117  1.00  0.00     0.023 A 
ATOM     92  C   UNL A   1      44.317  27.310  35.978  1.00  0.00     0.031 A 
ATOM     93  C   UNL A   1      45.658  29.020  34.932  1.00  0.00     0.131 A 
ATOM     94  C   UNL A   1      45.460  26.873  36.666  1.00  0.00     0.055 A 
ATOM     95  C   UNL A   1      46.802  28.544  35.571  1.00  0.00     0.041 A 
ATOM     96  F   UNL A   1      45.794  30.082  34.121  1.00  0.00    -0.206 F 
ATOM     97  C   UNL A   1      46.705  27.473  36.456  1.00  0.00     0.022 A 
BRANCH  94  98
ATOM     98  S   UNL A   1      45.282  25.563  37.908  1.00  0.00     0.124 S 
ATOM     99  O   UNL A   1      44.709  24.476  37.122  1.00  0.00    -0.237 OA
ATOM    100  O   UNL A   1      46.656  25.369  38.357  1.00  0.00    -0.237 OA
ATOM    101  O   UNL A   1      44.383  26.151  38.901  1.00  0.00    -0.744 OA
ENDBRANCH  94  98
ENDBRANCH  68  91
ENDBRANCH  42  43
ENDBRANCH  34  37
ENDBRANCH  32  33
ENDBRANCH  31  32
ENDBRANCH  30  31
ENDBRANCH  29  30
ENDBRANCH   1  29
TORSDOF 21
ENDMDL
MODEL 3
REMARK VINA RESULT:     -11.5      5.618      8.908
REMARK SMILES CC1=C(C)C[C@H](C(=O)N[C@@H](C)CCc2ccccc2)[C@@H](C(=O)NCCCCCCNC(=O)c2ccc(-c3c4nc(c(-c5cc(S(=O)(=O)[O-])ccc5F)c5ccc([nH]5)c(-c5cc(S(=O)(=O)[O-])ccc5F)c5nc(c(-c6cc(S(=O)(=O)[O-])ccc6F)c6ccc3[nH]6)C=C5)C=C4)cc2)C1
REMARK SMILES IDX 25 1 24 2 23 3 21 4 22 5 20 7 1 8 2 9 3 10 96 11 4 12 5 13
REMARK SMILES IDX 6 14 7 15 8 16 9 17 10 19 11 20 12 21 13 22 14 23 15 24
REMARK SMILES IDX 19 25 16 26 18 27 17 28 26 29 27 30 28 31 29 32 30 33 31 34
REMARK SMILES IDX 32 36 33 37 34 38 95 39 35 40 94 41 36 42 37 43 38 44 88 45
REMARK SMILES IDX 39 46 93 47 87 48 89 49 40 50 92 51 86 52 85 53 41 55 73 56
REMARK SMILES IDX 53 57 72 58 54 59 57 60 71 61 90 62 55 63 56 64 70 66 91 67
REMARK SMILES IDX 58 68 42 69 43 70 51 71 44 72 50 73 52 74 49 75 45 76 46 77
REMARK SMILES IDX 47 78 48 79 74 80 75 81 83 82 76 83 82 84 84 85 81 86 77 87
REMARK SMILES IDX 78 88 79 89 80 90 59 91 60 92 68 93 61 94 67 95 69 96 66 97
REMARK SMILES IDX 62 98 63 99 64 100 65 101
REMARK H PARENT 23 6 9 18 30 35 89 54 57 65
REMARK Flexibility Score: inf
ROOT
ATOM      1  C   UNL A   1      36.197  23.224  24.420  1.00  0.00     0.021 C 
ENDROOT
BRANCH   1   2
ATOM      2  C   UNL A   1      35.631  24.227  25.422  1.00  0.00     0.116 C 
BRANCH   2   3
ATOM      3  N   UNL A   1      34.666  23.655  26.338  1.00  0.00    -0.356 N 
ATOM      4  C   UNL A   1      33.334  23.925  26.462  1.00  0.00     0.224 C 
ATOM      5  O   UNL A   1      32.668  23.214  27.219  1.00  0.00    -0.275 OA
ATOM      6  H   UNL A   1      35.020  22.978  26.958  1.00  0.00     0.163 HD
BRANCH   4   7
ATOM      7  C   UNL A   1      32.694  25.079  25.686  1.00  0.00     0.095 C 
ATOM      8  C   UNL A   1      33.573  28.869  25.626  1.00  0.00     0.039 C 
ATOM      9  C   UNL A   1      33.490  27.472  25.069  1.00  0.00    -0.074 C 
ATOM     10  C   UNL A   1      33.582  27.171  23.758  1.00  0.00    -0.074 C 
ATOM     11  C   UNL A   1      33.395  26.379  26.107  1.00  0.00     0.045 C 
ATOM     12  C   UNL A   1      33.858  28.171  22.664  1.00  0.00     0.039 C 
ATOM     13  C   UNL A   1      33.481  25.745  23.277  1.00  0.00     0.045 C 
ATOM     14  C   UNL A   1      32.744  24.753  24.185  1.00  0.00     0.095 C 
BRANCH  14  15
ATOM     15  C   UNL A   1      31.372  24.358  23.626  1.00  0.00     0.224 C 
ATOM     16  O   UNL A   1      30.427  25.151  23.720  1.00  0.00    -0.275 OA
ATOM     17  N   UNL A   1      31.099  23.175  23.015  1.00  0.00    -0.353 N 
ATOM     18  H   UNL A   1      30.238  23.164  22.537  1.00  0.00     0.163 HD
BRANCH  17  19
ATOM     19  C   UNL A   1      31.838  21.918  22.931  1.00  0.00     0.079 C 
ATOM     20  C   UNL A   1      33.229  22.204  22.358  1.00  0.00     0.031 C 
BRANCH  19  21
ATOM     21  C   UNL A   1      32.006  21.256  24.318  1.00  0.00     0.029 C 
BRANCH  21  22
ATOM     22  C   UNL A   1      33.354  20.573  24.583  1.00  0.00     0.037 C 
BRANCH  22  23
ATOM     23  C   UNL A   1      33.414  19.061  24.643  1.00  0.00    -0.048 A 
ATOM     24  C   UNL A   1      32.637  18.414  25.620  1.00  0.00     0.004 A 
ATOM     25  C   UNL A   1      34.189  18.266  23.794  1.00  0.00     0.004 A 
ATOM     26  C   UNL A   1      32.570  17.020  25.688  1.00  0.00     0.000 A 
ATOM     27  C   UNL A   1      34.125  16.869  23.862  1.00  0.00     0.000 A 
ATOM     28  C   UNL A   1      33.300  16.246  24.793  1.00  0.00     0.000 A 
ENDBRANCH  22  23
ENDBRANCH  21  22
ENDBRANCH  19  21
ENDBRANCH  17  19
ENDBRANCH  14  15
ENDBRANCH   4   7
ENDBRANCH   2   3
ENDBRANCH   1   2
BRANCH   1  29
ATOM     29  C   UNL A   1      37.197  22.216  24.992  1.00  0.00     0.002 C 
BRANCH  29  30
ATOM     30  C   UNL A   1      36.916  20.743  24.675  1.00  0.00     0.002 C 
BRANCH  30  31
ATOM     31  C   UNL A   1      38.048  19.753  24.976  1.00  0.00     0.021 C 
BRANCH  31  32
ATOM     32  C   UNL A   1      39.180  20.262  25.866  1.00  0.00     0.116 C 
BRANCH  32  33
ATOM     33  N   UNL A   1      40.298  19.340  25.939  1.00  0.00    -0.352 N 
ATOM     34  C   UNL A   1      41.637  19.572  26.127  1.00  0.00     0.251 C 
ATOM     35  H   UNL A   1      40.056  18.392  25.837  1.00  0.00     0.163 HD
ATOM     36  O   UNL A   1      42.421  18.626  26.006  1.00  0.00    -0.269 OA
BRANCH  34  37
ATOM     37  C   UNL A   1      42.164  20.922  26.442  1.00  0.00     0.039 A 
ATOM     38  C   UNL A   1      42.375  21.816  25.385  1.00  0.00     0.014 A 
ATOM     39  C   UNL A   1      42.507  21.307  27.742  1.00  0.00     0.014 A 
ATOM     40  C   UNL A   1      42.878  23.097  25.633  1.00  0.00     0.010 A 
ATOM     41  C   UNL A   1      42.949  22.609  27.997  1.00  0.00     0.010 A 
ATOM     42  C   UNL A   1      43.144  23.519  26.944  1.00  0.00    -0.014 A 
BRANCH  42  43
ATOM     43  C   UNL A   1      43.634  24.899  27.220  1.00  0.00     0.031 A 
ATOM     44  C   UNL A   1      42.710  25.933  27.812  1.00  0.00     0.074 A 
ATOM     45  C   UNL A   1      44.901  25.235  26.902  1.00  0.00     0.049 A 
ATOM     46  N   UNL A   1      42.943  27.191  28.085  1.00  0.00    -0.248 NA
ATOM     47  C   UNL A   1      41.336  25.499  28.115  1.00  0.00     0.031 C 
ATOM     48  C   UNL A   1      45.885  24.335  26.293  1.00  0.00     0.029 A 
ATOM     49  N   UNL A   1      45.581  26.420  27.040  1.00  0.00    -0.354 N 
ATOM     50  C   UNL A   1      41.747  27.706  28.575  1.00  0.00     0.074 A 
ATOM     51  C   UNL A   1      40.777  26.632  28.519  1.00  0.00     0.031 C 
ATOM     52  C   UNL A   1      47.044  24.993  26.132  1.00  0.00     0.029 A 
ATOM     53  C   UNL A   1      46.880  26.371  26.585  1.00  0.00     0.049 A 
ATOM     54  H   UNL A   1      45.177  27.229  27.429  1.00  0.00     0.167 HD
ATOM     55  C   UNL A   1      41.485  28.951  29.044  1.00  0.00     0.034 A 
ATOM     56  C   UNL A   1      47.829  27.330  26.528  1.00  0.00     0.034 A 
ATOM     57  C   UNL A   1      42.466  30.005  29.124  1.00  0.00     0.049 A 
ATOM     58  C   UNL A   1      47.505  28.710  27.049  1.00  0.00     0.074 A 
ATOM     59  C   UNL A   1      42.322  31.277  29.654  1.00  0.00     0.029 A 
ATOM     60  N   UNL A   1      43.771  29.918  28.658  1.00  0.00    -0.354 N 
ATOM     61  N   UNL A   1      46.386  29.155  27.571  1.00  0.00    -0.248 NA
ATOM     62  C   UNL A   1      48.579  29.711  26.986  1.00  0.00     0.031 C 
ATOM     63  C   UNL A   1      43.515  31.978  29.449  1.00  0.00     0.029 A 
ATOM     64  C   UNL A   1      44.429  31.122  28.858  1.00  0.00     0.049 A 
ATOM     65  H   UNL A   1      44.170  29.118  28.246  1.00  0.00     0.167 HD
ATOM     66  C   UNL A   1      46.637  30.476  27.933  1.00  0.00     0.074 A 
ATOM     67  C   UNL A   1      48.015  30.749  27.583  1.00  0.00     0.031 C 
ATOM     68  C   UNL A   1      45.805  31.382  28.505  1.00  0.00     0.034 A 
BRANCH  55  69
ATOM     69  C   UNL A   1      40.074  29.255  29.486  1.00  0.00     0.023 A 
ATOM     70  C   UNL A   1      39.725  29.349  30.844  1.00  0.00     0.031 A 
ATOM     71  C   UNL A   1      39.064  29.470  28.530  1.00  0.00     0.131 A 
ATOM     72  C   UNL A   1      38.393  29.595  31.210  1.00  0.00     0.055 A 
ATOM     73  C   UNL A   1      37.756  29.785  28.900  1.00  0.00     0.041 A 
ATOM     74  F   UNL A   1      39.334  29.375  27.219  1.00  0.00    -0.206 F 
ATOM     75  C   UNL A   1      37.411  29.838  30.247  1.00  0.00     0.022 A 
BRANCH  72  76
ATOM     76  S   UNL A   1      37.938  29.488  32.962  1.00  0.00     0.124 S 
ATOM     77  O   UNL A   1      39.243  29.600  33.611  1.00  0.00    -0.237 OA
ATOM     78  O   UNL A   1      37.042  30.627  33.126  1.00  0.00    -0.237 OA
ATOM     79  O   UNL A   1      37.306  28.176  33.072  1.00  0.00    -0.744 OA
ENDBRANCH  72  76
ENDBRANCH  55  69
BRANCH  56  80
ATOM     80  C   UNL A   1      49.173  27.041  25.948  1.00  0.00     0.023 A 
ATOM     81  C   UNL A   1      49.507  27.468  24.652  1.00  0.00     0.031 A 
ATOM     82  C   UNL A   1      50.117  26.269  26.648  1.00  0.00     0.131 A 
ATOM     83  C   UNL A   1      50.720  27.065  24.072  1.00  0.00     0.055 A 
ATOM     84  C   UNL A   1      51.349  25.922  26.090  1.00  0.00     0.041 A 
ATOM     85  F   UNL A   1      49.852  25.836  27.892  1.00  0.00    -0.206 F 
ATOM     86  C   UNL A   1      51.648  26.305  24.787  1.00  0.00     0.022 A 
BRANCH  83  87
ATOM     87  S   UNL A   1      51.014  27.446  22.323  1.00  0.00     0.124 S 
ATOM     88  O   UNL A   1      52.382  26.971  22.143  1.00  0.00    -0.237 OA
ATOM     89  O   UNL A   1      49.972  26.665  21.665  1.00  0.00    -0.237 OA
ATOM     90  O   UNL A   1      50.842  28.895  22.257  1.00  0.00    -0.744 OA
ENDBRANCH  83  87
ENDBRANCH  56  80
BRANCH  68  91
ATOM     91  C   UNL A   1      46.386  32.734  28.840  1.00  0.00     0.023 A 
ATOM     92  C   UNL A   1      46.985  32.995  30.084  1.00  0.00     0.031 A 
ATOM     93  C   UNL A   1      46.325  33.780  27.902  1.00  0.00     0.131 A 
ATOM     94  C   UNL A   1      47.449  34.286  30.379  1.00  0.00     0.055 A 
ATOM     95  C   UNL A   1      46.841  35.045  28.178  1.00  0.00     0.041 A 
ATOM     96  F   UNL A   1      45.762  33.586  26.698  1.00  0.00    -0.206 F 
ATOM     97  C   UNL A   1      47.396  35.309  29.428  1.00  0.00     0.022 A 
BRANCH  94  98
ATOM     98  S   UNL A   1      48.046  34.636  32.056  1.00  0.00     0.124 S 
ATOM     99  O   UNL A   1      49.283  35.364  31.792  1.00  0.00    -0.237 OA
ATOM    100  O   UNL A   1      46.953  35.421  32.619  1.00  0.00    -0.237 OA
ATOM    101  O   UNL A   1      48.221  33.308  32.642  1.00  0.00    -0.744 OA
ENDBRANCH  94  98
ENDBRANCH  68  91
ENDBRANCH  42  43
ENDBRANCH  34  37
ENDBRANCH  32  33
ENDBRANCH  31  32
ENDBRANCH  30  31
ENDBRANCH  29  30
ENDBRANCH   1  29
TORSDOF 21
ENDMDL
