MODEL 1
REMARK VINA RESULT:     -10.7      0.000      0.000
REMARK SMILES N#C/C(=C/c1cc(Br)ccc1OCC(=O)NCCCCCCNC(=O)c1ccc(-c2c3nc(c(-c4cc(S(=O)(=O)[O-])ccc4F)c4ccc([nH]4)c(-c4cc(S(=O)(=O)[O-])ccc4F)c4nc(c(-c5cc(S(=O)(=O)[O-])ccc5F)c5ccc2[nH]5)C=C4)C=C3)cc1)c1ccc(F)cc1
REMARK SMILES IDX 19 1 18 2 17 3 16 4 14 5 15 6 13 8 12 9 11 10 5 11 6 12 7 13
REMARK SMILES IDX 10 14 8 15 9 16 4 17 3 18 2 19 1 20 89 21 90 22 95 23 91 24
REMARK SMILES IDX 94 25 92 26 93 27 20 28 21 29 22 30 23 31 24 32 25 34 26 35
REMARK SMILES IDX 27 36 88 37 28 38 87 39 29 40 30 41 31 42 81 43 32 44 86 45
REMARK SMILES IDX 80 46 82 47 33 48 85 49 79 50 78 51 34 53 66 54 46 55 65 56
REMARK SMILES IDX 47 57 50 58 64 59 83 60 48 61 49 62 63 64 84 65 51 66 35 67
REMARK SMILES IDX 36 68 44 69 37 70 43 71 45 72 42 73 38 74 39 75 40 76 41 77
REMARK SMILES IDX 67 78 68 79 76 80 69 81 75 82 77 83 74 84 70 85 71 86 72 87
REMARK SMILES IDX 73 88 52 89 53 90 61 91 54 92 60 93 62 94 59 95 55 96 56 97
REMARK SMILES IDX 57 98 58 99
REMARK H PARENT 16 7 23 33 82 52 50 63
REMARK Flexibility Score: inf
ROOT
ATOM      1  C   UNL A   1      36.015  32.443  27.971  1.00  0.00     0.002 C 
ENDROOT
BRANCH   1   2
ATOM      2  C   UNL A   1      35.064  31.286  28.301  1.00  0.00     0.021 C 
BRANCH   2   3
ATOM      3  C   UNL A   1      34.016  30.975  27.236  1.00  0.00     0.116 C 
BRANCH   3   4
ATOM      4  N   UNL A   1      32.976  30.091  27.712  1.00  0.00    -0.353 N 
ATOM      5  C   UNL A   1      32.686  28.833  27.289  1.00  0.00     0.257 C 
ATOM      6  O   UNL A   1      31.926  28.146  27.977  1.00  0.00    -0.271 OA
ATOM      7  H   UNL A   1      32.407  30.445  28.434  1.00  0.00     0.163 HD
BRANCH   5   8
ATOM      8  C   UNL A   1      33.301  28.286  25.993  1.00  0.00     0.329 C 
BRANCH   8   9
ATOM      9  O   UNL A   1      33.114  26.932  25.639  1.00  0.00    -0.483 OA
BRANCH   9  10
ATOM     10  C   UNL A   1      32.788  26.501  24.385  1.00  0.00     0.127 A 
ATOM     11  C   UNL A   1      31.771  25.630  23.956  1.00  0.00     0.019 A 
ATOM     12  C   UNL A   1      31.634  25.359  22.578  1.00  0.00     0.027 A 
ATOM     13  C   UNL A   1      32.537  25.884  21.654  1.00  0.00     0.018 A 
ATOM     14  C   UNL A   1      33.667  27.039  23.427  1.00  0.00     0.048 A 
ATOM     15  Br  UNL A   1      32.411  25.397  19.833  1.00  0.00    -0.051 Br
ATOM     16  C   UNL A   1      33.559  26.724  22.073  1.00  0.00     0.019 A 
BRANCH  11  17
ATOM     17  C   UNL A   1      30.914  24.881  24.884  1.00  0.00     0.032 C 
ATOM     18  C   UNL A   1      31.329  23.939  25.755  1.00  0.00     0.060 C 
BRANCH  18  19
ATOM     19  C   UNL A   1      30.334  23.370  26.753  1.00  0.00     0.100 C 
ATOM     20  N   UNL A   1      29.509  22.897  27.581  1.00  0.00    -0.192 NA
ENDBRANCH  18  19
BRANCH  18  21
ATOM     21  C   UNL A   1      32.629  23.239  25.590  1.00  0.00    -0.008 A 
ATOM     22  C   UNL A   1      32.853  22.273  24.596  1.00  0.00     0.012 A 
ATOM     23  C   UNL A   1      33.610  23.427  26.584  1.00  0.00     0.012 A 
ATOM     24  C   UNL A   1      33.990  21.458  24.648  1.00  0.00     0.040 A 
ATOM     25  C   UNL A   1      34.752  22.625  26.621  1.00  0.00     0.040 A 
ATOM     26  C   UNL A   1      34.920  21.634  25.665  1.00  0.00     0.123 A 
ATOM     27  F   UNL A   1      35.984  20.824  25.737  1.00  0.00    -0.207 F 
ENDBRANCH  18  21
ENDBRANCH  11  17
ENDBRANCH   9  10
ENDBRANCH   8   9
ENDBRANCH   5   8
ENDBRANCH   3   4
ENDBRANCH   2   3
ENDBRANCH   1   2
BRANCH   1  28
ATOM     28  C   UNL A   1      35.916  33.670  28.881  1.00  0.00     0.002 C 
BRANCH  28  29
ATOM     29  C   UNL A   1      34.767  34.630  28.569  1.00  0.00     0.021 C 
BRANCH  29  30
ATOM     30  C   UNL A   1      33.424  34.236  29.169  1.00  0.00     0.116 C 
BRANCH  30  31
ATOM     31  N   UNL A   1      32.975  35.183  30.173  1.00  0.00    -0.352 N 
ATOM     32  C   UNL A   1      33.374  35.311  31.483  1.00  0.00     0.251 C 
ATOM     33  H   UNL A   1      32.290  35.823  29.875  1.00  0.00     0.163 HD
ATOM     34  O   UNL A   1      32.738  36.029  32.245  1.00  0.00    -0.269 OA
BRANCH  32  35
ATOM     35  C   UNL A   1      34.551  34.556  31.968  1.00  0.00     0.039 A 
ATOM     36  C   UNL A   1      34.400  33.208  32.301  1.00  0.00     0.014 A 
ATOM     37  C   UNL A   1      35.800  35.171  32.089  1.00  0.00     0.014 A 
ATOM     38  C   UNL A   1      35.514  32.465  32.697  1.00  0.00     0.010 A 
ATOM     39  C   UNL A   1      36.923  34.410  32.403  1.00  0.00     0.010 A 
ATOM     40  C   UNL A   1      36.792  33.048  32.717  1.00  0.00    -0.014 A 
BRANCH  40  41
ATOM     41  C   UNL A   1      37.998  32.254  33.074  1.00  0.00     0.031 A 
ATOM     42  C   UNL A   1      38.735  32.539  34.356  1.00  0.00     0.074 A 
ATOM     43  C   UNL A   1      38.457  31.313  32.225  1.00  0.00     0.049 A 
ATOM     44  N   UNL A   1      39.840  32.007  34.811  1.00  0.00    -0.248 NA
ATOM     45  C   UNL A   1      38.168  33.582  35.224  1.00  0.00     0.031 C 
ATOM     46  C   UNL A   1      37.847  30.969  30.938  1.00  0.00     0.029 A 
ATOM     47  N   UNL A   1      39.543  30.479  32.309  1.00  0.00    -0.354 N 
ATOM     48  C   UNL A   1      40.105  32.653  36.014  1.00  0.00     0.074 A 
ATOM     49  C   UNL A   1      39.083  33.664  36.179  1.00  0.00     0.031 C 
ATOM     50  C   UNL A   1      38.550  29.974  30.372  1.00  0.00     0.029 A 
ATOM     51  C   UNL A   1      39.689  29.646  31.223  1.00  0.00     0.049 A 
ATOM     52  H   UNL A   1      40.161  30.475  33.076  1.00  0.00     0.167 HD
ATOM     53  C   UNL A   1      41.093  32.409  36.911  1.00  0.00     0.034 A 
ATOM     54  C   UNL A   1      40.639  28.734  30.936  1.00  0.00     0.034 A 
ATOM     55  C   UNL A   1      42.103  31.393  36.732  1.00  0.00     0.049 A 
ATOM     56  C   UNL A   1      41.757  28.513  31.926  1.00  0.00     0.074 A 
ATOM     57  C   UNL A   1      43.122  31.031  37.595  1.00  0.00     0.029 A 
ATOM     58  N   UNL A   1      42.228  30.581  35.612  1.00  0.00    -0.354 N 
ATOM     59  N   UNL A   1      41.967  29.102  33.082  1.00  0.00    -0.248 NA
ATOM     60  C   UNL A   1      42.759  27.498  31.578  1.00  0.00     0.031 C 
ATOM     61  C   UNL A   1      43.908  30.061  36.966  1.00  0.00     0.029 A 
ATOM     62  C   UNL A   1      43.327  29.747  35.747  1.00  0.00     0.049 A 
ATOM     63  H   UNL A   1      41.622  30.594  34.835  1.00  0.00     0.167 HD
ATOM     64  C   UNL A   1      43.105  28.501  33.612  1.00  0.00     0.074 A 
ATOM     65  C   UNL A   1      43.525  27.495  32.658  1.00  0.00     0.031 C 
ATOM     66  C   UNL A   1      43.743  28.753  34.785  1.00  0.00     0.034 A 
BRANCH  53  67
ATOM     67  C   UNL A   1      41.142  33.276  38.148  1.00  0.00     0.023 A 
ATOM     68  C   UNL A   1      40.365  32.989  39.283  1.00  0.00     0.031 A 
ATOM     69  C   UNL A   1      41.961  34.419  38.186  1.00  0.00     0.131 A 
ATOM     70  C   UNL A   1      40.360  33.872  40.373  1.00  0.00     0.055 A 
ATOM     71  C   UNL A   1      42.021  35.246  39.310  1.00  0.00     0.041 A 
ATOM     72  F   UNL A   1      42.709  34.761  37.125  1.00  0.00    -0.206 F 
ATOM     73  C   UNL A   1      41.204  34.984  40.406  1.00  0.00     0.022 A 
BRANCH  70  74
ATOM     74  S   UNL A   1      39.123  33.632  41.676  1.00  0.00     0.124 S 
ATOM     75  O   UNL A   1      38.282  34.815  41.505  1.00  0.00    -0.237 OA
ATOM     76  O   UNL A   1      38.516  32.358  41.305  1.00  0.00    -0.237 OA
ATOM     77  O   UNL A   1      39.916  33.613  42.903  1.00  0.00    -0.744 OA
ENDBRANCH  70  74
ENDBRANCH  53  67
BRANCH  54  78
ATOM     78  C   UNL A   1      40.595  27.967  29.657  1.00  0.00     0.023 A 
ATOM     79  C   UNL A   1      41.520  28.218  28.630  1.00  0.00     0.031 A 
ATOM     80  C   UNL A   1      39.594  27.008  29.419  1.00  0.00     0.131 A 
ATOM     81  C   UNL A   1      41.392  27.559  27.397  1.00  0.00     0.055 A 
ATOM     82  C   UNL A   1      39.509  26.310  28.213  1.00  0.00     0.041 A 
ATOM     83  F   UNL A   1      38.684  26.728  30.366  1.00  0.00    -0.206 F 
ATOM     84  C   UNL A   1      40.403  26.597  27.187  1.00  0.00     0.022 A 
BRANCH  81  85
ATOM     85  S   UNL A   1      42.476  28.059  26.031  1.00  0.00     0.124 S 
ATOM     86  O   UNL A   1      42.061  27.144  24.973  1.00  0.00    -0.237 OA
ATOM     87  O   UNL A   1      42.109  29.459  25.849  1.00  0.00    -0.237 OA
ATOM     88  O   UNL A   1      43.818  27.831  26.562  1.00  0.00    -0.744 OA
ENDBRANCH  81  85
ENDBRANCH  54  78
BRANCH  66  89
ATOM     89  C   UNL A   1      44.934  27.887  35.122  1.00  0.00     0.023 A 
ATOM     90  C   UNL A   1      44.796  26.664  35.801  1.00  0.00     0.031 A 
ATOM     91  C   UNL A   1      46.230  28.300  34.763  1.00  0.00     0.131 A 
ATOM     92  C   UNL A   1      45.937  25.926  36.151  1.00  0.00     0.055 A 
ATOM     93  C   UNL A   1      47.355  27.527  35.054  1.00  0.00     0.041 A 
ATOM     94  F   UNL A   1      46.424  29.461  34.118  1.00  0.00    -0.206 F 
ATOM     95  C   UNL A   1      47.213  26.339  35.765  1.00  0.00     0.022 A 
BRANCH  92  96
ATOM     96  S   UNL A   1      45.738  24.468  37.212  1.00  0.00     0.124 S 
ATOM     97  O   UNL A   1      47.044  24.380  37.855  1.00  0.00    -0.237 OA
ATOM     98  O   UNL A   1      44.628  24.858  38.076  1.00  0.00    -0.237 OA
ATOM     99  O   UNL A   1      45.438  23.394  36.267  1.00  0.00    -0.744 OA
ENDBRANCH  92  96
ENDBRANCH  66  89
ENDBRANCH  40  41
ENDBRANCH  32  35
ENDBRANCH  30  31
ENDBRANCH  29  30
ENDBRANCH  28  29
ENDBRANCH   1  28
TORSDOF 21
ENDMDL
MODEL 2
REMARK VINA RESULT:     -10.7      6.139     11.593
REMARK SMILES N#C/C(=C/c1cc(Br)ccc1OCC(=O)NCCCCCCNC(=O)c1ccc(-c2c3nc(c(-c4cc(S(=O)(=O)[O-])ccc4F)c4ccc([nH]4)c(-c4cc(S(=O)(=O)[O-])ccc4F)c4nc(c(-c5cc(S(=O)(=O)[O-])ccc5F)c5ccc2[nH]5)C=C4)C=C3)cc1)c1ccc(F)cc1
REMARK SMILES IDX 19 1 18 2 17 3 16 4 14 5 15 6 13 8 12 9 11 10 5 11 6 12 7 13
REMARK SMILES IDX 10 14 8 15 9 16 4 17 3 18 2 19 1 20 89 21 90 22 95 23 91 24
REMARK SMILES IDX 94 25 92 26 93 27 20 28 21 29 22 30 23 31 24 32 25 34 26 35
REMARK SMILES IDX 27 36 88 37 28 38 87 39 29 40 30 41 31 42 81 43 32 44 86 45
REMARK SMILES IDX 80 46 82 47 33 48 85 49 79 50 78 51 34 53 66 54 46 55 65 56
REMARK SMILES IDX 47 57 50 58 64 59 83 60 48 61 49 62 63 64 84 65 51 66 35 67
REMARK SMILES IDX 36 68 44 69 37 70 43 71 45 72 42 73 38 74 39 75 40 76 41 77
REMARK SMILES IDX 67 78 68 79 76 80 69 81 75 82 77 83 74 84 70 85 71 86 72 87
REMARK SMILES IDX 73 88 52 89 53 90 61 91 54 92 60 93 62 94 59 95 55 96 56 97
REMARK SMILES IDX 57 98 58 99
REMARK H PARENT 16 7 23 33 82 52 50 63
REMARK Flexibility Score: inf
ROOT
ATOM      1  C   UNL A   1      40.499  22.856  26.610  1.00  0.00     0.002 C 
ENDROOT
BRANCH   1   2
ATOM      2  C   UNL A   1      39.151  23.586  26.590  1.00  0.00     0.021 C 
BRANCH   2   3
ATOM      3  C   UNL A   1      37.971  22.769  26.069  1.00  0.00     0.116 C 
BRANCH   3   4
ATOM      4  N   UNL A   1      37.886  22.763  24.626  1.00  0.00    -0.353 N 
ATOM      5  C   UNL A   1      36.770  22.714  23.852  1.00  0.00     0.257 C 
ATOM      6  O   UNL A   1      36.882  22.964  22.649  1.00  0.00    -0.271 OA
ATOM      7  H   UNL A   1      38.744  22.800  24.144  1.00  0.00     0.163 HD
BRANCH   5   8
ATOM      8  C   UNL A   1      35.408  22.366  24.470  1.00  0.00     0.329 C 
BRANCH   8   9
ATOM      9  O   UNL A   1      34.647  23.367  25.113  1.00  0.00    -0.483 OA
BRANCH   9  10
ATOM     10  C   UNL A   1      33.324  23.247  25.424  1.00  0.00     0.127 A 
ATOM     11  C   UNL A   1      32.180  23.372  24.614  1.00  0.00     0.019 A 
ATOM     12  C   UNL A   1      30.907  23.179  25.188  1.00  0.00     0.027 A 
ATOM     13  C   UNL A   1      30.768  22.941  26.555  1.00  0.00     0.018 A 
ATOM     14  C   UNL A   1      33.155  22.979  26.795  1.00  0.00     0.048 A 
ATOM     15  Br  UNL A   1      29.045  22.820  27.319  1.00  0.00    -0.051 Br
ATOM     16  C   UNL A   1      31.890  22.842  27.365  1.00  0.00     0.019 A 
BRANCH  11  17
ATOM     17  C   UNL A   1      32.236  23.819  23.216  1.00  0.00     0.032 C 
ATOM     18  C   UNL A   1      32.567  25.058  22.798  1.00  0.00     0.060 C 
BRANCH  18  19
ATOM     19  C   UNL A   1      32.724  25.313  21.308  1.00  0.00     0.100 C 
ATOM     20  N   UNL A   1      32.855  25.526  20.071  1.00  0.00    -0.192 NA
ENDBRANCH  18  19
BRANCH  18  21
ATOM     21  C   UNL A   1      32.503  26.234  23.704  1.00  0.00    -0.008 A 
ATOM     22  C   UNL A   1      31.304  26.894  24.011  1.00  0.00     0.012 A 
ATOM     23  C   UNL A   1      33.719  26.810  24.122  1.00  0.00     0.012 A 
ATOM     24  C   UNL A   1      31.327  28.142  24.645  1.00  0.00     0.040 A 
ATOM     25  C   UNL A   1      33.738  28.045  24.772  1.00  0.00     0.040 A 
ATOM     26  C   UNL A   1      32.543  28.709  25.007  1.00  0.00     0.123 A 
ATOM     27  F   UNL A   1      32.565  29.923  25.574  1.00  0.00    -0.207 F 
ENDBRANCH  18  21
ENDBRANCH  11  17
ENDBRANCH   9  10
ENDBRANCH   8   9
ENDBRANCH   5   8
ENDBRANCH   3   4
ENDBRANCH   2   3
ENDBRANCH   1   2
BRANCH   1  28
ATOM     28  C   UNL A   1      40.489  21.450  27.215  1.00  0.00     0.002 C 
BRANCH  28  29
ATOM     29  C   UNL A   1      40.940  20.327  26.280  1.00  0.00     0.021 C 
BRANCH  29  30
ATOM     30  C   UNL A   1      42.177  19.569  26.741  1.00  0.00     0.116 C 
BRANCH  30  31
ATOM     31  N   UNL A   1      43.132  19.376  25.664  1.00  0.00    -0.352 N 
ATOM     32  C   UNL A   1      43.886  20.312  24.997  1.00  0.00     0.251 C 
ATOM     33  H   UNL A   1      43.257  18.445  25.373  1.00  0.00     0.163 HD
ATOM     34  O   UNL A   1      44.483  19.996  23.975  1.00  0.00    -0.269 OA
BRANCH  32  35
ATOM     35  C   UNL A   1      43.946  21.702  25.504  1.00  0.00     0.039 A 
ATOM     36  C   UNL A   1      44.346  21.925  26.823  1.00  0.00     0.014 A 
ATOM     37  C   UNL A   1      43.614  22.782  24.681  1.00  0.00     0.014 A 
ATOM     38  C   UNL A   1      44.471  23.233  27.296  1.00  0.00     0.010 A 
ATOM     39  C   UNL A   1      43.818  24.085  25.128  1.00  0.00     0.010 A 
ATOM     40  C   UNL A   1      44.243  24.325  26.444  1.00  0.00    -0.014 A 
BRANCH  40  41
ATOM     41  C   UNL A   1      44.433  25.724  26.913  1.00  0.00     0.031 A 
ATOM     42  C   UNL A   1      45.803  26.348  26.886  1.00  0.00     0.074 A 
ATOM     43  C   UNL A   1      43.385  26.413  27.408  1.00  0.00     0.049 A 
ATOM     44  N   UNL A   1      46.185  27.525  27.313  1.00  0.00    -0.248 NA
ATOM     45  C   UNL A   1      46.891  25.528  26.332  1.00  0.00     0.031 C 
ATOM     46  C   UNL A   1      42.016  25.904  27.516  1.00  0.00     0.029 A 
ATOM     47  N   UNL A   1      43.306  27.684  27.919  1.00  0.00    -0.354 N 
ATOM     48  C   UNL A   1      47.557  27.584  27.087  1.00  0.00     0.074 A 
ATOM     49  C   UNL A   1      47.947  26.298  26.551  1.00  0.00     0.031 C 
ATOM     50  C   UNL A   1      41.229  26.864  28.027  1.00  0.00     0.029 A 
ATOM     51  C   UNL A   1      42.042  28.036  28.337  1.00  0.00     0.049 A 
ATOM     52  H   UNL A   1      44.080  28.289  27.980  1.00  0.00     0.167 HD
ATOM     53  C   UNL A   1      48.406  28.622  27.283  1.00  0.00     0.034 A 
ATOM     54  C   UNL A   1      41.592  29.166  28.917  1.00  0.00     0.034 A 
ATOM     55  C   UNL A   1      47.999  29.901  27.814  1.00  0.00     0.049 A 
ATOM     56  C   UNL A   1      42.565  30.291  29.169  1.00  0.00     0.074 A 
ATOM     57  C   UNL A   1      48.766  31.035  28.013  1.00  0.00     0.029 A 
ATOM     58  N   UNL A   1      46.715  30.214  28.241  1.00  0.00    -0.354 N 
ATOM     59  N   UNL A   1      43.852  30.347  28.907  1.00  0.00    -0.248 NA
ATOM     60  C   UNL A   1      42.025  31.509  29.788  1.00  0.00     0.031 C 
ATOM     61  C   UNL A   1      47.970  32.003  28.631  1.00  0.00     0.029 A 
ATOM     62  C   UNL A   1      46.679  31.509  28.736  1.00  0.00     0.049 A 
ATOM     63  H   UNL A   1      45.941  29.605  28.198  1.00  0.00     0.167 HD
ATOM     64  C   UNL A   1      44.263  31.619  29.295  1.00  0.00     0.074 A 
ATOM     65  C   UNL A   1      43.087  32.301  29.795  1.00  0.00     0.031 C 
ATOM     66  C   UNL A   1      45.501  32.176  29.240  1.00  0.00     0.034 A 
BRANCH  53  67
ATOM     67  C   UNL A   1      49.863  28.404  26.946  1.00  0.00     0.023 A 
ATOM     68  C   UNL A   1      50.374  28.673  25.664  1.00  0.00     0.031 A 
ATOM     69  C   UNL A   1      50.751  27.899  27.912  1.00  0.00     0.131 A 
ATOM     70  C   UNL A   1      51.708  28.362  25.359  1.00  0.00     0.055 A 
ATOM     71  C   UNL A   1      52.101  27.676  27.629  1.00  0.00     0.041 A 
ATOM     72  F   UNL A   1      50.321  27.599  29.148  1.00  0.00    -0.206 F 
ATOM     73  C   UNL A   1      52.583  27.892  26.341  1.00  0.00     0.022 A 
BRANCH  70  74
ATOM     74  S   UNL A   1      52.239  28.433  23.628  1.00  0.00     0.124 S 
ATOM     75  O   UNL A   1      51.384  29.496  23.101  1.00  0.00    -0.237 OA
ATOM     76  O   UNL A   1      53.657  28.754  23.744  1.00  0.00    -0.237 OA
ATOM     77  O   UNL A   1      51.940  27.095  23.122  1.00  0.00    -0.744 OA
ENDBRANCH  70  74
ENDBRANCH  53  67
BRANCH  54  78
ATOM     78  C   UNL A   1      40.159  29.298  29.314  1.00  0.00     0.023 A 
ATOM     79  C   UNL A   1      39.775  29.247  30.664  1.00  0.00     0.031 A 
ATOM     80  C   UNL A   1      39.146  29.423  28.346  1.00  0.00     0.131 A 
ATOM     81  C   UNL A   1      38.413  29.266  31.005  1.00  0.00     0.055 A 
ATOM     82  C   UNL A   1      37.797  29.504  28.695  1.00  0.00     0.041 A 
ATOM     83  F   UNL A   1      39.456  29.477  27.041  1.00  0.00    -0.206 F 
ATOM     84  C   UNL A   1      37.423  29.409  30.031  1.00  0.00     0.022 A 
BRANCH  81  85
ATOM     85  S   UNL A   1      37.950  28.992  32.737  1.00  0.00     0.124 S 
ATOM     86  O   UNL A   1      37.745  27.548  32.765  1.00  0.00    -0.237 OA
ATOM     87  O   UNL A   1      39.124  29.488  33.447  1.00  0.00    -0.237 OA
ATOM     88  O   UNL A   1      36.741  29.797  32.896  1.00  0.00    -0.744 OA
ENDBRANCH  81  85
ENDBRANCH  54  78
BRANCH  66  89
ATOM     89  C   UNL A   1      45.631  33.614  29.685  1.00  0.00     0.023 A 
ATOM     90  C   UNL A   1      45.474  34.687  28.789  1.00  0.00     0.031 A 
ATOM     91  C   UNL A   1      45.923  33.914  31.027  1.00  0.00     0.131 A 
ATOM     92  C   UNL A   1      45.670  36.003  29.233  1.00  0.00     0.055 A 
ATOM     93  C   UNL A   1      46.048  35.229  31.478  1.00  0.00     0.041 A 
ATOM     94  F   UNL A   1      46.088  32.931  31.927  1.00  0.00    -0.206 F 
ATOM     95  C   UNL A   1      45.935  36.282  30.576  1.00  0.00     0.022 A 
BRANCH  92  96
ATOM     96  S   UNL A   1      45.674  37.343  28.010  1.00  0.00     0.124 S 
ATOM     97  O   UNL A   1      44.843  38.350  28.661  1.00  0.00    -0.237 OA
ATOM     98  O   UNL A   1      47.094  37.663  27.902  1.00  0.00    -0.237 OA
ATOM     99  O   UNL A   1      45.087  36.726  26.823  1.00  0.00    -0.744 OA
ENDBRANCH  92  96
ENDBRANCH  66  89
ENDBRANCH  40  41
ENDBRANCH  32  35
ENDBRANCH  30  31
ENDBRANCH  29  30
ENDBRANCH  28  29
ENDBRANCH   1  28
TORSDOF 21
ENDMDL
MODEL 3
REMARK VINA RESULT:     -10.7      6.170     11.581
REMARK SMILES N#C/C(=C/c1cc(Br)ccc1OCC(=O)NCCCCCCNC(=O)c1ccc(-c2c3nc(c(-c4cc(S(=O)(=O)[O-])ccc4F)c4ccc([nH]4)c(-c4cc(S(=O)(=O)[O-])ccc4F)c4nc(c(-c5cc(S(=O)(=O)[O-])ccc5F)c5ccc2[nH]5)C=C4)C=C3)cc1)c1ccc(F)cc1
REMARK SMILES IDX 19 1 18 2 17 3 16 4 14 5 15 6 13 8 12 9 11 10 5 11 6 12 7 13
REMARK SMILES IDX 10 14 8 15 9 16 4 17 3 18 2 19 1 20 89 21 90 22 95 23 91 24
REMARK SMILES IDX 94 25 92 26 93 27 20 28 21 29 22 30 23 31 24 32 25 34 26 35
REMARK SMILES IDX 27 36 88 37 28 38 87 39 29 40 30 41 31 42 81 43 32 44 86 45
REMARK SMILES IDX 80 46 82 47 33 48 85 49 79 50 78 51 34 53 66 54 46 55 65 56
REMARK SMILES IDX 47 57 50 58 64 59 83 60 48 61 49 62 63 64 84 65 51 66 35 67
REMARK SMILES IDX 36 68 44 69 37 70 43 71 45 72 42 73 38 74 39 75 40 76 41 77
REMARK SMILES IDX 67 78 68 79 76 80 69 81 75 82 77 83 74 84 70 85 71 86 72 87
REMARK SMILES IDX 73 88 52 89 53 90 61 91 54 92 60 93 62 94 59 95 55 96 56 97
REMARK SMILES IDX 57 98 58 99
REMARK H PARENT 16 7 23 33 82 52 50 63
REMARK Flexibility Score: inf
ROOT
ATOM      1  C   UNL A   1      40.076  22.774  26.480  1.00  0.00     0.002 C 
ENDROOT
BRANCH   1   2
ATOM      2  C   UNL A   1      39.074  23.755  27.102  1.00  0.00     0.021 C 
BRANCH   2   3
ATOM      3  C   UNL A   1      37.839  24.054  26.255  1.00  0.00     0.116 C 
BRANCH   3   4
ATOM      4  N   UNL A   1      37.018  22.886  26.028  1.00  0.00    -0.353 N 
ATOM      5  C   UNL A   1      35.688  22.837  25.752  1.00  0.00     0.257 C 
ATOM      6  O   UNL A   1      35.214  21.772  25.349  1.00  0.00    -0.271 OA
ATOM      7  H   UNL A   1      37.480  22.018  26.078  1.00  0.00     0.163 HD
BRANCH   5   8
ATOM      8  C   UNL A   1      34.809  24.083  25.931  1.00  0.00     0.329 C 
BRANCH   8   9
ATOM      9  O   UNL A   1      34.718  25.039  24.896  1.00  0.00    -0.483 OA
BRANCH   9  10
ATOM     10  C   UNL A   1      34.014  26.205  24.983  1.00  0.00     0.127 A 
ATOM     11  C   UNL A   1      33.330  26.934  23.993  1.00  0.00     0.019 A 
ATOM     12  C   UNL A   1      32.654  28.118  24.355  1.00  0.00     0.027 A 
ATOM     13  C   UNL A   1      32.721  28.608  25.659  1.00  0.00     0.018 A 
ATOM     14  C   UNL A   1      34.040  26.708  26.296  1.00  0.00     0.048 A 
ATOM     15  Br  UNL A   1      31.919  30.265  26.084  1.00  0.00    -0.051 Br
ATOM     16  C   UNL A   1      33.416  27.908  26.635  1.00  0.00     0.019 A 
BRANCH  11  17
ATOM     17  C   UNL A   1      33.385  26.592  22.566  1.00  0.00     0.032 C 
ATOM     18  C   UNL A   1      32.714  25.586  21.970  1.00  0.00     0.060 C 
BRANCH  18  19
ATOM     19  C   UNL A   1      32.765  25.463  20.456  1.00  0.00     0.100 C 
ATOM     20  N   UNL A   1      32.807  25.361  19.199  1.00  0.00    -0.192 NA
ENDBRANCH  18  19
BRANCH  18  21
ATOM     21  C   UNL A   1      32.170  24.440  22.744  1.00  0.00    -0.008 A 
ATOM     22  C   UNL A   1      31.156  24.582  23.704  1.00  0.00     0.012 A 
ATOM     23  C   UNL A   1      32.827  23.199  22.633  1.00  0.00     0.012 A 
ATOM     24  C   UNL A   1      30.868  23.536  24.587  1.00  0.00     0.040 A 
ATOM     25  C   UNL A   1      32.523  22.150  23.503  1.00  0.00     0.040 A 
ATOM     26  C   UNL A   1      31.562  22.336  24.485  1.00  0.00     0.123 A 
ATOM     27  F   UNL A   1      31.315  21.351  25.359  1.00  0.00    -0.207 F 
ENDBRANCH  18  21
ENDBRANCH  11  17
ENDBRANCH   9  10
ENDBRANCH   8   9
ENDBRANCH   5   8
ENDBRANCH   3   4
ENDBRANCH   2   3
ENDBRANCH   1   2
BRANCH   1  28
ATOM     28  C   UNL A   1      40.707  21.764  27.442  1.00  0.00     0.002 C 
BRANCH  28  29
ATOM     29  C   UNL A   1      40.916  20.359  26.877  1.00  0.00     0.021 C 
BRANCH  29  30
ATOM     30  C   UNL A   1      42.228  19.698  27.276  1.00  0.00     0.116 C 
BRANCH  30  31
ATOM     31  N   UNL A   1      43.009  19.292  26.122  1.00  0.00    -0.352 N 
ATOM     32  C   UNL A   1      43.762  20.065  25.270  1.00  0.00     0.251 C 
ATOM     33  H   UNL A   1      43.000  18.328  25.922  1.00  0.00     0.163 HD
ATOM     34  O   UNL A   1      44.185  19.585  24.226  1.00  0.00    -0.269 OA
BRANCH  32  35
ATOM     35  C   UNL A   1      44.029  21.482  25.609  1.00  0.00     0.039 A 
ATOM     36  C   UNL A   1      43.426  22.484  24.846  1.00  0.00     0.014 A 
ATOM     37  C   UNL A   1      44.865  21.820  26.676  1.00  0.00     0.014 A 
ATOM     38  C   UNL A   1      43.614  23.824  25.193  1.00  0.00     0.010 A 
ATOM     39  C   UNL A   1      44.984  23.150  27.070  1.00  0.00     0.010 A 
ATOM     40  C   UNL A   1      44.365  24.169  26.329  1.00  0.00    -0.014 A 
BRANCH  40  41
ATOM     41  C   UNL A   1      44.523  25.587  26.749  1.00  0.00     0.031 A 
ATOM     42  C   UNL A   1      45.870  26.254  26.660  1.00  0.00     0.074 A 
ATOM     43  C   UNL A   1      43.468  26.257  27.255  1.00  0.00     0.049 A 
ATOM     44  N   UNL A   1      46.225  27.455  27.038  1.00  0.00    -0.248 NA
ATOM     45  C   UNL A   1      46.966  25.452  26.097  1.00  0.00     0.031 C 
ATOM     46  C   UNL A   1      42.121  25.708  27.422  1.00  0.00     0.029 A 
ATOM     47  N   UNL A   1      43.362  27.541  27.730  1.00  0.00    -0.354 N 
ATOM     48  C   UNL A   1      47.587  27.551  26.767  1.00  0.00     0.074 A 
ATOM     49  C   UNL A   1      48.003  26.262  26.258  1.00  0.00     0.031 C 
ATOM     50  C   UNL A   1      41.318  26.659  27.929  1.00  0.00     0.029 A 
ATOM     51  C   UNL A   1      42.101  27.865  28.176  1.00  0.00     0.049 A 
ATOM     52  H   UNL A   1      44.117  28.172  27.748  1.00  0.00     0.167 HD
ATOM     53  C   UNL A   1      48.407  28.622  26.904  1.00  0.00     0.034 A 
ATOM     54  C   UNL A   1      41.631  28.998  28.735  1.00  0.00     0.034 A 
ATOM     55  C   UNL A   1      47.974  29.903  27.409  1.00  0.00     0.049 A 
ATOM     56  C   UNL A   1      42.574  30.161  28.923  1.00  0.00     0.074 A 
ATOM     57  C   UNL A   1      48.709  31.067  27.548  1.00  0.00     0.029 A 
ATOM     58  N   UNL A   1      46.694  30.188  27.867  1.00  0.00    -0.354 N 
ATOM     59  N   UNL A   1      43.849  30.250  28.618  1.00  0.00    -0.248 NA
ATOM     60  C   UNL A   1      42.013  31.379  29.520  1.00  0.00     0.031 C 
ATOM     61  C   UNL A   1      47.900  32.028  28.162  1.00  0.00     0.029 A 
ATOM     62  C   UNL A   1      46.630  31.496  28.322  1.00  0.00     0.049 A 
ATOM     63  H   UNL A   1      45.940  29.554  27.867  1.00  0.00     0.167 HD
ATOM     64  C   UNL A   1      44.230  31.546  28.954  1.00  0.00     0.074 A 
ATOM     65  C   UNL A   1      43.048  32.205  29.470  1.00  0.00     0.031 C 
ATOM     66  C   UNL A   1      45.447  32.141  28.843  1.00  0.00     0.034 A 
BRANCH  53  67
ATOM     67  C   UNL A   1      49.860  28.440  26.528  1.00  0.00     0.023 A 
ATOM     68  C   UNL A   1      50.313  28.637  25.212  1.00  0.00     0.031 A 
ATOM     69  C   UNL A   1      50.802  28.043  27.494  1.00  0.00     0.131 A 
ATOM     70  C   UNL A   1      51.647  28.360  24.880  1.00  0.00     0.055 A 
ATOM     71  C   UNL A   1      52.149  27.856  27.176  1.00  0.00     0.041 A 
ATOM     72  F   UNL A   1      50.429  27.815  28.763  1.00  0.00    -0.206 F 
ATOM     73  C   UNL A   1      52.576  27.999  25.858  1.00  0.00     0.022 A 
BRANCH  70  74
ATOM     74  S   UNL A   1      52.114  28.328  23.129  1.00  0.00     0.124 S 
ATOM     75  O   UNL A   1      51.819  29.701  22.721  1.00  0.00    -0.237 OA
ATOM     76  O   UNL A   1      53.526  27.967  23.184  1.00  0.00    -0.237 OA
ATOM     77  O   UNL A   1      51.231  27.314  22.557  1.00  0.00    -0.744 OA
ENDBRANCH  70  74
ENDBRANCH  53  67
BRANCH  54  78
ATOM     78  C   UNL A   1      40.208  29.096  29.173  1.00  0.00     0.023 A 
ATOM     79  C   UNL A   1      39.859  28.983  30.529  1.00  0.00     0.031 A 
ATOM     80  C   UNL A   1      39.169  29.251  28.237  1.00  0.00     0.131 A 
ATOM     81  C   UNL A   1      38.506  28.971  30.904  1.00  0.00     0.055 A 
ATOM     82  C   UNL A   1      37.828  29.301  28.623  1.00  0.00     0.041 A 
ATOM     83  F   UNL A   1      39.446  29.364  26.929  1.00  0.00    -0.206 F 
ATOM     84  C   UNL A   1      37.490  29.145  29.962  1.00  0.00     0.022 A 
BRANCH  81  85
ATOM     85  S   UNL A   1      38.089  28.618  32.634  1.00  0.00     0.124 S 
ATOM     86  O   UNL A   1      36.739  29.160  32.730  1.00  0.00    -0.237 OA
ATOM     87  O   UNL A   1      38.202  27.164  32.682  1.00  0.00    -0.237 OA
ATOM     88  O   UNL A   1      39.109  29.346  33.384  1.00  0.00    -0.744 OA
ENDBRANCH  81  85
ENDBRANCH  54  78
BRANCH  66  89
ATOM     89  C   UNL A   1      45.542  33.596  29.239  1.00  0.00     0.023 A 
ATOM     90  C   UNL A   1      45.297  34.634  28.322  1.00  0.00     0.031 A 
ATOM     91  C   UNL A   1      45.892  33.947  30.555  1.00  0.00     0.131 A 
ATOM     92  C   UNL A   1      45.463  35.969  28.718  1.00  0.00     0.055 A 
ATOM     93  C   UNL A   1      45.988  35.279  30.961  1.00  0.00     0.041 A 
ATOM     94  F   UNL A   1      46.143  32.999  31.472  1.00  0.00    -0.206 F 
ATOM     95  C   UNL A   1      45.787  36.299  30.036  1.00  0.00     0.022 A 
BRANCH  92  96
ATOM     96  S   UNL A   1      45.350  37.271  27.459  1.00  0.00     0.124 S 
ATOM     97  O   UNL A   1      46.210  36.746  26.404  1.00  0.00    -0.237 OA
ATOM     98  O   UNL A   1      43.921  37.296  27.163  1.00  0.00    -0.237 OA
ATOM     99  O   UNL A   1      45.861  38.456  28.144  1.00  0.00    -0.744 OA
ENDBRANCH  92  96
ENDBRANCH  66  89
ENDBRANCH  40  41
ENDBRANCH  32  35
ENDBRANCH  30  31
ENDBRANCH  29  30
ENDBRANCH  28  29
ENDBRANCH   1  28
TORSDOF 21
ENDMDL
