MODEL 1
REMARK VINA RESULT:     -11.8      0.000      0.000
REMARK SMILES CC[C@@H]1CC[C@](C[C@@H]2CCCc3ccccc32)(C(=O)NCCCCCCNC(=O)c2ccc(-c3c4nc(c(-c5cc(S(=O)(=O)[O-])ccc5F)c5ccc([nH]5)c(-c5cc(S(=O)(=O)[O-])ccc5F)c5nc(c(-c6cc(S(=O)(=O)[O-])ccc6F)c6ccc3[nH]6)C=C5)C=C4)cc2)C1
REMARK SMILES IDX 24 1 23 2 22 3 21 4 20 5 18 6 19 7 6 9 3 10 4 11 93 12 5 13
REMARK SMILES IDX 2 14 1 15 7 16 8 17 9 18 17 19 10 20 12 21 16 22 11 23 13 24
REMARK SMILES IDX 15 25 14 26 25 27 26 28 27 29 28 30 29 32 30 33 31 34 92 35
REMARK SMILES IDX 32 36 91 37 33 38 34 39 35 40 85 41 36 42 90 43 84 44 86 45
REMARK SMILES IDX 37 46 89 47 83 48 82 49 38 51 70 52 50 53 69 54 51 55 54 56
REMARK SMILES IDX 68 57 87 58 52 59 53 60 67 62 88 63 55 64 39 65 40 66 48 67
REMARK SMILES IDX 41 68 47 69 49 70 46 71 42 72 43 73 44 74 45 75 71 76 72 77
REMARK SMILES IDX 80 78 73 79 79 80 81 81 78 82 74 83 75 84 76 85 77 86 56 87
REMARK SMILES IDX 57 88 65 89 58 90 64 91 66 92 63 93 59 94 60 95 61 96 62 97
REMARK H PARENT 20 8 27 31 86 50 54 61
REMARK Flexibility Score: inf
ROOT
ATOM      1  C   UNL A   1      32.173  29.649  25.040  1.00  0.00     0.002 C 
ENDROOT
BRANCH   1   2
ATOM      2  C   UNL A   1      30.945  29.181  24.251  1.00  0.00     0.002 C 
BRANCH   2   3
ATOM      3  C   UNL A   1      31.215  28.827  22.786  1.00  0.00     0.021 C 
BRANCH   3   4
ATOM      4  C   UNL A   1      30.600  27.491  22.331  1.00  0.00     0.116 C 
BRANCH   4   5
ATOM      5  N   UNL A   1      31.461  26.822  21.364  1.00  0.00    -0.356 N 
ATOM      6  C   UNL A   1      32.458  25.903  21.455  1.00  0.00     0.226 C 
ATOM      7  O   UNL A   1      33.037  25.675  20.383  1.00  0.00    -0.274 OA
ATOM      8  H   UNL A   1      31.278  27.097  20.437  1.00  0.00     0.163 HD
BRANCH   6   9
ATOM      9  C   UNL A   1      32.807  25.049  22.718  1.00  0.00     0.050 C 
ATOM     10  C   UNL A   1      32.453  25.272  25.145  1.00  0.00    -0.010 C 
ATOM     11  C   UNL A   1      33.515  26.284  24.741  1.00  0.00     0.005 C 
ATOM     12  C   UNL A   1      31.740  25.046  23.816  1.00  0.00     0.020 C 
ATOM     13  C   UNL A   1      34.024  25.741  23.408  1.00  0.00     0.017 C 
BRANCH  10  14
ATOM     14  C   UNL A   1      31.536  25.782  26.261  1.00  0.00     0.000 C 
ATOM     15  C   UNL A   1      30.086  25.930  25.820  1.00  0.00     0.004 C 
ENDBRANCH  10  14
BRANCH   9  16
ATOM     16  C   UNL A   1      33.183  23.643  22.132  1.00  0.00     0.025 C 
BRANCH  16  17
ATOM     17  C   UNL A   1      33.589  22.361  22.930  1.00  0.00     0.020 C 
ATOM     18  C   UNL A   1      32.435  21.431  23.347  1.00  0.00     0.009 C 
ATOM     19  C   UNL A   1      34.677  22.462  23.978  1.00  0.00    -0.042 A 
ATOM     20  C   UNL A   1      31.999  21.542  24.797  1.00  0.00     0.005 C 
ATOM     21  C   UNL A   1      34.450  22.106  25.319  1.00  0.00    -0.045 A 
ATOM     22  C   UNL A   1      35.982  22.820  23.590  1.00  0.00     0.004 A 
ATOM     23  C   UNL A   1      33.144  21.530  25.799  1.00  0.00     0.036 C 
ATOM     24  C   UNL A   1      35.501  22.196  26.249  1.00  0.00     0.004 A 
ATOM     25  C   UNL A   1      37.026  22.870  24.516  1.00  0.00     0.000 A 
ATOM     26  C   UNL A   1      36.781  22.575  25.851  1.00  0.00     0.000 A 
ENDBRANCH  16  17
ENDBRANCH   9  16
ENDBRANCH   6   9
ENDBRANCH   4   5
ENDBRANCH   3   4
ENDBRANCH   2   3
ENDBRANCH   1   2
BRANCH   1  27
ATOM     27  C   UNL A   1      32.138  29.390  26.552  1.00  0.00     0.021 C 
BRANCH  27  28
ATOM     28  C   UNL A   1      33.422  29.728  27.312  1.00  0.00     0.116 C 
BRANCH  28  29
ATOM     29  N   UNL A   1      33.559  31.155  27.547  1.00  0.00    -0.352 N 
ATOM     30  C   UNL A   1      34.500  31.852  28.265  1.00  0.00     0.251 C 
ATOM     31  H   UNL A   1      32.867  31.712  27.124  1.00  0.00     0.163 HD
ATOM     32  O   UNL A   1      34.296  33.037  28.520  1.00  0.00    -0.269 OA
BRANCH  30  33
ATOM     33  C   UNL A   1      35.739  31.197  28.744  1.00  0.00     0.039 A 
ATOM     34  C   UNL A   1      36.971  31.764  28.404  1.00  0.00     0.014 A 
ATOM     35  C   UNL A   1      35.703  29.998  29.464  1.00  0.00     0.014 A 
ATOM     36  C   UNL A   1      38.161  31.163  28.828  1.00  0.00     0.010 A 
ATOM     37  C   UNL A   1      36.890  29.426  29.931  1.00  0.00     0.010 A 
ATOM     38  C   UNL A   1      38.130  30.002  29.616  1.00  0.00    -0.014 A 
BRANCH  38  39
ATOM     39  C   UNL A   1      39.389  29.388  30.112  1.00  0.00     0.031 A 
ATOM     40  C   UNL A   1      40.090  29.947  31.320  1.00  0.00     0.074 A 
ATOM     41  C   UNL A   1      39.926  28.350  29.441  1.00  0.00     0.049 A 
ATOM     42  N   UNL A   1      41.205  29.559  31.885  1.00  0.00    -0.248 NA
ATOM     43  C   UNL A   1      39.465  31.112  31.961  1.00  0.00     0.031 C 
ATOM     44  C   UNL A   1      39.369  27.751  28.226  1.00  0.00     0.029 A 
ATOM     45  N   UNL A   1      41.062  27.618  29.680  1.00  0.00    -0.354 N 
ATOM     46  C   UNL A   1      41.423  30.436  32.942  1.00  0.00     0.074 A 
ATOM     47  C   UNL A   1      40.350  31.408  32.903  1.00  0.00     0.031 C 
ATOM     48  C   UNL A   1      40.154  26.733  27.838  1.00  0.00     0.029 A 
ATOM     49  C   UNL A   1      41.284  26.624  28.756  1.00  0.00     0.049 A 
ATOM     50  H   UNL A   1      41.663  27.789  30.441  1.00  0.00     0.167 HD
ATOM     51  C   UNL A   1      42.413  30.421  33.870  1.00  0.00     0.034 A 
ATOM     52  C   UNL A   1      42.284  25.728  28.656  1.00  0.00     0.034 A 
ATOM     53  C   UNL A   1      43.471  29.439  33.903  1.00  0.00     0.049 A 
ATOM     54  C   UNL A   1      43.368  25.724  29.700  1.00  0.00     0.074 A 
ATOM     55  C   UNL A   1      44.486  29.292  34.833  1.00  0.00     0.029 A 
ATOM     56  N   UNL A   1      43.659  28.441  32.955  1.00  0.00    -0.354 N 
ATOM     57  N   UNL A   1      43.526  26.523  30.730  1.00  0.00    -0.248 NA
ATOM     58  C   UNL A   1      44.400  24.687  29.575  1.00  0.00     0.031 C 
ATOM     59  C   UNL A   1      45.317  28.243  34.419  1.00  0.00     0.029 A 
ATOM     60  C   UNL A   1      44.787  27.693  33.263  1.00  0.00     0.049 A 
ATOM     61  H   UNL A   1      43.076  28.285  32.178  1.00  0.00     0.167 HD
ATOM     62  C   UNL A   1      44.668  26.073  31.386  1.00  0.00     0.074 A 
ATOM     63  C   UNL A   1      45.143  24.921  30.647  1.00  0.00     0.031 C 
ATOM     64  C   UNL A   1      45.267  26.564  32.500  1.00  0.00     0.034 A 
BRANCH  51  65
ATOM     65  C   UNL A   1      42.405  31.520  34.908  1.00  0.00     0.023 A 
ATOM     66  C   UNL A   1      41.452  31.552  35.941  1.00  0.00     0.031 A 
ATOM     67  C   UNL A   1      43.342  32.567  34.843  1.00  0.00     0.131 A 
ATOM     68  C   UNL A   1      41.404  32.646  36.817  1.00  0.00     0.055 A 
ATOM     69  C   UNL A   1      43.338  33.614  35.767  1.00  0.00     0.041 A 
ATOM     70  F   UNL A   1      44.265  32.600  33.870  1.00  0.00    -0.206 F 
ATOM     71  C   UNL A   1      42.356  33.667  36.752  1.00  0.00     0.022 A 
BRANCH  68  72
ATOM     72  S   UNL A   1      39.996  32.789  37.951  1.00  0.00     0.124 S 
ATOM     73  O   UNL A   1      39.092  31.766  37.428  1.00  0.00    -0.237 OA
ATOM     74  O   UNL A   1      40.604  32.503  39.246  1.00  0.00    -0.237 OA
ATOM     75  O   UNL A   1      39.543  34.165  37.764  1.00  0.00    -0.744 OA
ENDBRANCH  68  72
ENDBRANCH  51  65
BRANCH  52  76
ATOM     76  C   UNL A   1      42.311  24.758  27.526  1.00  0.00     0.023 A 
ATOM     77  C   UNL A   1      41.658  23.519  27.621  1.00  0.00     0.031 A 
ATOM     78  C   UNL A   1      43.013  25.048  26.344  1.00  0.00     0.131 A 
ATOM     79  C   UNL A   1      41.750  22.599  26.566  1.00  0.00     0.055 A 
ATOM     80  C   UNL A   1      43.068  24.146  25.281  1.00  0.00     0.041 A 
ATOM     81  F   UNL A   1      43.645  26.225  26.202  1.00  0.00    -0.206 F 
ATOM     82  C   UNL A   1      42.442  22.908  25.392  1.00  0.00     0.022 A 
BRANCH  79  83
ATOM     83  S   UNL A   1      40.996  20.963  26.773  1.00  0.00     0.124 S 
ATOM     84  O   UNL A   1      39.790  21.085  25.960  1.00  0.00    -0.237 OA
ATOM     85  O   UNL A   1      42.036  20.083  26.249  1.00  0.00    -0.237 OA
ATOM     86  O   UNL A   1      40.772  20.870  28.213  1.00  0.00    -0.744 OA
ENDBRANCH  79  83
ENDBRANCH  52  76
BRANCH  64  87
ATOM     87  C   UNL A   1      46.492  25.833  32.987  1.00  0.00     0.023 A 
ATOM     88  C   UNL A   1      47.764  26.090  32.445  1.00  0.00     0.031 A 
ATOM     89  C   UNL A   1      46.381  24.842  33.978  1.00  0.00     0.131 A 
ATOM     90  C   UNL A   1      48.865  25.322  32.854  1.00  0.00     0.055 A 
ATOM     91  C   UNL A   1      47.490  24.119  34.420  1.00  0.00     0.041 A 
ATOM     92  F   UNL A   1      45.189  24.555  34.527  1.00  0.00    -0.206 F 
ATOM     93  C   UNL A   1      48.738  24.347  33.847  1.00  0.00     0.022 A 
BRANCH  90  94
ATOM     94  S   UNL A   1      50.448  25.548  31.998  1.00  0.00     0.124 S 
ATOM     95  O   UNL A   1      50.186  26.725  31.177  1.00  0.00    -0.237 OA
ATOM     96  O   UNL A   1      51.378  25.738  33.108  1.00  0.00    -0.237 OA
ATOM     97  O   UNL A   1      50.619  24.299  31.256  1.00  0.00    -0.744 OA
ENDBRANCH  90  94
ENDBRANCH  64  87
ENDBRANCH  38  39
ENDBRANCH  30  33
ENDBRANCH  28  29
ENDBRANCH  27  28
ENDBRANCH   1  27
TORSDOF 19
ENDMDL
MODEL 2
REMARK VINA RESULT:     -11.7      4.105      9.529
REMARK SMILES CC[C@@H]1CC[C@](C[C@@H]2CCCc3ccccc32)(C(=O)NCCCCCCNC(=O)c2ccc(-c3c4nc(c(-c5cc(S(=O)(=O)[O-])ccc5F)c5ccc([nH]5)c(-c5cc(S(=O)(=O)[O-])ccc5F)c5nc(c(-c6cc(S(=O)(=O)[O-])ccc6F)c6ccc3[nH]6)C=C5)C=C4)cc2)C1
REMARK SMILES IDX 24 1 23 2 22 3 21 4 20 5 18 6 19 7 6 9 3 10 4 11 93 12 5 13
REMARK SMILES IDX 2 14 1 15 7 16 8 17 9 18 17 19 10 20 12 21 16 22 11 23 13 24
REMARK SMILES IDX 15 25 14 26 25 27 26 28 27 29 28 30 29 32 30 33 31 34 92 35
REMARK SMILES IDX 32 36 91 37 33 38 34 39 35 40 85 41 36 42 90 43 84 44 86 45
REMARK SMILES IDX 37 46 89 47 83 48 82 49 38 51 70 52 50 53 69 54 51 55 54 56
REMARK SMILES IDX 68 57 87 58 52 59 53 60 67 62 88 63 55 64 39 65 40 66 48 67
REMARK SMILES IDX 41 68 47 69 49 70 46 71 42 72 43 73 44 74 45 75 71 76 72 77
REMARK SMILES IDX 80 78 73 79 79 80 81 81 78 82 74 83 75 84 76 85 77 86 56 87
REMARK SMILES IDX 57 88 65 89 58 90 64 91 66 92 63 93 59 94 60 95 61 96 62 97
REMARK H PARENT 20 8 27 31 86 50 54 61
REMARK Flexibility Score: inf
ROOT
ATOM      1  C   UNL A   1      35.924  20.491  24.994  1.00  0.00     0.002 C 
ENDROOT
BRANCH   1   2
ATOM      2  C   UNL A   1      34.466  20.141  24.678  1.00  0.00     0.002 C 
BRANCH   2   3
ATOM      3  C   UNL A   1      33.443  20.651  25.698  1.00  0.00     0.021 C 
BRANCH   3   4
ATOM      4  C   UNL A   1      32.090  21.061  25.091  1.00  0.00     0.116 C 
BRANCH   4   5
ATOM      5  N   UNL A   1      31.241  21.699  26.089  1.00  0.00    -0.356 N 
ATOM      6  C   UNL A   1      31.041  22.983  26.487  1.00  0.00     0.226 C 
ATOM      7  O   UNL A   1      30.304  23.098  27.478  1.00  0.00    -0.274 OA
ATOM      8  H   UNL A   1      30.688  21.054  26.586  1.00  0.00     0.163 HD
BRANCH   6   9
ATOM      9  C   UNL A   1      31.528  24.264  25.732  1.00  0.00     0.050 C 
ATOM     10  C   UNL A   1      33.294  24.777  24.094  1.00  0.00    -0.010 C 
ATOM     11  C   UNL A   1      33.969  24.525  25.434  1.00  0.00     0.005 C 
ATOM     12  C   UNL A   1      31.973  24.037  24.287  1.00  0.00     0.020 C 
ATOM     13  C   UNL A   1      32.838  24.732  26.439  1.00  0.00     0.017 C 
BRANCH  10  14
ATOM     14  C   UNL A   1      34.118  24.274  22.906  1.00  0.00     0.000 C 
ATOM     15  C   UNL A   1      33.272  23.599  21.835  1.00  0.00     0.004 C 
ENDBRANCH  10  14
BRANCH   9  16
ATOM     16  C   UNL A   1      30.355  25.286  25.929  1.00  0.00     0.025 C 
BRANCH  16  17
ATOM     17  C   UNL A   1      30.234  26.721  25.317  1.00  0.00     0.020 C 
ATOM     18  C   UNL A   1      29.671  26.800  23.886  1.00  0.00     0.009 C 
ATOM     19  C   UNL A   1      31.337  27.725  25.577  1.00  0.00    -0.042 A 
ATOM     20  C   UNL A   1      30.703  27.003  22.790  1.00  0.00     0.005 C 
ATOM     21  C   UNL A   1      32.046  28.336  24.527  1.00  0.00    -0.045 A 
ATOM     22  C   UNL A   1      31.598  28.142  26.895  1.00  0.00     0.004 A 
ATOM     23  C   UNL A   1      31.715  28.103  23.077  1.00  0.00     0.036 C 
ATOM     24  C   UNL A   1      33.046  29.280  24.821  1.00  0.00     0.004 A 
ATOM     25  C   UNL A   1      32.568  29.109  27.172  1.00  0.00     0.000 A 
ATOM     26  C   UNL A   1      33.306  29.664  26.134  1.00  0.00     0.000 A 
ENDBRANCH  16  17
ENDBRANCH   9  16
ENDBRANCH   6   9
ENDBRANCH   4   5
ENDBRANCH   3   4
ENDBRANCH   2   3
ENDBRANCH   1   2
BRANCH   1  27
ATOM     27  C   UNL A   1      36.364  21.918  24.639  1.00  0.00     0.021 C 
BRANCH  27  28
ATOM     28  C   UNL A   1      37.319  22.584  25.631  1.00  0.00     0.116 C 
BRANCH  28  29
ATOM     29  N   UNL A   1      38.390  21.692  26.043  1.00  0.00    -0.352 N 
ATOM     30  C   UNL A   1      39.647  21.973  26.520  1.00  0.00     0.251 C 
ATOM     31  H   UNL A   1      38.181  20.734  25.969  1.00  0.00     0.163 HD
ATOM     32  O   UNL A   1      40.471  21.065  26.593  1.00  0.00    -0.269 OA
BRANCH  30  33
ATOM     33  C   UNL A   1      40.022  23.346  26.930  1.00  0.00     0.039 A 
ATOM     34  C   UNL A   1      40.729  23.518  28.125  1.00  0.00     0.014 A 
ATOM     35  C   UNL A   1      39.630  24.466  26.189  1.00  0.00     0.014 A 
ATOM     36  C   UNL A   1      41.087  24.802  28.548  1.00  0.00     0.010 A 
ATOM     37  C   UNL A   1      40.033  25.744  26.585  1.00  0.00     0.010 A 
ATOM     38  C   UNL A   1      40.763  25.925  27.769  1.00  0.00    -0.014 A 
BRANCH  38  39
ATOM     39  C   UNL A   1      41.186  27.287  28.189  1.00  0.00     0.031 A 
ATOM     40  C   UNL A   1      42.633  27.692  28.126  1.00  0.00     0.074 A 
ATOM     41  C   UNL A   1      40.266  28.145  28.671  1.00  0.00     0.049 A 
ATOM     42  N   UNL A   1      43.192  28.826  28.468  1.00  0.00    -0.248 NA
ATOM     43  C   UNL A   1      43.579  26.679  27.638  1.00  0.00     0.031 C 
ATOM     44  C   UNL A   1      38.839  27.851  28.829  1.00  0.00     0.029 A 
ATOM     45  N   UNL A   1      40.390  29.434  29.123  1.00  0.00    -0.354 N 
ATOM     46  C   UNL A   1      44.555  28.662  28.247  1.00  0.00     0.074 A 
ATOM     47  C   UNL A   1      44.741  27.299  27.792  1.00  0.00     0.031 C 
ATOM     48  C   UNL A   1      38.219  28.934  29.323  1.00  0.00     0.029 A 
ATOM     49  C   UNL A   1      39.204  29.989  29.545  1.00  0.00     0.049 A 
ATOM     50  H   UNL A   1      41.248  29.917  29.142  1.00  0.00     0.167 HD
ATOM     51  C   UNL A   1      45.556  29.568  28.390  1.00  0.00     0.034 A 
ATOM     52  C   UNL A   1      38.940  31.206  30.055  1.00  0.00     0.034 A 
ATOM     53  C   UNL A   1      45.354  30.926  28.835  1.00  0.00     0.049 A 
ATOM     54  C   UNL A   1      40.063  32.198  30.199  1.00  0.00     0.074 A 
ATOM     55  C   UNL A   1      46.285  31.945  28.954  1.00  0.00     0.029 A 
ATOM     56  N   UNL A   1      44.138  31.456  29.246  1.00  0.00    -0.354 N 
ATOM     57  N   UNL A   1      41.338  32.047  29.927  1.00  0.00    -0.248 NA
ATOM     58  C   UNL A   1      39.706  33.530  30.704  1.00  0.00     0.031 C 
ATOM     59  C   UNL A   1      45.644  33.069  29.488  1.00  0.00     0.029 A 
ATOM     60  C   UNL A   1      44.298  32.776  29.645  1.00  0.00     0.049 A 
ATOM     61  H   UNL A   1      43.283  30.967  29.253  1.00  0.00     0.167 HD
ATOM     62  C   UNL A   1      41.934  33.271  30.213  1.00  0.00     0.074 A 
ATOM     63  C   UNL A   1      40.874  34.154  30.657  1.00  0.00     0.031 C 
ATOM     64  C   UNL A   1      43.238  33.636  30.113  1.00  0.00     0.034 A 
BRANCH  51  65
ATOM     65  C   UNL A   1      46.960  29.101  28.086  1.00  0.00     0.023 A 
ATOM     66  C   UNL A   1      47.375  28.818  26.772  1.00  0.00     0.031 A 
ATOM     67  C   UNL A   1      47.887  28.903  29.125  1.00  0.00     0.131 A 
ATOM     68  C   UNL A   1      48.649  28.278  26.539  1.00  0.00     0.055 A 
ATOM     69  C   UNL A   1      49.181  28.440  28.878  1.00  0.00     0.041 A 
ATOM     70  F   UNL A   1      47.544  29.139  30.400  1.00  0.00    -0.206 F 
ATOM     71  C   UNL A   1      49.564  28.109  27.581  1.00  0.00     0.022 A 
BRANCH  68  72
ATOM     72  S   UNL A   1      49.042  27.666  24.878  1.00  0.00     0.124 S 
ATOM     73  O   UNL A   1      47.878  28.114  24.116  1.00  0.00    -0.237 OA
ATOM     74  O   UNL A   1      50.299  28.345  24.582  1.00  0.00    -0.237 OA
ATOM     75  O   UNL A   1      49.141  26.220  25.059  1.00  0.00    -0.744 OA
ENDBRANCH  68  72
ENDBRANCH  51  65
BRANCH  52  76
ATOM     76  C   UNL A   1      37.554  31.560  30.470  1.00  0.00     0.023 A 
ATOM     77  C   UNL A   1      36.682  32.220  29.591  1.00  0.00     0.031 A 
ATOM     78  C   UNL A   1      37.091  31.262  31.764  1.00  0.00     0.131 A 
ATOM     79  C   UNL A   1      35.403  32.595  30.027  1.00  0.00     0.055 A 
ATOM     80  C   UNL A   1      35.804  31.601  32.180  1.00  0.00     0.041 A 
ATOM     81  F   UNL A   1      37.885  30.622  32.637  1.00  0.00    -0.206 F 
ATOM     82  C   UNL A   1      34.953  32.281  31.313  1.00  0.00     0.022 A 
BRANCH  79  83
ATOM     83  S   UNL A   1      34.349  33.554  28.906  1.00  0.00     0.124 S 
ATOM     84  O   UNL A   1      33.449  34.223  29.840  1.00  0.00    -0.237 OA
ATOM     85  O   UNL A   1      35.322  34.406  28.231  1.00  0.00    -0.237 OA
ATOM     86  O   UNL A   1      33.728  32.533  28.065  1.00  0.00    -0.744 OA
ENDBRANCH  79  83
ENDBRANCH  52  76
BRANCH  64  87
ATOM     87  C   UNL A   1      43.571  35.060  30.477  1.00  0.00     0.023 A 
ATOM     88  C   UNL A   1      43.757  35.452  31.815  1.00  0.00     0.031 A 
ATOM     89  C   UNL A   1      43.666  36.045  29.478  1.00  0.00     0.131 A 
ATOM     90  C   UNL A   1      43.970  36.804  32.124  1.00  0.00     0.055 A 
ATOM     91  C   UNL A   1      43.933  37.380  29.787  1.00  0.00     0.041 A 
ATOM     92  F   UNL A   1      43.494  35.725  28.186  1.00  0.00    -0.206 F 
ATOM     93  C   UNL A   1      44.071  37.768  31.117  1.00  0.00     0.022 A 
BRANCH  90  94
ATOM     94  S   UNL A   1      44.014  37.302  33.867  1.00  0.00     0.124 S 
ATOM     95  O   UNL A   1      45.189  38.167  33.909  1.00  0.00    -0.237 OA
ATOM     96  O   UNL A   1      42.725  37.967  34.034  1.00  0.00    -0.237 OA
ATOM     97  O   UNL A   1      44.153  36.034  34.583  1.00  0.00    -0.744 OA
ENDBRANCH  90  94
ENDBRANCH  64  87
ENDBRANCH  38  39
ENDBRANCH  30  33
ENDBRANCH  28  29
ENDBRANCH  27  28
ENDBRANCH   1  27
TORSDOF 19
ENDMDL
MODEL 3
REMARK VINA RESULT:     -11.5      5.111      8.577
REMARK SMILES CC[C@@H]1CC[C@](C[C@@H]2CCCc3ccccc32)(C(=O)NCCCCCCNC(=O)c2ccc(-c3c4nc(c(-c5cc(S(=O)(=O)[O-])ccc5F)c5ccc([nH]5)c(-c5cc(S(=O)(=O)[O-])ccc5F)c5nc(c(-c6cc(S(=O)(=O)[O-])ccc6F)c6ccc3[nH]6)C=C5)C=C4)cc2)C1
REMARK SMILES IDX 24 1 23 2 22 3 21 4 20 5 18 6 19 7 6 9 3 10 4 11 93 12 5 13
REMARK SMILES IDX 2 14 1 15 7 16 8 17 9 18 17 19 10 20 12 21 16 22 11 23 13 24
REMARK SMILES IDX 15 25 14 26 25 27 26 28 27 29 28 30 29 32 30 33 31 34 92 35
REMARK SMILES IDX 32 36 91 37 33 38 34 39 35 40 85 41 36 42 90 43 84 44 86 45
REMARK SMILES IDX 37 46 89 47 83 48 82 49 38 51 70 52 50 53 69 54 51 55 54 56
REMARK SMILES IDX 68 57 87 58 52 59 53 60 67 62 88 63 55 64 39 65 40 66 48 67
REMARK SMILES IDX 41 68 47 69 49 70 46 71 42 72 43 73 44 74 45 75 71 76 72 77
REMARK SMILES IDX 80 78 73 79 79 80 81 81 78 82 74 83 75 84 76 85 77 86 56 87
REMARK SMILES IDX 57 88 65 89 58 90 64 91 66 92 63 93 59 94 60 95 61 96 62 97
REMARK H PARENT 20 8 27 31 86 50 54 61
REMARK Flexibility Score: inf
ROOT
ATOM      1  C   UNL A   1      36.887  20.823  24.691  1.00  0.00     0.002 C 
ENDROOT
BRANCH   1   2
ATOM      2  C   UNL A   1      36.681  21.914  25.748  1.00  0.00     0.002 C 
BRANCH   2   3
ATOM      3  C   UNL A   1      35.268  21.986  26.335  1.00  0.00     0.021 C 
BRANCH   3   4
ATOM      4  C   UNL A   1      34.559  23.336  26.122  1.00  0.00     0.116 C 
BRANCH   4   5
ATOM      5  N   UNL A   1      33.183  23.284  26.597  1.00  0.00    -0.356 N 
ATOM      6  C   UNL A   1      32.159  24.176  26.642  1.00  0.00     0.226 C 
ATOM      7  O   UNL A   1      31.157  23.770  27.251  1.00  0.00    -0.274 OA
ATOM      8  H   UNL A   1      32.941  22.405  26.968  1.00  0.00     0.163 HD
BRANCH   6   9
ATOM      9  C   UNL A   1      32.102  25.548  25.892  1.00  0.00     0.050 C 
ATOM     10  C   UNL A   1      32.639  27.885  26.456  1.00  0.00    -0.010 C 
ATOM     11  C   UNL A   1      31.370  27.511  27.208  1.00  0.00     0.005 C 
ATOM     12  C   UNL A   1      33.250  26.509  26.209  1.00  0.00     0.020 C 
ATOM     13  C   UNL A   1      30.847  26.305  26.431  1.00  0.00     0.017 C 
BRANCH  10  14
ATOM     14  C   UNL A   1      33.545  28.831  27.249  1.00  0.00     0.000 C 
ATOM     15  C   UNL A   1      34.782  29.263  26.473  1.00  0.00     0.004 C 
ENDBRANCH  10  14
BRANCH   9  16
ATOM     16  C   UNL A   1      31.946  25.148  24.384  1.00  0.00     0.025 C 
BRANCH  16  17
ATOM     17  C   UNL A   1      31.918  26.105  23.147  1.00  0.00     0.020 C 
ATOM     18  C   UNL A   1      33.285  26.447  22.526  1.00  0.00     0.009 C 
ATOM     19  C   UNL A   1      30.957  27.275  23.146  1.00  0.00    -0.042 A 
ATOM     20  C   UNL A   1      33.845  27.811  22.891  1.00  0.00     0.005 C 
ATOM     21  C   UNL A   1      31.402  28.601  23.002  1.00  0.00    -0.045 A 
ATOM     22  C   UNL A   1      29.571  27.033  23.184  1.00  0.00     0.004 A 
ATOM     23  C   UNL A   1      32.847  28.953  22.762  1.00  0.00     0.036 C 
ATOM     24  C   UNL A   1      30.467  29.650  22.983  1.00  0.00     0.004 A 
ATOM     25  C   UNL A   1      28.650  28.082  23.127  1.00  0.00     0.000 A 
ATOM     26  C   UNL A   1      29.099  29.394  23.046  1.00  0.00     0.000 A 
ENDBRANCH  16  17
ENDBRANCH   9  16
ENDBRANCH   6   9
ENDBRANCH   4   5
ENDBRANCH   3   4
ENDBRANCH   2   3
ENDBRANCH   1   2
BRANCH   1  27
ATOM     27  C   UNL A   1      38.019  19.825  24.969  1.00  0.00     0.021 C 
BRANCH  27  28
ATOM     28  C   UNL A   1      39.066  20.278  25.988  1.00  0.00     0.116 C 
BRANCH  28  29
ATOM     29  N   UNL A   1      40.186  19.355  26.070  1.00  0.00    -0.352 N 
ATOM     30  C   UNL A   1      41.535  19.598  26.151  1.00  0.00     0.251 C 
ATOM     31  H   UNL A   1      39.937  18.403  26.067  1.00  0.00     0.163 HD
ATOM     32  O   UNL A   1      42.318  18.666  25.982  1.00  0.00    -0.269 OA
BRANCH  30  33
ATOM     33  C   UNL A   1      42.054  20.958  26.422  1.00  0.00     0.039 A 
ATOM     34  C   UNL A   1      42.279  21.817  25.342  1.00  0.00     0.014 A 
ATOM     35  C   UNL A   1      42.384  21.372  27.717  1.00  0.00     0.014 A 
ATOM     36  C   UNL A   1      42.782  23.104  25.561  1.00  0.00     0.010 A 
ATOM     37  C   UNL A   1      42.838  22.675  27.941  1.00  0.00     0.010 A 
ATOM     38  C   UNL A   1      43.043  23.552  26.866  1.00  0.00    -0.014 A 
BRANCH  38  39
ATOM     39  C   UNL A   1      43.529  24.936  27.109  1.00  0.00     0.031 A 
ATOM     40  C   UNL A   1      42.605  25.985  27.666  1.00  0.00     0.074 A 
ATOM     41  C   UNL A   1      44.796  25.257  26.784  1.00  0.00     0.049 A 
ATOM     42  N   UNL A   1      42.843  27.247  27.924  1.00  0.00    -0.248 NA
ATOM     43  C   UNL A   1      41.225  25.565  27.944  1.00  0.00     0.031 C 
ATOM     44  C   UNL A   1      45.773  24.341  26.189  1.00  0.00     0.029 A 
ATOM     45  N   UNL A   1      45.480  26.441  26.899  1.00  0.00    -0.354 N 
ATOM     46  C   UNL A   1      41.643  27.775  28.386  1.00  0.00     0.074 A 
ATOM     47  C   UNL A   1      40.666  26.707  28.319  1.00  0.00     0.031 C 
ATOM     48  C   UNL A   1      46.933  24.993  26.010  1.00  0.00     0.029 A 
ATOM     49  C   UNL A   1      46.777  26.376  26.448  1.00  0.00     0.049 A 
ATOM     50  H   UNL A   1      45.079  27.261  27.270  1.00  0.00     0.167 HD
ATOM     51  C   UNL A   1      41.383  29.027  28.841  1.00  0.00     0.034 A 
ATOM     52  C   UNL A   1      47.733  27.323  26.391  1.00  0.00     0.034 A 
ATOM     53  C   UNL A   1      42.369  30.079  28.911  1.00  0.00     0.049 A 
ATOM     54  C   UNL A   1      47.426  28.703  26.908  1.00  0.00     0.074 A 
ATOM     55  C   UNL A   1      42.232  31.361  29.414  1.00  0.00     0.029 A 
ATOM     56  N   UNL A   1      43.677  29.974  28.453  1.00  0.00    -0.354 N 
ATOM     57  N   UNL A   1      46.302  29.170  27.399  1.00  0.00    -0.248 NA
ATOM     58  C   UNL A   1      48.524  29.678  26.876  1.00  0.00     0.031 C 
ATOM     59  C   UNL A   1      43.436  32.048  29.210  1.00  0.00     0.029 A 
ATOM     60  C   UNL A   1      44.347  31.176  28.636  1.00  0.00     0.049 A 
ATOM     61  H   UNL A   1      44.072  29.164  28.057  1.00  0.00     0.167 HD
ATOM     62  C   UNL A   1      46.562  30.491  27.750  1.00  0.00     0.074 A 
ATOM     63  C   UNL A   1      47.955  30.737  27.434  1.00  0.00     0.031 C 
ATOM     64  C   UNL A   1      45.728  31.416  28.289  1.00  0.00     0.034 A 
BRANCH  51  65
ATOM     65  C   UNL A   1      39.966  29.326  29.273  1.00  0.00     0.023 A 
ATOM     66  C   UNL A   1      39.599  29.357  30.630  1.00  0.00     0.031 A 
ATOM     67  C   UNL A   1      38.962  29.548  28.314  1.00  0.00     0.131 A 
ATOM     68  C   UNL A   1      38.254  29.525  30.989  1.00  0.00     0.055 A 
ATOM     69  C   UNL A   1      37.636  29.794  28.681  1.00  0.00     0.041 A 
ATOM     70  F   UNL A   1      39.247  29.513  27.004  1.00  0.00    -0.206 F 
ATOM     71  C   UNL A   1      37.272  29.767  30.025  1.00  0.00     0.022 A 
BRANCH  68  72
ATOM     72  S   UNL A   1      37.782  29.280  32.723  1.00  0.00     0.124 S 
ATOM     73  O   UNL A   1      38.863  29.970  33.423  1.00  0.00    -0.237 OA
ATOM     74  O   UNL A   1      36.470  29.918  32.785  1.00  0.00    -0.237 OA
ATOM     75  O   UNL A   1      37.777  27.827  32.875  1.00  0.00    -0.744 OA
ENDBRANCH  68  72
ENDBRANCH  51  65
BRANCH  52  76
ATOM     76  C   UNL A   1      49.072  27.003  25.821  1.00  0.00     0.023 A 
ATOM     77  C   UNL A   1      49.419  27.403  24.522  1.00  0.00     0.031 A 
ATOM     78  C   UNL A   1      50.014  26.271  26.564  1.00  0.00     0.131 A 
ATOM     79  C   UNL A   1      50.664  27.037  23.988  1.00  0.00     0.055 A 
ATOM     80  C   UNL A   1      51.266  25.943  26.044  1.00  0.00     0.041 A 
ATOM     81  F   UNL A   1      49.731  25.875  27.816  1.00  0.00    -0.206 F 
ATOM     82  C   UNL A   1      51.594  26.318  24.744  1.00  0.00     0.022 A 
BRANCH  79  83
ATOM     83  S   UNL A   1      51.030  27.465  22.265  1.00  0.00     0.124 S 
ATOM     84  O   UNL A   1      52.342  26.855  22.078  1.00  0.00    -0.237 OA
ATOM     85  O   UNL A   1      49.922  26.834  21.555  1.00  0.00    -0.237 OA
ATOM     86  O   UNL A   1      51.015  28.926  22.267  1.00  0.00    -0.744 OA
ENDBRANCH  79  83
ENDBRANCH  52  76
BRANCH  64  87
ATOM     87  C   UNL A   1      46.321  32.770  28.585  1.00  0.00     0.023 A 
ATOM     88  C   UNL A   1      46.521  33.722  27.568  1.00  0.00     0.031 A 
ATOM     89  C   UNL A   1      46.726  33.099  29.890  1.00  0.00     0.131 A 
ATOM     90  C   UNL A   1      47.164  34.933  27.863  1.00  0.00     0.055 A 
ATOM     91  C   UNL A   1      47.316  34.329  30.187  1.00  0.00     0.041 A 
ATOM     92  F   UNL A   1      46.560  32.227  30.897  1.00  0.00    -0.206 F 
ATOM     93  C   UNL A   1      47.551  35.248  29.168  1.00  0.00     0.022 A 
BRANCH  90  94
ATOM     94  S   UNL A   1      47.578  36.053  26.497  1.00  0.00     0.124 S 
ATOM     95  O   UNL A   1      46.458  36.989  26.519  1.00  0.00    -0.237 OA
ATOM     96  O   UNL A   1      48.869  36.591  26.915  1.00  0.00    -0.237 OA
ATOM     97  O   UNL A   1      47.624  35.170  25.331  1.00  0.00    -0.744 OA
ENDBRANCH  90  94
ENDBRANCH  64  87
ENDBRANCH  38  39
ENDBRANCH  30  33
ENDBRANCH  28  29
ENDBRANCH  27  28
ENDBRANCH   1  27
TORSDOF 19
ENDMDL
