MODEL 1
REMARK VINA RESULT:      -8.4      0.000      0.000
REMARK SMILES CCn1cc(C(=O)NCCCCCCNC(=O)c2ccc(-c3c4nc(c(-c5cc(S(=O)(=O)[O-])ccc5F)c5ccc([nH]5)c(-c5cc(S(=O)(=O)[O-])ccc5F)c5nc(c(-c6cc(S(=O)(=O)[O-])ccc6F)c6ccc3[nH]6)C=C5)C=C4)cc2)c(=O)c2cc(F)c(NC3CCCCC3)cc21
REMARK SMILES IDX 12 1 11 2 10 3 9 4 8 5 6 6 7 7 5 9 3 10 4 11 96 12 83 13
REMARK SMILES IDX 95 14 81 15 84 16 87 17 82 18 85 19 86 20 2 21 1 22 88 23
REMARK SMILES IDX 89 25 90 26 94 27 91 28 93 29 92 30 13 31 14 32 15 33 16 34
REMARK SMILES IDX 17 36 18 37 19 38 80 39 20 40 79 41 21 42 22 43 23 44 73 45
REMARK SMILES IDX 24 46 78 47 72 48 74 49 25 50 77 51 71 52 70 53 26 55 58 56
REMARK SMILES IDX 38 57 57 58 39 59 42 60 56 61 75 62 40 63 41 64 55 66 76 67
REMARK SMILES IDX 43 68 27 69 28 70 36 71 29 72 35 73 37 74 34 75 30 76 31 77
REMARK SMILES IDX 32 78 33 79 59 80 60 81 68 82 61 83 67 84 69 85 66 86 62 87
REMARK SMILES IDX 63 88 64 89 65 90 44 91 45 92 53 93 46 94 52 95 54 96 51 97
REMARK SMILES IDX 47 98 48 99 49 100 50 101
REMARK H PARENT 8 8 88 24 15 35 74 54 42 65
REMARK Flexibility Score: inf
ROOT
ATOM      1  C   UNL A   1      47.141  22.926  38.676  1.00  0.00     0.002 C 
ENDROOT
BRANCH   1   2
ATOM      2  C   UNL A   1      47.355  21.747  37.719  1.00  0.00     0.002 C 
BRANCH   2   3
ATOM      3  C   UNL A   1      46.068  21.169  37.116  1.00  0.00     0.021 C 
BRANCH   3   4
ATOM      4  C   UNL A   1      45.887  19.672  37.394  1.00  0.00     0.116 C 
BRANCH   4   5
ATOM      5  N   UNL A   1      47.053  19.154  38.096  1.00  0.00    -0.352 N 
ATOM      6  C   UNL A   1      47.207  18.464  39.266  1.00  0.00     0.256 C 
ATOM      7  O   UNL A   1      48.359  18.274  39.654  1.00  0.00    -0.269 OA
ATOM      8  H   UNL A   1      47.902  19.337  37.634  1.00  0.00     0.163 HD
BRANCH   6   9
ATOM      9  C   UNL A   1      46.043  17.925  40.023  1.00  0.00     0.104 A 
ATOM     10  N   UNL A   1      44.780  17.768  42.124  1.00  0.00    -0.347 N 
ATOM     11  C   UNL A   1      45.896  18.076  41.345  1.00  0.00     0.104 A 
ATOM     12  C   UNL A   1      43.864  16.850  41.573  1.00  0.00     0.054 A 
ATOM     13  C   UNL A   1      43.978  16.464  40.223  1.00  0.00     0.050 A 
ATOM     14  C   UNL A   1      42.903  16.168  42.329  1.00  0.00     0.055 A 
ATOM     15  C   UNL A   1      44.966  17.148  39.352  1.00  0.00     0.202 A 
ATOM     16  C   UNL A   1      43.187  15.446  39.677  1.00  0.00     0.055 A 
ATOM     17  C   UNL A   1      42.111  15.118  41.840  1.00  0.00     0.073 A 
ATOM     18  O   UNL A   1      44.864  17.055  38.134  1.00  0.00    -0.288 OA
ATOM     19  C   UNL A   1      42.282  14.779  40.493  1.00  0.00     0.147 A 
ATOM     20  F   UNL A   1      41.562  13.772  39.969  1.00  0.00    -0.205 F 
BRANCH  10  21
ATOM     21  C   UNL A   1      44.445  18.766  43.185  1.00  0.00     0.119 C 
ATOM     22  C   UNL A   1      44.139  20.197  42.812  1.00  0.00     0.027 C 
ENDBRANCH  10  21
BRANCH  17  23
ATOM     23  N   UNL A   1      41.226  14.400  42.632  1.00  0.00    -0.380 N 
ATOM     24  H   UNL A   1      40.299  14.733  42.644  1.00  0.00     0.160 HD
BRANCH  23  25
ATOM     25  C   UNL A   1      41.483  13.215  43.455  1.00  0.00     0.079 C 
ATOM     26  C   UNL A   1      41.197  11.901  42.706  1.00  0.00     0.025 C 
ATOM     27  C   UNL A   1      42.859  13.307  44.133  1.00  0.00     0.025 C 
ATOM     28  C   UNL A   1      41.712  10.655  43.425  1.00  0.00     0.002 C 
ATOM     29  C   UNL A   1      43.239  12.029  44.868  1.00  0.00     0.002 C 
ATOM     30  C   UNL A   1      43.131  10.817  43.955  1.00  0.00     0.000 C 
ENDBRANCH  23  25
ENDBRANCH  17  23
ENDBRANCH   6   9
ENDBRANCH   4   5
ENDBRANCH   3   4
ENDBRANCH   2   3
ENDBRANCH   1   2
BRANCH   1  31
ATOM     31  C   UNL A   1      45.681  23.221  39.026  1.00  0.00     0.021 C 
BRANCH  31  32
ATOM     32  C   UNL A   1      45.285  24.688  38.900  1.00  0.00     0.116 C 
BRANCH  32  33
ATOM     33  N   UNL A   1      43.942  24.852  38.363  1.00  0.00    -0.352 N 
ATOM     34  C   UNL A   1      43.556  25.177  37.080  1.00  0.00     0.251 C 
ATOM     35  H   UNL A   1      43.208  24.713  39.004  1.00  0.00     0.163 HD
ATOM     36  O   UNL A   1      42.390  25.453  36.839  1.00  0.00    -0.269 OA
BRANCH  34  37
ATOM     37  C   UNL A   1      44.580  25.220  36.011  1.00  0.00     0.039 A 
ATOM     38  C   UNL A   1      45.096  26.442  35.579  1.00  0.00     0.014 A 
ATOM     39  C   UNL A   1      44.995  24.028  35.410  1.00  0.00     0.014 A 
ATOM     40  C   UNL A   1      45.888  26.488  34.438  1.00  0.00     0.010 A 
ATOM     41  C   UNL A   1      45.866  24.072  34.315  1.00  0.00     0.010 A 
ATOM     42  C   UNL A   1      46.276  25.305  33.786  1.00  0.00    -0.014 A 
BRANCH  42  43
ATOM     43  C   UNL A   1      47.108  25.399  32.556  1.00  0.00     0.031 A 
ATOM     44  C   UNL A   1      46.472  25.522  31.198  1.00  0.00     0.074 A 
ATOM     45  C   UNL A   1      48.449  25.451  32.680  1.00  0.00     0.049 A 
ATOM     46  N   UNL A   1      47.046  25.714  30.037  1.00  0.00    -0.248 NA
ATOM     47  C   UNL A   1      45.006  25.414  31.124  1.00  0.00     0.031 C 
ATOM     48  C   UNL A   1      49.171  25.334  33.947  1.00  0.00     0.029 A 
ATOM     49  N   UNL A   1      49.440  25.651  31.751  1.00  0.00    -0.354 N 
ATOM     50  C   UNL A   1      46.019  25.737  29.100  1.00  0.00     0.074 A 
ATOM     51  C   UNL A   1      44.788  25.501  29.819  1.00  0.00     0.031 C 
ATOM     52  C   UNL A   1      50.477  25.533  33.728  1.00  0.00     0.029 A 
ATOM     53  C   UNL A   1      50.700  25.724  32.297  1.00  0.00     0.049 A 
ATOM     54  H   UNL A   1      49.264  25.733  30.785  1.00  0.00     0.167 HD
ATOM     55  C   UNL A   1      46.098  25.952  27.764  1.00  0.00     0.034 A 
ATOM     56  C   UNL A   1      51.902  25.923  31.718  1.00  0.00     0.034 A 
ATOM     57  C   UNL A   1      47.332  26.201  27.063  1.00  0.00     0.049 A 
ATOM     58  C   UNL A   1      51.962  26.154  30.232  1.00  0.00     0.074 A 
ATOM     59  C   UNL A   1      47.512  26.451  25.714  1.00  0.00     0.029 A 
ATOM     60  N   UNL A   1      48.591  26.241  27.647  1.00  0.00    -0.354 N 
ATOM     61  N   UNL A   1      50.976  26.223  29.369  1.00  0.00    -0.248 NA
ATOM     62  C   UNL A   1      53.292  26.338  29.634  1.00  0.00     0.031 C 
ATOM     63  C   UNL A   1      48.880  26.581  25.472  1.00  0.00     0.029 A 
ATOM     64  C   UNL A   1      49.552  26.491  26.681  1.00  0.00     0.049 A 
ATOM     65  H   UNL A   1      48.774  26.110  28.606  1.00  0.00     0.167 HD
ATOM     66  C   UNL A   1      51.562  26.483  28.135  1.00  0.00     0.074 A 
ATOM     67  C   UNL A   1      52.988  26.584  28.366  1.00  0.00     0.031 C 
ATOM     68  C   UNL A   1      50.970  26.617  26.921  1.00  0.00     0.034 A 
BRANCH  55  69
ATOM     69  C   UNL A   1      44.825  25.949  26.952  1.00  0.00     0.023 A 
ATOM     70  C   UNL A   1      44.037  27.114  26.873  1.00  0.00     0.031 A 
ATOM     71  C   UNL A   1      44.323  24.768  26.377  1.00  0.00     0.131 A 
ATOM     72  C   UNL A   1      42.775  27.062  26.266  1.00  0.00     0.055 A 
ATOM     73  C   UNL A   1      43.084  24.732  25.736  1.00  0.00     0.041 A 
ATOM     74  F   UNL A   1      45.036  23.630  26.425  1.00  0.00    -0.206 F 
ATOM     75  C   UNL A   1      42.298  25.881  25.691  1.00  0.00     0.022 A 
BRANCH  72  76
ATOM     76  S   UNL A   1      41.676  28.505  26.259  1.00  0.00     0.124 S 
ATOM     77  O   UNL A   1      40.371  27.887  26.483  1.00  0.00    -0.237 OA
ATOM     78  O   UNL A   1      42.194  29.287  27.378  1.00  0.00    -0.237 OA
ATOM     79  O   UNL A   1      41.871  29.088  24.937  1.00  0.00    -0.744 OA
ENDBRANCH  72  76
ENDBRANCH  55  69
BRANCH  56  80
ATOM     80  C   UNL A   1      53.121  25.972  32.580  1.00  0.00     0.023 A 
ATOM     81  C   UNL A   1      53.861  24.806  32.850  1.00  0.00     0.031 A 
ATOM     82  C   UNL A   1      53.490  27.156  33.241  1.00  0.00     0.131 A 
ATOM     83  C   UNL A   1      54.874  24.831  33.817  1.00  0.00     0.055 A 
ATOM     84  C   UNL A   1      54.554  27.194  34.145  1.00  0.00     0.041 A 
ATOM     85  F   UNL A   1      52.807  28.291  33.029  1.00  0.00    -0.206 F 
ATOM     86  C   UNL A   1      55.238  26.022  34.453  1.00  0.00     0.022 A 
BRANCH  83  87
ATOM     87  S   UNL A   1      55.644  23.292  34.392  1.00  0.00     0.124 S 
ATOM     88  O   UNL A   1      56.894  23.278  33.641  1.00  0.00    -0.237 OA
ATOM     89  O   UNL A   1      55.770  23.540  35.827  1.00  0.00    -0.237 OA
ATOM     90  O   UNL A   1      54.674  22.265  34.026  1.00  0.00    -0.744 OA
ENDBRANCH  83  87
ENDBRANCH  56  80
BRANCH  68  91
ATOM     91  C   UNL A   1      51.837  26.909  25.719  1.00  0.00     0.023 A 
ATOM     92  C   UNL A   1      51.854  28.206  25.169  1.00  0.00     0.031 A 
ATOM     93  C   UNL A   1      52.502  25.883  25.027  1.00  0.00     0.131 A 
ATOM     94  C   UNL A   1      52.484  28.433  23.940  1.00  0.00     0.055 A 
ATOM     95  C   UNL A   1      53.171  26.126  23.826  1.00  0.00     0.041 A 
ATOM     96  F   UNL A   1      52.504  24.629  25.504  1.00  0.00    -0.206 F 
ATOM     97  C   UNL A   1      53.150  27.402  23.270  1.00  0.00     0.022 A 
BRANCH  94  98
ATOM     98  S   UNL A   1      52.379  30.049  23.121  1.00  0.00     0.124 S 
ATOM     99  O   UNL A   1      51.962  30.917  24.220  1.00  0.00    -0.237 OA
ATOM    100  O   UNL A   1      53.748  30.248  22.654  1.00  0.00    -0.237 OA
ATOM    101  O   UNL A   1      51.382  29.849  22.075  1.00  0.00    -0.744 OA
ENDBRANCH  94  98
ENDBRANCH  68  91
ENDBRANCH  42  43
ENDBRANCH  34  37
ENDBRANCH  32  33
ENDBRANCH  31  32
ENDBRANCH   1  31
TORSDOF 19
ENDMDL
MODEL 2
REMARK VINA RESULT:      -8.4      7.905     14.081
REMARK SMILES CCn1cc(C(=O)NCCCCCCNC(=O)c2ccc(-c3c4nc(c(-c5cc(S(=O)(=O)[O-])ccc5F)c5ccc([nH]5)c(-c5cc(S(=O)(=O)[O-])ccc5F)c5nc(c(-c6cc(S(=O)(=O)[O-])ccc6F)c6ccc3[nH]6)C=C5)C=C4)cc2)c(=O)c2cc(F)c(NC3CCCCC3)cc21
REMARK SMILES IDX 12 1 11 2 10 3 9 4 8 5 6 6 7 7 5 9 3 10 4 11 96 12 83 13
REMARK SMILES IDX 95 14 81 15 84 16 87 17 82 18 85 19 86 20 2 21 1 22 88 23
REMARK SMILES IDX 89 25 90 26 94 27 91 28 93 29 92 30 13 31 14 32 15 33 16 34
REMARK SMILES IDX 17 36 18 37 19 38 80 39 20 40 79 41 21 42 22 43 23 44 73 45
REMARK SMILES IDX 24 46 78 47 72 48 74 49 25 50 77 51 71 52 70 53 26 55 58 56
REMARK SMILES IDX 38 57 57 58 39 59 42 60 56 61 75 62 40 63 41 64 55 66 76 67
REMARK SMILES IDX 43 68 27 69 28 70 36 71 29 72 35 73 37 74 34 75 30 76 31 77
REMARK SMILES IDX 32 78 33 79 59 80 60 81 68 82 61 83 67 84 69 85 66 86 62 87
REMARK SMILES IDX 63 88 64 89 65 90 44 91 45 92 53 93 46 94 52 95 54 96 51 97
REMARK SMILES IDX 47 98 48 99 49 100 50 101
REMARK H PARENT 8 8 88 24 15 35 74 54 42 65
REMARK Flexibility Score: inf
ROOT
ATOM      1  C   UNL A   1      37.062  33.309  30.718  1.00  0.00     0.002 C 
ENDROOT
BRANCH   1   2
ATOM      2  C   UNL A   1      38.225  33.239  29.721  1.00  0.00     0.002 C 
BRANCH   2   3
ATOM      3  C   UNL A   1      39.575  33.712  30.274  1.00  0.00     0.021 C 
BRANCH   3   4
ATOM      4  C   UNL A   1      40.444  34.423  29.230  1.00  0.00     0.116 C 
BRANCH   4   5
ATOM      5  N   UNL A   1      41.492  35.185  29.893  1.00  0.00    -0.352 N 
ATOM      6  C   UNL A   1      42.842  35.006  30.013  1.00  0.00     0.256 C 
ATOM      7  O   UNL A   1      43.444  35.781  30.757  1.00  0.00    -0.269 OA
ATOM      8  H   UNL A   1      41.161  35.994  30.347  1.00  0.00     0.163 HD
BRANCH   6   9
ATOM      9  C   UNL A   1      43.569  33.954  29.250  1.00  0.00     0.104 A 
ATOM     10  N   UNL A   1      45.365  33.336  27.692  1.00  0.00    -0.347 N 
ATOM     11  C   UNL A   1      44.508  34.229  28.336  1.00  0.00     0.104 A 
ATOM     12  C   UNL A   1      44.968  31.985  27.678  1.00  0.00     0.054 A 
ATOM     13  C   UNL A   1      43.887  31.559  28.474  1.00  0.00     0.050 A 
ATOM     14  C   UNL A   1      45.500  31.031  26.802  1.00  0.00     0.055 A 
ATOM     15  C   UNL A   1      43.275  32.508  29.439  1.00  0.00     0.202 A 
ATOM     16  C   UNL A   1      43.365  30.263  28.379  1.00  0.00     0.055 A 
ATOM     17  C   UNL A   1      44.991  29.733  26.642  1.00  0.00     0.073 A 
ATOM     18  O   UNL A   1      42.566  32.078  30.341  1.00  0.00    -0.288 OA
ATOM     19  C   UNL A   1      43.909  29.379  27.457  1.00  0.00     0.147 A 
ATOM     20  F   UNL A   1      43.369  28.154  27.341  1.00  0.00    -0.205 F 
BRANCH  10  21
ATOM     21  C   UNL A   1      46.774  33.808  27.527  1.00  0.00     0.119 C 
ATOM     22  C   UNL A   1      47.787  33.572  28.622  1.00  0.00     0.027 C 
ENDBRANCH  10  21
BRANCH  17  23
ATOM     23  N   UNL A   1      45.481  28.835  25.704  1.00  0.00    -0.380 N 
ATOM     24  H   UNL A   1      45.006  28.819  24.842  1.00  0.00     0.160 HD
BRANCH  23  25
ATOM     25  C   UNL A   1      46.609  27.906  25.823  1.00  0.00     0.079 C 
ATOM     26  C   UNL A   1      46.602  27.134  27.154  1.00  0.00     0.025 C 
ATOM     27  C   UNL A   1      46.746  27.047  24.556  1.00  0.00     0.025 C 
ATOM     28  C   UNL A   1      47.591  25.969  27.198  1.00  0.00     0.002 C 
ATOM     29  C   UNL A   1      47.801  25.959  24.696  1.00  0.00     0.002 C 
ATOM     30  C   UNL A   1      47.559  25.114  25.937  1.00  0.00     0.000 C 
ENDBRANCH  23  25
ENDBRANCH  17  23
ENDBRANCH   6   9
ENDBRANCH   4   5
ENDBRANCH   3   4
ENDBRANCH   2   3
ENDBRANCH   1   2
BRANCH   1  31
ATOM     31  C   UNL A   1      35.676  33.458  30.088  1.00  0.00     0.021 C 
BRANCH  31  32
ATOM     32  C   UNL A   1      35.669  33.453  28.564  1.00  0.00     0.116 C 
BRANCH  32  33
ATOM     33  N   UNL A   1      34.626  32.596  28.020  1.00  0.00    -0.352 N 
ATOM     34  C   UNL A   1      34.671  31.246  27.744  1.00  0.00     0.251 C 
ATOM     35  H   UNL A   1      33.771  33.041  27.821  1.00  0.00     0.163 HD
ATOM     36  O   UNL A   1      33.764  30.715  27.119  1.00  0.00    -0.269 OA
BRANCH  34  37
ATOM     37  C   UNL A   1      35.846  30.461  28.185  1.00  0.00     0.039 A 
ATOM     38  C   UNL A   1      35.815  29.764  29.393  1.00  0.00     0.014 A 
ATOM     39  C   UNL A   1      37.001  30.454  27.398  1.00  0.00     0.014 A 
ATOM     40  C   UNL A   1      36.986  29.212  29.898  1.00  0.00     0.010 A 
ATOM     41  C   UNL A   1      38.156  29.819  27.869  1.00  0.00     0.010 A 
ATOM     42  C   UNL A   1      38.174  29.239  29.147  1.00  0.00    -0.014 A 
BRANCH  42  43
ATOM     43  C   UNL A   1      39.410  28.655  29.731  1.00  0.00     0.031 A 
ATOM     44  C   UNL A   1      40.150  27.547  29.030  1.00  0.00     0.074 A 
ATOM     45  C   UNL A   1      39.907  29.184  30.866  1.00  0.00     0.049 A 
ATOM     46  N   UNL A   1      41.293  26.994  29.348  1.00  0.00    -0.248 NA
ATOM     47  C   UNL A   1      39.533  26.982  27.819  1.00  0.00     0.031 C 
ATOM     48  C   UNL A   1      39.269  30.254  31.632  1.00  0.00     0.029 A 
ATOM     49  N   UNL A   1      41.069  28.931  31.554  1.00  0.00    -0.354 N 
ATOM     50  C   UNL A   1      41.525  26.013  28.390  1.00  0.00     0.074 A 
ATOM     51  C   UNL A   1      40.386  26.018  27.499  1.00  0.00     0.031 C 
ATOM     52  C   UNL A   1      40.075  30.614  32.640  1.00  0.00     0.029 A 
ATOM     53  C   UNL A   1      41.258  29.757  32.638  1.00  0.00     0.049 A 
ATOM     54  H   UNL A   1      41.705  28.225  31.296  1.00  0.00     0.167 HD
ATOM     55  C   UNL A   1      42.598  25.196  28.258  1.00  0.00     0.034 A 
ATOM     56  C   UNL A   1      42.267  29.824  33.531  1.00  0.00     0.034 A 
ATOM     57  C   UNL A   1      43.733  25.214  29.146  1.00  0.00     0.049 A 
ATOM     58  C   UNL A   1      43.444  28.900  33.365  1.00  0.00     0.074 A 
ATOM     59  C   UNL A   1      44.878  24.439  29.082  1.00  0.00     0.029 A 
ATOM     60  N   UNL A   1      43.876  26.046  30.247  1.00  0.00    -0.354 N 
ATOM     61  N   UNL A   1      43.670  28.015  32.423  1.00  0.00    -0.248 NA
ATOM     62  C   UNL A   1      44.509  28.983  34.374  1.00  0.00     0.031 C 
ATOM     63  C   UNL A   1      45.683  24.759  30.176  1.00  0.00     0.029 A 
ATOM     64  C   UNL A   1      45.081  25.788  30.881  1.00  0.00     0.049 A 
ATOM     65  H   UNL A   1      43.218  26.720  30.536  1.00  0.00     0.167 HD
ATOM     66  C   UNL A   1      44.909  27.453  32.712  1.00  0.00     0.074 A 
ATOM     67  C   UNL A   1      45.397  28.117  33.902  1.00  0.00     0.031 C 
ATOM     68  C   UNL A   1      45.575  26.471  32.053  1.00  0.00     0.034 A 
BRANCH  55  69
ATOM     69  C   UNL A   1      42.627  24.216  27.110  1.00  0.00     0.023 A 
ATOM     70  C   UNL A   1      42.008  22.958  27.243  1.00  0.00     0.031 A 
ATOM     71  C   UNL A   1      43.377  24.468  25.948  1.00  0.00     0.131 A 
ATOM     72  C   UNL A   1      42.183  21.987  26.247  1.00  0.00     0.055 A 
ATOM     73  C   UNL A   1      43.512  23.512  24.939  1.00  0.00     0.041 A 
ATOM     74  F   UNL A   1      43.987  25.652  25.773  1.00  0.00    -0.206 F 
ATOM     75  C   UNL A   1      42.924  22.260  25.094  1.00  0.00     0.022 A 
BRANCH  72  76
ATOM     76  S   UNL A   1      41.513  20.313  26.441  1.00  0.00     0.124 S 
ATOM     77  O   UNL A   1      42.219  19.585  25.389  1.00  0.00    -0.237 OA
ATOM     78  O   UNL A   1      41.913  19.980  27.805  1.00  0.00    -0.237 OA
ATOM     79  O   UNL A   1      40.080  20.480  26.227  1.00  0.00    -0.744 OA
ENDBRANCH  72  76
ENDBRANCH  55  69
BRANCH  56  80
ATOM     80  C   UNL A   1      42.209  30.852  34.613  1.00  0.00     0.023 A 
ATOM     81  C   UNL A   1      42.709  32.150  34.401  1.00  0.00     0.031 A 
ATOM     82  C   UNL A   1      41.770  30.517  35.904  1.00  0.00     0.131 A 
ATOM     83  C   UNL A   1      42.834  33.034  35.479  1.00  0.00     0.055 A 
ATOM     84  C   UNL A   1      41.822  31.429  36.960  1.00  0.00     0.041 A 
ATOM     85  F   UNL A   1      41.298  29.287  36.161  1.00  0.00    -0.206 F 
ATOM     86  C   UNL A   1      42.376  32.689  36.755  1.00  0.00     0.022 A 
BRANCH  83  87
ATOM     87  S   UNL A   1      43.736  34.598  35.297  1.00  0.00     0.124 S 
ATOM     88  O   UNL A   1      43.554  34.890  33.878  1.00  0.00    -0.237 OA
ATOM     89  O   UNL A   1      43.013  35.469  36.220  1.00  0.00    -0.237 OA
ATOM     90  O   UNL A   1      45.096  34.259  35.703  1.00  0.00    -0.744 OA
ENDBRANCH  83  87
ENDBRANCH  56  80
BRANCH  68  91
ATOM     91  C   UNL A   1      46.926  26.039  32.569  1.00  0.00     0.023 A 
ATOM     92  C   UNL A   1      48.097  26.538  31.964  1.00  0.00     0.031 A 
ATOM     93  C   UNL A   1      47.055  25.022  33.529  1.00  0.00     0.131 A 
ATOM     94  C   UNL A   1      49.341  25.987  32.293  1.00  0.00     0.055 A 
ATOM     95  C   UNL A   1      48.303  24.509  33.889  1.00  0.00     0.041 A 
ATOM     96  F   UNL A   1      45.969  24.505  34.124  1.00  0.00    -0.206 F 
ATOM     97  C   UNL A   1      49.450  24.980  33.258  1.00  0.00     0.022 A 
BRANCH  94  98
ATOM     98  S   UNL A   1      50.846  26.485  31.411  1.00  0.00     0.124 S 
ATOM     99  O   UNL A   1      51.411  27.482  32.318  1.00  0.00    -0.237 OA
ATOM    100  O   UNL A   1      51.585  25.228  31.329  1.00  0.00    -0.237 OA
ATOM    101  O   UNL A   1      50.355  27.008  30.142  1.00  0.00    -0.744 OA
ENDBRANCH  94  98
ENDBRANCH  68  91
ENDBRANCH  42  43
ENDBRANCH  34  37
ENDBRANCH  32  33
ENDBRANCH  31  32
ENDBRANCH   1  31
TORSDOF 19
ENDMDL
MODEL 3
REMARK VINA RESULT:      -8.4      8.217     14.870
REMARK SMILES CCn1cc(C(=O)NCCCCCCNC(=O)c2ccc(-c3c4nc(c(-c5cc(S(=O)(=O)[O-])ccc5F)c5ccc([nH]5)c(-c5cc(S(=O)(=O)[O-])ccc5F)c5nc(c(-c6cc(S(=O)(=O)[O-])ccc6F)c6ccc3[nH]6)C=C5)C=C4)cc2)c(=O)c2cc(F)c(NC3CCCCC3)cc21
REMARK SMILES IDX 12 1 11 2 10 3 9 4 8 5 6 6 7 7 5 9 3 10 4 11 96 12 83 13
REMARK SMILES IDX 95 14 81 15 84 16 87 17 82 18 85 19 86 20 2 21 1 22 88 23
REMARK SMILES IDX 89 25 90 26 94 27 91 28 93 29 92 30 13 31 14 32 15 33 16 34
REMARK SMILES IDX 17 36 18 37 19 38 80 39 20 40 79 41 21 42 22 43 23 44 73 45
REMARK SMILES IDX 24 46 78 47 72 48 74 49 25 50 77 51 71 52 70 53 26 55 58 56
REMARK SMILES IDX 38 57 57 58 39 59 42 60 56 61 75 62 40 63 41 64 55 66 76 67
REMARK SMILES IDX 43 68 27 69 28 70 36 71 29 72 35 73 37 74 34 75 30 76 31 77
REMARK SMILES IDX 32 78 33 79 59 80 60 81 68 82 61 83 67 84 69 85 66 86 62 87
REMARK SMILES IDX 63 88 64 89 65 90 44 91 45 92 53 93 46 94 52 95 54 96 51 97
REMARK SMILES IDX 47 98 48 99 49 100 50 101
REMARK H PARENT 8 8 88 24 15 35 74 54 42 65
REMARK Flexibility Score: inf
ROOT
ATOM      1  C   UNL A   1      39.012  32.177  37.300  1.00  0.00     0.002 C 
ENDROOT
BRANCH   1   2
ATOM      2  C   UNL A   1      38.139  31.284  36.410  1.00  0.00     0.002 C 
BRANCH   2   3
ATOM      3  C   UNL A   1      38.333  31.495  34.903  1.00  0.00     0.021 C 
BRANCH   3   4
ATOM      4  C   UNL A   1      37.034  31.847  34.168  1.00  0.00     0.116 C 
BRANCH   4   5
ATOM      5  N   UNL A   1      36.907  33.292  34.049  1.00  0.00    -0.352 N 
ATOM      6  C   UNL A   1      36.570  34.117  33.013  1.00  0.00     0.256 C 
ATOM      7  O   UNL A   1      36.674  35.328  33.207  1.00  0.00    -0.269 OA
ATOM      8  H   UNL A   1      37.102  33.772  34.886  1.00  0.00     0.163 HD
BRANCH   6   9
ATOM      9  C   UNL A   1      36.059  33.589  31.718  1.00  0.00     0.104 A 
ATOM     10  N   UNL A   1      34.298  33.536  30.007  1.00  0.00    -0.347 N 
ATOM     11  C   UNL A   1      34.823  33.831  31.265  1.00  0.00     0.104 A 
ATOM     12  C   UNL A   1      34.968  32.544  29.263  1.00  0.00     0.054 A 
ATOM     13  C   UNL A   1      36.220  32.065  29.695  1.00  0.00     0.050 A 
ATOM     14  C   UNL A   1      34.400  31.882  28.168  1.00  0.00     0.055 A 
ATOM     15  C   UNL A   1      36.895  32.722  30.843  1.00  0.00     0.202 A 
ATOM     16  C   UNL A   1      36.849  30.979  29.074  1.00  0.00     0.055 A 
ATOM     17  C   UNL A   1      34.971  30.768  27.534  1.00  0.00     0.073 A 
ATOM     18  O   UNL A   1      38.092  32.536  31.028  1.00  0.00    -0.288 OA
ATOM     19  C   UNL A   1      36.211  30.338  28.020  1.00  0.00     0.147 A 
ATOM     20  F   UNL A   1      36.803  29.267  27.463  1.00  0.00    -0.205 F 
BRANCH  10  21
ATOM     21  C   UNL A   1      33.426  34.595  29.413  1.00  0.00     0.119 C 
ATOM     22  C   UNL A   1      34.031  35.694  28.573  1.00  0.00     0.027 C 
ENDBRANCH  10  21
BRANCH  17  23
ATOM     23  N   UNL A   1      34.347  30.076  26.506  1.00  0.00    -0.380 N 
ATOM     24  H   UNL A   1      34.378  30.508  25.621  1.00  0.00     0.160 HD
BRANCH  23  25
ATOM     25  C   UNL A   1      33.648  28.788  26.557  1.00  0.00     0.079 C 
ATOM     26  C   UNL A   1      32.275  28.887  27.248  1.00  0.00     0.025 C 
ATOM     27  C   UNL A   1      33.651  28.109  25.179  1.00  0.00     0.025 C 
ATOM     28  C   UNL A   1      31.406  27.643  27.075  1.00  0.00     0.002 C 
ATOM     29  C   UNL A   1      32.799  26.848  25.143  1.00  0.00     0.002 C 
ATOM     30  C   UNL A   1      31.389  27.122  25.643  1.00  0.00     0.000 C 
ENDBRANCH  23  25
ENDBRANCH  17  23
ENDBRANCH   6   9
ENDBRANCH   4   5
ENDBRANCH   3   4
ENDBRANCH   2   3
ENDBRANCH   1   2
BRANCH   1  31
ATOM     31  C   UNL A   1      38.242  33.099  38.248  1.00  0.00     0.021 C 
BRANCH  31  32
ATOM     32  C   UNL A   1      39.108  33.812  39.280  1.00  0.00     0.116 C 
BRANCH  32  33
ATOM     33  N   UNL A   1      39.043  35.260  39.149  1.00  0.00    -0.352 N 
ATOM     34  C   UNL A   1      39.650  36.073  38.216  1.00  0.00     0.251 C 
ATOM     35  H   UNL A   1      38.489  35.722  39.819  1.00  0.00     0.163 HD
ATOM     36  O   UNL A   1      39.637  37.287  38.357  1.00  0.00    -0.269 OA
BRANCH  34  37
ATOM     37  C   UNL A   1      40.344  35.453  37.065  1.00  0.00     0.039 A 
ATOM     38  C   UNL A   1      39.677  35.277  35.852  1.00  0.00     0.014 A 
ATOM     39  C   UNL A   1      41.662  35.011  37.215  1.00  0.00     0.014 A 
ATOM     40  C   UNL A   1      40.261  34.506  34.854  1.00  0.00     0.010 A 
ATOM     41  C   UNL A   1      42.280  34.312  36.172  1.00  0.00     0.010 A 
ATOM     42  C   UNL A   1      41.566  34.006  35.004  1.00  0.00    -0.014 A 
BRANCH  42  43
ATOM     43  C   UNL A   1      42.146  33.169  33.920  1.00  0.00     0.031 A 
ATOM     44  C   UNL A   1      42.303  31.681  34.089  1.00  0.00     0.074 A 
ATOM     45  C   UNL A   1      42.462  33.750  32.746  1.00  0.00     0.049 A 
ATOM     46  N   UNL A   1      42.696  30.792  33.212  1.00  0.00    -0.248 NA
ATOM     47  C   UNL A   1      41.983  31.113  35.408  1.00  0.00     0.031 C 
ATOM     48  C   UNL A   1      42.357  35.184  32.476  1.00  0.00     0.029 A 
ATOM     49  N   UNL A   1      42.895  33.219  31.557  1.00  0.00    -0.354 N 
ATOM     50  C   UNL A   1      42.682  29.569  33.873  1.00  0.00     0.074 A 
ATOM     51  C   UNL A   1      42.279  29.832  35.236  1.00  0.00     0.031 C 
ATOM     52  C   UNL A   1      42.646  35.410  31.188  1.00  0.00     0.029 A 
ATOM     53  C   UNL A   1      43.025  34.151  30.552  1.00  0.00     0.049 A 
ATOM     54  H   UNL A   1      43.094  32.262  31.435  1.00  0.00     0.167 HD
ATOM     55  C   UNL A   1      42.964  28.338  33.380  1.00  0.00     0.034 A 
ATOM     56  C   UNL A   1      43.404  34.013  29.265  1.00  0.00     0.034 A 
ATOM     57  C   UNL A   1      43.349  28.091  32.013  1.00  0.00     0.049 A 
ATOM     58  C   UNL A   1      43.717  32.636  28.744  1.00  0.00     0.074 A 
ATOM     59  C   UNL A   1      43.635  26.876  31.414  1.00  0.00     0.029 A 
ATOM     60  N   UNL A   1      43.496  29.063  31.034  1.00  0.00    -0.354 N 
ATOM     61  N   UNL A   1      43.649  31.484  29.370  1.00  0.00    -0.248 NA
ATOM     62  C   UNL A   1      44.154  32.530  27.345  1.00  0.00     0.031 C 
ATOM     63  C   UNL A   1      44.012  27.119  30.093  1.00  0.00     0.029 A 
ATOM     64  C   UNL A   1      43.887  28.476  29.841  1.00  0.00     0.049 A 
ATOM     65  H   UNL A   1      43.344  30.027  31.166  1.00  0.00     0.167 HD
ATOM     66  C   UNL A   1      44.009  30.517  28.437  1.00  0.00     0.074 A 
ATOM     67  C   UNL A   1      44.270  31.216  27.196  1.00  0.00     0.031 C 
ATOM     68  C   UNL A   1      44.121  29.174  28.600  1.00  0.00     0.034 A 
BRANCH  55  69
ATOM     69  C   UNL A   1      42.857  27.146  34.300  1.00  0.00     0.023 A 
ATOM     70  C   UNL A   1      44.024  26.546  34.813  1.00  0.00     0.031 A 
ATOM     71  C   UNL A   1      41.623  26.524  34.556  1.00  0.00     0.131 A 
ATOM     72  C   UNL A   1      43.933  25.342  35.524  1.00  0.00     0.055 A 
ATOM     73  C   UNL A   1      41.534  25.346  35.301  1.00  0.00     0.041 A 
ATOM     74  F   UNL A   1      40.481  27.056  34.089  1.00  0.00    -0.206 F 
ATOM     75  C   UNL A   1      42.695  24.744  35.777  1.00  0.00     0.022 A 
BRANCH  72  76
ATOM     76  S   UNL A   1      45.420  24.470  36.088  1.00  0.00     0.124 S 
ATOM     77  O   UNL A   1      45.765  25.217  37.295  1.00  0.00    -0.237 OA
ATOM     78  O   UNL A   1      44.913  23.119  36.315  1.00  0.00    -0.237 OA
ATOM     79  O   UNL A   1      46.355  24.615  34.978  1.00  0.00    -0.744 OA
ENDBRANCH  72  76
ENDBRANCH  55  69
BRANCH  56  80
ATOM     80  C   UNL A   1      43.436  35.221  28.387  1.00  0.00     0.023 A 
ATOM     81  C   UNL A   1      44.645  35.894  28.131  1.00  0.00     0.031 A 
ATOM     82  C   UNL A   1      42.249  35.787  27.895  1.00  0.00     0.131 A 
ATOM     83  C   UNL A   1      44.629  37.133  27.479  1.00  0.00     0.055 A 
ATOM     84  C   UNL A   1      42.246  36.983  27.174  1.00  0.00     0.041 A 
ATOM     85  F   UNL A   1      41.068  35.191  28.125  1.00  0.00    -0.206 F 
ATOM     86  C   UNL A   1      43.439  37.673  26.981  1.00  0.00     0.022 A 
BRANCH  83  87
ATOM     87  S   UNL A   1      46.126  38.155  27.392  1.00  0.00     0.124 S 
ATOM     88  O   UNL A   1      46.004  38.974  28.594  1.00  0.00    -0.237 OA
ATOM     89  O   UNL A   1      47.180  37.143  27.420  1.00  0.00    -0.237 OA
ATOM     90  O   UNL A   1      45.984  38.866  26.126  1.00  0.00    -0.744 OA
ENDBRANCH  83  87
ENDBRANCH  56  80
BRANCH  68  91
ATOM     91  C   UNL A   1      44.526  28.332  27.414  1.00  0.00     0.023 A 
ATOM     92  C   UNL A   1      45.882  28.260  27.038  1.00  0.00     0.031 A 
ATOM     93  C   UNL A   1      43.569  27.745  26.569  1.00  0.00     0.131 A 
ATOM     94  C   UNL A   1      46.238  27.658  25.827  1.00  0.00     0.055 A 
ATOM     95  C   UNL A   1      43.935  27.103  25.384  1.00  0.00     0.041 A 
ATOM     96  F   UNL A   1      42.264  27.798  26.877  1.00  0.00    -0.206 F 
ATOM     97  C   UNL A   1      45.273  27.072  25.001  1.00  0.00     0.022 A 
BRANCH  94  98
ATOM     98  S   UNL A   1      47.952  27.700  25.230  1.00  0.00     0.124 S 
ATOM     99  O   UNL A   1      47.768  27.959  23.804  1.00  0.00    -0.237 OA
ATOM    100  O   UNL A   1      48.517  28.807  25.996  1.00  0.00    -0.237 OA
ATOM    101  O   UNL A   1      48.473  26.378  25.560  1.00  0.00    -0.744 OA
ENDBRANCH  94  98
ENDBRANCH  68  91
ENDBRANCH  42  43
ENDBRANCH  34  37
ENDBRANCH  32  33
ENDBRANCH  31  32
ENDBRANCH   1  31
TORSDOF 19
ENDMDL
