MODEL 1
REMARK VINA RESULT:     -10.9      0.000      0.000
REMARK SMILES O=C(CSc1ccnc(C(=O)NCCCCCCNC(=O)c2ccc(-c3c4nc(c(-c5cc(S(=O)(=O)[O-])ccc5F)c5ccc([nH]5)c(-c5cc(S(=O)(=O)[O-])ccc5F)c5nc(c(-c6cc(S(=O)(=O)[O-])ccc6F)c6ccc3[nH]6)C=C5)C=C4)cc2)c1)NCC(F)(F)F
REMARK SMILES IDX 14 1 13 2 12 3 10 4 11 5 9 7 5 8 6 9 85 10 7 11 8 12 4 13
REMARK SMILES IDX 3 14 2 15 1 16 86 17 87 19 88 20 89 21 90 22 91 23 15 24
REMARK SMILES IDX 16 25 17 26 18 27 19 28 20 29 21 31 22 32 23 33 84 34 24 35
REMARK SMILES IDX 83 36 25 37 26 38 27 39 77 40 28 41 82 42 76 43 78 44 29 45
REMARK SMILES IDX 81 46 75 47 74 48 30 50 62 51 42 52 61 53 43 54 46 55 60 56
REMARK SMILES IDX 79 57 44 58 45 59 59 61 80 62 47 63 31 64 32 65 40 66 33 67
REMARK SMILES IDX 39 68 41 69 38 70 34 71 35 72 36 73 37 74 63 75 64 76 72 77
REMARK SMILES IDX 65 78 71 79 73 80 70 81 66 82 67 83 68 84 69 85 48 86 49 87
REMARK SMILES IDX 57 88 50 89 56 90 58 91 55 92 51 93 52 94 53 95 54 96
REMARK H PARENT 12 6 86 18 19 30 78 49 46 60
REMARK Flexibility Score: inf
ROOT
ATOM      1  C   UNL A   1      33.523  28.039  23.057  1.00  0.00     0.021 C 
ENDROOT
BRANCH   1   2
ATOM      2  C   UNL A   1      33.522  26.567  23.458  1.00  0.00     0.116 C 
BRANCH   2   3
ATOM      3  N   UNL A   1      33.313  25.661  22.345  1.00  0.00    -0.351 N 
ATOM      4  C   UNL A   1      33.674  24.351  22.104  1.00  0.00     0.269 C 
ATOM      5  O   UNL A   1      33.344  23.892  21.007  1.00  0.00    -0.268 OA
ATOM      6  H   UNL A   1      32.806  26.066  21.605  1.00  0.00     0.163 HD
BRANCH   4   7
ATOM      7  C   UNL A   1      34.449  23.483  23.066  1.00  0.00     0.129 A 
ATOM      8  C   UNL A   1      34.716  22.113  25.014  1.00  0.00     0.012 A 
ATOM      9  C   UNL A   1      36.071  22.001  24.729  1.00  0.00     0.035 A 
ATOM     10  C   UNL A   1      33.881  22.795  24.127  1.00  0.00     0.049 A 
ATOM     11  C   UNL A   1      36.548  22.634  23.599  1.00  0.00     0.113 A 
ATOM     12  N   UNL A   1      35.779  23.389  22.789  1.00  0.00    -0.251 NA
BRANCH   8  13
ATOM     13  S   UNL A   1      34.078  21.383  26.514  1.00  0.00    -0.116 SA
BRANCH  13  14
ATOM     14  C   UNL A   1      32.676  20.412  25.841  1.00  0.00     0.174 C 
BRANCH  14  15
ATOM     15  C   UNL A   1      33.075  18.969  25.569  1.00  0.00     0.230 C 
ATOM     16  O   UNL A   1      32.417  18.022  25.991  1.00  0.00    -0.274 OA
ATOM     17  N   UNL A   1      34.193  18.815  24.780  1.00  0.00    -0.346 N 
ATOM     18  H   UNL A   1      34.668  19.621  24.475  1.00  0.00     0.163 HD
BRANCH  17  19
ATOM     19  C   UNL A   1      34.704  17.502  24.376  1.00  0.00     0.231 C 
BRANCH  19  20
ATOM     20  C   UNL A   1      33.887  16.814  23.283  1.00  0.00     0.405 C 
ATOM     21  F   UNL A   1      33.219  17.733  22.545  1.00  0.00    -0.169 F 
ATOM     22  F   UNL A   1      34.689  16.126  22.441  1.00  0.00    -0.169 F 
ATOM     23  F   UNL A   1      32.981  15.956  23.794  1.00  0.00    -0.169 F 
ENDBRANCH  19  20
ENDBRANCH  17  19
ENDBRANCH  14  15
ENDBRANCH  13  14
ENDBRANCH   8  13
ENDBRANCH   4   7
ENDBRANCH   2   3
ENDBRANCH   1   2
BRANCH   1  24
ATOM     24  C   UNL A   1      33.071  29.036  24.127  1.00  0.00     0.002 C 
BRANCH  24  25
ATOM     25  C   UNL A   1      31.872  28.622  24.985  1.00  0.00     0.002 C 
BRANCH  25  26
ATOM     26  C   UNL A   1      31.963  28.928  26.484  1.00  0.00     0.021 C 
BRANCH  26  27
ATOM     27  C   UNL A   1      33.337  29.352  26.999  1.00  0.00     0.116 C 
BRANCH  27  28
ATOM     28  N   UNL A   1      33.401  30.768  27.307  1.00  0.00    -0.352 N 
ATOM     29  C   UNL A   1      34.323  31.474  28.040  1.00  0.00     0.251 C 
ATOM     30  H   UNL A   1      32.670  31.307  26.931  1.00  0.00     0.163 HD
ATOM     31  O   UNL A   1      34.083  32.644  28.328  1.00  0.00    -0.269 OA
BRANCH  29  32
ATOM     32  C   UNL A   1      35.581  30.842  28.506  1.00  0.00     0.039 A 
ATOM     33  C   UNL A   1      36.785  31.247  27.919  1.00  0.00     0.014 A 
ATOM     34  C   UNL A   1      35.588  29.830  29.470  1.00  0.00     0.014 A 
ATOM     35  C   UNL A   1      37.991  30.678  28.334  1.00  0.00     0.010 A 
ATOM     36  C   UNL A   1      36.799  29.308  29.929  1.00  0.00     0.010 A 
ATOM     37  C   UNL A   1      38.014  29.723  29.364  1.00  0.00    -0.014 A 
BRANCH  37  38
ATOM     38  C   UNL A   1      39.307  29.174  29.854  1.00  0.00     0.031 A 
ATOM     39  C   UNL A   1      39.993  29.773  31.052  1.00  0.00     0.074 A 
ATOM     40  C   UNL A   1      39.876  28.143  29.198  1.00  0.00     0.049 A 
ATOM     41  N   UNL A   1      41.113  29.416  31.630  1.00  0.00    -0.248 NA
ATOM     42  C   UNL A   1      39.350  30.943  31.666  1.00  0.00     0.031 C 
ATOM     43  C   UNL A   1      39.334  27.512  27.991  1.00  0.00     0.029 A 
ATOM     44  N   UNL A   1      41.028  27.441  29.448  1.00  0.00    -0.354 N 
ATOM     45  C   UNL A   1      41.311  30.316  32.671  1.00  0.00     0.074 A 
ATOM     46  C   UNL A   1      40.226  31.274  32.603  1.00  0.00     0.031 C 
ATOM     47  C   UNL A   1      40.134  26.497  27.628  1.00  0.00     0.029 A 
ATOM     48  C   UNL A   1      41.262  26.424  28.551  1.00  0.00     0.049 A 
ATOM     49  H   UNL A   1      41.631  27.647  30.198  1.00  0.00     0.167 HD
ATOM     50  C   UNL A   1      42.290  30.329  33.611  1.00  0.00     0.034 A 
ATOM     51  C   UNL A   1      42.270  25.532  28.480  1.00  0.00     0.034 A 
ATOM     52  C   UNL A   1      43.363  29.363  33.668  1.00  0.00     0.049 A 
ATOM     53  C   UNL A   1      43.346  25.566  29.533  1.00  0.00     0.074 A 
ATOM     54  C   UNL A   1      44.373  29.248  34.607  1.00  0.00     0.029 A 
ATOM     55  N   UNL A   1      43.571  28.349  32.740  1.00  0.00    -0.354 N 
ATOM     56  N   UNL A   1      43.481  26.386  30.551  1.00  0.00    -0.248 NA
ATOM     57  C   UNL A   1      44.395  24.545  29.436  1.00  0.00     0.031 C 
ATOM     58  C   UNL A   1      45.227  28.211  34.213  1.00  0.00     0.029 A 
ATOM     59  C   UNL A   1      44.711  27.627  33.068  1.00  0.00     0.049 A 
ATOM     60  H   UNL A   1      42.994  28.168  31.964  1.00  0.00     0.167 HD
ATOM     61  C   UNL A   1      44.622  25.963  31.227  1.00  0.00     0.074 A 
ATOM     62  C   UNL A   1      45.116  24.800  30.517  1.00  0.00     0.031 C 
ATOM     63  C   UNL A   1      45.210  26.487  32.333  1.00  0.00     0.034 A 
BRANCH  50  64
ATOM     64  C   UNL A   1      42.256  31.440  34.636  1.00  0.00     0.023 A 
ATOM     65  C   UNL A   1      41.273  31.488  35.641  1.00  0.00     0.031 A 
ATOM     66  C   UNL A   1      43.202  32.479  34.595  1.00  0.00     0.131 A 
ATOM     67  C   UNL A   1      41.211  32.587  36.512  1.00  0.00     0.055 A 
ATOM     68  C   UNL A   1      43.185  33.529  35.517  1.00  0.00     0.041 A 
ATOM     69  F   UNL A   1      44.154  32.501  33.649  1.00  0.00    -0.206 F 
ATOM     70  C   UNL A   1      42.175  33.596  36.473  1.00  0.00     0.022 A 
BRANCH  67  71
ATOM     71  S   UNL A   1      39.770  32.749  37.602  1.00  0.00     0.124 S 
ATOM     72  O   UNL A   1      40.390  32.678  38.923  1.00  0.00    -0.237 OA
ATOM     73  O   UNL A   1      39.228  34.048  37.219  1.00  0.00    -0.237 OA
ATOM     74  O   UNL A   1      38.942  31.598  37.248  1.00  0.00    -0.744 OA
ENDBRANCH  67  71
ENDBRANCH  50  64
BRANCH  51  75
ATOM     75  C   UNL A   1      42.312  24.529  27.378  1.00  0.00     0.023 A 
ATOM     76  C   UNL A   1      41.603  23.321  27.470  1.00  0.00     0.031 A 
ATOM     77  C   UNL A   1      43.096  24.748  26.231  1.00  0.00     0.131 A 
ATOM     78  C   UNL A   1      41.727  22.358  26.457  1.00  0.00     0.055 A 
ATOM     79  C   UNL A   1      43.176  23.809  25.201  1.00  0.00     0.041 A 
ATOM     80  F   UNL A   1      43.787  25.891  26.090  1.00  0.00    -0.206 F 
ATOM     81  C   UNL A   1      42.499  22.599  25.318  1.00  0.00     0.022 A 
BRANCH  78  82
ATOM     82  S   UNL A   1      40.926  20.747  26.687  1.00  0.00     0.124 S 
ATOM     83  O   UNL A   1      41.912  19.839  26.115  1.00  0.00    -0.237 OA
ATOM     84  O   UNL A   1      40.768  20.693  28.137  1.00  0.00    -0.237 OA
ATOM     85  O   UNL A   1      39.681  20.876  25.933  1.00  0.00    -0.744 OA
ENDBRANCH  78  82
ENDBRANCH  51  75
BRANCH  63  86
ATOM     86  C   UNL A   1      46.446  25.782  32.840  1.00  0.00     0.023 A 
ATOM     87  C   UNL A   1      46.361  24.724  33.764  1.00  0.00     0.031 A 
ATOM     88  C   UNL A   1      47.723  26.201  32.433  1.00  0.00     0.131 A 
ATOM     89  C   UNL A   1      47.532  24.173  34.307  1.00  0.00     0.055 A 
ATOM     90  C   UNL A   1      48.885  25.604  32.926  1.00  0.00     0.041 A 
ATOM     91  F   UNL A   1      47.866  27.207  31.555  1.00  0.00    -0.206 F 
ATOM     92  C   UNL A   1      48.793  24.596  33.882  1.00  0.00     0.022 A 
BRANCH  89  93
ATOM     93  S   UNL A   1      47.380  22.982  35.667  1.00  0.00     0.124 S 
ATOM     94  O   UNL A   1      47.247  21.718  34.950  1.00  0.00    -0.237 OA
ATOM     95  O   UNL A   1      48.632  23.175  36.391  1.00  0.00    -0.237 OA
ATOM     96  O   UNL A   1      46.180  23.422  36.375  1.00  0.00    -0.744 OA
ENDBRANCH  89  93
ENDBRANCH  63  86
ENDBRANCH  37  38
ENDBRANCH  29  32
ENDBRANCH  27  28
ENDBRANCH  26  27
ENDBRANCH  25  26
ENDBRANCH  24  25
ENDBRANCH   1  24
TORSDOF 21
ENDMDL
MODEL 2
REMARK VINA RESULT:     -10.9      2.875      3.758
REMARK SMILES O=C(CSc1ccnc(C(=O)NCCCCCCNC(=O)c2ccc(-c3c4nc(c(-c5cc(S(=O)(=O)[O-])ccc5F)c5ccc([nH]5)c(-c5cc(S(=O)(=O)[O-])ccc5F)c5nc(c(-c6cc(S(=O)(=O)[O-])ccc6F)c6ccc3[nH]6)C=C5)C=C4)cc2)c1)NCC(F)(F)F
REMARK SMILES IDX 14 1 13 2 12 3 10 4 11 5 9 7 5 8 6 9 85 10 7 11 8 12 4 13
REMARK SMILES IDX 3 14 2 15 1 16 86 17 87 19 88 20 89 21 90 22 91 23 15 24
REMARK SMILES IDX 16 25 17 26 18 27 19 28 20 29 21 31 22 32 23 33 84 34 24 35
REMARK SMILES IDX 83 36 25 37 26 38 27 39 77 40 28 41 82 42 76 43 78 44 29 45
REMARK SMILES IDX 81 46 75 47 74 48 30 50 62 51 42 52 61 53 43 54 46 55 60 56
REMARK SMILES IDX 79 57 44 58 45 59 59 61 80 62 47 63 31 64 32 65 40 66 33 67
REMARK SMILES IDX 39 68 41 69 38 70 34 71 35 72 36 73 37 74 63 75 64 76 72 77
REMARK SMILES IDX 65 78 71 79 73 80 70 81 66 82 67 83 68 84 69 85 48 86 49 87
REMARK SMILES IDX 57 88 50 89 56 90 58 91 55 92 51 93 52 94 53 95 54 96
REMARK H PARENT 12 6 86 18 19 30 78 49 46 60
REMARK Flexibility Score: inf
ROOT
ATOM      1  C   UNL A   1      29.791  26.634  24.378  1.00  0.00     0.021 C 
ENDROOT
BRANCH   1   2
ATOM      2  C   UNL A   1      30.722  26.391  25.562  1.00  0.00     0.116 C 
BRANCH   2   3
ATOM      3  N   UNL A   1      30.263  25.348  26.459  1.00  0.00    -0.351 N 
ATOM      4  C   UNL A   1      30.388  23.974  26.463  1.00  0.00     0.269 C 
ATOM      5  O   UNL A   1      29.831  23.382  27.393  1.00  0.00    -0.268 OA
ATOM      6  H   UNL A   1      29.754  25.693  27.227  1.00  0.00     0.163 HD
BRANCH   4   7
ATOM      7  C   UNL A   1      31.121  23.175  25.413  1.00  0.00     0.129 A 
ATOM      8  C   UNL A   1      32.723  21.569  24.638  1.00  0.00     0.012 A 
ATOM      9  C   UNL A   1      32.386  21.889  23.329  1.00  0.00     0.035 A 
ATOM     10  C   UNL A   1      32.024  22.161  25.692  1.00  0.00     0.049 A 
ATOM     11  C   UNL A   1      31.407  22.841  23.128  1.00  0.00     0.113 A 
ATOM     12  N   UNL A   1      30.797  23.504  24.131  1.00  0.00    -0.251 NA
BRANCH   8  13
ATOM     13  S   UNL A   1      34.046  20.409  24.939  1.00  0.00    -0.116 SA
BRANCH  13  14
ATOM     14  C   UNL A   1      34.984  21.302  26.237  1.00  0.00     0.174 C 
BRANCH  14  15
ATOM     15  C   UNL A   1      35.965  22.297  25.634  1.00  0.00     0.230 C 
ATOM     16  O   UNL A   1      36.210  22.320  24.431  1.00  0.00    -0.274 OA
ATOM     17  N   UNL A   1      36.512  23.187  26.530  1.00  0.00    -0.346 N 
ATOM     18  H   UNL A   1      36.267  23.110  27.480  1.00  0.00     0.163 HD
BRANCH  17  19
ATOM     19  C   UNL A   1      37.444  24.244  26.128  1.00  0.00     0.231 C 
BRANCH  19  20
ATOM     20  C   UNL A   1      38.887  24.021  26.581  1.00  0.00     0.405 C 
ATOM     21  F   UNL A   1      39.730  24.815  25.878  1.00  0.00    -0.169 F 
ATOM     22  F   UNL A   1      39.037  24.330  27.888  1.00  0.00    -0.169 F 
ATOM     23  F   UNL A   1      39.279  22.743  26.405  1.00  0.00    -0.169 F 
ENDBRANCH  19  20
ENDBRANCH  17  19
ENDBRANCH  14  15
ENDBRANCH  13  14
ENDBRANCH   8  13
ENDBRANCH   4   7
ENDBRANCH   2   3
ENDBRANCH   1   2
BRANCH   1  24
ATOM     24  C   UNL A   1      30.147  27.807  23.463  1.00  0.00     0.002 C 
BRANCH  24  25
ATOM     25  C   UNL A   1      30.889  28.980  24.112  1.00  0.00     0.002 C 
BRANCH  25  26
ATOM     26  C   UNL A   1      32.413  28.999  23.955  1.00  0.00     0.021 C 
BRANCH  26  27
ATOM     27  C   UNL A   1      33.210  29.379  25.202  1.00  0.00     0.116 C 
BRANCH  27  28
ATOM     28  N   UNL A   1      32.752  30.621  25.796  1.00  0.00    -0.352 N 
ATOM     29  C   UNL A   1      33.202  31.290  26.907  1.00  0.00     0.251 C 
ATOM     30  H   UNL A   1      32.001  31.051  25.328  1.00  0.00     0.163 HD
ATOM     31  O   UNL A   1      32.547  32.236  27.337  1.00  0.00    -0.269 OA
BRANCH  29  32
ATOM     32  C   UNL A   1      34.445  30.875  27.602  1.00  0.00     0.039 A 
ATOM     33  C   UNL A   1      35.458  31.824  27.775  1.00  0.00     0.014 A 
ATOM     34  C   UNL A   1      34.644  29.563  28.042  1.00  0.00     0.014 A 
ATOM     35  C   UNL A   1      36.641  31.471  28.429  1.00  0.00     0.010 A 
ATOM     36  C   UNL A   1      35.800  29.229  28.751  1.00  0.00     0.010 A 
ATOM     37  C   UNL A   1      36.813  30.179  28.950  1.00  0.00    -0.014 A 
BRANCH  37  38
ATOM     38  C   UNL A   1      38.042  29.829  29.710  1.00  0.00     0.031 A 
ATOM     39  C   UNL A   1      38.263  30.358  31.102  1.00  0.00     0.074 A 
ATOM     40  C   UNL A   1      38.976  29.050  29.130  1.00  0.00     0.049 A 
ATOM     41  N   UNL A   1      39.265  30.145  31.919  1.00  0.00    -0.248 NA
ATOM     42  C   UNL A   1      37.237  31.264  31.636  1.00  0.00     0.031 C 
ATOM     43  C   UNL A   1      38.901  28.521  27.765  1.00  0.00     0.029 A 
ATOM     44  N   UNL A   1      40.167  28.562  29.607  1.00  0.00    -0.354 N 
ATOM     45  C   UNL A   1      38.992  30.892  33.061  1.00  0.00     0.074 A 
ATOM     46  C   UNL A   1      37.761  31.612  32.801  1.00  0.00     0.031 C 
ATOM     47  C   UNL A   1      39.980  27.757  27.530  1.00  0.00     0.029 A 
ATOM     48  C   UNL A   1      40.839  27.766  28.708  1.00  0.00     0.049 A 
ATOM     49  H   UNL A   1      40.508  28.763  30.508  1.00  0.00     0.167 HD
ATOM     50  C   UNL A   1      39.688  30.952  34.224  1.00  0.00     0.034 A 
ATOM     51  C   UNL A   1      42.015  27.117  28.821  1.00  0.00     0.034 A 
ATOM     52  C   UNL A   1      40.910  30.224  34.469  1.00  0.00     0.049 A 
ATOM     53  C   UNL A   1      42.770  27.199  30.121  1.00  0.00     0.074 A 
ATOM     54  C   UNL A   1      41.666  30.167  35.628  1.00  0.00     0.029 A 
ATOM     55  N   UNL A   1      41.565  29.431  33.534  1.00  0.00    -0.354 N 
ATOM     56  N   UNL A   1      42.463  27.859  31.215  1.00  0.00    -0.248 NA
ATOM     57  C   UNL A   1      44.021  26.437  30.206  1.00  0.00     0.031 C 
ATOM     58  C   UNL A   1      42.807  29.397  35.375  1.00  0.00     0.029 A 
ATOM     59  C   UNL A   1      42.731  28.909  34.080  1.00  0.00     0.049 A 
ATOM     60  H   UNL A   1      41.249  29.263  32.618  1.00  0.00     0.167 HD
ATOM     61  C   UNL A   1      43.476  27.572  32.125  1.00  0.00     0.074 A 
ATOM     62  C   UNL A   1      44.382  26.658  31.461  1.00  0.00     0.031 C 
ATOM     63  C   UNL A   1      43.643  28.023  33.396  1.00  0.00     0.034 A 
BRANCH  50  64
ATOM     64  C   UNL A   1      39.150  31.859  35.309  1.00  0.00     0.023 A 
ATOM     65  C   UNL A   1      38.579  31.344  36.487  1.00  0.00     0.031 A 
ATOM     66  C   UNL A   1      39.187  33.256  35.155  1.00  0.00     0.131 A 
ATOM     67  C   UNL A   1      38.000  32.212  37.425  1.00  0.00     0.055 A 
ATOM     68  C   UNL A   1      38.682  34.119  36.132  1.00  0.00     0.041 A 
ATOM     69  F   UNL A   1      39.702  33.809  34.047  1.00  0.00    -0.206 F 
ATOM     70  C   UNL A   1      38.069  33.597  37.268  1.00  0.00     0.022 A 
BRANCH  67  71
ATOM     71  S   UNL A   1      37.030  31.499  38.783  1.00  0.00     0.124 S 
ATOM     72  O   UNL A   1      36.755  30.157  38.275  1.00  0.00    -0.237 OA
ATOM     73  O   UNL A   1      37.953  31.582  39.908  1.00  0.00    -0.237 OA
ATOM     74  O   UNL A   1      35.863  32.376  38.866  1.00  0.00    -0.744 OA
ENDBRANCH  67  71
ENDBRANCH  50  64
BRANCH  51  75
ATOM     75  C   UNL A   1      42.553  26.328  27.675  1.00  0.00     0.023 A 
ATOM     76  C   UNL A   1      42.383  24.937  27.610  1.00  0.00     0.031 A 
ATOM     77  C   UNL A   1      43.279  26.953  26.645  1.00  0.00     0.131 A 
ATOM     78  C   UNL A   1      42.971  24.208  26.565  1.00  0.00     0.055 A 
ATOM     79  C   UNL A   1      43.818  26.231  25.580  1.00  0.00     0.041 A 
ATOM     80  F   UNL A   1      43.463  28.283  26.655  1.00  0.00    -0.206 F 
ATOM     81  C   UNL A   1      43.677  24.847  25.544  1.00  0.00     0.022 A 
BRANCH  78  82
ATOM     82  S   UNL A   1      42.868  22.397  26.603  1.00  0.00     0.124 S 
ATOM     83  O   UNL A   1      42.164  22.164  27.858  1.00  0.00    -0.237 OA
ATOM     84  O   UNL A   1      42.117  22.113  25.384  1.00  0.00    -0.237 OA
ATOM     85  O   UNL A   1      44.267  21.977  26.581  1.00  0.00    -0.744 OA
ENDBRANCH  78  82
ENDBRANCH  51  75
BRANCH  63  86
ATOM     86  C   UNL A   1      44.852  27.508  34.142  1.00  0.00     0.023 A 
ATOM     87  C   UNL A   1      44.803  26.314  34.885  1.00  0.00     0.031 A 
ATOM     88  C   UNL A   1      46.050  28.241  34.148  1.00  0.00     0.131 A 
ATOM     89  C   UNL A   1      45.904  25.930  35.664  1.00  0.00     0.055 A 
ATOM     90  C   UNL A   1      47.167  27.818  34.872  1.00  0.00     0.041 A 
ATOM     91  F   UNL A   1      46.154  29.388  33.458  1.00  0.00    -0.206 F 
ATOM     92  C   UNL A   1      47.091  26.666  35.650  1.00  0.00     0.022 A 
BRANCH  89  93
ATOM     93  S   UNL A   1      45.720  24.521  36.793  1.00  0.00     0.124 S 
ATOM     94  O   UNL A   1      44.312  24.175  36.618  1.00  0.00    -0.237 OA
ATOM     95  O   UNL A   1      46.681  23.564  36.257  1.00  0.00    -0.237 OA
ATOM     96  O   UNL A   1      46.063  25.081  38.098  1.00  0.00    -0.744 OA
ENDBRANCH  89  93
ENDBRANCH  63  86
ENDBRANCH  37  38
ENDBRANCH  29  32
ENDBRANCH  27  28
ENDBRANCH  26  27
ENDBRANCH  25  26
ENDBRANCH  24  25
ENDBRANCH   1  24
TORSDOF 21
ENDMDL
MODEL 3
REMARK VINA RESULT:     -10.6      3.710      8.437
REMARK SMILES O=C(CSc1ccnc(C(=O)NCCCCCCNC(=O)c2ccc(-c3c4nc(c(-c5cc(S(=O)(=O)[O-])ccc5F)c5ccc([nH]5)c(-c5cc(S(=O)(=O)[O-])ccc5F)c5nc(c(-c6cc(S(=O)(=O)[O-])ccc6F)c6ccc3[nH]6)C=C5)C=C4)cc2)c1)NCC(F)(F)F
REMARK SMILES IDX 14 1 13 2 12 3 10 4 11 5 9 7 5 8 6 9 85 10 7 11 8 12 4 13
REMARK SMILES IDX 3 14 2 15 1 16 86 17 87 19 88 20 89 21 90 22 91 23 15 24
REMARK SMILES IDX 16 25 17 26 18 27 19 28 20 29 21 31 22 32 23 33 84 34 24 35
REMARK SMILES IDX 83 36 25 37 26 38 27 39 77 40 28 41 82 42 76 43 78 44 29 45
REMARK SMILES IDX 81 46 75 47 74 48 30 50 62 51 42 52 61 53 43 54 46 55 60 56
REMARK SMILES IDX 79 57 44 58 45 59 59 61 80 62 47 63 31 64 32 65 40 66 33 67
REMARK SMILES IDX 39 68 41 69 38 70 34 71 35 72 36 73 37 74 63 75 64 76 72 77
REMARK SMILES IDX 65 78 71 79 73 80 70 81 66 82 67 83 68 84 69 85 48 86 49 87
REMARK SMILES IDX 57 88 50 89 56 90 58 91 55 92 51 93 52 94 53 95 54 96
REMARK H PARENT 12 6 86 18 19 30 78 49 46 60
REMARK Flexibility Score: inf
ROOT
ATOM      1  C   UNL A   1      30.550  26.878  24.442  1.00  0.00     0.021 C 
ENDROOT
BRANCH   1   2
ATOM      2  C   UNL A   1      31.225  26.559  25.773  1.00  0.00     0.116 C 
BRANCH   2   3
ATOM      3  N   UNL A   1      30.564  25.509  26.524  1.00  0.00    -0.351 N 
ATOM      4  C   UNL A   1      30.525  24.135  26.406  1.00  0.00     0.269 C 
ATOM      5  O   UNL A   1      29.818  23.541  27.226  1.00  0.00    -0.268 OA
ATOM      6  H   UNL A   1      30.029  25.849  27.277  1.00  0.00     0.163 HD
BRANCH   4   7
ATOM      7  C   UNL A   1      31.256  23.343  25.349  1.00  0.00     0.129 A 
ATOM      8  C   UNL A   1      32.933  21.830  24.548  1.00  0.00     0.012 A 
ATOM      9  C   UNL A   1      32.491  22.052  23.251  1.00  0.00     0.035 A 
ATOM     10  C   UNL A   1      32.255  22.419  25.616  1.00  0.00     0.049 A 
ATOM     11  C   UNL A   1      31.426  22.912  23.070  1.00  0.00     0.113 A 
ATOM     12  N   UNL A   1      30.826  23.576  24.077  1.00  0.00    -0.251 NA
BRANCH   8  13
ATOM     13  S   UNL A   1      34.365  20.797  24.815  1.00  0.00    -0.116 SA
BRANCH  13  14
ATOM     14  C   UNL A   1      35.249  21.774  26.090  1.00  0.00     0.174 C 
BRANCH  14  15
ATOM     15  C   UNL A   1      36.741  21.847  25.804  1.00  0.00     0.230 C 
ATOM     16  O   UNL A   1      37.294  21.068  25.033  1.00  0.00    -0.274 OA
ATOM     17  N   UNL A   1      37.404  22.875  26.437  1.00  0.00    -0.346 N 
ATOM     18  H   UNL A   1      36.895  23.463  27.039  1.00  0.00     0.163 HD
BRANCH  17  19
ATOM     19  C   UNL A   1      38.835  23.129  26.251  1.00  0.00     0.231 C 
BRANCH  19  20
ATOM     20  C   UNL A   1      39.329  24.441  26.857  1.00  0.00     0.405 C 
ATOM     21  F   UNL A   1      40.109  24.198  27.938  1.00  0.00    -0.169 F 
ATOM     22  F   UNL A   1      40.074  25.135  25.969  1.00  0.00    -0.169 F 
ATOM     23  F   UNL A   1      38.309  25.230  27.253  1.00  0.00    -0.169 F 
ENDBRANCH  19  20
ENDBRANCH  17  19
ENDBRANCH  14  15
ENDBRANCH  13  14
ENDBRANCH   8  13
ENDBRANCH   4   7
ENDBRANCH   2   3
ENDBRANCH   1   2
BRANCH   1  24
ATOM     24  C   UNL A   1      31.478  27.185  23.265  1.00  0.00     0.002 C 
BRANCH  24  25
ATOM     25  C   UNL A   1      32.167  28.553  23.276  1.00  0.00     0.002 C 
BRANCH  25  26
ATOM     26  C   UNL A   1      33.655  28.569  23.642  1.00  0.00     0.021 C 
BRANCH  26  27
ATOM     27  C   UNL A   1      33.982  28.856  25.107  1.00  0.00     0.116 C 
BRANCH  27  28
ATOM     28  N   UNL A   1      33.181  29.934  25.653  1.00  0.00    -0.352 N 
ATOM     29  C   UNL A   1      33.373  30.698  26.778  1.00  0.00     0.251 C 
ATOM     30  H   UNL A   1      32.373  30.153  25.136  1.00  0.00     0.163 HD
ATOM     31  O   UNL A   1      32.468  31.439  27.154  1.00  0.00    -0.269 OA
BRANCH  29  32
ATOM     32  C   UNL A   1      34.636  30.624  27.550  1.00  0.00     0.039 A 
ATOM     33  C   UNL A   1      34.929  29.438  28.231  1.00  0.00     0.014 A 
ATOM     34  C   UNL A   1      35.507  31.713  27.652  1.00  0.00     0.014 A 
ATOM     35  C   UNL A   1      36.112  29.328  28.966  1.00  0.00     0.010 A 
ATOM     36  C   UNL A   1      36.719  31.580  28.335  1.00  0.00     0.010 A 
ATOM     37  C   UNL A   1      37.033  30.387  29.002  1.00  0.00    -0.014 A 
BRANCH  37  38
ATOM     38  C   UNL A   1      38.325  30.239  29.724  1.00  0.00     0.031 A 
ATOM     39  C   UNL A   1      39.456  29.447  29.125  1.00  0.00     0.074 A 
ATOM     40  C   UNL A   1      38.468  30.804  30.940  1.00  0.00     0.049 A 
ATOM     41  N   UNL A   1      40.656  29.226  29.602  1.00  0.00    -0.248 NA
ATOM     42  C   UNL A   1      39.196  28.797  27.833  1.00  0.00     0.031 C 
ATOM     43  C   UNL A   1      37.425  31.551  31.650  1.00  0.00     0.029 A 
ATOM     44  N   UNL A   1      39.541  30.844  31.794  1.00  0.00    -0.354 N 
ATOM     45  C   UNL A   1      41.292  28.410  28.672  1.00  0.00     0.074 A 
ATOM     46  C   UNL A   1      40.321  28.126  27.636  1.00  0.00     0.031 C 
ATOM     47  C   UNL A   1      37.922  32.002  32.812  1.00  0.00     0.029 A 
ATOM     48  C   UNL A   1      39.302  31.552  32.950  1.00  0.00     0.049 A 
ATOM     49  H   UNL A   1      40.401  30.408  31.599  1.00  0.00     0.167 HD
ATOM     50  C   UNL A   1      42.573  27.961  28.671  1.00  0.00     0.034 A 
ATOM     51  C   UNL A   1      40.104  31.810  34.002  1.00  0.00     0.034 A 
ATOM     52  C   UNL A   1      43.532  28.258  29.709  1.00  0.00     0.049 A 
ATOM     53  C   UNL A   1      41.522  31.301  33.978  1.00  0.00     0.074 A 
ATOM     54  C   UNL A   1      44.868  27.904  29.780  1.00  0.00     0.029 A 
ATOM     55  N   UNL A   1      43.253  28.975  30.868  1.00  0.00    -0.354 N 
ATOM     56  N   UNL A   1      42.127  30.585  33.057  1.00  0.00    -0.248 NA
ATOM     57  C   UNL A   1      42.366  31.648  35.126  1.00  0.00     0.031 C 
ATOM     58  C   UNL A   1      45.378  28.346  31.007  1.00  0.00     0.029 A 
ATOM     59  C   UNL A   1      44.383  29.043  31.672  1.00  0.00     0.049 A 
ATOM     60  H   UNL A   1      42.382  29.375  31.087  1.00  0.00     0.167 HD
ATOM     61  C   UNL A   1      43.433  30.415  33.510  1.00  0.00     0.074 A 
ATOM     62  C   UNL A   1      43.531  31.129  34.767  1.00  0.00     0.031 C 
ATOM     63  C   UNL A   1      44.459  29.732  32.940  1.00  0.00     0.034 A 
BRANCH  50  64
ATOM     64  C   UNL A   1      42.999  27.080  27.518  1.00  0.00     0.023 A 
ATOM     65  C   UNL A   1      42.848  25.682  27.561  1.00  0.00     0.031 A 
ATOM     66  C   UNL A   1      43.587  27.640  26.370  1.00  0.00     0.131 A 
ATOM     67  C   UNL A   1      43.346  24.888  26.516  1.00  0.00     0.055 A 
ATOM     68  C   UNL A   1      44.007  26.850  25.296  1.00  0.00     0.041 A 
ATOM     69  F   UNL A   1      43.776  28.964  26.275  1.00  0.00    -0.206 F 
ATOM     70  C   UNL A   1      43.902  25.464  25.373  1.00  0.00     0.022 A 
BRANCH  67  71
ATOM     71  S   UNL A   1      43.386  23.088  26.739  1.00  0.00     0.124 S 
ATOM     72  O   UNL A   1      43.143  22.964  28.175  1.00  0.00    -0.237 OA
ATOM     73  O   UNL A   1      42.308  22.638  25.866  1.00  0.00    -0.237 OA
ATOM     74  O   UNL A   1      44.733  22.719  26.309  1.00  0.00    -0.744 OA
ENDBRANCH  67  71
ENDBRANCH  50  64
BRANCH  51  75
ATOM     75  C   UNL A   1      39.594  32.590  35.165  1.00  0.00     0.023 A 
ATOM     76  C   UNL A   1      38.913  31.960  36.218  1.00  0.00     0.031 A 
ATOM     77  C   UNL A   1      39.748  33.987  35.221  1.00  0.00     0.131 A 
ATOM     78  C   UNL A   1      38.370  32.728  37.260  1.00  0.00     0.055 A 
ATOM     79  C   UNL A   1      39.251  34.742  36.285  1.00  0.00     0.041 A 
ATOM     80  F   UNL A   1      40.399  34.638  34.244  1.00  0.00    -0.206 F 
ATOM     81  C   UNL A   1      38.545  34.113  37.306  1.00  0.00     0.022 A 
BRANCH  78  82
ATOM     82  S   UNL A   1      37.360  31.897  38.517  1.00  0.00     0.124 S 
ATOM     83  O   UNL A   1      38.202  32.013  39.701  1.00  0.00    -0.237 OA
ATOM     84  O   UNL A   1      36.145  32.707  38.511  1.00  0.00    -0.237 OA
ATOM     85  O   UNL A   1      37.205  30.544  37.987  1.00  0.00    -0.744 OA
ENDBRANCH  78  82
ENDBRANCH  51  75
BRANCH  63  86
ATOM     86  C   UNL A   1      45.775  29.748  33.679  1.00  0.00     0.023 A 
ATOM     87  C   UNL A   1      46.775  30.692  33.379  1.00  0.00     0.031 A 
ATOM     88  C   UNL A   1      46.053  28.784  34.662  1.00  0.00     0.131 A 
ATOM     89  C   UNL A   1      48.031  30.602  33.998  1.00  0.00     0.055 A 
ATOM     90  C   UNL A   1      47.281  28.741  35.324  1.00  0.00     0.041 A 
ATOM     91  F   UNL A   1      45.137  27.857  34.989  1.00  0.00    -0.206 F 
ATOM     92  C   UNL A   1      48.285  29.642  34.981  1.00  0.00     0.022 A 
BRANCH  89  93
ATOM     93  S   UNL A   1      49.367  31.681  33.412  1.00  0.00     0.124 S 
ATOM     94  O   UNL A   1      49.779  31.012  32.181  1.00  0.00    -0.237 OA
ATOM     95  O   UNL A   1      48.685  32.959  33.244  1.00  0.00    -0.237 OA
ATOM     96  O   UNL A   1      50.344  31.636  34.498  1.00  0.00    -0.744 OA
ENDBRANCH  89  93
ENDBRANCH  63  86
ENDBRANCH  37  38
ENDBRANCH  29  32
ENDBRANCH  27  28
ENDBRANCH  26  27
ENDBRANCH  25  26
ENDBRANCH  24  25
ENDBRANCH   1  24
TORSDOF 21
ENDMDL
