MODEL 1
REMARK VINA RESULT:     -12.3      0.000      0.000
REMARK SMILES Cc1cc(S(=O)(=O)Nc2ccc(Cl)cc2F)ccc1OCC(=O)NCCCCCCNC(=O)c1ccc(-c2c3nc(c(-c4cc(S(=O)(=O)[O-])ccc4F)c4ccc([nH]4)c(-c4cc(S(=O)(=O)[O-])ccc4F)c4nc(c(-c5cc(S(=O)(=O)[O-])ccc5F)c5ccc2[nH]5)C=C4)C=C3)cc1
REMARK SMILES IDX 26 1 25 2 24 3 22 4 23 5 21 7 20 8 19 9 1 10 2 11 3 12 4 13
REMARK SMILES IDX 18 14 17 15 5 16 6 17 7 18 8 19 9 21 10 22 15 23 11 24 14 25
REMARK SMILES IDX 16 26 12 27 13 28 27 29 28 30 29 31 30 32 31 33 32 34 33 36
REMARK SMILES IDX 34 37 35 38 96 39 36 40 95 41 37 42 38 43 39 44 89 45 40 46
REMARK SMILES IDX 94 47 88 48 90 49 41 50 93 51 87 52 86 53 42 55 74 56 54 57
REMARK SMILES IDX 73 58 55 59 58 60 72 61 91 62 56 63 57 64 71 66 92 67 59 68
REMARK SMILES IDX 43 69 44 70 52 71 45 72 51 73 53 74 50 75 46 76 47 77 48 78
REMARK SMILES IDX 49 79 75 80 76 81 84 82 77 83 83 84 85 85 82 86 78 87 79 88
REMARK SMILES IDX 80 89 81 90 60 91 61 92 69 93 62 94 68 95 70 96 67 97 63 98
REMARK SMILES IDX 64 99 65 100 66 101
REMARK H PARENT 24 6 8 20 31 35 90 54 58 65
REMARK Flexibility Score: inf
ROOT
ATOM      1  C   UNL A   1      35.412  21.971  26.241  1.00  0.00     0.021 C 
ENDROOT
BRANCH   1   2
ATOM      2  C   UNL A   1      34.026  21.537  26.711  1.00  0.00     0.116 C 
BRANCH   2   3
ATOM      3  N   UNL A   1      33.316  20.736  25.734  1.00  0.00    -0.353 N 
ATOM      4  C   UNL A   1      32.803  21.129  24.532  1.00  0.00     0.257 C 
ATOM      5  O   UNL A   1      32.443  20.275  23.720  1.00  0.00    -0.271 OA
ATOM      6  H   UNL A   1      33.188  19.788  25.966  1.00  0.00     0.163 HD
BRANCH   4   7
ATOM      7  C   UNL A   1      32.758  22.617  24.191  1.00  0.00     0.329 C 
BRANCH   7   8
ATOM      8  O   UNL A   1      31.721  23.408  24.728  1.00  0.00    -0.484 OA
BRANCH   8   9
ATOM      9  C   UNL A   1      31.977  24.589  25.363  1.00  0.00     0.123 A 
ATOM     10  C   UNL A   1      29.658  25.153  26.349  1.00  0.00     0.048 C 
ATOM     11  C   UNL A   1      31.084  25.459  26.002  1.00  0.00    -0.008 A 
ATOM     12  C   UNL A   1      31.552  26.741  26.367  1.00  0.00     0.029 A 
ATOM     13  C   UNL A   1      32.876  27.138  26.141  1.00  0.00     0.088 A 
ATOM     14  C   UNL A   1      33.321  24.973  25.214  1.00  0.00     0.048 A 
ATOM     15  C   UNL A   1      33.785  26.215  25.649  1.00  0.00     0.026 A 
BRANCH  13  16
ATOM     16  S   UNL A   1      33.245  28.868  26.366  1.00  0.00     0.262 S 
ATOM     17  O   UNL A   1      32.399  29.353  27.435  1.00  0.00    -0.201 OA
ATOM     18  O   UNL A   1      34.687  28.957  26.489  1.00  0.00    -0.201 OA
BRANCH  16  19
ATOM     19  N   UNL A   1      32.878  29.702  24.963  1.00  0.00    -0.277 N 
ATOM     20  H   UNL A   1      33.549  30.344  24.636  1.00  0.00     0.180 HD
BRANCH  19  21
ATOM     21  C   UNL A   1      31.682  29.570  24.195  1.00  0.00     0.085 A 
ATOM     22  C   UNL A   1      30.638  30.439  24.538  1.00  0.00     0.031 A 
ATOM     23  C   UNL A   1      31.507  28.717  23.098  1.00  0.00     0.148 A 
ATOM     24  C   UNL A   1      29.505  30.546  23.726  1.00  0.00     0.023 A 
ATOM     25  C   UNL A   1      30.385  28.826  22.277  1.00  0.00     0.062 A 
ATOM     26  F   UNL A   1      32.451  27.838  22.739  1.00  0.00    -0.205 F 
ATOM     27  C   UNL A   1      29.401  29.761  22.579  1.00  0.00     0.044 A 
ATOM     28  Cl  UNL A   1      28.073  29.976  21.509  1.00  0.00    -0.084 Cl
ENDBRANCH  19  21
ENDBRANCH  16  19
ENDBRANCH  13  16
ENDBRANCH   8   9
ENDBRANCH   7   8
ENDBRANCH   4   7
ENDBRANCH   2   3
ENDBRANCH   1   2
BRANCH   1  29
ATOM     29  C   UNL A   1      36.124  21.019  25.275  1.00  0.00     0.002 C 
BRANCH  29  30
ATOM     30  C   UNL A   1      37.507  21.448  24.763  1.00  0.00     0.002 C 
BRANCH  30  31
ATOM     31  C   UNL A   1      38.636  21.495  25.791  1.00  0.00     0.021 C 
BRANCH  31  32
ATOM     32  C   UNL A   1      39.050  22.898  26.217  1.00  0.00     0.116 C 
BRANCH  32  33
ATOM     33  N   UNL A   1      40.490  23.096  26.301  1.00  0.00    -0.352 N 
ATOM     34  C   UNL A   1      41.193  24.269  26.530  1.00  0.00     0.251 C 
ATOM     35  H   UNL A   1      41.038  22.288  26.180  1.00  0.00     0.163 HD
ATOM     36  O   UNL A   1      42.411  24.298  26.520  1.00  0.00    -0.269 OA
BRANCH  34  37
ATOM     37  C   UNL A   1      40.432  25.478  26.940  1.00  0.00     0.039 A 
ATOM     38  C   UNL A   1      40.784  26.685  26.324  1.00  0.00     0.014 A 
ATOM     39  C   UNL A   1      39.594  25.473  28.051  1.00  0.00     0.014 A 
ATOM     40  C   UNL A   1      40.500  27.887  26.965  1.00  0.00     0.010 A 
ATOM     41  C   UNL A   1      39.387  26.657  28.735  1.00  0.00     0.010 A 
ATOM     42  C   UNL A   1      39.901  27.854  28.227  1.00  0.00    -0.014 A 
BRANCH  42  43
ATOM     43  C   UNL A   1      39.941  28.992  29.140  1.00  0.00     0.031 A 
ATOM     44  C   UNL A   1      38.875  30.010  29.146  1.00  0.00     0.074 A 
ATOM     45  C   UNL A   1      40.984  29.130  29.988  1.00  0.00     0.049 A 
ATOM     46  N   UNL A   1      39.074  31.256  29.419  1.00  0.00    -0.248 NA
ATOM     47  C   UNL A   1      37.488  29.703  28.816  1.00  0.00     0.031 C 
ATOM     48  C   UNL A   1      41.122  30.092  31.078  1.00  0.00     0.029 A 
ATOM     49  N   UNL A   1      42.247  28.567  29.866  1.00  0.00    -0.354 N 
ATOM     50  C   UNL A   1      37.844  31.845  29.577  1.00  0.00     0.074 A 
ATOM     51  C   UNL A   1      36.889  30.856  29.126  1.00  0.00     0.031 C 
ATOM     52  C   UNL A   1      42.427  30.243  31.358  1.00  0.00     0.029 A 
ATOM     53  C   UNL A   1      43.179  29.479  30.377  1.00  0.00     0.049 A 
ATOM     54  H   UNL A   1      42.452  27.682  29.485  1.00  0.00     0.167 HD
ATOM     55  C   UNL A   1      37.735  33.046  30.209  1.00  0.00     0.034 A 
ATOM     56  C   UNL A   1      44.185  29.967  29.593  1.00  0.00     0.034 A 
ATOM     57  C   UNL A   1      39.028  33.567  30.637  1.00  0.00     0.049 A 
ATOM     58  C   UNL A   1      44.119  31.466  29.390  1.00  0.00     0.074 A 
ATOM     59  C   UNL A   1      39.688  33.557  31.854  1.00  0.00     0.029 A 
ATOM     60  N   UNL A   1      39.965  33.954  29.685  1.00  0.00    -0.354 N 
ATOM     61  N   UNL A   1      43.093  32.206  29.708  1.00  0.00    -0.248 NA
ATOM     62  C   UNL A   1      45.196  32.245  28.783  1.00  0.00     0.031 C 
ATOM     63  C   UNL A   1      41.053  33.866  31.617  1.00  0.00     0.029 A 
ATOM     64  C   UNL A   1      41.213  34.100  30.263  1.00  0.00     0.049 A 
ATOM     65  H   UNL A   1      39.768  34.103  28.733  1.00  0.00     0.167 HD
ATOM     66  C   UNL A   1      43.320  33.503  29.321  1.00  0.00     0.074 A 
ATOM     67  C   UNL A   1      44.670  33.481  28.785  1.00  0.00     0.031 C 
ATOM     68  C   UNL A   1      42.365  34.475  29.455  1.00  0.00     0.034 A 
BRANCH  55  69
ATOM     69  C   UNL A   1      36.413  33.559  30.715  1.00  0.00     0.023 A 
ATOM     70  C   UNL A   1      35.528  34.202  29.828  1.00  0.00     0.031 A 
ATOM     71  C   UNL A   1      35.997  33.485  32.057  1.00  0.00     0.131 A 
ATOM     72  C   UNL A   1      34.356  34.825  30.290  1.00  0.00     0.055 A 
ATOM     73  C   UNL A   1      34.854  34.148  32.528  1.00  0.00     0.041 A 
ATOM     74  F   UNL A   1      36.680  32.761  32.956  1.00  0.00    -0.206 F 
ATOM     75  C   UNL A   1      34.035  34.837  31.644  1.00  0.00     0.022 A 
BRANCH  72  76
ATOM     76  S   UNL A   1      33.272  35.640  29.085  1.00  0.00     0.124 S 
ATOM     77  O   UNL A   1      32.451  36.494  29.939  1.00  0.00    -0.237 OA
ATOM     78  O   UNL A   1      34.230  36.322  28.223  1.00  0.00    -0.237 OA
ATOM     79  O   UNL A   1      32.562  34.524  28.460  1.00  0.00    -0.744 OA
ENDBRANCH  72  76
ENDBRANCH  55  69
BRANCH  56  80
ATOM     80  C   UNL A   1      44.683  28.971  28.598  1.00  0.00     0.023 A 
ATOM     81  C   UNL A   1      45.457  27.899  29.094  1.00  0.00     0.031 A 
ATOM     82  C   UNL A   1      44.116  28.834  27.324  1.00  0.00     0.131 A 
ATOM     83  C   UNL A   1      45.501  26.678  28.408  1.00  0.00     0.055 A 
ATOM     84  C   UNL A   1      44.227  27.634  26.606  1.00  0.00     0.041 A 
ATOM     85  F   UNL A   1      43.343  29.801  26.810  1.00  0.00    -0.206 F 
ATOM     86  C   UNL A   1      44.880  26.535  27.168  1.00  0.00     0.022 A 
BRANCH  83  87
ATOM     87  S   UNL A   1      46.125  25.208  29.280  1.00  0.00     0.124 S 
ATOM     88  O   UNL A   1      46.014  24.176  28.257  1.00  0.00    -0.237 OA
ATOM     89  O   UNL A   1      47.485  25.600  29.644  1.00  0.00    -0.237 OA
ATOM     90  O   UNL A   1      45.216  25.075  30.417  1.00  0.00    -0.744 OA
ENDBRANCH  83  87
ENDBRANCH  56  80
BRANCH  68  91
ATOM     91  C   UNL A   1      42.454  35.885  28.911  1.00  0.00     0.023 A 
ATOM     92  C   UNL A   1      43.175  36.912  29.535  1.00  0.00     0.031 A 
ATOM     93  C   UNL A   1      41.853  36.225  27.673  1.00  0.00     0.131 A 
ATOM     94  C   UNL A   1      43.205  38.213  28.997  1.00  0.00     0.055 A 
ATOM     95  C   UNL A   1      41.955  37.495  27.097  1.00  0.00     0.041 A 
ATOM     96  F   UNL A   1      41.142  35.334  26.965  1.00  0.00    -0.206 F 
ATOM     97  C   UNL A   1      42.619  38.507  27.769  1.00  0.00     0.022 A 
BRANCH  94  98
ATOM     98  S   UNL A   1      43.963  39.532  29.983  1.00  0.00     0.124 S 
ATOM     99  O   UNL A   1      43.139  40.683  29.625  1.00  0.00    -0.237 OA
ATOM    100  O   UNL A   1      43.802  39.035  31.346  1.00  0.00    -0.237 OA
ATOM    101  O   UNL A   1      45.339  39.578  29.495  1.00  0.00    -0.744 OA
ENDBRANCH  94  98
ENDBRANCH  68  91
ENDBRANCH  42  43
ENDBRANCH  34  37
ENDBRANCH  32  33
ENDBRANCH  31  32
ENDBRANCH  30  31
ENDBRANCH  29  30
ENDBRANCH   1  29
TORSDOF 21
ENDMDL
MODEL 2
REMARK VINA RESULT:     -12.1      4.230     10.151
REMARK SMILES Cc1cc(S(=O)(=O)Nc2ccc(Cl)cc2F)ccc1OCC(=O)NCCCCCCNC(=O)c1ccc(-c2c3nc(c(-c4cc(S(=O)(=O)[O-])ccc4F)c4ccc([nH]4)c(-c4cc(S(=O)(=O)[O-])ccc4F)c4nc(c(-c5cc(S(=O)(=O)[O-])ccc5F)c5ccc2[nH]5)C=C4)C=C3)cc1
REMARK SMILES IDX 26 1 25 2 24 3 22 4 23 5 21 7 20 8 19 9 1 10 2 11 3 12 4 13
REMARK SMILES IDX 18 14 17 15 5 16 6 17 7 18 8 19 9 21 10 22 15 23 11 24 14 25
REMARK SMILES IDX 16 26 12 27 13 28 27 29 28 30 29 31 30 32 31 33 32 34 33 36
REMARK SMILES IDX 34 37 35 38 96 39 36 40 95 41 37 42 38 43 39 44 89 45 40 46
REMARK SMILES IDX 94 47 88 48 90 49 41 50 93 51 87 52 86 53 42 55 74 56 54 57
REMARK SMILES IDX 73 58 55 59 58 60 72 61 91 62 56 63 57 64 71 66 92 67 59 68
REMARK SMILES IDX 43 69 44 70 52 71 45 72 51 73 53 74 50 75 46 76 47 77 48 78
REMARK SMILES IDX 49 79 75 80 76 81 84 82 77 83 83 84 85 85 82 86 78 87 79 88
REMARK SMILES IDX 80 89 81 90 60 91 61 92 69 93 62 94 68 95 70 96 67 97 63 98
REMARK SMILES IDX 64 99 65 100 66 101
REMARK H PARENT 24 6 8 20 31 35 90 54 58 65
REMARK Flexibility Score: inf
ROOT
ATOM      1  C   UNL A   1      30.720  24.640  26.166  1.00  0.00     0.021 C 
ENDROOT
BRANCH   1   2
ATOM      2  C   UNL A   1      31.594  23.516  26.716  1.00  0.00     0.116 C 
BRANCH   2   3
ATOM      3  N   UNL A   1      31.309  22.227  26.119  1.00  0.00    -0.353 N 
ATOM      4  C   UNL A   1      32.139  21.435  25.381  1.00  0.00     0.257 C 
ATOM      5  O   UNL A   1      31.818  20.267  25.153  1.00  0.00    -0.271 OA
ATOM      6  H   UNL A   1      30.400  21.876  26.265  1.00  0.00     0.163 HD
BRANCH   4   7
ATOM      7  C   UNL A   1      33.484  21.993  24.918  1.00  0.00     0.329 C 
BRANCH   7   8
ATOM      8  O   UNL A   1      34.661  21.277  25.224  1.00  0.00    -0.484 OA
BRANCH   8   9
ATOM      9  C   UNL A   1      35.864  21.904  25.361  1.00  0.00     0.123 A 
ATOM     10  C   UNL A   1      37.507  19.973  24.870  1.00  0.00     0.048 C 
ATOM     11  C   UNL A   1      37.153  21.357  25.324  1.00  0.00    -0.008 A 
ATOM     12  C   UNL A   1      38.233  22.169  25.741  1.00  0.00     0.029 A 
ATOM     13  C   UNL A   1      38.046  23.497  26.146  1.00  0.00     0.088 A 
ATOM     14  C   UNL A   1      35.704  23.260  25.695  1.00  0.00     0.048 A 
ATOM     15  C   UNL A   1      36.789  24.070  26.032  1.00  0.00     0.026 A 
BRANCH  13  16
ATOM     16  S   UNL A   1      39.432  24.298  26.931  1.00  0.00     0.262 S 
ATOM     17  O   UNL A   1      40.066  25.136  25.935  1.00  0.00    -0.201 OA
ATOM     18  O   UNL A   1      38.915  24.890  28.149  1.00  0.00    -0.201 OA
BRANCH  16  19
ATOM     19  N   UNL A   1      40.527  23.141  27.443  1.00  0.00    -0.277 N 
ATOM     20  H   UNL A   1      40.318  22.666  28.280  1.00  0.00     0.180 HD
BRANCH  19  21
ATOM     21  C   UNL A   1      41.738  22.778  26.779  1.00  0.00     0.085 A 
ATOM     22  C   UNL A   1      42.802  23.679  26.915  1.00  0.00     0.031 A 
ATOM     23  C   UNL A   1      41.962  21.579  26.091  1.00  0.00     0.148 A 
ATOM     24  C   UNL A   1      44.088  23.332  26.490  1.00  0.00     0.023 A 
ATOM     25  C   UNL A   1      43.244  21.221  25.674  1.00  0.00     0.062 A 
ATOM     26  F   UNL A   1      40.980  20.692  25.895  1.00  0.00    -0.205 F 
ATOM     27  C   UNL A   1      44.308  22.088  25.902  1.00  0.00     0.044 A 
ATOM     28  Cl  UNL A   1      45.905  21.602  25.492  1.00  0.00    -0.084 Cl
ENDBRANCH  19  21
ENDBRANCH  16  19
ENDBRANCH  13  16
ENDBRANCH   8   9
ENDBRANCH   7   8
ENDBRANCH   4   7
ENDBRANCH   2   3
ENDBRANCH   1   2
BRANCH   1  29
ATOM     29  C   UNL A   1      31.442  25.716  25.350  1.00  0.00     0.002 C 
BRANCH  29  30
ATOM     30  C   UNL A   1      32.304  26.723  26.126  1.00  0.00     0.002 C 
BRANCH  30  31
ATOM     31  C   UNL A   1      33.683  27.037  25.549  1.00  0.00     0.021 C 
BRANCH  31  32
ATOM     32  C   UNL A   1      34.145  28.474  25.755  1.00  0.00     0.116 C 
BRANCH  32  33
ATOM     33  N   UNL A   1      33.084  29.465  25.637  1.00  0.00    -0.352 N 
ATOM     34  C   UNL A   1      32.760  30.497  26.504  1.00  0.00     0.251 C 
ATOM     35  H   UNL A   1      32.521  29.392  24.833  1.00  0.00     0.163 HD
ATOM     36  O   UNL A   1      31.802  31.224  26.305  1.00  0.00    -0.269 OA
BRANCH  34  37
ATOM     37  C   UNL A   1      33.697  30.803  27.617  1.00  0.00     0.039 A 
ATOM     38  C   UNL A   1      34.007  32.151  27.829  1.00  0.00     0.014 A 
ATOM     39  C   UNL A   1      34.427  29.804  28.254  1.00  0.00     0.014 A 
ATOM     40  C   UNL A   1      35.194  32.485  28.475  1.00  0.00     0.010 A 
ATOM     41  C   UNL A   1      35.648  30.127  28.817  1.00  0.00     0.010 A 
ATOM     42  C   UNL A   1      36.061  31.461  28.864  1.00  0.00    -0.014 A 
BRANCH  42  43
ATOM     43  C   UNL A   1      37.471  31.703  29.156  1.00  0.00     0.031 A 
ATOM     44  C   UNL A   1      38.501  30.689  28.865  1.00  0.00     0.074 A 
ATOM     45  C   UNL A   1      37.845  32.872  29.721  1.00  0.00     0.049 A 
ATOM     46  N   UNL A   1      39.571  30.529  29.569  1.00  0.00    -0.248 NA
ATOM     47  C   UNL A   1      38.390  29.747  27.756  1.00  0.00     0.031 C 
ATOM     48  C   UNL A   1      39.204  33.364  29.932  1.00  0.00     0.029 A 
ATOM     49  N   UNL A   1      37.047  33.748  30.445  1.00  0.00    -0.354 N 
ATOM     50  C   UNL A   1      40.402  29.688  28.871  1.00  0.00     0.074 A 
ATOM     51  C   UNL A   1      39.597  29.174  27.784  1.00  0.00     0.031 C 
ATOM     52  C   UNL A   1      39.184  34.280  30.914  1.00  0.00     0.029 A 
ATOM     53  C   UNL A   1      37.835  34.320  31.453  1.00  0.00     0.049 A 
ATOM     54  H   UNL A   1      36.095  33.934  30.280  1.00  0.00     0.167 HD
ATOM     55  C   UNL A   1      41.725  29.617  29.183  1.00  0.00     0.034 A 
ATOM     56  C   UNL A   1      37.502  34.175  32.768  1.00  0.00     0.034 A 
ATOM     57  C   UNL A   1      42.080  30.492  30.295  1.00  0.00     0.049 A 
ATOM     58  C   UNL A   1      38.541  33.425  33.575  1.00  0.00     0.074 A 
ATOM     59  C   UNL A   1      42.651  31.752  30.353  1.00  0.00     0.029 A 
ATOM     60  N   UNL A   1      41.585  30.226  31.567  1.00  0.00    -0.354 N 
ATOM     61  N   UNL A   1      39.537  32.761  33.055  1.00  0.00    -0.248 NA
ATOM     62  C   UNL A   1      38.521  33.339  35.034  1.00  0.00     0.031 C 
ATOM     63  C   UNL A   1      42.428  32.277  31.652  1.00  0.00     0.029 A 
ATOM     64  C   UNL A   1      41.754  31.322  32.393  1.00  0.00     0.049 A 
ATOM     65  H   UNL A   1      41.172  29.376  31.841  1.00  0.00     0.167 HD
ATOM     66  C   UNL A   1      40.242  32.131  34.049  1.00  0.00     0.074 A 
ATOM     67  C   UNL A   1      39.589  32.559  35.274  1.00  0.00     0.031 C 
ATOM     68  C   UNL A   1      41.287  31.291  33.772  1.00  0.00     0.034 A 
BRANCH  55  69
ATOM     69  C   UNL A   1      42.729  28.997  28.248  1.00  0.00     0.023 A 
ATOM     70  C   UNL A   1      43.794  29.774  27.752  1.00  0.00     0.031 A 
ATOM     71  C   UNL A   1      42.658  27.673  27.776  1.00  0.00     0.131 A 
ATOM     72  C   UNL A   1      44.660  29.278  26.763  1.00  0.00     0.055 A 
ATOM     73  C   UNL A   1      43.490  27.193  26.755  1.00  0.00     0.041 A 
ATOM     74  F   UNL A   1      41.785  26.797  28.297  1.00  0.00    -0.206 F 
ATOM     75  C   UNL A   1      44.489  28.003  26.231  1.00  0.00     0.022 A 
BRANCH  72  76
ATOM     76  S   UNL A   1      46.003  30.343  26.171  1.00  0.00     0.124 S 
ATOM     77  O   UNL A   1      46.849  30.458  27.355  1.00  0.00    -0.237 OA
ATOM     78  O   UNL A   1      46.547  29.563  25.065  1.00  0.00    -0.237 OA
ATOM     79  O   UNL A   1      45.314  31.572  25.781  1.00  0.00    -0.744 OA
ENDBRANCH  72  76
ENDBRANCH  55  69
BRANCH  56  80
ATOM     80  C   UNL A   1      36.027  34.141  32.996  1.00  0.00     0.023 A 
ATOM     81  C   UNL A   1      35.355  35.383  33.040  1.00  0.00     0.031 A 
ATOM     82  C   UNL A   1      35.259  32.990  32.779  1.00  0.00     0.131 A 
ATOM     83  C   UNL A   1      33.999  35.468  32.698  1.00  0.00     0.055 A 
ATOM     84  C   UNL A   1      33.885  33.073  32.512  1.00  0.00     0.041 A 
ATOM     85  F   UNL A   1      35.841  31.785  32.694  1.00  0.00    -0.206 F 
ATOM     86  C   UNL A   1      33.260  34.318  32.424  1.00  0.00     0.022 A 
BRANCH  83  87
ATOM     87  S   UNL A   1      33.290  37.104  32.335  1.00  0.00     0.124 S 
ATOM     88  O   UNL A   1      34.249  38.000  32.969  1.00  0.00    -0.237 OA
ATOM     89  O   UNL A   1      33.264  37.129  30.874  1.00  0.00    -0.237 OA
ATOM     90  O   UNL A   1      31.968  37.048  32.956  1.00  0.00    -0.744 OA
ENDBRANCH  83  87
ENDBRANCH  56  80
BRANCH  68  91
ATOM     91  C   UNL A   1      42.016  30.423  34.776  1.00  0.00     0.023 A 
ATOM     92  C   UNL A   1      41.738  29.062  34.969  1.00  0.00     0.031 A 
ATOM     93  C   UNL A   1      43.092  30.942  35.540  1.00  0.00     0.131 A 
ATOM     94  C   UNL A   1      42.431  28.306  35.934  1.00  0.00     0.055 A 
ATOM     95  C   UNL A   1      43.836  30.168  36.435  1.00  0.00     0.041 A 
ATOM     96  F   UNL A   1      43.470  32.226  35.445  1.00  0.00    -0.206 F 
ATOM     97  C   UNL A   1      43.495  28.843  36.653  1.00  0.00     0.022 A 
BRANCH  94  98
ATOM     98  S   UNL A   1      41.855  26.624  36.281  1.00  0.00     0.124 S 
ATOM     99  O   UNL A   1      43.115  25.893  36.389  1.00  0.00    -0.237 OA
ATOM    100  O   UNL A   1      41.114  26.798  37.526  1.00  0.00    -0.237 OA
ATOM    101  O   UNL A   1      41.042  26.290  35.114  1.00  0.00    -0.744 OA
ENDBRANCH  94  98
ENDBRANCH  68  91
ENDBRANCH  42  43
ENDBRANCH  34  37
ENDBRANCH  32  33
ENDBRANCH  31  32
ENDBRANCH  30  31
ENDBRANCH  29  30
ENDBRANCH   1  29
TORSDOF 21
ENDMDL
MODEL 3
REMARK VINA RESULT:     -11.7      1.499      1.989
REMARK SMILES Cc1cc(S(=O)(=O)Nc2ccc(Cl)cc2F)ccc1OCC(=O)NCCCCCCNC(=O)c1ccc(-c2c3nc(c(-c4cc(S(=O)(=O)[O-])ccc4F)c4ccc([nH]4)c(-c4cc(S(=O)(=O)[O-])ccc4F)c4nc(c(-c5cc(S(=O)(=O)[O-])ccc5F)c5ccc2[nH]5)C=C4)C=C3)cc1
REMARK SMILES IDX 26 1 25 2 24 3 22 4 23 5 21 7 20 8 19 9 1 10 2 11 3 12 4 13
REMARK SMILES IDX 18 14 17 15 5 16 6 17 7 18 8 19 9 21 10 22 15 23 11 24 14 25
REMARK SMILES IDX 16 26 12 27 13 28 27 29 28 30 29 31 30 32 31 33 32 34 33 36
REMARK SMILES IDX 34 37 35 38 96 39 36 40 95 41 37 42 38 43 39 44 89 45 40 46
REMARK SMILES IDX 94 47 88 48 90 49 41 50 93 51 87 52 86 53 42 55 74 56 54 57
REMARK SMILES IDX 73 58 55 59 58 60 72 61 91 62 56 63 57 64 71 66 92 67 59 68
REMARK SMILES IDX 43 69 44 70 52 71 45 72 51 73 53 74 50 75 46 76 47 77 48 78
REMARK SMILES IDX 49 79 75 80 76 81 84 82 77 83 83 84 85 85 82 86 78 87 79 88
REMARK SMILES IDX 80 89 81 90 60 91 61 92 69 93 62 94 68 95 70 96 67 97 63 98
REMARK SMILES IDX 64 99 65 100 66 101
REMARK H PARENT 24 6 8 20 31 35 90 54 58 65
REMARK Flexibility Score: inf
ROOT
ATOM      1  C   UNL A   1      36.931  20.270  24.586  1.00  0.00     0.021 C 
ENDROOT
BRANCH   1   2
ATOM      2  C   UNL A   1      35.549  20.025  25.185  1.00  0.00     0.116 C 
BRANCH   2   3
ATOM      3  N   UNL A   1      34.967  18.761  24.779  1.00  0.00    -0.353 N 
ATOM      4  C   UNL A   1      33.763  18.540  24.176  1.00  0.00     0.257 C 
ATOM      5  O   UNL A   1      33.527  17.435  23.683  1.00  0.00    -0.271 OA
ATOM      6  H   UNL A   1      35.510  17.960  24.960  1.00  0.00     0.163 HD
BRANCH   4   7
ATOM      7  C   UNL A   1      32.765  19.691  24.059  1.00  0.00     0.329 C 
BRANCH   7   8
ATOM      8  O   UNL A   1      32.257  20.274  25.239  1.00  0.00    -0.484 OA
BRANCH   8   9
ATOM      9  C   UNL A   1      32.268  21.625  25.431  1.00  0.00     0.123 A 
ATOM     10  C   UNL A   1      33.729  21.828  27.551  1.00  0.00     0.048 C 
ATOM     11  C   UNL A   1      32.808  22.360  26.494  1.00  0.00    -0.008 A 
ATOM     12  C   UNL A   1      32.475  23.730  26.592  1.00  0.00     0.029 A 
ATOM     13  C   UNL A   1      31.661  24.363  25.644  1.00  0.00     0.088 A 
ATOM     14  C   UNL A   1      31.518  22.291  24.448  1.00  0.00     0.048 A 
ATOM     15  C   UNL A   1      31.260  23.661  24.519  1.00  0.00     0.026 A 
BRANCH  13  16
ATOM     16  S   UNL A   1      31.076  25.997  26.054  1.00  0.00     0.262 S 
ATOM     17  O   UNL A   1      29.662  25.887  26.347  1.00  0.00    -0.201 OA
ATOM     18  O   UNL A   1      31.985  26.507  27.061  1.00  0.00    -0.201 OA
BRANCH  16  19
ATOM     19  N   UNL A   1      31.279  27.007  24.736  1.00  0.00    -0.277 N 
ATOM     20  H   UNL A   1      32.158  26.994  24.293  1.00  0.00     0.180 HD
BRANCH  19  21
ATOM     21  C   UNL A   1      30.296  27.889  24.193  1.00  0.00     0.085 A 
ATOM     22  C   UNL A   1      30.603  29.254  24.251  1.00  0.00     0.031 A 
ATOM     23  C   UNL A   1      29.117  27.496  23.548  1.00  0.00     0.148 A 
ATOM     24  C   UNL A   1      29.820  30.189  23.566  1.00  0.00     0.023 A 
ATOM     25  C   UNL A   1      28.337  28.421  22.854  1.00  0.00     0.062 A 
ATOM     26  F   UNL A   1      28.747  26.211  23.488  1.00  0.00    -0.205 F 
ATOM     27  C   UNL A   1      28.709  29.762  22.843  1.00  0.00     0.044 A 
ATOM     28  Cl  UNL A   1      27.815  30.885  21.897  1.00  0.00    -0.084 Cl
ENDBRANCH  19  21
ENDBRANCH  16  19
ENDBRANCH  13  16
ENDBRANCH   8   9
ENDBRANCH   7   8
ENDBRANCH   4   7
ENDBRANCH   2   3
ENDBRANCH   1   2
BRANCH   1  29
ATOM     29  C   UNL A   1      37.194  21.683  24.055  1.00  0.00     0.002 C 
BRANCH  29  30
ATOM     30  C   UNL A   1      36.576  22.851  24.839  1.00  0.00     0.002 C 
BRANCH  30  31
ATOM     31  C   UNL A   1      37.549  23.825  25.500  1.00  0.00     0.021 C 
BRANCH  31  32
ATOM     32  C   UNL A   1      38.386  23.224  26.623  1.00  0.00     0.116 C 
BRANCH  32  33
ATOM     33  N   UNL A   1      39.823  23.361  26.435  1.00  0.00    -0.352 N 
ATOM     34  C   UNL A   1      40.618  24.484  26.603  1.00  0.00     0.251 C 
ATOM     35  H   UNL A   1      40.294  22.545  26.150  1.00  0.00     0.163 HD
ATOM     36  O   UNL A   1      41.810  24.468  26.354  1.00  0.00    -0.269 OA
BRANCH  34  37
ATOM     37  C   UNL A   1      40.016  25.684  27.242  1.00  0.00     0.039 A 
ATOM     38  C   UNL A   1      40.206  26.909  26.591  1.00  0.00     0.014 A 
ATOM     39  C   UNL A   1      39.510  25.647  28.538  1.00  0.00     0.014 A 
ATOM     40  C   UNL A   1      40.126  28.090  27.322  1.00  0.00     0.010 A 
ATOM     41  C   UNL A   1      39.515  26.808  29.289  1.00  0.00     0.010 A 
ATOM     42  C   UNL A   1      39.891  28.018  28.698  1.00  0.00    -0.014 A 
BRANCH  42  43
ATOM     43  C   UNL A   1      40.195  29.124  29.600  1.00  0.00     0.031 A 
ATOM     44  C   UNL A   1      39.184  30.142  29.936  1.00  0.00     0.074 A 
ATOM     45  C   UNL A   1      41.434  29.232  30.129  1.00  0.00     0.049 A 
ATOM     46  N   UNL A   1      39.464  31.378  30.184  1.00  0.00    -0.248 NA
ATOM     47  C   UNL A   1      37.756  29.848  29.995  1.00  0.00     0.031 C 
ATOM     48  C   UNL A   1      41.880  30.156  31.168  1.00  0.00     0.029 A 
ATOM     49  N   UNL A   1      42.607  28.672  29.642  1.00  0.00    -0.354 N 
ATOM     50  C   UNL A   1      38.332  31.962  30.696  1.00  0.00     0.074 A 
ATOM     51  C   UNL A   1      37.279  30.991  30.497  1.00  0.00     0.031 C 
ATOM     52  C   UNL A   1      43.212  30.296  31.079  1.00  0.00     0.029 A 
ATOM     53  C   UNL A   1      43.655  29.565  29.904  1.00  0.00     0.049 A 
ATOM     54  H   UNL A   1      42.689  27.801  29.191  1.00  0.00     0.167 HD
ATOM     55  C   UNL A   1      38.415  33.141  31.373  1.00  0.00     0.034 A 
ATOM     56  C   UNL A   1      44.407  30.078  28.887  1.00  0.00     0.034 A 
ATOM     57  C   UNL A   1      39.782  33.646  31.441  1.00  0.00     0.049 A 
ATOM     58  C   UNL A   1      44.304  31.584  28.760  1.00  0.00     0.074 A 
ATOM     59  C   UNL A   1      40.754  33.593  32.426  1.00  0.00     0.029 A 
ATOM     60  N   UNL A   1      40.422  34.064  30.279  1.00  0.00    -0.354 N 
ATOM     61  N   UNL A   1      43.414  32.314  29.375  1.00  0.00    -0.248 NA
ATOM     62  C   UNL A   1      45.178  32.382  27.903  1.00  0.00     0.031 C 
ATOM     63  C   UNL A   1      42.002  33.909  31.829  1.00  0.00     0.029 A 
ATOM     64  C   UNL A   1      41.782  34.189  30.492  1.00  0.00     0.049 A 
ATOM     65  H   UNL A   1      39.969  34.246  29.425  1.00  0.00     0.167 HD
ATOM     66  C   UNL A   1      43.538  33.623  28.983  1.00  0.00     0.074 A 
ATOM     67  C   UNL A   1      44.686  33.618  28.092  1.00  0.00     0.031 C 
ATOM     68  C   UNL A   1      42.669  34.590  29.408  1.00  0.00     0.034 A 
BRANCH  55  69
ATOM     69  C   UNL A   1      37.291  33.637  32.242  1.00  0.00     0.023 A 
ATOM     70  C   UNL A   1      36.163  34.237  31.650  1.00  0.00     0.031 A 
ATOM     71  C   UNL A   1      37.299  33.590  33.649  1.00  0.00     0.131 A 
ATOM     72  C   UNL A   1      35.166  34.846  32.431  1.00  0.00     0.055 A 
ATOM     73  C   UNL A   1      36.332  34.239  34.429  1.00  0.00     0.041 A 
ATOM     74  F   UNL A   1      38.241  32.905  34.315  1.00  0.00    -0.206 F 
ATOM     75  C   UNL A   1      35.265  34.886  33.819  1.00  0.00     0.022 A 
BRANCH  72  76
ATOM     76  S   UNL A   1      33.748  35.605  31.593  1.00  0.00     0.124 S 
ATOM     77  O   UNL A   1      33.930  37.020  31.901  1.00  0.00    -0.237 OA
ATOM     78  O   UNL A   1      33.967  35.215  30.205  1.00  0.00    -0.237 OA
ATOM     79  O   UNL A   1      32.597  34.974  32.238  1.00  0.00    -0.744 OA
ENDBRANCH  72  76
ENDBRANCH  55  69
BRANCH  56  80
ATOM     80  C   UNL A   1      44.599  29.117  27.761  1.00  0.00     0.023 A 
ATOM     81  C   UNL A   1      45.513  28.061  27.967  1.00  0.00     0.031 A 
ATOM     82  C   UNL A   1      43.672  28.986  26.719  1.00  0.00     0.131 A 
ATOM     83  C   UNL A   1      45.373  26.854  27.268  1.00  0.00     0.055 A 
ATOM     84  C   UNL A   1      43.585  27.804  25.969  1.00  0.00     0.041 A 
ATOM     85  F   UNL A   1      42.756  29.939  26.492  1.00  0.00    -0.206 F 
ATOM     86  C   UNL A   1      44.405  26.715  26.274  1.00  0.00     0.022 A 
BRANCH  83  87
ATOM     87  S   UNL A   1      46.268  25.388  27.866  1.00  0.00     0.124 S 
ATOM     88  O   UNL A   1      45.745  24.336  27.002  1.00  0.00    -0.237 OA
ATOM     89  O   UNL A   1      47.667  25.752  27.652  1.00  0.00    -0.237 OA
ATOM     90  O   UNL A   1      45.882  25.303  29.273  1.00  0.00    -0.744 OA
ENDBRANCH  83  87
ENDBRANCH  56  80
BRANCH  68  91
ATOM     91  C   UNL A   1      42.617  36.018  28.907  1.00  0.00     0.023 A 
ATOM     92  C   UNL A   1      43.201  37.098  29.585  1.00  0.00     0.031 A 
ATOM     93  C   UNL A   1      42.020  36.329  27.660  1.00  0.00     0.131 A 
ATOM     94  C   UNL A   1      43.103  38.411  29.085  1.00  0.00     0.055 A 
ATOM     95  C   UNL A   1      41.999  37.621  27.124  1.00  0.00     0.041 A 
ATOM     96  F   UNL A   1      41.434  35.388  26.903  1.00  0.00    -0.206 F 
ATOM     97  C   UNL A   1      42.526  38.678  27.846  1.00  0.00     0.022 A 
BRANCH  94  98
ATOM     98  S   UNL A   1      43.680  39.773  30.132  1.00  0.00     0.124 S 
ATOM     99  O   UNL A   1      44.886  40.201  29.428  1.00  0.00    -0.237 OA
ATOM    100  O   UNL A   1      42.555  40.700  30.087  1.00  0.00    -0.237 OA
ATOM    101  O   UNL A   1      43.911  39.137  31.427  1.00  0.00    -0.744 OA
ENDBRANCH  94  98
ENDBRANCH  68  91
ENDBRANCH  42  43
ENDBRANCH  34  37
ENDBRANCH  32  33
ENDBRANCH  31  32
ENDBRANCH  30  31
ENDBRANCH  29  30
ENDBRANCH   1  29
TORSDOF 21
ENDMDL
