MODEL 1
REMARK VINA RESULT:     -13.0      0.000      0.000
REMARK SMILES O=C(N/N=C\c1ccccc1C(=O)NCCCCCCNC(=O)c1ccc(-c2c3nc(c(-c4cc(S(=O)(=O)[O-])ccc4F)c4ccc([nH]4)c(-c4cc(S(=O)(=O)[O-])ccc4F)c4nc(c(-c5cc(S(=O)(=O)[O-])ccc5F)c5ccc2[nH]5)C=C4)C=C3)cc1)C(=O)N1CCCCC1
REMARK SMILES IDX 17 1 16 2 15 3 14 4 12 5 13 6 11 8 6 9 7 10 8 11 10 12 9 13
REMARK SMILES IDX 5 14 4 15 3 16 1 17 2 18 87 20 88 21 89 22 90 23 94 24 91 25
REMARK SMILES IDX 93 26 92 27 18 28 19 29 20 30 21 31 22 32 23 34 24 35 25 36
REMARK SMILES IDX 86 37 26 38 85 39 27 40 28 41 29 42 79 43 30 44 84 45 78 46
REMARK SMILES IDX 80 47 31 48 83 49 77 50 76 51 32 53 64 54 44 55 63 56 45 57
REMARK SMILES IDX 48 58 62 59 81 60 46 61 47 62 61 64 82 65 49 66 33 67 34 68
REMARK SMILES IDX 42 69 35 70 41 71 43 72 40 73 36 74 37 75 38 76 39 77 65 78
REMARK SMILES IDX 66 79 74 80 67 81 73 82 75 83 72 84 68 85 69 86 70 87 71 88
REMARK SMILES IDX 50 89 51 90 59 91 52 92 58 93 60 94 57 95 53 96 54 97 55 98
REMARK SMILES IDX 56 99
REMARK H PARENT 14 7 3 19 21 33 80 52 48 63
REMARK Flexibility Score: inf
ROOT
ATOM      1  C   UNL A   1      32.713  29.431  27.001  1.00  0.00     0.002 C 
ENDROOT
BRANCH   1   2
ATOM      2  C   UNL A   1      33.858  28.712  26.303  1.00  0.00     0.021 C 
BRANCH   2   3
ATOM      3  C   UNL A   1      33.458  27.365  25.749  1.00  0.00     0.116 C 
BRANCH   3   4
ATOM      4  N   UNL A   1      32.546  26.641  26.567  1.00  0.00    -0.352 N 
ATOM      5  C   UNL A   1      32.261  25.314  26.513  1.00  0.00     0.251 C 
ATOM      6  O   UNL A   1      31.368  24.889  27.245  1.00  0.00    -0.269 OA
ATOM      7  H   UNL A   1      32.066  27.161  27.251  1.00  0.00     0.163 HD
BRANCH   5   8
ATOM      8  C   UNL A   1      32.964  24.354  25.622  1.00  0.00     0.048 A 
ATOM      9  C   UNL A   1      32.303  23.442  24.195  1.00  0.00     0.007 A 
ATOM     10  C   UNL A   1      33.434  22.800  22.869  1.00  0.00     0.010 A 
ATOM     11  C   UNL A   1      35.215  22.959  23.077  1.00  0.00     0.001 A 
ATOM     12  C   UNL A   1      34.757  24.542  25.769  1.00  0.00     0.014 A 
ATOM     13  C   UNL A   1      35.888  23.797  24.522  1.00  0.00     0.001 A 
BRANCH   9  14
ATOM     14  C   UNL A   1      30.938  23.344  23.771  1.00  0.00     0.142 C 
ATOM     15  N   UNL A   1      30.495  24.266  23.010  1.00  0.00    -0.180 NA
BRANCH  15  16
ATOM     16  N   UNL A   1      31.400  25.229  22.709  1.00  0.00    -0.239 N 
ATOM     17  O   UNL A   1      32.573  27.038  22.447  1.00  0.00    -0.262 OA
ATOM     18  C   UNL A   1      31.506  26.618  22.933  1.00  0.00     0.329 C 
ATOM     19  H   UNL A   1      32.171  24.872  22.210  1.00  0.00     0.194 HD
BRANCH  18  20
ATOM     20  C   UNL A   1      30.408  27.821  23.600  1.00  0.00     0.313 C 
ATOM     21  O   UNL A   1      30.184  27.152  24.678  1.00  0.00    -0.263 OA
ATOM     22  N   UNL A   1      29.742  29.619  23.025  1.00  0.00    -0.334 N 
ATOM     23  C   UNL A   1      29.008  30.916  23.871  1.00  0.00     0.120 C 
ATOM     24  C   UNL A   1      29.776  30.450  21.513  1.00  0.00     0.120 C 
ATOM     25  C   UNL A   1      27.650  31.354  23.299  1.00  0.00     0.022 C 
ATOM     26  C   UNL A   1      28.376  30.806  21.005  1.00  0.00     0.022 C 
ATOM     27  C   UNL A   1      27.735  31.859  21.877  1.00  0.00     0.004 C 
ENDBRANCH  18  20
ENDBRANCH  15  16
ENDBRANCH   9  14
ENDBRANCH   5   8
ENDBRANCH   3   4
ENDBRANCH   2   3
ENDBRANCH   1   2
BRANCH   1  28
ATOM     28  C   UNL A   1      31.807  30.268  26.084  1.00  0.00     0.002 C 
BRANCH  28  29
ATOM     29  C   UNL A   1      31.624  31.730  26.498  1.00  0.00     0.021 C 
BRANCH  29  30
ATOM     30  C   UNL A   1      32.749  32.274  27.369  1.00  0.00     0.116 C 
BRANCH  30  31
ATOM     31  N   UNL A   1      32.612  33.706  27.586  1.00  0.00    -0.352 N 
ATOM     32  C   UNL A   1      33.166  34.501  28.551  1.00  0.00     0.251 C 
ATOM     33  H   UNL A   1      32.033  34.174  26.942  1.00  0.00     0.163 HD
ATOM     34  O   UNL A   1      32.722  35.626  28.751  1.00  0.00    -0.269 OA
BRANCH  32  35
ATOM     35  C   UNL A   1      34.293  33.977  29.338  1.00  0.00     0.039 A 
ATOM     36  C   UNL A   1      34.043  33.065  30.363  1.00  0.00     0.014 A 
ATOM     37  C   UNL A   1      35.596  34.388  29.045  1.00  0.00     0.014 A 
ATOM     38  C   UNL A   1      35.116  32.527  31.069  1.00  0.00     0.010 A 
ATOM     39  C   UNL A   1      36.665  33.779  29.681  1.00  0.00     0.010 A 
ATOM     40  C   UNL A   1      36.434  32.857  30.712  1.00  0.00    -0.014 A 
BRANCH  40  41
ATOM     41  C   UNL A   1      37.594  32.278  31.426  1.00  0.00     0.031 A 
ATOM     42  C   UNL A   1      38.357  31.144  30.802  1.00  0.00     0.074 A 
ATOM     43  C   UNL A   1      37.915  32.731  32.652  1.00  0.00     0.049 A 
ATOM     44  N   UNL A   1      39.339  30.437  31.294  1.00  0.00    -0.248 NA
ATOM     45  C   UNL A   1      37.931  30.729  29.455  1.00  0.00     0.031 C 
ATOM     46  C   UNL A   1      37.226  33.811  33.362  1.00  0.00     0.029 A 
ATOM     47  N   UNL A   1      38.902  32.341  33.519  1.00  0.00    -0.354 N 
ATOM     48  C   UNL A   1      39.644  29.489  30.323  1.00  0.00     0.074 A 
ATOM     49  C   UNL A   1      38.683  29.659  29.255  1.00  0.00     0.031 C 
ATOM     50  C   UNL A   1      37.838  34.024  34.537  1.00  0.00     0.029 A 
ATOM     51  C   UNL A   1      38.921  33.058  34.692  1.00  0.00     0.049 A 
ATOM     52  H   UNL A   1      39.538  31.615  33.321  1.00  0.00     0.167 HD
ATOM     53  C   UNL A   1      40.653  28.584  30.310  1.00  0.00     0.034 A 
ATOM     54  C   UNL A   1      39.718  32.942  35.772  1.00  0.00     0.034 A 
ATOM     55  C   UNL A   1      41.598  28.435  31.389  1.00  0.00     0.049 A 
ATOM     56  C   UNL A   1      40.790  31.881  35.766  1.00  0.00     0.074 A 
ATOM     57  C   UNL A   1      42.676  27.574  31.477  1.00  0.00     0.029 A 
ATOM     58  N   UNL A   1      41.569  29.160  32.576  1.00  0.00    -0.354 N 
ATOM     59  N   UNL A   1      41.088  31.010  34.828  1.00  0.00    -0.248 NA
ATOM     60  C   UNL A   1      41.636  31.791  36.962  1.00  0.00     0.031 C 
ATOM     61  C   UNL A   1      43.248  27.718  32.746  1.00  0.00     0.029 A 
ATOM     62  C   UNL A   1      42.589  28.739  33.414  1.00  0.00     0.049 A 
ATOM     63  H   UNL A   1      40.921  29.869  32.788  1.00  0.00     0.167 HD
ATOM     64  C   UNL A   1      42.188  30.300  35.306  1.00  0.00     0.074 A 
ATOM     65  C   UNL A   1      42.499  30.849  36.610  1.00  0.00     0.031 C 
ATOM     66  C   UNL A   1      42.882  29.294  34.716  1.00  0.00     0.034 A 
BRANCH  53  67
ATOM     67  C   UNL A   1      40.756  27.680  29.105  1.00  0.00     0.023 A 
ATOM     68  C   UNL A   1      41.705  27.909  28.091  1.00  0.00     0.031 A 
ATOM     69  C   UNL A   1      39.863  26.608  28.934  1.00  0.00     0.131 A 
ATOM     70  C   UNL A   1      41.675  27.144  26.916  1.00  0.00     0.055 A 
ATOM     71  C   UNL A   1      39.905  25.785  27.806  1.00  0.00     0.041 A 
ATOM     72  F   UNL A   1      38.917  26.353  29.851  1.00  0.00    -0.206 F 
ATOM     73  C   UNL A   1      40.800  26.065  26.779  1.00  0.00     0.022 A 
BRANCH  70  74
ATOM     74  S   UNL A   1      42.660  27.704  25.499  1.00  0.00     0.124 S 
ATOM     75  O   UNL A   1      43.936  28.022  26.137  1.00  0.00    -0.237 OA
ATOM     76  O   UNL A   1      42.655  26.533  24.630  1.00  0.00    -0.237 OA
ATOM     77  O   UNL A   1      41.918  28.858  25.000  1.00  0.00    -0.744 OA
ENDBRANCH  70  74
ENDBRANCH  53  67
BRANCH  54  78
ATOM     78  C   UNL A   1      39.542  33.847  36.943  1.00  0.00     0.023 A 
ATOM     79  C   UNL A   1      39.008  33.365  38.148  1.00  0.00     0.031 A 
ATOM     80  C   UNL A   1      39.868  35.214  36.865  1.00  0.00     0.131 A 
ATOM     81  C   UNL A   1      38.764  34.251  39.208  1.00  0.00     0.055 A 
ATOM     82  C   UNL A   1      39.682  36.078  37.946  1.00  0.00     0.041 A 
ATOM     83  F   UNL A   1      40.385  35.726  35.737  1.00  0.00    -0.206 F 
ATOM     84  C   UNL A   1      39.112  35.600  39.121  1.00  0.00     0.022 A 
BRANCH  81  85
ATOM     85  S   UNL A   1      37.886  33.629  40.668  1.00  0.00     0.124 S 
ATOM     86  O   UNL A   1      36.692  33.047  40.068  1.00  0.00    -0.237 OA
ATOM     87  O   UNL A   1      38.852  32.688  41.224  1.00  0.00    -0.237 OA
ATOM     88  O   UNL A   1      37.662  34.833  41.466  1.00  0.00    -0.744 OA
ENDBRANCH  81  85
ENDBRANCH  54  78
BRANCH  66  89
ATOM     89  C   UNL A   1      44.088  28.762  35.455  1.00  0.00     0.023 A 
ATOM     90  C   UNL A   1      43.987  27.729  36.402  1.00  0.00     0.031 A 
ATOM     91  C   UNL A   1      45.362  29.301  35.199  1.00  0.00     0.131 A 
ATOM     92  C   UNL A   1      45.129  27.307  37.099  1.00  0.00     0.055 A 
ATOM     93  C   UNL A   1      46.505  28.828  35.843  1.00  0.00     0.041 A 
ATOM     94  F   UNL A   1      45.518  30.295  34.309  1.00  0.00    -0.206 F 
ATOM     95  C   UNL A   1      46.390  27.834  36.810  1.00  0.00     0.022 A 
BRANCH  92  96
ATOM     96  S   UNL A   1      44.929  26.130  38.465  1.00  0.00     0.124 S 
ATOM     97  O   UNL A   1      43.775  26.678  39.170  1.00  0.00    -0.237 OA
ATOM     98  O   UNL A   1      44.707  24.871  37.761  1.00  0.00    -0.237 OA
ATOM     99  O   UNL A   1      46.198  26.221  39.184  1.00  0.00    -0.744 OA
ENDBRANCH  92  96
ENDBRANCH  66  89
ENDBRANCH  40  41
ENDBRANCH  32  35
ENDBRANCH  30  31
ENDBRANCH  29  30
ENDBRANCH  28  29
ENDBRANCH   1  28
TORSDOF 19
ENDMDL
MODEL 2
REMARK VINA RESULT:     -12.7      6.236     11.602
REMARK SMILES O=C(N/N=C\c1ccccc1C(=O)NCCCCCCNC(=O)c1ccc(-c2c3nc(c(-c4cc(S(=O)(=O)[O-])ccc4F)c4ccc([nH]4)c(-c4cc(S(=O)(=O)[O-])ccc4F)c4nc(c(-c5cc(S(=O)(=O)[O-])ccc5F)c5ccc2[nH]5)C=C4)C=C3)cc1)C(=O)N1CCCCC1
REMARK SMILES IDX 17 1 16 2 15 3 14 4 12 5 13 6 11 8 6 9 7 10 8 11 10 12 9 13
REMARK SMILES IDX 5 14 4 15 3 16 1 17 2 18 87 20 88 21 89 22 90 23 94 24 91 25
REMARK SMILES IDX 93 26 92 27 18 28 19 29 20 30 21 31 22 32 23 34 24 35 25 36
REMARK SMILES IDX 86 37 26 38 85 39 27 40 28 41 29 42 79 43 30 44 84 45 78 46
REMARK SMILES IDX 80 47 31 48 83 49 77 50 76 51 32 53 64 54 44 55 63 56 45 57
REMARK SMILES IDX 48 58 62 59 81 60 46 61 47 62 61 64 82 65 49 66 33 67 34 68
REMARK SMILES IDX 42 69 35 70 41 71 43 72 40 73 36 74 37 75 38 76 39 77 65 78
REMARK SMILES IDX 66 79 74 80 67 81 73 82 75 83 72 84 68 85 69 86 70 87 71 88
REMARK SMILES IDX 50 89 51 90 59 91 52 92 58 93 60 94 57 95 53 96 54 97 55 98
REMARK SMILES IDX 56 99
REMARK H PARENT 14 7 3 19 21 33 80 52 48 63
REMARK Flexibility Score: inf
ROOT
ATOM      1  C   UNL A   1      36.942  22.259  24.571  1.00  0.00     0.002 C 
ENDROOT
BRANCH   1   2
ATOM      2  C   UNL A   1      36.535  23.276  25.626  1.00  0.00     0.021 C 
BRANCH   2   3
ATOM      3  C   UNL A   1      35.261  24.009  25.278  1.00  0.00     0.116 C 
BRANCH   3   4
ATOM      4  N   UNL A   1      35.089  24.259  23.887  1.00  0.00    -0.352 N 
ATOM      5  C   UNL A   1      34.118  25.001  23.294  1.00  0.00     0.251 C 
ATOM      6  O   UNL A   1      34.081  25.020  22.065  1.00  0.00    -0.269 OA
ATOM      7  H   UNL A   1      35.749  23.846  23.285  1.00  0.00     0.163 HD
BRANCH   5   8
ATOM      8  C   UNL A   1      33.104  25.786  24.046  1.00  0.00     0.048 A 
ATOM      9  C   UNL A   1      31.307  25.518  24.140  1.00  0.00     0.007 A 
ATOM     10  C   UNL A   1      30.321  26.178  25.568  1.00  0.00     0.010 A 
ATOM     11  C   UNL A   1      31.131  27.217  26.794  1.00  0.00     0.001 A 
ATOM     12  C   UNL A   1      33.893  26.789  25.328  1.00  0.00     0.014 A 
ATOM     13  C   UNL A   1      32.896  27.550  26.675  1.00  0.00     0.001 A 
BRANCH   9  14
ATOM     14  C   UNL A   1      30.514  24.609  23.367  1.00  0.00     0.142 C 
ATOM     15  N   UNL A   1      30.449  23.402  23.771  1.00  0.00    -0.180 NA
BRANCH  15  16
ATOM     16  N   UNL A   1      31.159  23.146  24.898  1.00  0.00    -0.239 N 
ATOM     17  O   UNL A   1      32.518  22.454  26.443  1.00  0.00    -0.262 OA
ATOM     18  C   UNL A   1      32.216  22.280  25.247  1.00  0.00     0.329 C 
ATOM     19  H   UNL A   1      30.865  23.701  25.657  1.00  0.00     0.194 HD
BRANCH  18  20
ATOM     20  C   UNL A   1      33.038  20.974  24.401  1.00  0.00     0.313 C 
ATOM     21  O   UNL A   1      33.353  21.705  23.389  1.00  0.00    -0.263 OA
ATOM     22  N   UNL A   1      33.450  19.055  24.797  1.00  0.00    -0.334 N 
ATOM     23  C   UNL A   1      34.582  17.947  24.143  1.00  0.00     0.120 C 
ATOM     24  C   UNL A   1      32.847  17.948  25.975  1.00  0.00     0.120 C 
ATOM     25  C   UNL A   1      33.958  16.649  23.608  1.00  0.00     0.022 C 
ATOM     26  C   UNL A   1      32.206  16.708  25.345  1.00  0.00     0.022 C 
ATOM     27  C   UNL A   1      33.245  15.845  24.671  1.00  0.00     0.004 C 
ENDBRANCH  18  20
ENDBRANCH  15  16
ENDBRANCH   9  14
ENDBRANCH   5   8
ENDBRANCH   3   4
ENDBRANCH   2   3
ENDBRANCH   1   2
BRANCH   1  28
ATOM     28  C   UNL A   1      36.747  20.787  24.969  1.00  0.00     0.002 C 
BRANCH  28  29
ATOM     29  C   UNL A   1      38.012  19.926  24.946  1.00  0.00     0.021 C 
BRANCH  29  30
ATOM     30  C   UNL A   1      39.071  20.353  25.955  1.00  0.00     0.116 C 
BRANCH  30  31
ATOM     31  N   UNL A   1      40.146  19.376  26.046  1.00  0.00    -0.352 N 
ATOM     32  C   UNL A   1      41.499  19.567  26.089  1.00  0.00     0.251 C 
ATOM     33  H   UNL A   1      39.855  18.436  26.080  1.00  0.00     0.163 HD
ATOM     34  O   UNL A   1      42.260  18.629  25.882  1.00  0.00    -0.269 OA
BRANCH  32  35
ATOM     35  C   UNL A   1      42.014  20.914  26.382  1.00  0.00     0.039 A 
ATOM     36  C   UNL A   1      42.218  21.809  25.333  1.00  0.00     0.014 A 
ATOM     37  C   UNL A   1      42.282  21.283  27.703  1.00  0.00     0.014 A 
ATOM     38  C   UNL A   1      42.650  23.102  25.618  1.00  0.00     0.010 A 
ATOM     39  C   UNL A   1      42.618  22.595  27.992  1.00  0.00     0.010 A 
ATOM     40  C   UNL A   1      42.823  23.511  26.951  1.00  0.00    -0.014 A 
BRANCH  40  41
ATOM     41  C   UNL A   1      43.255  24.887  27.284  1.00  0.00     0.031 A 
ATOM     42  C   UNL A   1      42.286  25.828  27.942  1.00  0.00     0.074 A 
ATOM     43  C   UNL A   1      44.489  25.300  26.940  1.00  0.00     0.049 A 
ATOM     44  N   UNL A   1      42.429  27.094  28.233  1.00  0.00    -0.248 NA
ATOM     45  C   UNL A   1      40.965  25.276  28.285  1.00  0.00     0.031 C 
ATOM     46  C   UNL A   1      45.502  24.477  26.276  1.00  0.00     0.029 A 
ATOM     47  N   UNL A   1      45.103  26.514  27.100  1.00  0.00    -0.354 N 
ATOM     48  C   UNL A   1      41.217  27.492  28.786  1.00  0.00     0.074 A 
ATOM     49  C   UNL A   1      40.325  26.356  28.706  1.00  0.00     0.031 C 
ATOM     50  C   UNL A   1      46.623  25.198  26.124  1.00  0.00     0.029 A 
ATOM     51  C   UNL A   1      46.391  26.550  26.622  1.00  0.00     0.049 A 
ATOM     52  H   UNL A   1      44.662  27.290  27.519  1.00  0.00     0.167 HD
ATOM     53  C   UNL A   1      40.890  28.686  29.340  1.00  0.00     0.034 A 
ATOM     54  C   UNL A   1      47.279  27.562  26.583  1.00  0.00     0.034 A 
ATOM     55  C   UNL A   1      41.797  29.803  29.407  1.00  0.00     0.049 A 
ATOM     56  C   UNL A   1      46.870  28.902  27.140  1.00  0.00     0.074 A 
ATOM     57  C   UNL A   1      41.589  31.051  29.967  1.00  0.00     0.029 A 
ATOM     58  N   UNL A   1      43.087  29.812  28.886  1.00  0.00    -0.354 N 
ATOM     59  N   UNL A   1      45.730  29.258  27.689  1.00  0.00    -0.248 NA
ATOM     60  C   UNL A   1      47.870  29.975  27.079  1.00  0.00     0.031 C 
ATOM     61  C   UNL A   1      42.716  31.838  29.711  1.00  0.00     0.029 A 
ATOM     62  C   UNL A   1      43.669  31.054  29.080  1.00  0.00     0.049 A 
ATOM     63  H   UNL A   1      43.522  29.048  28.444  1.00  0.00     0.167 HD
ATOM     64  C   UNL A   1      45.895  30.585  28.078  1.00  0.00     0.074 A 
ATOM     65  C   UNL A   1      47.244  30.961  27.706  1.00  0.00     0.031 C 
ATOM     66  C   UNL A   1      45.015  31.415  28.696  1.00  0.00     0.034 A 
BRANCH  53  67
ATOM     67  C   UNL A   1      39.488  28.835  29.883  1.00  0.00     0.023 A 
ATOM     68  C   UNL A   1      38.445  29.358  29.096  1.00  0.00     0.031 A 
ATOM     69  C   UNL A   1      39.197  28.505  31.218  1.00  0.00     0.131 A 
ATOM     70  C   UNL A   1      37.196  29.625  29.674  1.00  0.00     0.055 A 
ATOM     71  C   UNL A   1      37.921  28.677  31.759  1.00  0.00     0.041 A 
ATOM     72  F   UNL A   1      40.154  28.027  32.028  1.00  0.00    -0.206 F 
ATOM     73  C   UNL A   1      36.917  29.261  30.993  1.00  0.00     0.022 A 
BRANCH  70  74
ATOM     74  S   UNL A   1      36.010  30.627  28.737  1.00  0.00     0.124 S 
ATOM     75  O   UNL A   1      35.491  31.516  29.775  1.00  0.00    -0.237 OA
ATOM     76  O   UNL A   1      36.854  31.251  27.726  1.00  0.00    -0.237 OA
ATOM     77  O   UNL A   1      35.053  29.645  28.234  1.00  0.00    -0.744 OA
ENDBRANCH  70  74
ENDBRANCH  53  67
BRANCH  54  78
ATOM     78  C   UNL A   1      48.636  27.355  26.003  1.00  0.00     0.023 A 
ATOM     79  C   UNL A   1      48.871  27.561  24.635  1.00  0.00     0.031 A 
ATOM     80  C   UNL A   1      49.711  26.912  26.797  1.00  0.00     0.131 A 
ATOM     81  C   UNL A   1      50.131  27.272  24.090  1.00  0.00     0.055 A 
ATOM     82  C   UNL A   1      50.979  26.688  26.261  1.00  0.00     0.041 A 
ATOM     83  F   UNL A   1      49.542  26.702  28.112  1.00  0.00    -0.206 F 
ATOM     84  C   UNL A   1      51.192  26.853  24.897  1.00  0.00     0.022 A 
BRANCH  81  85
ATOM     85  S   UNL A   1      50.334  27.356  22.290  1.00  0.00     0.124 S 
ATOM     86  O   UNL A   1      51.714  26.915  22.129  1.00  0.00    -0.237 OA
ATOM     87  O   UNL A   1      49.304  26.434  21.826  1.00  0.00    -0.237 OA
ATOM     88  O   UNL A   1      50.089  28.766  21.988  1.00  0.00    -0.744 OA
ENDBRANCH  81  85
ENDBRANCH  54  78
BRANCH  66  89
ATOM     89  C   UNL A   1      45.509  32.794  29.063  1.00  0.00     0.023 A 
ATOM     90  C   UNL A   1      45.380  33.889  28.192  1.00  0.00     0.031 A 
ATOM     91  C   UNL A   1      46.116  33.013  30.313  1.00  0.00     0.131 A 
ATOM     92  C   UNL A   1      45.902  35.138  28.559  1.00  0.00     0.055 A 
ATOM     93  C   UNL A   1      46.569  34.274  30.702  1.00  0.00     0.041 A 
ATOM     94  F   UNL A   1      46.272  32.003  31.184  1.00  0.00    -0.206 F 
ATOM     95  C   UNL A   1      46.475  35.343  29.816  1.00  0.00     0.022 A 
BRANCH  92  96
ATOM     96  S   UNL A   1      45.914  36.471  27.328  1.00  0.00     0.124 S 
ATOM     97  O   UNL A   1      46.745  37.478  27.981  1.00  0.00    -0.237 OA
ATOM     98  O   UNL A   1      46.504  35.816  26.165  1.00  0.00    -0.237 OA
ATOM     99  O   UNL A   1      44.503  36.825  27.191  1.00  0.00    -0.744 OA
ENDBRANCH  92  96
ENDBRANCH  66  89
ENDBRANCH  40  41
ENDBRANCH  32  35
ENDBRANCH  30  31
ENDBRANCH  29  30
ENDBRANCH  28  29
ENDBRANCH   1  28
TORSDOF 19
ENDMDL
MODEL 3
REMARK VINA RESULT:     -12.7      1.692      7.571
REMARK SMILES O=C(N/N=C\c1ccccc1C(=O)NCCCCCCNC(=O)c1ccc(-c2c3nc(c(-c4cc(S(=O)(=O)[O-])ccc4F)c4ccc([nH]4)c(-c4cc(S(=O)(=O)[O-])ccc4F)c4nc(c(-c5cc(S(=O)(=O)[O-])ccc5F)c5ccc2[nH]5)C=C4)C=C3)cc1)C(=O)N1CCCCC1
REMARK SMILES IDX 17 1 16 2 15 3 14 4 12 5 13 6 11 8 6 9 7 10 8 11 10 12 9 13
REMARK SMILES IDX 5 14 4 15 3 16 1 17 2 18 87 20 88 21 89 22 90 23 94 24 91 25
REMARK SMILES IDX 93 26 92 27 18 28 19 29 20 30 21 31 22 32 23 34 24 35 25 36
REMARK SMILES IDX 86 37 26 38 85 39 27 40 28 41 29 42 79 43 30 44 84 45 78 46
REMARK SMILES IDX 80 47 31 48 83 49 77 50 76 51 32 53 64 54 44 55 63 56 45 57
REMARK SMILES IDX 48 58 62 59 81 60 46 61 47 62 61 64 82 65 49 66 33 67 34 68
REMARK SMILES IDX 42 69 35 70 41 71 43 72 40 73 36 74 37 75 38 76 39 77 65 78
REMARK SMILES IDX 66 79 74 80 67 81 73 82 75 83 72 84 68 85 69 86 70 87 71 88
REMARK SMILES IDX 50 89 51 90 59 91 52 92 58 93 60 94 57 95 53 96 54 97 55 98
REMARK SMILES IDX 56 99
REMARK H PARENT 14 7 3 19 21 33 80 52 48 63
REMARK Flexibility Score: inf
ROOT
ATOM      1  C   UNL A   1      32.494  29.432  26.793  1.00  0.00     0.002 C 
ENDROOT
BRANCH   1   2
ATOM      2  C   UNL A   1      33.766  28.823  26.226  1.00  0.00     0.021 C 
BRANCH   2   3
ATOM      3  C   UNL A   1      33.609  27.368  25.854  1.00  0.00     0.116 C 
BRANCH   3   4
ATOM      4  N   UNL A   1      32.630  26.670  26.615  1.00  0.00    -0.352 N 
ATOM      5  C   UNL A   1      32.275  25.363  26.508  1.00  0.00     0.251 C 
ATOM      6  O   UNL A   1      31.334  24.966  27.193  1.00  0.00    -0.269 OA
ATOM      7  H   UNL A   1      32.153  27.195  27.299  1.00  0.00     0.163 HD
BRANCH   5   8
ATOM      8  C   UNL A   1      32.958  24.394  25.611  1.00  0.00     0.048 A 
ATOM      9  C   UNL A   1      32.274  23.497  24.184  1.00  0.00     0.007 A 
ATOM     10  C   UNL A   1      33.390  22.840  22.852  1.00  0.00     0.010 A 
ATOM     11  C   UNL A   1      35.174  22.967  23.053  1.00  0.00     0.001 A 
ATOM     12  C   UNL A   1      34.754  24.550  25.751  1.00  0.00     0.014 A 
ATOM     13  C   UNL A   1      35.867  23.789  24.497  1.00  0.00     0.001 A 
BRANCH   9  14
ATOM     14  C   UNL A   1      30.906  23.424  23.766  1.00  0.00     0.142 C 
ATOM     15  N   UNL A   1      30.478  24.354  23.006  1.00  0.00    -0.180 NA
BRANCH  15  16
ATOM     16  N   UNL A   1      31.400  25.300  22.699  1.00  0.00    -0.239 N 
ATOM     17  O   UNL A   1      32.606  27.086  22.433  1.00  0.00    -0.262 OA
ATOM     18  C   UNL A   1      31.534  26.686  22.926  1.00  0.00     0.329 C 
ATOM     19  H   UNL A   1      32.161  24.929  22.196  1.00  0.00     0.194 HD
BRANCH  18  20
ATOM     20  C   UNL A   1      30.464  27.910  23.601  1.00  0.00     0.313 C 
ATOM     21  O   UNL A   1      30.321  27.295  24.723  1.00  0.00    -0.263 OA
ATOM     22  N   UNL A   1      29.734  29.667  22.979  1.00  0.00    -0.334 N 
ATOM     23  C   UNL A   1      29.037  30.997  23.804  1.00  0.00     0.120 C 
ATOM     24  C   UNL A   1      29.657  30.418  21.428  1.00  0.00     0.120 C 
ATOM     25  C   UNL A   1      27.639  31.389  23.301  1.00  0.00     0.022 C 
ATOM     26  C   UNL A   1      28.222  30.731  20.996  1.00  0.00     0.022 C 
ATOM     27  C   UNL A   1      27.623  31.820  21.853  1.00  0.00     0.004 C 
ENDBRANCH  18  20
ENDBRANCH  15  16
ENDBRANCH   9  14
ENDBRANCH   5   8
ENDBRANCH   3   4
ENDBRANCH   2   3
ENDBRANCH   1   2
BRANCH   1  28
ATOM     28  C   UNL A   1      31.747  30.390  25.850  1.00  0.00     0.002 C 
BRANCH  28  29
ATOM     29  C   UNL A   1      31.520  31.803  26.394  1.00  0.00     0.021 C 
BRANCH  29  30
ATOM     30  C   UNL A   1      32.422  32.169  27.565  1.00  0.00     0.116 C 
BRANCH  30  31
ATOM     31  N   UNL A   1      32.750  33.587  27.564  1.00  0.00    -0.352 N 
ATOM     32  C   UNL A   1      33.765  34.250  28.195  1.00  0.00     0.251 C 
ATOM     33  H   UNL A   1      32.149  34.155  27.029  1.00  0.00     0.163 HD
ATOM     34  O   UNL A   1      33.724  35.470  28.313  1.00  0.00    -0.269 OA
BRANCH  32  35
ATOM     35  C   UNL A   1      34.894  33.472  28.728  1.00  0.00     0.039 A 
ATOM     36  C   UNL A   1      36.197  33.911  28.492  1.00  0.00     0.014 A 
ATOM     37  C   UNL A   1      34.650  32.314  29.472  1.00  0.00     0.014 A 
ATOM     38  C   UNL A   1      37.261  33.205  29.046  1.00  0.00     0.010 A 
ATOM     39  C   UNL A   1      35.703  31.672  30.102  1.00  0.00     0.010 A 
ATOM     40  C   UNL A   1      37.019  32.100  29.880  1.00  0.00    -0.014 A 
BRANCH  40  41
ATOM     41  C   UNL A   1      38.131  31.348  30.505  1.00  0.00     0.031 A 
ATOM     42  C   UNL A   1      38.547  31.676  31.911  1.00  0.00     0.074 A 
ATOM     43  C   UNL A   1      38.795  30.423  29.789  1.00  0.00     0.049 A 
ATOM     44  N   UNL A   1      39.547  31.206  32.609  1.00  0.00    -0.248 NA
ATOM     45  C   UNL A   1      37.750  32.697  32.611  1.00  0.00     0.031 C 
ATOM     46  C   UNL A   1      38.491  30.043  28.407  1.00  0.00     0.029 A 
ATOM     47  N   UNL A   1      39.865  29.633  30.121  1.00  0.00    -0.354 N 
ATOM     48  C   UNL A   1      39.504  31.878  33.826  1.00  0.00     0.074 A 
ATOM     49  C   UNL A   1      38.435  32.848  33.733  1.00  0.00     0.031 C 
ATOM     50  C   UNL A   1      39.326  29.066  28.026  1.00  0.00     0.029 A 
ATOM     51  C   UNL A   1      40.264  28.791  29.110  1.00  0.00     0.049 A 
ATOM     52  H   UNL A   1      40.306  29.666  31.001  1.00  0.00     0.167 HD
ATOM     53  C   UNL A   1      40.266  31.680  34.930  1.00  0.00     0.034 A 
ATOM     54  C   UNL A   1      41.278  27.905  29.063  1.00  0.00     0.034 A 
ATOM     55  C   UNL A   1      41.326  30.706  34.997  1.00  0.00     0.049 A 
ATOM     56  C   UNL A   1      42.158  27.751  30.279  1.00  0.00     0.074 A 
ATOM     57  C   UNL A   1      42.146  30.397  36.067  1.00  0.00     0.029 A 
ATOM     58  N   UNL A   1      41.722  29.889  33.943  1.00  0.00    -0.354 N 
ATOM     59  N   UNL A   1      42.088  28.371  31.435  1.00  0.00    -0.248 NA
ATOM     60  C   UNL A   1      43.248  26.773  30.184  1.00  0.00     0.031 C 
ATOM     61  C   UNL A   1      43.089  29.456  35.637  1.00  0.00     0.029 A 
ATOM     62  C   UNL A   1      42.797  29.104  34.328  1.00  0.00     0.049 A 
ATOM     63  H   UNL A   1      41.301  29.871  33.054  1.00  0.00     0.167 HD
ATOM     64  C   UNL A   1      43.100  27.822  32.221  1.00  0.00     0.074 A 
ATOM     65  C   UNL A   1      43.758  26.821  31.406  1.00  0.00     0.031 C 
ATOM     66  C   UNL A   1      43.446  28.113  33.501  1.00  0.00     0.034 A 
BRANCH  53  67
ATOM     67  C   UNL A   1      39.986  32.555  36.129  1.00  0.00     0.023 A 
ATOM     68  C   UNL A   1      39.099  32.152  37.145  1.00  0.00     0.031 A 
ATOM     69  C   UNL A   1      40.567  33.830  36.237  1.00  0.00     0.131 A 
ATOM     70  C   UNL A   1      38.746  33.047  38.164  1.00  0.00     0.055 A 
ATOM     71  C   UNL A   1      40.289  34.679  37.312  1.00  0.00     0.041 A 
ATOM     72  F   UNL A   1      41.400  34.285  35.289  1.00  0.00    -0.206 F 
ATOM     73  C   UNL A   1      39.357  34.298  38.271  1.00  0.00     0.022 A 
BRANCH  70  74
ATOM     74  S   UNL A   1      37.339  32.627  39.229  1.00  0.00     0.124 S 
ATOM     75  O   UNL A   1      36.210  32.862  38.331  1.00  0.00    -0.237 OA
ATOM     76  O   UNL A   1      37.606  31.235  39.569  1.00  0.00    -0.237 OA
ATOM     77  O   UNL A   1      37.451  33.574  40.335  1.00  0.00    -0.744 OA
ENDBRANCH  70  74
ENDBRANCH  53  67
BRANCH  54  78
ATOM     78  C   UNL A   1      41.519  27.095  27.836  1.00  0.00     0.023 A 
ATOM     79  C   UNL A   1      41.147  25.743  27.785  1.00  0.00     0.031 A 
ATOM     80  C   UNL A   1      42.157  27.647  26.709  1.00  0.00     0.131 A 
ATOM     81  C   UNL A   1      41.465  24.973  26.656  1.00  0.00     0.055 A 
ATOM     82  C   UNL A   1      42.413  26.891  25.564  1.00  0.00     0.041 A 
ATOM     83  F   UNL A   1      42.530  28.936  26.704  1.00  0.00    -0.206 F 
ATOM     84  C   UNL A   1      42.080  25.541  25.539  1.00  0.00     0.022 A 
BRANCH  81  85
ATOM     85  S   UNL A   1      41.152  23.187  26.714  1.00  0.00     0.124 S 
ATOM     86  O   UNL A   1      39.721  23.130  26.442  1.00  0.00    -0.237 OA
ATOM     87  O   UNL A   1      42.028  22.692  25.658  1.00  0.00    -0.237 OA
ATOM     88  O   UNL A   1      41.546  22.818  28.072  1.00  0.00    -0.744 OA
ENDBRANCH  81  85
ENDBRANCH  54  78
BRANCH  66  89
ATOM     89  C   UNL A   1      44.553  27.292  34.119  1.00  0.00     0.023 A 
ATOM     90  C   UNL A   1      44.292  26.129  34.864  1.00  0.00     0.031 A 
ATOM     91  C   UNL A   1      45.894  27.682  33.952  1.00  0.00     0.131 A 
ATOM     92  C   UNL A   1      45.352  25.430  35.461  1.00  0.00     0.055 A 
ATOM     93  C   UNL A   1      46.949  26.943  34.487  1.00  0.00     0.041 A 
ATOM     94  F   UNL A   1      46.203  28.788  33.254  1.00  0.00    -0.206 F 
ATOM     95  C   UNL A   1      46.680  25.817  35.259  1.00  0.00     0.022 A 
BRANCH  92  96
ATOM     96  S   UNL A   1      44.967  24.066  36.592  1.00  0.00     0.124 S 
ATOM     97  O   UNL A   1      44.150  23.197  35.752  1.00  0.00    -0.237 OA
ATOM     98  O   UNL A   1      46.293  23.559  36.933  1.00  0.00    -0.237 OA
ATOM     99  O   UNL A   1      44.254  24.720  37.688  1.00  0.00    -0.744 OA
ENDBRANCH  92  96
ENDBRANCH  66  89
ENDBRANCH  40  41
ENDBRANCH  32  35
ENDBRANCH  30  31
ENDBRANCH  29  30
ENDBRANCH  28  29
ENDBRANCH   1  28
TORSDOF 19
ENDMDL
