MODEL 1
REMARK VINA RESULT:     -11.3      0.000      0.000
REMARK SMILES C[C@@H]1C[N@@H+](C[C@]2(C(=O)NCCCCCCNC(=O)c3ccc(-c4c5nc(c(-c6cc(S(=O)(=O)[O-])ccc6F)c6ccc([nH]6)c(-c6cc(S(=O)(=O)[O-])ccc6F)c6nc(c(-c7cc(S(=O)(=O)[O-])ccc7F)c7ccc4[nH]7)C=C6)C=C5)cc3)CCOC2)C[C@@H]1C
REMARK SMILES IDX 13 1 12 2 11 3 10 4 9 5 7 6 8 7 6 9 82 10 85 11 83 12 84 13
REMARK SMILES IDX 5 14 4 15 1 16 2 17 3 18 87 19 86 20 88 21 14 23 15 24 16 25
REMARK SMILES IDX 17 26 18 28 19 29 20 30 81 31 21 32 80 33 22 34 23 35 24 36
REMARK SMILES IDX 74 37 25 38 79 39 73 40 75 41 26 42 78 43 72 44 71 45 27 47
REMARK SMILES IDX 59 48 39 49 58 50 40 51 43 52 57 53 76 54 41 55 42 56 56 58
REMARK SMILES IDX 77 59 44 60 28 61 29 62 37 63 30 64 36 65 38 66 35 67 31 68
REMARK SMILES IDX 32 69 33 70 34 71 60 72 61 73 69 74 62 75 68 76 70 77 67 78
REMARK SMILES IDX 63 79 64 80 65 81 66 82 45 83 46 84 54 85 47 86 53 87 55 88
REMARK SMILES IDX 52 89 48 90 49 91 50 92 51 93
REMARK H PARENT 9 8 4 22 16 27 75 46 43 57
REMARK Flexibility Score: inf
ROOT
ATOM      1  C   UNL A   1      31.721  30.759  26.055  1.00  0.00     0.002 C 
ENDROOT
BRANCH   1   2
ATOM      2  C   UNL A   1      31.903  29.621  27.064  1.00  0.00     0.002 C 
BRANCH   2   3
ATOM      3  C   UNL A   1      33.344  29.130  27.223  1.00  0.00     0.021 C 
BRANCH   3   4
ATOM      4  C   UNL A   1      33.704  27.968  26.300  1.00  0.00     0.116 C 
BRANCH   4   5
ATOM      5  N   UNL A   1      34.143  28.439  24.997  1.00  0.00    -0.355 N 
ATOM      6  C   UNL A   1      33.743  28.103  23.737  1.00  0.00     0.234 C 
ATOM      7  O   UNL A   1      34.300  28.688  22.805  1.00  0.00    -0.274 OA
ATOM      8  H   UNL A   1      34.852  29.121  25.029  1.00  0.00     0.163 HD
BRANCH   6   9
ATOM      9  C   UNL A   1      32.588  27.108  23.504  1.00  0.00     0.123 C 
ATOM     10  C   UNL A   1      31.315  27.637  24.176  1.00  0.00     0.054 C 
ATOM     11  C   UNL A   1      32.171  27.149  22.034  1.00  0.00     0.183 C 
ATOM     12  C   UNL A   1      30.189  27.283  23.235  1.00  0.00     0.161 C 
ATOM     13  O   UNL A   1      30.743  27.228  21.928  1.00  0.00    -0.380 OA
BRANCH   9  14
ATOM     14  C   UNL A   1      33.088  25.759  24.120  1.00  0.00     0.281 C 
BRANCH  14  15
ATOM     15  N   UNL A   1      32.334  24.934  25.046  1.00  0.00    -0.333 N 
ATOM     16  C   UNL A   1      33.147  22.313  27.539  1.00  0.00     0.014 C 
ATOM     17  C   UNL A   1      32.909  22.999  26.206  1.00  0.00     0.049 C 
ATOM     18  C   UNL A   1      32.940  24.516  26.297  1.00  0.00     0.265 C 
ATOM     19  C   UNL A   1      31.572  22.721  25.500  1.00  0.00     0.049 C 
ATOM     20  C   UNL A   1      31.427  23.917  24.543  1.00  0.00     0.265 C 
ATOM     21  C   UNL A   1      30.370  22.615  26.436  1.00  0.00     0.014 C 
ATOM     22  H   UNL A   1      31.741  25.730  25.277  1.00  0.00     0.348 HD
ENDBRANCH  14  15
ENDBRANCH   9  14
ENDBRANCH   6   9
ENDBRANCH   4   5
ENDBRANCH   3   4
ENDBRANCH   2   3
ENDBRANCH   1   2
BRANCH   1  23
ATOM     23  C   UNL A   1      31.468  32.136  26.676  1.00  0.00     0.021 C 
BRANCH  23  24
ATOM     24  C   UNL A   1      32.664  32.721  27.418  1.00  0.00     0.116 C 
BRANCH  24  25
ATOM     25  N   UNL A   1      32.480  34.135  27.706  1.00  0.00    -0.352 N 
ATOM     26  C   UNL A   1      33.069  34.902  28.677  1.00  0.00     0.251 C 
ATOM     27  H   UNL A   1      31.844  34.606  27.121  1.00  0.00     0.163 HD
ATOM     28  O   UNL A   1      32.621  36.020  28.926  1.00  0.00    -0.269 OA
BRANCH  26  29
ATOM     29  C   UNL A   1      34.224  34.372  29.431  1.00  0.00     0.039 A 
ATOM     30  C   UNL A   1      33.995  33.650  30.604  1.00  0.00     0.014 A 
ATOM     31  C   UNL A   1      35.532  34.589  28.984  1.00  0.00     0.014 A 
ATOM     32  C   UNL A   1      35.074  33.101  31.299  1.00  0.00     0.010 A 
ATOM     33  C   UNL A   1      36.598  33.975  29.634  1.00  0.00     0.010 A 
ATOM     34  C   UNL A   1      36.383  33.230  30.803  1.00  0.00    -0.014 A 
BRANCH  34  35
ATOM     35  C   UNL A   1      37.533  32.600  31.502  1.00  0.00     0.031 A 
ATOM     36  C   UNL A   1      38.267  31.450  30.866  1.00  0.00     0.074 A 
ATOM     37  C   UNL A   1      37.886  33.034  32.729  1.00  0.00     0.049 A 
ATOM     38  N   UNL A   1      39.258  30.738  31.338  1.00  0.00    -0.248 NA
ATOM     39  C   UNL A   1      37.805  31.025  29.536  1.00  0.00     0.031 C 
ATOM     40  C   UNL A   1      37.225  34.116  33.464  1.00  0.00     0.029 A 
ATOM     41  N   UNL A   1      38.883  32.621  33.578  1.00  0.00    -0.354 N 
ATOM     42  C   UNL A   1      39.534  29.780  30.368  1.00  0.00     0.074 A 
ATOM     43  C   UNL A   1      38.559  29.960  29.314  1.00  0.00     0.031 C 
ATOM     44  C   UNL A   1      37.854  34.301  34.634  1.00  0.00     0.029 A 
ATOM     45  C   UNL A   1      38.928  33.321  34.761  1.00  0.00     0.049 A 
ATOM     46  H   UNL A   1      39.508  31.892  33.359  1.00  0.00     0.167 HD
ATOM     47  C   UNL A   1      40.523  28.852  30.349  1.00  0.00     0.034 A 
ATOM     48  C   UNL A   1      39.734  33.182  35.833  1.00  0.00     0.034 A 
ATOM     49  C   UNL A   1      41.491  28.693  31.406  1.00  0.00     0.049 A 
ATOM     50  C   UNL A   1      40.806  32.121  35.802  1.00  0.00     0.074 A 
ATOM     51  C   UNL A   1      42.565  27.820  31.467  1.00  0.00     0.029 A 
ATOM     52  N   UNL A   1      41.501  29.414  32.594  1.00  0.00    -0.354 N 
ATOM     53  N   UNL A   1      41.086  31.256  34.853  1.00  0.00    -0.248 NA
ATOM     54  C   UNL A   1      41.679  32.025  36.978  1.00  0.00     0.031 C 
ATOM     55  C   UNL A   1      43.172  27.957  32.720  1.00  0.00     0.029 A 
ATOM     56  C   UNL A   1      42.537  28.980  33.407  1.00  0.00     0.049 A 
ATOM     57  H   UNL A   1      40.864  30.128  32.826  1.00  0.00     0.167 HD
ATOM     58  C   UNL A   1      42.191  30.540  35.306  1.00  0.00     0.074 A 
ATOM     59  C   UNL A   1      42.534  31.085  36.603  1.00  0.00     0.031 C 
ATOM     60  C   UNL A   1      42.865  29.527  34.704  1.00  0.00     0.034 A 
BRANCH  47  61
ATOM     61  C   UNL A   1      40.587  27.924  29.157  1.00  0.00     0.023 A 
ATOM     62  C   UNL A   1      41.516  28.116  28.118  1.00  0.00     0.031 A 
ATOM     63  C   UNL A   1      39.697  26.841  29.049  1.00  0.00     0.131 A 
ATOM     64  C   UNL A   1      41.485  27.287  26.987  1.00  0.00     0.055 A 
ATOM     65  C   UNL A   1      39.729  25.967  27.961  1.00  0.00     0.041 A 
ATOM     66  F   UNL A   1      38.772  26.619  29.997  1.00  0.00    -0.206 F 
ATOM     67  C   UNL A   1      40.616  26.195  26.914  1.00  0.00     0.022 A 
BRANCH  64  68
ATOM     68  S   UNL A   1      42.492  27.744  25.550  1.00  0.00     0.124 S 
ATOM     69  O   UNL A   1      43.797  27.969  26.165  1.00  0.00    -0.237 OA
ATOM     70  O   UNL A   1      42.380  26.566  24.698  1.00  0.00    -0.237 OA
ATOM     71  O   UNL A   1      41.836  28.947  25.040  1.00  0.00    -0.744 OA
ENDBRANCH  64  68
ENDBRANCH  47  61
BRANCH  48  72
ATOM     72  C   UNL A   1      39.562  34.054  37.031  1.00  0.00     0.023 A 
ATOM     73  C   UNL A   1      38.996  33.557  38.215  1.00  0.00     0.031 A 
ATOM     74  C   UNL A   1      39.914  35.416  36.992  1.00  0.00     0.131 A 
ATOM     75  C   UNL A   1      38.746  34.424  39.291  1.00  0.00     0.055 A 
ATOM     76  C   UNL A   1      39.723  36.261  38.087  1.00  0.00     0.041 A 
ATOM     77  F   UNL A   1      40.461  35.946  35.886  1.00  0.00    -0.206 F 
ATOM     78  C   UNL A   1      39.121  35.768  39.241  1.00  0.00     0.022 A 
BRANCH  75  79
ATOM     79  S   UNL A   1      37.829  33.791  40.723  1.00  0.00     0.124 S 
ATOM     80  O   UNL A   1      38.816  32.913  41.341  1.00  0.00    -0.237 OA
ATOM     81  O   UNL A   1      37.517  35.018  41.448  1.00  0.00    -0.237 OA
ATOM     82  O   UNL A   1      36.682  33.116  40.119  1.00  0.00    -0.744 OA
ENDBRANCH  75  79
ENDBRANCH  48  72
BRANCH  60  83
ATOM     83  C   UNL A   1      44.077  28.982  35.421  1.00  0.00     0.023 A 
ATOM     84  C   UNL A   1      43.970  28.013  36.434  1.00  0.00     0.031 A 
ATOM     85  C   UNL A   1      45.362  29.452  35.092  1.00  0.00     0.131 A 
ATOM     86  C   UNL A   1      45.118  27.591  37.123  1.00  0.00     0.055 A 
ATOM     87  C   UNL A   1      46.507  28.977  35.733  1.00  0.00     0.041 A 
ATOM     88  F   UNL A   1      45.527  30.381  34.137  1.00  0.00    -0.206 F 
ATOM     89  C   UNL A   1      46.387  28.052  36.766  1.00  0.00     0.022 A 
BRANCH  86  90
ATOM     90  S   UNL A   1      44.918  26.511  38.567  1.00  0.00     0.124 S 
ATOM     91  O   UNL A   1      45.669  27.231  39.591  1.00  0.00    -0.237 OA
ATOM     92  O   UNL A   1      43.470  26.484  38.739  1.00  0.00    -0.237 OA
ATOM     93  O   UNL A   1      45.515  25.248  38.134  1.00  0.00    -0.744 OA
ENDBRANCH  86  90
ENDBRANCH  60  83
ENDBRANCH  34  35
ENDBRANCH  26  29
ENDBRANCH  24  25
ENDBRANCH  23  24
ENDBRANCH   1  23
TORSDOF 18
ENDMDL
MODEL 2
REMARK VINA RESULT:     -11.3      1.407      2.904
REMARK SMILES C[C@@H]1C[N@@H+](C[C@]2(C(=O)NCCCCCCNC(=O)c3ccc(-c4c5nc(c(-c6cc(S(=O)(=O)[O-])ccc6F)c6ccc([nH]6)c(-c6cc(S(=O)(=O)[O-])ccc6F)c6nc(c(-c7cc(S(=O)(=O)[O-])ccc7F)c7ccc4[nH]7)C=C6)C=C5)cc3)CCOC2)C[C@@H]1C
REMARK SMILES IDX 13 1 12 2 11 3 10 4 9 5 7 6 8 7 6 9 82 10 85 11 83 12 84 13
REMARK SMILES IDX 5 14 4 15 1 16 2 17 3 18 87 19 86 20 88 21 14 23 15 24 16 25
REMARK SMILES IDX 17 26 18 28 19 29 20 30 81 31 21 32 80 33 22 34 23 35 24 36
REMARK SMILES IDX 74 37 25 38 79 39 73 40 75 41 26 42 78 43 72 44 71 45 27 47
REMARK SMILES IDX 59 48 39 49 58 50 40 51 43 52 57 53 76 54 41 55 42 56 56 58
REMARK SMILES IDX 77 59 44 60 28 61 29 62 37 63 30 64 36 65 38 66 35 67 31 68
REMARK SMILES IDX 32 69 33 70 34 71 60 72 61 73 69 74 62 75 68 76 70 77 67 78
REMARK SMILES IDX 63 79 64 80 65 81 66 82 45 83 46 84 54 85 47 86 53 87 55 88
REMARK SMILES IDX 52 89 48 90 49 91 50 92 51 93
REMARK H PARENT 9 8 4 22 16 27 75 46 43 57
REMARK Flexibility Score: inf
ROOT
ATOM      1  C   UNL A   1      32.001  30.386  26.279  1.00  0.00     0.002 C 
ENDROOT
BRANCH   1   2
ATOM      2  C   UNL A   1      31.760  29.229  27.253  1.00  0.00     0.002 C 
BRANCH   2   3
ATOM      3  C   UNL A   1      32.829  28.133  27.223  1.00  0.00     0.021 C 
BRANCH   3   4
ATOM      4  C   UNL A   1      32.778  27.257  25.974  1.00  0.00     0.116 C 
BRANCH   4   5
ATOM      5  N   UNL A   1      31.409  26.961  25.586  1.00  0.00    -0.355 N 
ATOM      6  C   UNL A   1      30.786  27.011  24.373  1.00  0.00     0.234 C 
ATOM      7  O   UNL A   1      29.596  26.688  24.349  1.00  0.00    -0.274 OA
ATOM      8  H   UNL A   1      30.829  26.674  26.329  1.00  0.00     0.163 HD
BRANCH   6   9
ATOM      9  C   UNL A   1      31.564  27.365  23.090  1.00  0.00     0.123 C 
ATOM     10  C   UNL A   1      33.052  27.057  23.293  1.00  0.00     0.054 C 
ATOM     11  C   UNL A   1      31.213  26.363  21.990  1.00  0.00     0.183 C 
ATOM     12  C   UNL A   1      33.530  26.506  21.972  1.00  0.00     0.161 C 
ATOM     13  O   UNL A   1      32.408  25.903  21.343  1.00  0.00    -0.380 OA
BRANCH   9  14
ATOM     14  C   UNL A   1      31.281  28.887  22.856  1.00  0.00     0.281 C 
BRANCH  14  15
ATOM     15  N   UNL A   1      29.972  29.511  22.915  1.00  0.00    -0.333 N 
ATOM     16  C   UNL A   1      28.023  31.810  20.754  1.00  0.00     0.014 C 
ATOM     17  C   UNL A   1      29.065  31.302  21.736  1.00  0.00     0.049 C 
ATOM     18  C   UNL A   1      29.253  29.795  21.687  1.00  0.00     0.265 C 
ATOM     19  C   UNL A   1      28.814  31.572  23.228  1.00  0.00     0.049 C 
ATOM     20  C   UNL A   1      29.688  30.516  23.926  1.00  0.00     0.265 C 
ATOM     21  C   UNL A   1      27.354  31.450  23.660  1.00  0.00     0.014 C 
ATOM     22  H   UNL A   1      29.572  28.647  23.278  1.00  0.00     0.348 HD
ENDBRANCH  14  15
ENDBRANCH   9  14
ENDBRANCH   6   9
ENDBRANCH   4   5
ENDBRANCH   3   4
ENDBRANCH   2   3
ENDBRANCH   1   2
BRANCH   1  23
ATOM     23  C   UNL A   1      31.758  31.781  26.863  1.00  0.00     0.021 C 
BRANCH  23  24
ATOM     24  C   UNL A   1      33.027  32.543  27.226  1.00  0.00     0.116 C 
BRANCH  24  25
ATOM     25  N   UNL A   1      32.738  33.909  27.630  1.00  0.00    -0.352 N 
ATOM     26  C   UNL A   1      33.232  34.616  28.696  1.00  0.00     0.251 C 
ATOM     27  H   UNL A   1      32.100  34.394  27.059  1.00  0.00     0.163 HD
ATOM     28  O   UNL A   1      32.700  35.677  29.023  1.00  0.00    -0.269 OA
BRANCH  26  29
ATOM     29  C   UNL A   1      34.384  34.090  29.457  1.00  0.00     0.039 A 
ATOM     30  C   UNL A   1      34.151  33.233  30.534  1.00  0.00     0.014 A 
ATOM     31  C   UNL A   1      35.692  34.442  29.109  1.00  0.00     0.014 A 
ATOM     32  C   UNL A   1      35.232  32.688  31.230  1.00  0.00     0.010 A 
ATOM     33  C   UNL A   1      36.768  33.836  29.753  1.00  0.00     0.010 A 
ATOM     34  C   UNL A   1      36.550  32.958  30.825  1.00  0.00    -0.014 A 
BRANCH  34  35
ATOM     35  C   UNL A   1      37.707  32.337  31.521  1.00  0.00     0.031 A 
ATOM     36  C   UNL A   1      38.464  31.209  30.871  1.00  0.00     0.074 A 
ATOM     37  C   UNL A   1      38.048  32.759  32.755  1.00  0.00     0.049 A 
ATOM     38  N   UNL A   1      39.465  30.507  31.338  1.00  0.00    -0.248 NA
ATOM     39  C   UNL A   1      38.015  30.796  29.533  1.00  0.00     0.031 C 
ATOM     40  C   UNL A   1      37.365  33.820  33.502  1.00  0.00     0.029 A 
ATOM     41  N   UNL A   1      39.048  32.351  33.602  1.00  0.00    -0.354 N 
ATOM     42  C   UNL A   1      39.761  29.568  30.356  1.00  0.00     0.074 A 
ATOM     43  C   UNL A   1      38.788  29.747  29.300  1.00  0.00     0.031 C 
ATOM     44  C   UNL A   1      37.986  33.999  34.678  1.00  0.00     0.029 A 
ATOM     45  C   UNL A   1      39.076  33.035  34.796  1.00  0.00     0.049 A 
ATOM     46  H   UNL A   1      39.686  31.636  33.376  1.00  0.00     0.167 HD
ATOM     47  C   UNL A   1      40.765  28.657  30.328  1.00  0.00     0.034 A 
ATOM     48  C   UNL A   1      39.880  32.894  35.869  1.00  0.00     0.034 A 
ATOM     49  C   UNL A   1      41.732  28.499  31.387  1.00  0.00     0.049 A 
ATOM     50  C   UNL A   1      40.969  31.851  35.828  1.00  0.00     0.074 A 
ATOM     51  C   UNL A   1      42.820  27.644  31.440  1.00  0.00     0.029 A 
ATOM     52  N   UNL A   1      41.724  29.203  32.585  1.00  0.00    -0.354 N 
ATOM     53  N   UNL A   1      41.268  31.005  34.869  1.00  0.00    -0.248 NA
ATOM     54  C   UNL A   1      41.838  31.753  37.007  1.00  0.00     0.031 C 
ATOM     55  C   UNL A   1      43.418  27.772  32.698  1.00  0.00     0.029 A 
ATOM     56  C   UNL A   1      42.764  28.774  33.396  1.00  0.00     0.049 A 
ATOM     57  H   UNL A   1      41.074  29.902  32.824  1.00  0.00     0.167 HD
ATOM     58  C   UNL A   1      42.382  30.301  35.317  1.00  0.00     0.074 A 
ATOM     59  C   UNL A   1      42.710  30.833  36.623  1.00  0.00     0.031 C 
ATOM     60  C   UNL A   1      43.077  29.309  34.703  1.00  0.00     0.034 A 
BRANCH  47  61
ATOM     61  C   UNL A   1      40.851  27.748  29.123  1.00  0.00     0.023 A 
ATOM     62  C   UNL A   1      41.822  27.932  28.123  1.00  0.00     0.031 A 
ATOM     63  C   UNL A   1      39.938  26.690  28.963  1.00  0.00     0.131 A 
ATOM     64  C   UNL A   1      41.812  27.123  26.977  1.00  0.00     0.055 A 
ATOM     65  C   UNL A   1      39.988  25.834  27.861  1.00  0.00     0.041 A 
ATOM     66  F   UNL A   1      38.973  26.476  29.872  1.00  0.00    -0.206 F 
ATOM     67  C   UNL A   1      40.919  26.056  26.852  1.00  0.00     0.022 A 
BRANCH  64  68
ATOM     68  S   UNL A   1      42.883  27.578  25.586  1.00  0.00     0.124 S 
ATOM     69  O   UNL A   1      43.126  26.278  24.964  1.00  0.00    -0.237 OA
ATOM     70  O   UNL A   1      42.045  28.502  24.831  1.00  0.00    -0.237 OA
ATOM     71  O   UNL A   1      44.049  28.178  26.232  1.00  0.00    -0.744 OA
ENDBRANCH  64  68
ENDBRANCH  47  61
BRANCH  48  72
ATOM     72  C   UNL A   1      39.687  33.746  37.079  1.00  0.00     0.023 A 
ATOM     73  C   UNL A   1      39.036  33.250  38.220  1.00  0.00     0.031 A 
ATOM     74  C   UNL A   1      40.108  35.089  37.094  1.00  0.00     0.131 A 
ATOM     75  C   UNL A   1      38.773  34.103  39.303  1.00  0.00     0.055 A 
ATOM     76  C   UNL A   1      39.900  35.916  38.199  1.00  0.00     0.041 A 
ATOM     77  F   UNL A   1      40.738  35.616  36.031  1.00  0.00    -0.206 F 
ATOM     78  C   UNL A   1      39.215  35.428  39.307  1.00  0.00     0.022 A 
BRANCH  75  79
ATOM     79  S   UNL A   1      37.751  33.485  40.669  1.00  0.00     0.124 S 
ATOM     80  O   UNL A   1      36.560  33.027  39.961  1.00  0.00    -0.237 OA
ATOM     81  O   UNL A   1      38.602  32.443  41.235  1.00  0.00    -0.237 OA
ATOM     82  O   UNL A   1      37.563  34.662  41.513  1.00  0.00    -0.744 OA
ENDBRANCH  75  79
ENDBRANCH  48  72
BRANCH  60  83
ATOM     83  C   UNL A   1      44.295  28.773  35.418  1.00  0.00     0.023 A 
ATOM     84  C   UNL A   1      44.204  27.753  36.381  1.00  0.00     0.031 A 
ATOM     85  C   UNL A   1      45.567  29.305  35.139  1.00  0.00     0.131 A 
ATOM     86  C   UNL A   1      45.354  27.339  37.072  1.00  0.00     0.055 A 
ATOM     87  C   UNL A   1      46.716  28.841  35.779  1.00  0.00     0.041 A 
ATOM     88  F   UNL A   1      45.715  30.285  34.233  1.00  0.00    -0.206 F 
ATOM     89  C   UNL A   1      46.611  27.863  36.763  1.00  0.00     0.022 A 
BRANCH  86  90
ATOM     90  S   UNL A   1      45.168  26.184  38.458  1.00  0.00     0.124 S 
ATOM     91  O   UNL A   1      43.816  26.480  38.921  1.00  0.00    -0.237 OA
ATOM     92  O   UNL A   1      45.350  24.889  37.810  1.00  0.00    -0.237 OA
ATOM     93  O   UNL A   1      46.237  26.574  39.375  1.00  0.00    -0.744 OA
ENDBRANCH  86  90
ENDBRANCH  60  83
ENDBRANCH  34  35
ENDBRANCH  26  29
ENDBRANCH  24  25
ENDBRANCH  23  24
ENDBRANCH   1  23
TORSDOF 18
ENDMDL
MODEL 3
REMARK VINA RESULT:     -11.1      5.028      8.524
REMARK SMILES C[C@@H]1C[N@@H+](C[C@]2(C(=O)NCCCCCCNC(=O)c3ccc(-c4c5nc(c(-c6cc(S(=O)(=O)[O-])ccc6F)c6ccc([nH]6)c(-c6cc(S(=O)(=O)[O-])ccc6F)c6nc(c(-c7cc(S(=O)(=O)[O-])ccc7F)c7ccc4[nH]7)C=C6)C=C5)cc3)CCOC2)C[C@@H]1C
REMARK SMILES IDX 13 1 12 2 11 3 10 4 9 5 7 6 8 7 6 9 82 10 85 11 83 12 84 13
REMARK SMILES IDX 5 14 4 15 1 16 2 17 3 18 87 19 86 20 88 21 14 23 15 24 16 25
REMARK SMILES IDX 17 26 18 28 19 29 20 30 81 31 21 32 80 33 22 34 23 35 24 36
REMARK SMILES IDX 74 37 25 38 79 39 73 40 75 41 26 42 78 43 72 44 71 45 27 47
REMARK SMILES IDX 59 48 39 49 58 50 40 51 43 52 57 53 76 54 41 55 42 56 56 58
REMARK SMILES IDX 77 59 44 60 28 61 29 62 37 63 30 64 36 65 38 66 35 67 31 68
REMARK SMILES IDX 32 69 33 70 34 71 60 72 61 73 69 74 62 75 68 76 70 77 67 78
REMARK SMILES IDX 63 79 64 80 65 81 66 82 45 83 46 84 54 85 47 86 53 87 55 88
REMARK SMILES IDX 52 89 48 90 49 91 50 92 51 93
REMARK H PARENT 9 8 4 22 16 27 75 46 43 57
REMARK Flexibility Score: inf
ROOT
ATOM      1  C   UNL A   1      35.580  21.218  24.692  1.00  0.00     0.002 C 
ENDROOT
BRANCH   1   2
ATOM      2  C   UNL A   1      34.517  21.062  25.784  1.00  0.00     0.002 C 
BRANCH   2   3
ATOM      3  C   UNL A   1      33.246  20.332  25.341  1.00  0.00     0.021 C 
BRANCH   3   4
ATOM      4  C   UNL A   1      32.121  21.266  24.902  1.00  0.00     0.116 C 
BRANCH   4   5
ATOM      5  N   UNL A   1      31.517  21.943  26.037  1.00  0.00    -0.355 N 
ATOM      6  C   UNL A   1      31.363  23.270  26.316  1.00  0.00     0.234 C 
ATOM      7  O   UNL A   1      30.791  23.550  27.373  1.00  0.00    -0.274 OA
ATOM      8  H   UNL A   1      31.155  21.339  26.724  1.00  0.00     0.163 HD
BRANCH   6   9
ATOM      9  C   UNL A   1      31.804  24.354  25.312  1.00  0.00     0.123 C 
ATOM     10  C   UNL A   1      32.586  23.701  24.166  1.00  0.00     0.054 C 
ATOM     11  C   UNL A   1      30.580  24.877  24.560  1.00  0.00     0.183 C 
ATOM     12  C   UNL A   1      32.167  24.446  22.922  1.00  0.00     0.161 C 
ATOM     13  O   UNL A   1      30.854  24.935  23.153  1.00  0.00    -0.380 OA
BRANCH   9  14
ATOM     14  C   UNL A   1      32.669  25.352  26.152  1.00  0.00     0.281 C 
BRANCH  14  15
ATOM     15  N   UNL A   1      32.584  26.799  26.075  1.00  0.00    -0.333 N 
ATOM     16  C   UNL A   1      34.666  29.648  27.215  1.00  0.00     0.014 C 
ATOM     17  C   UNL A   1      33.706  28.472  27.243  1.00  0.00     0.049 C 
ATOM     18  C   UNL A   1      33.800  27.589  26.010  1.00  0.00     0.265 C 
ATOM     19  C   UNL A   1      32.204  28.793  27.327  1.00  0.00     0.049 C 
ATOM     20  C   UNL A   1      31.543  27.508  26.799  1.00  0.00     0.265 C 
ATOM     21  C   UNL A   1      31.769  30.010  26.513  1.00  0.00     0.014 C 
ATOM     22  H   UNL A   1      32.245  26.731  25.117  1.00  0.00     0.348 HD
ENDBRANCH  14  15
ENDBRANCH   9  14
ENDBRANCH   6   9
ENDBRANCH   4   5
ENDBRANCH   3   4
ENDBRANCH   2   3
ENDBRANCH   1   2
BRANCH   1  23
ATOM     23  C   UNL A   1      36.137  22.636  24.534  1.00  0.00     0.021 C 
BRANCH  23  24
ATOM     24  C   UNL A   1      36.936  23.135  25.733  1.00  0.00     0.116 C 
BRANCH  24  25
ATOM     25  N   UNL A   1      38.040  22.246  26.053  1.00  0.00    -0.352 N 
ATOM     26  C   UNL A   1      39.310  22.559  26.465  1.00  0.00     0.251 C 
ATOM     27  H   UNL A   1      37.850  21.285  25.961  1.00  0.00     0.163 HD
ATOM     28  O   UNL A   1      40.183  21.693  26.461  1.00  0.00    -0.269 OA
BRANCH  26  29
ATOM     29  C   UNL A   1      39.624  23.939  26.890  1.00  0.00     0.039 A 
ATOM     30  C   UNL A   1      39.483  24.283  28.236  1.00  0.00     0.014 A 
ATOM     31  C   UNL A   1      40.056  24.893  25.963  1.00  0.00     0.014 A 
ATOM     32  C   UNL A   1      39.825  25.568  28.660  1.00  0.00     0.010 A 
ATOM     33  C   UNL A   1      40.471  26.148  26.400  1.00  0.00     0.010 A 
ATOM     34  C   UNL A   1      40.353  26.502  27.752  1.00  0.00    -0.014 A 
BRANCH  34  35
ATOM     35  C   UNL A   1      40.775  27.854  28.203  1.00  0.00     0.031 A 
ATOM     36  C   UNL A   1      42.232  28.235  28.190  1.00  0.00     0.074 A 
ATOM     37  C   UNL A   1      39.853  28.721  28.666  1.00  0.00     0.049 A 
ATOM     38  N   UNL A   1      42.802  29.343  28.590  1.00  0.00    -0.248 NA
ATOM     39  C   UNL A   1      43.175  27.224  27.689  1.00  0.00     0.031 C 
ATOM     40  C   UNL A   1      38.415  28.451  28.763  1.00  0.00     0.029 A 
ATOM     41  N   UNL A   1      39.980  30.001  29.145  1.00  0.00    -0.354 N 
ATOM     42  C   UNL A   1      44.167  29.161  28.395  1.00  0.00     0.074 A 
ATOM     43  C   UNL A   1      44.342  27.810  27.907  1.00  0.00     0.031 C 
ATOM     44  C   UNL A   1      37.794  29.542  29.237  1.00  0.00     0.029 A 
ATOM     45  C   UNL A   1      38.788  30.570  29.529  1.00  0.00     0.049 A 
ATOM     46  H   UNL A   1      40.844  30.469  29.207  1.00  0.00     0.167 HD
ATOM     47  C   UNL A   1      45.176  30.046  28.584  1.00  0.00     0.034 A 
ATOM     48  C   UNL A   1      38.525  31.778  30.067  1.00  0.00     0.034 A 
ATOM     49  C   UNL A   1      44.981  31.392  29.065  1.00  0.00     0.049 A 
ATOM     50  C   UNL A   1      39.669  32.734  30.299  1.00  0.00     0.074 A 
ATOM     51  C   UNL A   1      45.926  32.389  29.245  1.00  0.00     0.029 A 
ATOM     52  N   UNL A   1      43.760  31.931  29.452  1.00  0.00    -0.354 N 
ATOM     53  N   UNL A   1      40.950  32.564  30.060  1.00  0.00    -0.248 NA
ATOM     54  C   UNL A   1      39.332  34.048  30.859  1.00  0.00     0.031 C 
ATOM     55  C   UNL A   1      45.292  33.497  29.815  1.00  0.00     0.029 A 
ATOM     56  C   UNL A   1      43.935  33.231  29.904  1.00  0.00     0.049 A 
ATOM     57  H   UNL A   1      42.897  31.460  29.413  1.00  0.00     0.167 HD
ATOM     58  C   UNL A   1      41.563  33.764  30.408  1.00  0.00     0.074 A 
ATOM     59  C   UNL A   1      40.511  34.652  30.856  1.00  0.00     0.031 C 
ATOM     60  C   UNL A   1      42.877  34.105  30.356  1.00  0.00     0.034 A 
BRANCH  47  61
ATOM     61  C   UNL A   1      46.583  29.574  28.293  1.00  0.00     0.023 A 
ATOM     62  C   UNL A   1      47.393  29.002  29.290  1.00  0.00     0.031 A 
ATOM     63  C   UNL A   1      47.129  29.712  27.004  1.00  0.00     0.131 A 
ATOM     64  C   UNL A   1      48.723  28.659  29.003  1.00  0.00     0.055 A 
ATOM     65  C   UNL A   1      48.425  29.289  26.704  1.00  0.00     0.041 A 
ATOM     66  F   UNL A   1      46.413  30.272  26.015  1.00  0.00    -0.206 F 
ATOM     67  C   UNL A   1      49.236  28.772  27.709  1.00  0.00     0.022 A 
BRANCH  64  68
ATOM     68  S   UNL A   1      49.816  28.204  30.377  1.00  0.00     0.124 S 
ATOM     69  O   UNL A   1      51.049  28.899  30.014  1.00  0.00    -0.237 OA
ATOM     70  O   UNL A   1      49.103  28.729  31.535  1.00  0.00    -0.237 OA
ATOM     71  O   UNL A   1      49.884  26.746  30.293  1.00  0.00    -0.744 OA
ENDBRANCH  64  68
ENDBRANCH  47  61
BRANCH  48  72
ATOM     72  C   UNL A   1      37.130  32.158  30.436  1.00  0.00     0.023 A 
ATOM     73  C   UNL A   1      36.247  32.691  29.485  1.00  0.00     0.031 A 
ATOM     74  C   UNL A   1      36.674  32.040  31.763  1.00  0.00     0.131 A 
ATOM     75  C   UNL A   1      34.977  33.140  29.880  1.00  0.00     0.055 A 
ATOM     76  C   UNL A   1      35.387  32.429  32.139  1.00  0.00     0.041 A 
ATOM     77  F   UNL A   1      37.475  31.535  32.714  1.00  0.00    -0.206 F 
ATOM     78  C   UNL A   1      34.535  32.997  31.197  1.00  0.00     0.022 A 
BRANCH  75  79
ATOM     79  S   UNL A   1      33.945  34.010  28.668  1.00  0.00     0.124 S 
ATOM     80  O   UNL A   1      33.537  32.918  27.790  1.00  0.00    -0.237 OA
ATOM     81  O   UNL A   1      32.900  34.579  29.512  1.00  0.00    -0.237 OA
ATOM     82  O   UNL A   1      34.863  34.980  28.074  1.00  0.00    -0.744 OA
ENDBRANCH  75  79
ENDBRANCH  48  72
BRANCH  60  83
ATOM     83  C   UNL A   1      43.239  35.519  30.745  1.00  0.00     0.023 A 
ATOM     84  C   UNL A   1      43.369  35.912  32.089  1.00  0.00     0.031 A 
ATOM     85  C   UNL A   1      43.444  36.493  29.751  1.00  0.00     0.131 A 
ATOM     86  C   UNL A   1      43.634  37.254  32.403  1.00  0.00     0.055 A 
ATOM     87  C   UNL A   1      43.777  37.810  30.067  1.00  0.00     0.041 A 
ATOM     88  F   UNL A   1      43.328  36.178  28.450  1.00  0.00    -0.206 F 
ATOM     89  C   UNL A   1      43.858  38.201  31.401  1.00  0.00     0.022 A 
BRANCH  86  90
ATOM     90  S   UNL A   1      43.576  37.770  34.141  1.00  0.00     0.124 S 
ATOM     91  O   UNL A   1      42.958  39.088  34.046  1.00  0.00    -0.237 OA
ATOM     92  O   UNL A   1      42.758  36.725  34.749  1.00  0.00    -0.237 OA
ATOM     93  O   UNL A   1      44.981  37.771  34.545  1.00  0.00    -0.744 OA
ENDBRANCH  86  90
ENDBRANCH  60  83
ENDBRANCH  34  35
ENDBRANCH  26  29
ENDBRANCH  24  25
ENDBRANCH  23  24
ENDBRANCH   1  23
TORSDOF 18
ENDMDL
