MODEL 1
REMARK VINA RESULT:     -12.2      0.000      0.000
REMARK SMILES CCc1cc(C(=O)c2[nH]c3cc(Cl)ccc3c2CC(=O)NCCCCCCNC(=O)c2ccc(-c3c4nc(c(-c5cc(S(=O)(=O)[O-])ccc5F)c5ccc([nH]5)c(-c5cc(S(=O)(=O)[O-])ccc5F)c5nc(c(-c6cc(S(=O)(=O)[O-])ccc6F)c6ccc3[nH]6)C=C5)C=C4)cc2)ncc1Cl
REMARK SMILES IDX 24 1 23 2 22 3 21 4 19 5 20 6 18 8 17 9 8 10 9 11 10 12
REMARK SMILES IDX 16 14 11 15 15 16 12 17 14 18 13 19 6 20 7 21 5 22 3 23 4 24
REMARK SMILES IDX 96 25 95 26 97 27 94 28 2 29 1 30 25 31 26 32 27 33 28 34
REMARK SMILES IDX 29 35 30 37 31 38 32 39 93 40 33 41 92 42 34 43 35 44 36 45
REMARK SMILES IDX 86 46 37 47 91 48 85 49 87 50 38 51 90 52 84 53 83 54 39 56
REMARK SMILES IDX 71 57 51 58 70 59 52 60 55 61 69 62 88 63 53 64 54 65 68 67
REMARK SMILES IDX 89 68 56 69 40 70 41 71 49 72 42 73 48 74 50 75 47 76 43 77
REMARK SMILES IDX 44 78 45 79 46 80 72 81 73 82 81 83 74 84 80 85 82 86 79 87
REMARK SMILES IDX 75 88 76 89 77 90 78 91 57 92 58 93 66 94 59 95 65 96 67 97
REMARK SMILES IDX 64 98 60 99 61 100 62 101 63 102
REMARK H PARENT 21 7 9 13 28 36 87 55 55 66
REMARK Flexibility Score: inf
ROOT
ATOM      1  C   UNL A   1      35.493  24.190  24.517  1.00  0.00     0.002 C 
ENDROOT
BRANCH   1   2
ATOM      2  C   UNL A   1      34.165  24.860  24.144  1.00  0.00     0.021 C 
BRANCH   2   3
ATOM      3  C   UNL A   1      33.392  24.180  23.014  1.00  0.00     0.116 C 
BRANCH   3   4
ATOM      4  N   UNL A   1      32.625  25.118  22.218  1.00  0.00    -0.356 N 
ATOM      5  C   UNL A   1      31.361  25.595  22.419  1.00  0.00     0.224 C 
ATOM      6  O   UNL A   1      30.948  26.489  21.677  1.00  0.00    -0.275 OA
ATOM      7  H   UNL A   1      33.081  25.461  21.416  1.00  0.00     0.163 HD
BRANCH   5   8
ATOM      8  C   UNL A   1      30.531  25.124  23.603  1.00  0.00     0.138 C 
BRANCH   8   9
ATOM      9  C   UNL A   1      30.898  25.736  24.926  1.00  0.00    -0.002 A 
ATOM     10  C   UNL A   1      30.997  25.100  26.159  1.00  0.00     0.093 A 
ATOM     11  N   UNL A   1      31.448  26.031  27.066  1.00  0.00    -0.351 N 
ATOM     12  C   UNL A   1      31.479  27.282  26.503  1.00  0.00     0.048 A 
ATOM     13  H   UNL A   1      31.713  25.828  27.993  1.00  0.00     0.167 HD
ATOM     14  C   UNL A   1      31.141  27.133  25.159  1.00  0.00     0.004 A 
ATOM     15  C   UNL A   1      31.792  28.519  27.079  1.00  0.00     0.047 A 
ATOM     16  C   UNL A   1      31.113  28.287  24.345  1.00  0.00     0.012 A 
ATOM     17  C   UNL A   1      31.746  29.643  26.250  1.00  0.00     0.043 A 
ATOM     18  C   UNL A   1      31.415  29.536  24.903  1.00  0.00     0.021 A 
ATOM     19  Cl  UNL A   1      32.100  31.190  26.915  1.00  0.00    -0.084 Cl
BRANCH  10  20
ATOM     20  C   UNL A   1      30.763  23.710  26.508  1.00  0.00     0.227 C 
ATOM     21  O   UNL A   1      29.779  23.373  27.160  1.00  0.00    -0.285 OA
BRANCH  20  22
ATOM     22  C   UNL A   1      31.746  22.675  26.006  1.00  0.00     0.113 A 
ATOM     23  C   UNL A   1      32.436  20.935  24.459  1.00  0.00    -0.026 A 
ATOM     24  C   UNL A   1      31.511  21.920  24.855  1.00  0.00     0.037 A 
ATOM     25  C   UNL A   1      33.600  20.785  25.219  1.00  0.00     0.062 A 
ATOM     26  C   UNL A   1      33.763  21.586  26.342  1.00  0.00     0.132 A 
ATOM     27  Cl  UNL A   1      34.836  19.654  24.819  1.00  0.00    -0.082 Cl
ATOM     28  N   UNL A   1      32.864  22.509  26.758  1.00  0.00    -0.251 NA
BRANCH  23  29
ATOM     29  C   UNL A   1      32.135  20.107  23.233  1.00  0.00     0.034 C 
ATOM     30  C   UNL A   1      31.947  20.963  21.990  1.00  0.00     0.009 C 
ENDBRANCH  23  29
ENDBRANCH  20  22
ENDBRANCH  10  20
ENDBRANCH   8   9
ENDBRANCH   5   8
ENDBRANCH   3   4
ENDBRANCH   2   3
ENDBRANCH   1   2
BRANCH   1  31
ATOM     31  C   UNL A   1      36.027  23.154  23.521  1.00  0.00     0.002 C 
BRANCH  31  32
ATOM     32  C   UNL A   1      37.041  22.146  24.075  1.00  0.00     0.021 C 
BRANCH  32  33
ATOM     33  C   UNL A   1      37.240  22.170  25.591  1.00  0.00     0.116 C 
BRANCH  33  34
ATOM     34  N   UNL A   1      38.231  21.207  26.038  1.00  0.00    -0.352 N 
ATOM     35  C   UNL A   1      39.493  21.421  26.537  1.00  0.00     0.251 C 
ATOM     36  H   UNL A   1      37.958  20.263  25.974  1.00  0.00     0.163 HD
ATOM     37  O   UNL A   1      40.238  20.463  26.721  1.00  0.00    -0.269 OA
BRANCH  35  38
ATOM     38  C   UNL A   1      39.971  22.794  26.832  1.00  0.00     0.039 A 
ATOM     39  C   UNL A   1      40.933  22.965  27.835  1.00  0.00     0.014 A 
ATOM     40  C   UNL A   1      39.445  23.910  26.175  1.00  0.00     0.014 A 
ATOM     41  C   UNL A   1      41.403  24.246  28.144  1.00  0.00     0.010 A 
ATOM     42  C   UNL A   1      39.935  25.185  26.463  1.00  0.00     0.010 A 
ATOM     43  C   UNL A   1      40.918  25.363  27.450  1.00  0.00    -0.014 A 
BRANCH  43  44
ATOM     44  C   UNL A   1      41.417  26.728  27.750  1.00  0.00     0.031 A 
ATOM     45  C   UNL A   1      42.824  27.113  27.389  1.00  0.00     0.074 A 
ATOM     46  C   UNL A   1      40.633  27.593  28.418  1.00  0.00     0.049 A 
ATOM     47  N   UNL A   1      43.481  28.208  27.674  1.00  0.00    -0.248 NA
ATOM     48  C   UNL A   1      43.597  26.122  26.628  1.00  0.00     0.031 C 
ATOM     49  C   UNL A   1      39.263  27.327  28.862  1.00  0.00     0.029 A 
ATOM     50  N   UNL A   1      40.889  28.864  28.865  1.00  0.00    -0.354 N 
ATOM     51  C   UNL A   1      44.757  28.029  27.153  1.00  0.00     0.074 A 
ATOM     52  C   UNL A   1      44.781  26.712  26.546  1.00  0.00     0.031 C 
ATOM     53  C   UNL A   1      38.807  28.396  29.536  1.00  0.00     0.029 A 
ATOM     54  C   UNL A   1      39.855  29.411  29.586  1.00  0.00     0.049 A 
ATOM     55  H   UNL A   1      41.733  29.338  28.687  1.00  0.00     0.167 HD
ATOM     56  C   UNL A   1      45.813  28.881  27.177  1.00  0.00     0.034 A 
ATOM     57  C   UNL A   1      39.771  30.587  30.233  1.00  0.00     0.034 A 
ATOM     58  C   UNL A   1      45.781  30.198  27.761  1.00  0.00     0.049 A 
ATOM     59  C   UNL A   1      40.935  31.534  30.214  1.00  0.00     0.074 A 
ATOM     60  C   UNL A   1      46.775  31.163  27.779  1.00  0.00     0.029 A 
ATOM     61  N   UNL A   1      44.697  30.737  28.438  1.00  0.00    -0.354 N 
ATOM     62  N   UNL A   1      42.129  31.359  29.698  1.00  0.00    -0.248 NA
ATOM     63  C   UNL A   1      40.736  32.837  30.860  1.00  0.00     0.031 C 
ATOM     64  C   UNL A   1      46.303  32.271  28.495  1.00  0.00     0.029 A 
ATOM     65  C   UNL A   1      45.002  32.011  28.893  1.00  0.00     0.049 A 
ATOM     66  H   UNL A   1      43.836  30.281  28.576  1.00  0.00     0.167 HD
ATOM     67  C   UNL A   1      42.824  32.534  29.956  1.00  0.00     0.074 A 
ATOM     68  C   UNL A   1      41.917  33.412  30.671  1.00  0.00     0.031 C 
ATOM     69  C   UNL A   1      44.097  32.861  29.624  1.00  0.00     0.034 A 
BRANCH  56  70
ATOM     70  C   UNL A   1      47.102  28.378  26.588  1.00  0.00     0.023 A 
ATOM     71  C   UNL A   1      47.319  28.355  25.199  1.00  0.00     0.031 A 
ATOM     72  C   UNL A   1      48.106  27.862  27.427  1.00  0.00     0.131 A 
ATOM     73  C   UNL A   1      48.485  27.768  24.687  1.00  0.00     0.055 A 
ATOM     74  C   UNL A   1      49.290  27.332  26.914  1.00  0.00     0.041 A 
ATOM     75  F   UNL A   1      47.937  27.842  28.759  1.00  0.00    -0.206 F 
ATOM     76  C   UNL A   1      49.479  27.269  25.535  1.00  0.00     0.022 A 
BRANCH  73  77
ATOM     77  S   UNL A   1      48.626  27.543  22.892  1.00  0.00     0.124 S 
ATOM     78  O   UNL A   1      48.653  26.088  22.775  1.00  0.00    -0.237 OA
ATOM     79  O   UNL A   1      47.424  28.204  22.399  1.00  0.00    -0.237 OA
ATOM     80  O   UNL A   1      49.884  28.209  22.562  1.00  0.00    -0.744 OA
ENDBRANCH  73  77
ENDBRANCH  56  70
BRANCH  57  81
ATOM     81  C   UNL A   1      38.546  30.915  31.003  1.00  0.00     0.023 A 
ATOM     82  C   UNL A   1      37.514  31.674  30.433  1.00  0.00     0.031 A 
ATOM     83  C   UNL A   1      38.403  30.467  32.326  1.00  0.00     0.131 A 
ATOM     84  C   UNL A   1      36.379  31.979  31.198  1.00  0.00     0.055 A 
ATOM     85  C   UNL A   1      37.266  30.760  33.078  1.00  0.00     0.041 A 
ATOM     86  F   UNL A   1      39.365  29.725  32.898  1.00  0.00    -0.206 F 
ATOM     87  C   UNL A   1      36.246  31.523  32.514  1.00  0.00     0.022 A 
BRANCH  84  88
ATOM     88  S   UNL A   1      35.065  32.980  30.445  1.00  0.00     0.124 S 
ATOM     89  O   UNL A   1      34.261  33.340  31.608  1.00  0.00    -0.237 OA
ATOM     90  O   UNL A   1      35.822  34.062  29.827  1.00  0.00    -0.237 OA
ATOM     91  O   UNL A   1      34.430  32.057  29.507  1.00  0.00    -0.744 OA
ENDBRANCH  84  88
ENDBRANCH  57  81
BRANCH  69  92
ATOM     92  C   UNL A   1      44.561  34.234  30.015  1.00  0.00     0.023 A 
ATOM     93  C   UNL A   1      44.443  35.322  29.134  1.00  0.00     0.031 A 
ATOM     94  C   UNL A   1      45.148  34.448  31.273  1.00  0.00     0.131 A 
ATOM     95  C   UNL A   1      44.937  36.579  29.515  1.00  0.00     0.055 A 
ATOM     96  C   UNL A   1      45.615  35.705  31.656  1.00  0.00     0.041 A 
ATOM     97  F   UNL A   1      45.285  33.434  32.142  1.00  0.00    -0.206 F 
ATOM     98  C   UNL A   1      45.516  36.778  30.772  1.00  0.00     0.022 A 
BRANCH  95  99
ATOM     99  S   UNL A   1      44.852  37.949  28.327  1.00  0.00     0.124 S 
ATOM    100  O   UNL A   1      45.980  38.778  28.738  1.00  0.00    -0.237 OA
ATOM    101  O   UNL A   1      44.995  37.264  27.047  1.00  0.00    -0.237 OA
ATOM    102  O   UNL A   1      43.534  38.531  28.571  1.00  0.00    -0.744 OA
ENDBRANCH  95  99
ENDBRANCH  69  92
ENDBRANCH  43  44
ENDBRANCH  35  38
ENDBRANCH  33  34
ENDBRANCH  32  33
ENDBRANCH  31  32
ENDBRANCH   1  31
TORSDOF 20
ENDMDL
MODEL 2
REMARK VINA RESULT:     -11.8      2.568      7.982
REMARK SMILES CCc1cc(C(=O)c2[nH]c3cc(Cl)ccc3c2CC(=O)NCCCCCCNC(=O)c2ccc(-c3c4nc(c(-c5cc(S(=O)(=O)[O-])ccc5F)c5ccc([nH]5)c(-c5cc(S(=O)(=O)[O-])ccc5F)c5nc(c(-c6cc(S(=O)(=O)[O-])ccc6F)c6ccc3[nH]6)C=C5)C=C4)cc2)ncc1Cl
REMARK SMILES IDX 24 1 23 2 22 3 21 4 19 5 20 6 18 8 17 9 8 10 9 11 10 12
REMARK SMILES IDX 16 14 11 15 15 16 12 17 14 18 13 19 6 20 7 21 5 22 3 23 4 24
REMARK SMILES IDX 96 25 95 26 97 27 94 28 2 29 1 30 25 31 26 32 27 33 28 34
REMARK SMILES IDX 29 35 30 37 31 38 32 39 93 40 33 41 92 42 34 43 35 44 36 45
REMARK SMILES IDX 86 46 37 47 91 48 85 49 87 50 38 51 90 52 84 53 83 54 39 56
REMARK SMILES IDX 71 57 51 58 70 59 52 60 55 61 69 62 88 63 53 64 54 65 68 67
REMARK SMILES IDX 89 68 56 69 40 70 41 71 49 72 42 73 48 74 50 75 47 76 43 77
REMARK SMILES IDX 44 78 45 79 46 80 72 81 73 82 81 83 74 84 80 85 82 86 79 87
REMARK SMILES IDX 75 88 76 89 77 90 78 91 57 92 58 93 66 94 59 95 65 96 67 97
REMARK SMILES IDX 64 98 60 99 61 100 62 101 63 102
REMARK H PARENT 21 7 9 13 28 36 87 55 55 66
REMARK Flexibility Score: inf
ROOT
ATOM      1  C   UNL A   1      36.695  23.010  25.253  1.00  0.00     0.002 C 
ENDROOT
BRANCH   1   2
ATOM      2  C   UNL A   1      35.442  23.609  25.905  1.00  0.00     0.021 C 
BRANCH   2   3
ATOM      3  C   UNL A   1      34.872  24.840  25.200  1.00  0.00     0.116 C 
BRANCH   3   4
ATOM      4  N   UNL A   1      33.972  25.601  26.045  1.00  0.00    -0.356 N 
ATOM      5  C   UNL A   1      33.357  26.795  25.801  1.00  0.00     0.224 C 
ATOM      6  O   UNL A   1      32.527  27.204  26.617  1.00  0.00    -0.275 OA
ATOM      7  H   UNL A   1      33.776  25.198  26.922  1.00  0.00     0.163 HD
BRANCH   5   8
ATOM      8  C   UNL A   1      33.596  27.542  24.498  1.00  0.00     0.138 C 
BRANCH   8   9
ATOM      9  C   UNL A   1      32.378  27.739  23.640  1.00  0.00    -0.002 A 
ATOM     10  C   UNL A   1      31.991  26.996  22.530  1.00  0.00     0.093 A 
ATOM     11  N   UNL A   1      30.769  27.475  22.120  1.00  0.00    -0.351 N 
ATOM     12  C   UNL A   1      30.435  28.610  22.816  1.00  0.00     0.048 A 
ATOM     13  H   UNL A   1      30.209  27.062  21.423  1.00  0.00     0.167 HD
ATOM     14  C   UNL A   1      31.423  28.803  23.780  1.00  0.00     0.004 A 
ATOM     15  C   UNL A   1      29.333  29.462  22.670  1.00  0.00     0.047 A 
ATOM     16  C   UNL A   1      31.303  29.911  24.647  1.00  0.00     0.012 A 
ATOM     17  C   UNL A   1      29.249  30.555  23.537  1.00  0.00     0.043 A 
ATOM     18  C   UNL A   1      30.213  30.781  24.513  1.00  0.00     0.021 A 
ATOM     19  Cl  UNL A   1      27.926  31.645  23.385  1.00  0.00    -0.084 Cl
BRANCH  10  20
ATOM     20  C   UNL A   1      32.645  25.864  21.896  1.00  0.00     0.227 C 
ATOM     21  O   UNL A   1      33.288  25.998  20.859  1.00  0.00    -0.285 OA
BRANCH  20  22
ATOM     22  C   UNL A   1      32.551  24.515  22.575  1.00  0.00     0.113 A 
ATOM     23  C   UNL A   1      31.674  23.018  24.274  1.00  0.00    -0.026 A 
ATOM     24  C   UNL A   1      31.686  24.278  23.646  1.00  0.00     0.037 A 
ATOM     25  C   UNL A   1      32.506  22.020  23.759  1.00  0.00     0.062 A 
ATOM     26  C   UNL A   1      33.325  22.335  22.682  1.00  0.00     0.132 A 
ATOM     27  Cl  UNL A   1      32.554  20.421  24.399  1.00  0.00    -0.082 Cl
ATOM     28  N   UNL A   1      33.377  23.553  22.093  1.00  0.00    -0.251 NA
BRANCH  23  29
ATOM     29  C   UNL A   1      30.758  22.804  25.455  1.00  0.00     0.034 C 
ATOM     30  C   UNL A   1      31.487  22.940  26.783  1.00  0.00     0.009 C 
ENDBRANCH  23  29
ENDBRANCH  20  22
ENDBRANCH  10  20
ENDBRANCH   8   9
ENDBRANCH   5   8
ENDBRANCH   3   4
ENDBRANCH   2   3
ENDBRANCH   1   2
BRANCH   1  31
ATOM     31  C   UNL A   1      36.537  21.607  24.656  1.00  0.00     0.002 C 
BRANCH  31  32
ATOM     32  C   UNL A   1      37.785  20.717  24.686  1.00  0.00     0.021 C 
BRANCH  32  33
ATOM     33  C   UNL A   1      38.720  20.925  25.877  1.00  0.00     0.116 C 
BRANCH  33  34
ATOM     34  N   UNL A   1      39.756  19.910  25.956  1.00  0.00    -0.352 N 
ATOM     35  C   UNL A   1      41.105  20.056  26.172  1.00  0.00     0.251 C 
ATOM     36  H   UNL A   1      39.446  18.984  25.837  1.00  0.00     0.163 HD
ATOM     37  O   UNL A   1      41.841  19.080  26.055  1.00  0.00    -0.269 OA
BRANCH  35  38
ATOM     38  C   UNL A   1      41.681  21.376  26.522  1.00  0.00     0.039 A 
ATOM     39  C   UNL A   1      41.895  22.304  25.495  1.00  0.00     0.014 A 
ATOM     40  C   UNL A   1      42.060  21.688  27.831  1.00  0.00     0.014 A 
ATOM     41  C   UNL A   1      42.441  23.559  25.786  1.00  0.00     0.010 A 
ATOM     42  C   UNL A   1      42.579  22.950  28.126  1.00  0.00     0.010 A 
ATOM     43  C   UNL A   1      42.773  23.895  27.107  1.00  0.00    -0.014 A 
BRANCH  43  44
ATOM     44  C   UNL A   1      43.336  25.227  27.439  1.00  0.00     0.031 A 
ATOM     45  C   UNL A   1      42.458  26.291  28.032  1.00  0.00     0.074 A 
ATOM     46  C   UNL A   1      44.617  25.505  27.134  1.00  0.00     0.049 A 
ATOM     47  N   UNL A   1      42.730  27.547  28.279  1.00  0.00    -0.248 NA
ATOM     48  C   UNL A   1      41.085  25.891  28.369  1.00  0.00     0.031 C 
ATOM     49  C   UNL A   1      45.563  24.572  26.518  1.00  0.00     0.029 A 
ATOM     50  N   UNL A   1      45.335  26.666  27.276  1.00  0.00    -0.354 N 
ATOM     51  C   UNL A   1      41.554  28.099  28.773  1.00  0.00     0.074 A 
ATOM     52  C   UNL A   1      40.564  27.039  28.778  1.00  0.00     0.031 C 
ATOM     53  C   UNL A   1      46.731  25.205  26.316  1.00  0.00     0.029 A 
ATOM     54  C   UNL A   1      46.610  26.587  26.772  1.00  0.00     0.049 A 
ATOM     55  H   UNL A   1      44.970  27.476  27.698  1.00  0.00     0.167 HD
ATOM     56  C   UNL A   1      41.318  29.371  29.185  1.00  0.00     0.034 A 
ATOM     57  C   UNL A   1      47.566  27.528  26.667  1.00  0.00     0.034 A 
ATOM     58  C   UNL A   1      42.309  30.417  29.200  1.00  0.00     0.049 A 
ATOM     59  C   UNL A   1      47.299  28.919  27.166  1.00  0.00     0.074 A 
ATOM     60  C   UNL A   1      42.188  31.718  29.660  1.00  0.00     0.029 A 
ATOM     61  N   UNL A   1      43.607  30.284  28.728  1.00  0.00    -0.354 N 
ATOM     62  N   UNL A   1      46.188  29.420  27.651  1.00  0.00    -0.248 NA
ATOM     63  C   UNL A   1      48.419  29.866  27.106  1.00  0.00     0.031 C 
ATOM     64  C   UNL A   1      43.403  32.380  29.435  1.00  0.00     0.029 A 
ATOM     65  C   UNL A   1      44.291  31.481  28.868  1.00  0.00     0.049 A 
ATOM     66  H   UNL A   1      43.986  29.459  28.349  1.00  0.00     0.167 HD
ATOM     67  C   UNL A   1      46.477  30.743  27.958  1.00  0.00     0.074 A 
ATOM     68  C   UNL A   1      47.866  30.964  27.606  1.00  0.00     0.031 C 
ATOM     69  C   UNL A   1      45.666  31.691  28.490  1.00  0.00     0.034 A 
BRANCH  56  70
ATOM     70  C   UNL A   1      39.911  29.695  29.607  1.00  0.00     0.023 A 
ATOM     71  C   UNL A   1      39.554  29.803  30.962  1.00  0.00     0.031 A 
ATOM     72  C   UNL A   1      38.903  29.844  28.639  1.00  0.00     0.131 A 
ATOM     73  C   UNL A   1      38.210  29.988  31.314  1.00  0.00     0.055 A 
ATOM     74  C   UNL A   1      37.575  30.086  28.995  1.00  0.00     0.041 A 
ATOM     75  F   UNL A   1      39.189  29.730  27.332  1.00  0.00    -0.206 F 
ATOM     76  C   UNL A   1      37.220  30.145  30.340  1.00  0.00     0.022 A 
BRANCH  73  77
ATOM     77  S   UNL A   1      37.751  29.886  33.068  1.00  0.00     0.124 S 
ATOM     78  O   UNL A   1      39.038  30.090  33.726  1.00  0.00    -0.237 OA
ATOM     79  O   UNL A   1      36.783  30.967  33.202  1.00  0.00    -0.237 OA
ATOM     80  O   UNL A   1      37.202  28.537  33.198  1.00  0.00    -0.744 OA
ENDBRANCH  73  77
ENDBRANCH  56  70
BRANCH  57  81
ATOM     81  C   UNL A   1      48.854  27.197  26.014  1.00  0.00     0.023 A 
ATOM     82  C   UNL A   1      49.978  26.834  26.770  1.00  0.00     0.031 A 
ATOM     83  C   UNL A   1      48.968  27.242  24.615  1.00  0.00     0.131 A 
ATOM     84  C   UNL A   1      51.185  26.544  26.117  1.00  0.00     0.055 A 
ATOM     85  C   UNL A   1      50.166  26.939  23.969  1.00  0.00     0.041 A 
ATOM     86  F   UNL A   1      47.909  27.571  23.859  1.00  0.00    -0.206 F 
ATOM     87  C   UNL A   1      51.285  26.590  24.722  1.00  0.00     0.022 A 
BRANCH  84  88
ATOM     88  S   UNL A   1      52.631  26.097  27.119  1.00  0.00     0.124 S 
ATOM     89  O   UNL A   1      52.019  25.786  28.405  1.00  0.00    -0.237 OA
ATOM     90  O   UNL A   1      53.178  24.967  26.377  1.00  0.00    -0.237 OA
ATOM     91  O   UNL A   1      53.450  27.307  27.091  1.00  0.00    -0.744 OA
ENDBRANCH  84  88
ENDBRANCH  57  81
BRANCH  69  92
ATOM     92  C   UNL A   1      46.282  33.037  28.741  1.00  0.00     0.023 A 
ATOM     93  C   UNL A   1      46.285  34.033  27.751  1.00  0.00     0.031 A 
ATOM     94  C   UNL A   1      46.893  33.313  29.975  1.00  0.00     0.131 A 
ATOM     95  C   UNL A   1      46.919  35.259  28.003  1.00  0.00     0.055 A 
ATOM     96  C   UNL A   1      47.500  34.544  30.230  1.00  0.00     0.041 A 
ATOM     97  F   UNL A   1      46.918  32.387  30.946  1.00  0.00    -0.206 F 
ATOM     98  C   UNL A   1      47.520  35.522  29.237  1.00  0.00     0.022 A 
BRANCH  95  99
ATOM     99  S   UNL A   1      46.984  36.499  26.679  1.00  0.00     0.124 S 
ATOM    100  O   UNL A   1      46.473  35.750  25.536  1.00  0.00    -0.237 OA
ATOM    101  O   UNL A   1      46.116  37.553  27.192  1.00  0.00    -0.237 OA
ATOM    102  O   UNL A   1      48.402  36.847  26.606  1.00  0.00    -0.744 OA
ENDBRANCH  95  99
ENDBRANCH  69  92
ENDBRANCH  43  44
ENDBRANCH  35  38
ENDBRANCH  33  34
ENDBRANCH  32  33
ENDBRANCH  31  32
ENDBRANCH   1  31
TORSDOF 20
ENDMDL
MODEL 3
REMARK VINA RESULT:     -11.7      1.714      7.590
REMARK SMILES CCc1cc(C(=O)c2[nH]c3cc(Cl)ccc3c2CC(=O)NCCCCCCNC(=O)c2ccc(-c3c4nc(c(-c5cc(S(=O)(=O)[O-])ccc5F)c5ccc([nH]5)c(-c5cc(S(=O)(=O)[O-])ccc5F)c5nc(c(-c6cc(S(=O)(=O)[O-])ccc6F)c6ccc3[nH]6)C=C5)C=C4)cc2)ncc1Cl
REMARK SMILES IDX 24 1 23 2 22 3 21 4 19 5 20 6 18 8 17 9 8 10 9 11 10 12
REMARK SMILES IDX 16 14 11 15 15 16 12 17 14 18 13 19 6 20 7 21 5 22 3 23 4 24
REMARK SMILES IDX 96 25 95 26 97 27 94 28 2 29 1 30 25 31 26 32 27 33 28 34
REMARK SMILES IDX 29 35 30 37 31 38 32 39 93 40 33 41 92 42 34 43 35 44 36 45
REMARK SMILES IDX 86 46 37 47 91 48 85 49 87 50 38 51 90 52 84 53 83 54 39 56
REMARK SMILES IDX 71 57 51 58 70 59 52 60 55 61 69 62 88 63 53 64 54 65 68 67
REMARK SMILES IDX 89 68 56 69 40 70 41 71 49 72 42 73 48 74 50 75 47 76 43 77
REMARK SMILES IDX 44 78 45 79 46 80 72 81 73 82 81 83 74 84 80 85 82 86 79 87
REMARK SMILES IDX 75 88 76 89 77 90 78 91 57 92 58 93 66 94 59 95 65 96 67 97
REMARK SMILES IDX 64 98 60 99 61 100 62 101 63 102
REMARK H PARENT 21 7 9 13 28 36 87 55 55 66
REMARK Flexibility Score: inf
ROOT
ATOM      1  C   UNL A   1      36.135  23.244  24.801  1.00  0.00     0.002 C 
ENDROOT
BRANCH   1   2
ATOM      2  C   UNL A   1      35.069  23.959  25.640  1.00  0.00     0.021 C 
BRANCH   2   3
ATOM      3  C   UNL A   1      34.894  25.446  25.332  1.00  0.00     0.116 C 
BRANCH   3   4
ATOM      4  N   UNL A   1      33.847  26.061  26.124  1.00  0.00    -0.356 N 
ATOM      5  C   UNL A   1      33.115  27.186  25.871  1.00  0.00     0.224 C 
ATOM      6  O   UNL A   1      32.182  27.461  26.628  1.00  0.00    -0.275 OA
ATOM      7  H   UNL A   1      33.632  25.601  26.968  1.00  0.00     0.163 HD
BRANCH   5   8
ATOM      8  C   UNL A   1      33.366  28.010  24.618  1.00  0.00     0.138 C 
BRANCH   8   9
ATOM      9  C   UNL A   1      32.211  28.083  23.658  1.00  0.00    -0.002 A 
ATOM     10  C   UNL A   1      31.982  27.286  22.541  1.00  0.00     0.093 A 
ATOM     11  N   UNL A   1      30.762  27.649  22.020  1.00  0.00    -0.351 N 
ATOM     12  C   UNL A   1      30.277  28.765  22.654  1.00  0.00     0.048 A 
ATOM     13  H   UNL A   1      30.299  27.175  21.292  1.00  0.00     0.167 HD
ATOM     14  C   UNL A   1      31.162  29.063  23.690  1.00  0.00     0.004 A 
ATOM     15  C   UNL A   1      29.124  29.517  22.396  1.00  0.00     0.047 A 
ATOM     16  C   UNL A   1      30.877  30.176  24.512  1.00  0.00     0.012 A 
ATOM     17  C   UNL A   1      28.875  30.616  23.221  1.00  0.00     0.043 A 
ATOM     18  C   UNL A   1      29.733  30.945  24.266  1.00  0.00     0.021 A 
ATOM     19  Cl  UNL A   1      27.483  31.584  22.931  1.00  0.00    -0.084 Cl
BRANCH  10  20
ATOM     20  C   UNL A   1      32.779  26.201  21.995  1.00  0.00     0.227 C 
ATOM     21  O   UNL A   1      33.613  26.403  21.117  1.00  0.00    -0.285 OA
BRANCH  20  22
ATOM     22  C   UNL A   1      32.587  24.816  22.572  1.00  0.00     0.113 A 
ATOM     23  C   UNL A   1      31.669  23.274  24.209  1.00  0.00    -0.026 A 
ATOM     24  C   UNL A   1      31.774  24.576  23.683  1.00  0.00     0.037 A 
ATOM     25  C   UNL A   1      32.354  22.245  23.556  1.00  0.00     0.062 A 
ATOM     26  C   UNL A   1      33.129  22.567  22.450  1.00  0.00     0.132 A 
ATOM     27  Cl  UNL A   1      32.273  20.601  24.064  1.00  0.00    -0.082 Cl
ATOM     28  N   UNL A   1      33.272  23.819  21.956  1.00  0.00    -0.251 NA
BRANCH  23  29
ATOM     29  C   UNL A   1      30.815  23.054  25.435  1.00  0.00     0.034 C 
ATOM     30  C   UNL A   1      31.633  23.067  26.717  1.00  0.00     0.009 C 
ENDBRANCH  23  29
ENDBRANCH  20  22
ENDBRANCH  10  20
ENDBRANCH   8   9
ENDBRANCH   5   8
ENDBRANCH   3   4
ENDBRANCH   2   3
ENDBRANCH   1   2
BRANCH   1  31
ATOM     31  C   UNL A   1      35.927  21.740  24.588  1.00  0.00     0.002 C 
BRANCH  31  32
ATOM     32  C   UNL A   1      37.186  20.868  24.657  1.00  0.00     0.021 C 
BRANCH  32  33
ATOM     33  C   UNL A   1      38.295  21.375  25.579  1.00  0.00     0.116 C 
BRANCH  33  34
ATOM     34  N   UNL A   1      39.230  20.329  25.954  1.00  0.00    -0.352 N 
ATOM     35  C   UNL A   1      40.508  20.437  26.448  1.00  0.00     0.251 C 
ATOM     36  H   UNL A   1      38.899  19.410  25.838  1.00  0.00     0.163 HD
ATOM     37  O   UNL A   1      41.194  19.426  26.565  1.00  0.00    -0.269 OA
BRANCH  35  38
ATOM     38  C   UNL A   1      41.071  21.757  26.818  1.00  0.00     0.039 A 
ATOM     39  C   UNL A   1      41.106  22.765  25.847  1.00  0.00     0.014 A 
ATOM     40  C   UNL A   1      41.610  21.995  28.087  1.00  0.00     0.014 A 
ATOM     41  C   UNL A   1      41.635  24.022  26.158  1.00  0.00     0.010 A 
ATOM     42  C   UNL A   1      42.112  23.258  28.406  1.00  0.00     0.010 A 
ATOM     43  C   UNL A   1      42.128  24.281  27.445  1.00  0.00    -0.014 A 
BRANCH  43  44
ATOM     44  C   UNL A   1      42.676  25.614  27.801  1.00  0.00     0.031 A 
ATOM     45  C   UNL A   1      41.794  26.644  28.448  1.00  0.00     0.074 A 
ATOM     46  C   UNL A   1      43.943  25.924  27.471  1.00  0.00     0.049 A 
ATOM     47  N   UNL A   1      42.050  27.897  28.724  1.00  0.00    -0.248 NA
ATOM     48  C   UNL A   1      40.438  26.208  28.809  1.00  0.00     0.031 C 
ATOM     49  C   UNL A   1      44.889  25.027  26.804  1.00  0.00     0.029 A 
ATOM     50  N   UNL A   1      44.643  27.093  27.628  1.00  0.00    -0.354 N 
ATOM     51  C   UNL A   1      40.878  28.412  29.265  1.00  0.00     0.074 A 
ATOM     52  C   UNL A   1      39.908  27.334  29.265  1.00  0.00     0.031 C 
ATOM     53  C   UNL A   1      46.039  25.687  26.589  1.00  0.00     0.029 A 
ATOM     54  C   UNL A   1      45.905  27.052  27.088  1.00  0.00     0.049 A 
ATOM     55  H   UNL A   1      44.275  27.884  28.083  1.00  0.00     0.167 HD
ATOM     56  C   UNL A   1      40.631  29.667  29.719  1.00  0.00     0.034 A 
ATOM     57  C   UNL A   1      46.841  28.014  26.986  1.00  0.00     0.034 A 
ATOM     58  C   UNL A   1      41.603  30.731  29.739  1.00  0.00     0.049 A 
ATOM     59  C   UNL A   1      46.563  29.385  27.531  1.00  0.00     0.074 A 
ATOM     60  C   UNL A   1      41.471  32.015  30.239  1.00  0.00     0.029 A 
ATOM     61  N   UNL A   1      42.890  30.635  29.229  1.00  0.00    -0.354 N 
ATOM     62  N   UNL A   1      45.456  29.851  28.059  1.00  0.00    -0.248 NA
ATOM     63  C   UNL A   1      47.663  30.354  27.470  1.00  0.00     0.031 C 
ATOM     64  C   UNL A   1      42.668  32.707  30.002  1.00  0.00     0.029 A 
ATOM     65  C   UNL A   1      43.556  31.841  29.386  1.00  0.00     0.049 A 
ATOM     66  H   UNL A   1      43.274  29.829  28.816  1.00  0.00     0.167 HD
ATOM     67  C   UNL A   1      45.729  31.170  28.397  1.00  0.00     0.074 A 
ATOM     68  C   UNL A   1      47.104  31.427  28.015  1.00  0.00     0.031 C 
ATOM     69  C   UNL A   1      44.916  32.087  28.978  1.00  0.00     0.034 A 
BRANCH  56  70
ATOM     70  C   UNL A   1      39.230  29.953  30.187  1.00  0.00     0.023 A 
ATOM     71  C   UNL A   1      38.274  30.537  29.339  1.00  0.00     0.031 A 
ATOM     72  C   UNL A   1      38.865  29.687  31.519  1.00  0.00     0.131 A 
ATOM     73  C   UNL A   1      37.019  30.897  29.849  1.00  0.00     0.055 A 
ATOM     74  C   UNL A   1      37.594  29.995  32.006  1.00  0.00     0.041 A 
ATOM     75  F   UNL A   1      39.749  29.150  32.375  1.00  0.00    -0.206 F 
ATOM     76  C   UNL A   1      36.667  30.616  31.173  1.00  0.00     0.022 A 
BRANCH  73  77
ATOM     77  S   UNL A   1      35.897  31.859  28.795  1.00  0.00     0.124 S 
ATOM     78  O   UNL A   1      34.769  32.089  29.692  1.00  0.00    -0.237 OA
ATOM     79  O   UNL A   1      36.704  33.027  28.466  1.00  0.00    -0.237 OA
ATOM     80  O   UNL A   1      35.621  30.957  27.679  1.00  0.00    -0.744 OA
ENDBRANCH  73  77
ENDBRANCH  56  70
BRANCH  57  81
ATOM     81  C   UNL A   1      48.117  27.726  26.289  1.00  0.00     0.023 A 
ATOM     82  C   UNL A   1      48.185  27.683  24.889  1.00  0.00     0.031 A 
ATOM     83  C   UNL A   1      49.287  27.489  27.029  1.00  0.00     0.131 A 
ATOM     84  C   UNL A   1      49.407  27.390  24.266  1.00  0.00     0.055 A 
ATOM     85  C   UNL A   1      50.503  27.212  26.405  1.00  0.00     0.041 A 
ATOM     86  F   UNL A   1      49.262  27.537  28.370  1.00  0.00    -0.206 F 
ATOM     87  C   UNL A   1      50.566  27.158  25.014  1.00  0.00     0.022 A 
BRANCH  84  88
ATOM     88  S   UNL A   1      49.465  27.319  22.453  1.00  0.00     0.124 S 
ATOM     89  O   UNL A   1      48.698  26.110  22.176  1.00  0.00    -0.237 OA
ATOM     90  O   UNL A   1      48.834  28.580  22.079  1.00  0.00    -0.237 OA
ATOM     91  O   UNL A   1      50.894  27.234  22.163  1.00  0.00    -0.744 OA
ENDBRANCH  84  88
ENDBRANCH  57  81
BRANCH  69  92
ATOM     92  C   UNL A   1      45.515  33.436  29.252  1.00  0.00     0.023 A 
ATOM     93  C   UNL A   1      45.352  34.502  28.351  1.00  0.00     0.031 A 
ATOM     94  C   UNL A   1      46.275  33.648  30.413  1.00  0.00     0.131 A 
ATOM     95  C   UNL A   1      45.972  35.733  28.614  1.00  0.00     0.055 A 
ATOM     96  C   UNL A   1      46.869  34.881  30.683  1.00  0.00     0.041 A 
ATOM     97  F   UNL A   1      46.460  32.654  31.296  1.00  0.00    -0.206 F 
ATOM     98  C   UNL A   1      46.723  35.930  29.777  1.00  0.00     0.022 A 
BRANCH  95  99
ATOM     99  S   UNL A   1      45.818  37.068  27.395  1.00  0.00     0.124 S 
ATOM    100  O   UNL A   1      45.922  38.258  28.232  1.00  0.00    -0.237 OA
ATOM    101  O   UNL A   1      46.946  36.813  26.505  1.00  0.00    -0.237 OA
ATOM    102  O   UNL A   1      44.501  36.841  26.803  1.00  0.00    -0.744 OA
ENDBRANCH  95  99
ENDBRANCH  69  92
ENDBRANCH  43  44
ENDBRANCH  35  38
ENDBRANCH  33  34
ENDBRANCH  32  33
ENDBRANCH  31  32
ENDBRANCH   1  31
TORSDOF 20
ENDMDL
