MODEL 1
REMARK VINA RESULT:     -10.0      0.000      0.000
REMARK SMILES COc1cccc(-c2cc(OCC(=O)NCCCCCCNC(=O)c3ccc(-c4c5nc(c(-c6cc(S(=O)(=O)[O-])ccc6F)c6ccc([nH]6)c(-c6cc(S(=O)(=O)[O-])ccc6F)c6nc(c(-c7cc(S(=O)(=O)[O-])ccc7F)c7ccc4[nH]7)C=C6)C=C5)cc3)nc(Nc3ccccc3Br)n2)c1
REMARK SMILES IDX 18 1 17 2 16 3 15 4 13 5 14 6 12 8 11 9 10 10 8 11 9 12
REMARK SMILES IDX 98 13 89 14 88 15 7 16 3 17 4 18 99 19 5 20 6 21 2 22 1 23
REMARK SMILES IDX 90 24 91 26 92 27 96 28 93 29 95 30 97 31 94 32 19 33 20 34
REMARK SMILES IDX 21 35 22 36 23 37 24 39 25 40 26 41 87 42 27 43 86 44 28 45
REMARK SMILES IDX 29 46 30 47 80 48 31 49 85 50 79 51 81 52 32 53 84 54 78 55
REMARK SMILES IDX 77 56 33 58 65 59 45 60 64 61 46 62 49 63 63 64 82 65 47 66
REMARK SMILES IDX 48 67 62 69 83 70 50 71 34 72 35 73 43 74 36 75 42 76 44 77
REMARK SMILES IDX 41 78 37 79 38 80 39 81 40 82 66 83 67 84 75 85 68 86 74 87
REMARK SMILES IDX 76 88 73 89 69 90 70 91 71 92 72 93 51 94 52 95 60 96 53 97
REMARK SMILES IDX 59 98 61 99 58 100 54 101 55 102 56 103 57 104
REMARK H PARENT 15 7 90 25 22 38 81 57 49 68
REMARK Flexibility Score: inf
ROOT
ATOM      1  C   UNL A   1      35.639  34.883  33.739  1.00  0.00     0.002 C 
ENDROOT
BRANCH   1   2
ATOM      2  C   UNL A   1      35.336  34.437  32.302  1.00  0.00     0.021 C 
BRANCH   2   3
ATOM      3  C   UNL A   1      33.922  34.762  31.822  1.00  0.00     0.116 C 
BRANCH   3   4
ATOM      4  N   UNL A   1      33.940  35.546  30.603  1.00  0.00    -0.353 N 
ATOM      5  C   UNL A   1      34.100  35.111  29.323  1.00  0.00     0.258 C 
ATOM      6  O   UNL A   1      34.116  35.938  28.410  1.00  0.00    -0.271 OA
ATOM      7  H   UNL A   1      33.820  36.517  30.714  1.00  0.00     0.163 HD
BRANCH   5   8
ATOM      8  C   UNL A   1      34.238  33.608  29.042  1.00  0.00     0.331 C 
BRANCH   8   9
ATOM      9  O   UNL A   1      35.549  33.081  28.927  1.00  0.00    -0.467 OA
BRANCH   9  10
ATOM     10  C   UNL A   1      35.694  31.816  28.433  1.00  0.00     0.219 A 
ATOM     11  C   UNL A   1      35.017  29.803  27.469  1.00  0.00     0.080 A 
ATOM     12  C   UNL A   1      34.664  31.023  27.996  1.00  0.00     0.097 A 
ATOM     13  N   UNL A   1      36.286  29.374  27.433  1.00  0.00    -0.212 NA
ATOM     14  C   UNL A   1      37.236  30.208  27.882  1.00  0.00     0.231 A 
ATOM     15  N   UNL A   1      36.976  31.416  28.397  1.00  0.00    -0.177 NA
BRANCH  11  16
ATOM     16  C   UNL A   1      34.011  28.916  26.886  1.00  0.00     0.004 A 
ATOM     17  C   UNL A   1      33.205  27.615  24.989  1.00  0.00     0.119 A 
ATOM     18  C   UNL A   1      32.016  27.367  25.674  1.00  0.00     0.046 A 
ATOM     19  C   UNL A   1      34.191  28.397  25.590  1.00  0.00     0.056 A 
ATOM     20  C   UNL A   1      31.834  27.846  26.971  1.00  0.00     0.005 A 
ATOM     21  C   UNL A   1      32.832  28.607  27.579  1.00  0.00     0.010 A 
BRANCH  17  22
ATOM     22  O   UNL A   1      33.278  27.101  23.722  1.00  0.00    -0.497 OA
ATOM     23  C   UNL A   1      33.690  28.022  22.714  1.00  0.00     0.278 C 
ENDBRANCH  17  22
ENDBRANCH  11  16
BRANCH  14  24
ATOM     24  N   UNL A   1      38.568  29.802  27.867  1.00  0.00    -0.323 N 
ATOM     25  H   UNL A   1      39.225  30.486  27.601  1.00  0.00     0.170 HD
BRANCH  24  26
ATOM     26  C   UNL A   1      39.086  28.539  28.184  1.00  0.00     0.055 A 
ATOM     27  C   UNL A   1      38.543  27.862  29.288  1.00  0.00     0.027 A 
ATOM     28  C   UNL A   1      40.047  27.867  27.404  1.00  0.00     0.041 A 
ATOM     29  C   UNL A   1      38.917  26.548  29.586  1.00  0.00     0.002 A 
ATOM     30  C   UNL A   1      40.422  26.552  27.706  1.00  0.00     0.018 A 
ATOM     31  Br  UNL A   1      40.992  28.720  25.985  1.00  0.00    -0.049 Br
ATOM     32  C   UNL A   1      39.848  25.889  28.789  1.00  0.00     0.001 A 
ENDBRANCH  24  26
ENDBRANCH  14  24
ENDBRANCH   9  10
ENDBRANCH   8   9
ENDBRANCH   5   8
ENDBRANCH   3   4
ENDBRANCH   2   3
ENDBRANCH   1   2
BRANCH   1  33
ATOM     33  C   UNL A   1      35.964  33.755  34.724  1.00  0.00     0.002 C 
BRANCH  33  34
ATOM     34  C   UNL A   1      37.447  33.401  34.844  1.00  0.00     0.021 C 
BRANCH  34  35
ATOM     35  C   UNL A   1      37.770  31.925  34.641  1.00  0.00     0.116 C 
BRANCH  35  36
ATOM     36  N   UNL A   1      36.873  31.294  33.687  1.00  0.00    -0.352 N 
ATOM     37  C   UNL A   1      37.161  30.405  32.681  1.00  0.00     0.251 C 
ATOM     38  H   UNL A   1      35.924  31.540  33.774  1.00  0.00     0.163 HD
ATOM     39  O   UNL A   1      36.304  30.136  31.843  1.00  0.00    -0.269 OA
BRANCH  37  40
ATOM     40  C   UNL A   1      38.508  29.799  32.594  1.00  0.00     0.039 A 
ATOM     41  C   UNL A   1      39.609  30.623  32.350  1.00  0.00     0.014 A 
ATOM     42  C   UNL A   1      38.688  28.421  32.753  1.00  0.00     0.014 A 
ATOM     43  C   UNL A   1      40.895  30.076  32.336  1.00  0.00     0.010 A 
ATOM     44  C   UNL A   1      39.975  27.891  32.815  1.00  0.00     0.010 A 
ATOM     45  C   UNL A   1      41.093  28.712  32.608  1.00  0.00    -0.014 A 
BRANCH  45  46
ATOM     46  C   UNL A   1      42.461  28.129  32.673  1.00  0.00     0.031 A 
ATOM     47  C   UNL A   1      43.122  27.902  34.007  1.00  0.00     0.074 A 
ATOM     48  C   UNL A   1      43.124  27.843  31.534  1.00  0.00     0.049 A 
ATOM     49  N   UNL A   1      44.333  27.485  34.270  1.00  0.00    -0.248 NA
ATOM     50  C   UNL A   1      42.320  28.210  35.202  1.00  0.00     0.031 C 
ATOM     51  C   UNL A   1      42.600  28.038  30.180  1.00  0.00     0.029 A 
ATOM     52  N   UNL A   1      44.382  27.333  31.328  1.00  0.00    -0.354 N 
ATOM     53  C   UNL A   1      44.438  27.471  35.657  1.00  0.00     0.074 A 
ATOM     54  C   UNL A   1      43.193  27.999  36.175  1.00  0.00     0.031 C 
ATOM     55  C   UNL A   1      43.518  27.629  29.289  1.00  0.00     0.029 A 
ATOM     56  C   UNL A   1      44.716  27.196  30.000  1.00  0.00     0.049 A 
ATOM     57  H   UNL A   1      44.989  27.088  32.063  1.00  0.00     0.167 HD
ATOM     58  C   UNL A   1      45.463  27.030  36.429  1.00  0.00     0.034 A 
ATOM     59  C   UNL A   1      45.863  26.786  29.420  1.00  0.00     0.034 A 
ATOM     60  C   UNL A   1      46.699  26.510  35.902  1.00  0.00     0.049 A 
ATOM     61  C   UNL A   1      47.017  26.372  30.304  1.00  0.00     0.074 A 
ATOM     62  C   UNL A   1      47.797  26.030  36.595  1.00  0.00     0.029 A 
ATOM     63  N   UNL A   1      47.007  26.401  34.552  1.00  0.00    -0.354 N 
ATOM     64  N   UNL A   1      47.085  26.339  31.616  1.00  0.00    -0.248 NA
ATOM     65  C   UNL A   1      48.244  25.928  29.629  1.00  0.00     0.031 C 
ATOM     66  C   UNL A   1      48.790  25.694  35.670  1.00  0.00     0.029 A 
ATOM     67  C   UNL A   1      48.283  25.884  34.394  1.00  0.00     0.049 A 
ATOM     68  H   UNL A   1      46.406  26.655  33.814  1.00  0.00     0.167 HD
ATOM     69  C   UNL A   1      48.345  25.828  31.917  1.00  0.00     0.074 A 
ATOM     70  C   UNL A   1      48.994  25.550  30.653  1.00  0.00     0.031 C 
ATOM     71  C   UNL A   1      48.917  25.606  33.127  1.00  0.00     0.034 A 
BRANCH  58  72
ATOM     72  C   UNL A   1      45.284  27.099  37.926  1.00  0.00     0.023 A 
ATOM     73  C   UNL A   1      45.665  28.240  38.655  1.00  0.00     0.031 A 
ATOM     74  C   UNL A   1      44.732  26.019  38.637  1.00  0.00     0.131 A 
ATOM     75  C   UNL A   1      45.551  28.249  40.053  1.00  0.00     0.055 A 
ATOM     76  C   UNL A   1      44.543  26.067  40.020  1.00  0.00     0.041 A 
ATOM     77  F   UNL A   1      44.369  24.896  37.999  1.00  0.00    -0.206 F 
ATOM     78  C   UNL A   1      44.966  27.182  40.738  1.00  0.00     0.022 A 
BRANCH  75  79
ATOM     79  S   UNL A   1      46.298  29.622  40.972  1.00  0.00     0.124 S 
ATOM     80  O   UNL A   1      46.881  30.415  39.893  1.00  0.00    -0.237 OA
ATOM     81  O   UNL A   1      45.149  30.211  41.650  1.00  0.00    -0.237 OA
ATOM     82  O   UNL A   1      47.267  28.962  41.845  1.00  0.00    -0.744 OA
ENDBRANCH  75  79
ENDBRANCH  58  72
BRANCH  59  83
ATOM     83  C   UNL A   1      46.009  26.765  27.934  1.00  0.00     0.023 A 
ATOM     84  C   UNL A   1      45.774  25.590  27.202  1.00  0.00     0.031 A 
ATOM     85  C   UNL A   1      46.478  27.890  27.231  1.00  0.00     0.131 A 
ATOM     86  C   UNL A   1      46.085  25.539  25.834  1.00  0.00     0.055 A 
ATOM     87  C   UNL A   1      46.714  27.858  25.855  1.00  0.00     0.041 A 
ATOM     88  F   UNL A   1      46.723  29.042  27.876  1.00  0.00    -0.206 F 
ATOM     89  C   UNL A   1      46.539  26.670  25.153  1.00  0.00     0.022 A 
BRANCH  86  90
ATOM     90  S   UNL A   1      46.033  23.932  24.994  1.00  0.00     0.124 S 
ATOM     91  O   UNL A   1      46.509  23.036  26.043  1.00  0.00    -0.237 OA
ATOM     92  O   UNL A   1      44.621  23.820  24.645  1.00  0.00    -0.237 OA
ATOM     93  O   UNL A   1      46.942  24.111  23.865  1.00  0.00    -0.744 OA
ENDBRANCH  86  90
ENDBRANCH  59  83
BRANCH  71  94
ATOM     94  C   UNL A   1      50.287  24.972  33.138  1.00  0.00     0.023 A 
ATOM     95  C   UNL A   1      50.465  23.582  33.039  1.00  0.00     0.031 A 
ATOM     96  C   UNL A   1      51.435  25.778  33.260  1.00  0.00     0.131 A 
ATOM     97  C   UNL A   1      51.754  23.033  33.126  1.00  0.00     0.055 A 
ATOM     98  C   UNL A   1      52.719  25.232  33.277  1.00  0.00     0.041 A 
ATOM     99  F   UNL A   1      51.326  27.113  33.361  1.00  0.00    -0.206 F 
ATOM    100  C   UNL A   1      52.883  23.850  33.225  1.00  0.00     0.022 A 
BRANCH  97 101
ATOM    101  S   UNL A   1      51.929  21.230  33.209  1.00  0.00     0.124 S 
ATOM    102  O   UNL A   1      50.548  20.783  33.064  1.00  0.00    -0.237 OA
ATOM    103  O   UNL A   1      52.812  20.949  32.081  1.00  0.00    -0.237 OA
ATOM    104  O   UNL A   1      52.520  21.002  34.528  1.00  0.00    -0.744 OA
ENDBRANCH  97 101
ENDBRANCH  71  94
ENDBRANCH  45  46
ENDBRANCH  37  40
ENDBRANCH  35  36
ENDBRANCH  34  35
ENDBRANCH  33  34
ENDBRANCH   1  33
TORSDOF 22
ENDMDL
MODEL 2
REMARK VINA RESULT:      -9.9      0.635      7.371
REMARK SMILES COc1cccc(-c2cc(OCC(=O)NCCCCCCNC(=O)c3ccc(-c4c5nc(c(-c6cc(S(=O)(=O)[O-])ccc6F)c6ccc([nH]6)c(-c6cc(S(=O)(=O)[O-])ccc6F)c6nc(c(-c7cc(S(=O)(=O)[O-])ccc7F)c7ccc4[nH]7)C=C6)C=C5)cc3)nc(Nc3ccccc3Br)n2)c1
REMARK SMILES IDX 18 1 17 2 16 3 15 4 13 5 14 6 12 8 11 9 10 10 8 11 9 12
REMARK SMILES IDX 98 13 89 14 88 15 7 16 3 17 4 18 99 19 5 20 6 21 2 22 1 23
REMARK SMILES IDX 90 24 91 26 92 27 96 28 93 29 95 30 97 31 94 32 19 33 20 34
REMARK SMILES IDX 21 35 22 36 23 37 24 39 25 40 26 41 87 42 27 43 86 44 28 45
REMARK SMILES IDX 29 46 30 47 80 48 31 49 85 50 79 51 81 52 32 53 84 54 78 55
REMARK SMILES IDX 77 56 33 58 65 59 45 60 64 61 46 62 49 63 63 64 82 65 47 66
REMARK SMILES IDX 48 67 62 69 83 70 50 71 34 72 35 73 43 74 36 75 42 76 44 77
REMARK SMILES IDX 41 78 37 79 38 80 39 81 40 82 66 83 67 84 75 85 68 86 74 87
REMARK SMILES IDX 76 88 73 89 69 90 70 91 71 92 72 93 51 94 52 95 60 96 53 97
REMARK SMILES IDX 59 98 61 99 58 100 54 101 55 102 56 103 57 104
REMARK H PARENT 15 7 90 25 22 38 81 57 49 68
REMARK Flexibility Score: inf
ROOT
ATOM      1  C   UNL A   1      35.304  34.803  33.187  1.00  0.00     0.002 C 
ENDROOT
BRANCH   1   2
ATOM      2  C   UNL A   1      35.321  34.336  31.725  1.00  0.00     0.021 C 
BRANCH   2   3
ATOM      3  C   UNL A   1      33.991  34.497  30.991  1.00  0.00     0.116 C 
BRANCH   3   4
ATOM      4  N   UNL A   1      34.048  35.564  30.012  1.00  0.00    -0.353 N 
ATOM      5  C   UNL A   1      34.325  35.475  28.682  1.00  0.00     0.258 C 
ATOM      6  O   UNL A   1      34.356  36.506  28.009  1.00  0.00    -0.271 OA
ATOM      7  H   UNL A   1      33.861  36.469  30.351  1.00  0.00     0.163 HD
BRANCH   5   8
ATOM      8  C   UNL A   1      34.574  34.099  28.048  1.00  0.00     0.331 C 
BRANCH   8   9
ATOM      9  O   UNL A   1      35.821  33.475  28.305  1.00  0.00    -0.467 OA
BRANCH   9  10
ATOM     10  C   UNL A   1      35.912  32.123  28.138  1.00  0.00     0.219 A 
ATOM     11  C   UNL A   1      35.164  29.973  27.631  1.00  0.00     0.080 A 
ATOM     12  C   UNL A   1      34.862  31.300  27.825  1.00  0.00     0.097 A 
ATOM     13  N   UNL A   1      36.402  29.486  27.794  1.00  0.00    -0.212 NA
ATOM     14  C   UNL A   1      37.375  30.355  28.102  1.00  0.00     0.231 A 
ATOM     15  N   UNL A   1      37.165  31.664  28.294  1.00  0.00    -0.177 NA
BRANCH  11  16
ATOM     16  C   UNL A   1      34.139  29.023  27.200  1.00  0.00     0.004 A 
ATOM     17  C   UNL A   1      33.528  27.004  25.979  1.00  0.00     0.119 A 
ATOM     18  C   UNL A   1      32.181  27.285  26.204  1.00  0.00     0.046 A 
ATOM     19  C   UNL A   1      34.499  27.878  26.464  1.00  0.00     0.056 A 
ATOM     20  C   UNL A   1      31.807  28.397  26.959  1.00  0.00     0.005 A 
ATOM     21  C   UNL A   1      32.782  29.255  27.465  1.00  0.00     0.010 A 
BRANCH  17  22
ATOM     22  O   UNL A   1      33.783  25.891  25.224  1.00  0.00    -0.497 OA
ATOM     23  C   UNL A   1      33.008  25.770  24.034  1.00  0.00     0.278 C 
ENDBRANCH  17  22
ENDBRANCH  11  16
BRANCH  14  24
ATOM     24  N   UNL A   1      38.676  29.892  28.284  1.00  0.00    -0.323 N 
ATOM     25  H   UNL A   1      39.378  30.582  28.330  1.00  0.00     0.170 HD
BRANCH  24  26
ATOM     26  C   UNL A   1      39.107  28.564  28.409  1.00  0.00     0.055 A 
ATOM     27  C   UNL A   1      38.579  27.796  29.460  1.00  0.00     0.027 A 
ATOM     28  C   UNL A   1      39.960  27.926  27.488  1.00  0.00     0.041 A 
ATOM     29  C   UNL A   1      38.861  26.431  29.570  1.00  0.00     0.002 A 
ATOM     30  C   UNL A   1      40.243  26.559  27.601  1.00  0.00     0.018 A 
ATOM     31  Br  UNL A   1      40.883  28.878  26.118  1.00  0.00    -0.049 Br
ATOM     32  C   UNL A   1      39.684  25.811  28.635  1.00  0.00     0.001 A 
ENDBRANCH  24  26
ENDBRANCH  14  24
ENDBRANCH   9  10
ENDBRANCH   8   9
ENDBRANCH   5   8
ENDBRANCH   3   4
ENDBRANCH   2   3
ENDBRANCH   1   2
BRANCH   1  33
ATOM     33  C   UNL A   1      35.518  33.702  34.232  1.00  0.00     0.002 C 
BRANCH  33  34
ATOM     34  C   UNL A   1      36.980  33.370  34.537  1.00  0.00     0.021 C 
BRANCH  34  35
ATOM     35  C   UNL A   1      37.356  31.905  34.346  1.00  0.00     0.116 C 
BRANCH  35  36
ATOM     36  N   UNL A   1      36.554  31.264  33.316  1.00  0.00    -0.352 N 
ATOM     37  C   UNL A   1      36.944  30.398  32.325  1.00  0.00     0.251 C 
ATOM     38  H   UNL A   1      35.594  31.483  33.331  1.00  0.00     0.163 HD
ATOM     39  O   UNL A   1      36.163  30.118  31.418  1.00  0.00    -0.269 OA
BRANCH  37  40
ATOM     40  C   UNL A   1      38.310  29.828  32.336  1.00  0.00     0.039 A 
ATOM     41  C   UNL A   1      39.387  30.642  31.976  1.00  0.00     0.014 A 
ATOM     42  C   UNL A   1      38.531  28.497  32.703  1.00  0.00     0.014 A 
ATOM     43  C   UNL A   1      40.689  30.141  32.049  1.00  0.00     0.010 A 
ATOM     44  C   UNL A   1      39.833  28.025  32.850  1.00  0.00     0.010 A 
ATOM     45  C   UNL A   1      40.927  28.840  32.526  1.00  0.00    -0.014 A 
BRANCH  45  46
ATOM     46  C   UNL A   1      42.312  28.317  32.685  1.00  0.00     0.031 A 
ATOM     47  C   UNL A   1      43.112  27.920  31.473  1.00  0.00     0.074 A 
ATOM     48  C   UNL A   1      42.832  28.160  33.919  1.00  0.00     0.049 A 
ATOM     49  N   UNL A   1      44.297  27.369  31.408  1.00  0.00    -0.248 NA
ATOM     50  C   UNL A   1      42.486  28.153  30.162  1.00  0.00     0.031 C 
ATOM     51  C   UNL A   1      42.148  28.487  35.173  1.00  0.00     0.029 A 
ATOM     52  N   UNL A   1      44.052  27.680  34.327  1.00  0.00    -0.354 N 
ATOM     53  C   UNL A   1      44.562  27.195  30.053  1.00  0.00     0.074 A 
ATOM     54  C   UNL A   1      43.379  27.628  29.338  1.00  0.00     0.031 C 
ATOM     55  C   UNL A   1      42.967  28.223  36.203  1.00  0.00     0.029 A 
ATOM     56  C   UNL A   1      44.211  27.657  35.695  1.00  0.00     0.049 A 
ATOM     57  H   UNL A   1      44.749  27.381  33.700  1.00  0.00     0.167 HD
ATOM     58  C   UNL A   1      45.696  26.748  29.458  1.00  0.00     0.034 A 
ATOM     59  C   UNL A   1      45.234  27.211  36.452  1.00  0.00     0.034 A 
ATOM     60  C   UNL A   1      46.866  26.317  30.181  1.00  0.00     0.049 A 
ATOM     61  C   UNL A   1      46.457  26.647  35.765  1.00  0.00     0.074 A 
ATOM     62  C   UNL A   1      48.069  25.854  29.676  1.00  0.00     0.029 A 
ATOM     63  N   UNL A   1      46.983  26.292  31.565  1.00  0.00    -0.354 N 
ATOM     64  N   UNL A   1      46.699  26.519  34.480  1.00  0.00    -0.248 NA
ATOM     65  C   UNL A   1      47.548  26.179  36.630  1.00  0.00     0.031 C 
ATOM     66  C   UNL A   1      48.886  25.488  30.751  1.00  0.00     0.029 A 
ATOM     67  C   UNL A   1      48.228  25.801  31.929  1.00  0.00     0.049 A 
ATOM     68  H   UNL A   1      46.284  26.581  32.196  1.00  0.00     0.167 HD
ATOM     69  C   UNL A   1      47.987  25.998  34.388  1.00  0.00     0.074 A 
ATOM     70  C   UNL A   1      48.476  25.854  35.743  1.00  0.00     0.031 C 
ATOM     71  C   UNL A   1      48.705  25.669  33.285  1.00  0.00     0.034 A 
BRANCH  58  72
ATOM     72  C   UNL A   1      45.717  26.701  27.950  1.00  0.00     0.023 A 
ATOM     73  C   UNL A   1      45.557  25.489  27.255  1.00  0.00     0.031 A 
ATOM     74  C   UNL A   1      45.899  27.872  27.195  1.00  0.00     0.131 A 
ATOM     75  C   UNL A   1      45.649  25.465  25.855  1.00  0.00     0.055 A 
ATOM     76  C   UNL A   1      45.906  27.854  25.798  1.00  0.00     0.041 A 
ATOM     77  F   UNL A   1      46.078  29.056  27.802  1.00  0.00    -0.206 F 
ATOM     78  C   UNL A   1      45.794  26.644  25.120  1.00  0.00     0.022 A 
BRANCH  75  79
ATOM     79  S   UNL A   1      45.708  23.857  25.020  1.00  0.00     0.124 S 
ATOM     80  O   UNL A   1      44.305  23.658  24.665  1.00  0.00    -0.237 OA
ATOM     81  O   UNL A   1      46.618  24.110  23.910  1.00  0.00    -0.237 OA
ATOM     82  O   UNL A   1      46.217  22.955  26.051  1.00  0.00    -0.744 OA
ENDBRANCH  75  79
ENDBRANCH  58  72
BRANCH  59  83
ATOM     83  C   UNL A   1      45.159  27.245  37.944  1.00  0.00     0.023 A 
ATOM     84  C   UNL A   1      45.640  28.349  38.665  1.00  0.00     0.031 A 
ATOM     85  C   UNL A   1      44.694  26.137  38.676  1.00  0.00     0.131 A 
ATOM     86  C   UNL A   1      45.724  28.291  40.066  1.00  0.00     0.055 A 
ATOM     87  C   UNL A   1      44.708  26.114  40.072  1.00  0.00     0.041 A 
ATOM     88  F   UNL A   1      44.223  25.051  38.041  1.00  0.00    -0.206 F 
ATOM     89  C   UNL A   1      45.246  27.188  40.774  1.00  0.00     0.022 A 
BRANCH  86  90
ATOM     90  S   UNL A   1      46.606  29.617  40.935  1.00  0.00     0.124 S 
ATOM     91  O   UNL A   1      45.850  29.707  42.179  1.00  0.00    -0.237 OA
ATOM     92  O   UNL A   1      47.953  29.066  41.038  1.00  0.00    -0.237 OA
ATOM     93  O   UNL A   1      46.468  30.761  40.036  1.00  0.00    -0.744 OA
ENDBRANCH  86  90
ENDBRANCH  59  83
BRANCH  71  94
ATOM     94  C   UNL A   1      50.119  25.185  33.500  1.00  0.00     0.023 A 
ATOM     95  C   UNL A   1      50.449  23.819  33.481  1.00  0.00     0.031 A 
ATOM     96  C   UNL A   1      51.152  26.110  33.738  1.00  0.00     0.131 A 
ATOM     97  C   UNL A   1      51.764  23.413  33.757  1.00  0.00     0.055 A 
ATOM     98  C   UNL A   1      52.471  25.704  33.945  1.00  0.00     0.041 A 
ATOM     99  F   UNL A   1      50.896  27.429  33.770  1.00  0.00    -0.206 F 
ATOM    100  C   UNL A   1      52.780  24.347  33.970  1.00  0.00     0.022 A 
BRANCH  97 101
ATOM    101  S   UNL A   1      52.108  21.641  33.935  1.00  0.00     0.124 S 
ATOM    102  O   UNL A   1      53.545  21.584  33.691  1.00  0.00    -0.237 OA
ATOM    103  O   UNL A   1      51.683  21.376  35.306  1.00  0.00    -0.237 OA
ATOM    104  O   UNL A   1      51.278  21.024  32.900  1.00  0.00    -0.744 OA
ENDBRANCH  97 101
ENDBRANCH  71  94
ENDBRANCH  45  46
ENDBRANCH  37  40
ENDBRANCH  35  36
ENDBRANCH  34  35
ENDBRANCH  33  34
ENDBRANCH   1  33
TORSDOF 22
ENDMDL
MODEL 3
REMARK VINA RESULT:      -9.5      2.192      7.376
REMARK SMILES COc1cccc(-c2cc(OCC(=O)NCCCCCCNC(=O)c3ccc(-c4c5nc(c(-c6cc(S(=O)(=O)[O-])ccc6F)c6ccc([nH]6)c(-c6cc(S(=O)(=O)[O-])ccc6F)c6nc(c(-c7cc(S(=O)(=O)[O-])ccc7F)c7ccc4[nH]7)C=C6)C=C5)cc3)nc(Nc3ccccc3Br)n2)c1
REMARK SMILES IDX 18 1 17 2 16 3 15 4 13 5 14 6 12 8 11 9 10 10 8 11 9 12
REMARK SMILES IDX 98 13 89 14 88 15 7 16 3 17 4 18 99 19 5 20 6 21 2 22 1 23
REMARK SMILES IDX 90 24 91 26 92 27 96 28 93 29 95 30 97 31 94 32 19 33 20 34
REMARK SMILES IDX 21 35 22 36 23 37 24 39 25 40 26 41 87 42 27 43 86 44 28 45
REMARK SMILES IDX 29 46 30 47 80 48 31 49 85 50 79 51 81 52 32 53 84 54 78 55
REMARK SMILES IDX 77 56 33 58 65 59 45 60 64 61 46 62 49 63 63 64 82 65 47 66
REMARK SMILES IDX 48 67 62 69 83 70 50 71 34 72 35 73 43 74 36 75 42 76 44 77
REMARK SMILES IDX 41 78 37 79 38 80 39 81 40 82 66 83 67 84 75 85 68 86 74 87
REMARK SMILES IDX 76 88 73 89 69 90 70 91 71 92 72 93 51 94 52 95 60 96 53 97
REMARK SMILES IDX 59 98 61 99 58 100 54 101 55 102 56 103 57 104
REMARK H PARENT 15 7 90 25 22 38 81 57 49 68
REMARK Flexibility Score: inf
ROOT
ATOM      1  C   UNL A   1      34.845  35.529  33.041  1.00  0.00     0.002 C 
ENDROOT
BRANCH   1   2
ATOM      2  C   UNL A   1      33.679  36.524  32.969  1.00  0.00     0.021 C 
BRANCH   2   3
ATOM      3  C   UNL A   1      32.503  36.063  32.108  1.00  0.00     0.116 C 
BRANCH   3   4
ATOM      4  N   UNL A   1      32.556  36.642  30.780  1.00  0.00    -0.353 N 
ATOM      5  C   UNL A   1      33.100  36.112  29.650  1.00  0.00     0.258 C 
ATOM      6  O   UNL A   1      33.074  36.773  28.610  1.00  0.00    -0.271 OA
ATOM      7  H   UNL A   1      32.145  37.531  30.682  1.00  0.00     0.163 HD
BRANCH   5   8
ATOM      8  C   UNL A   1      33.715  34.706  29.688  1.00  0.00     0.331 C 
BRANCH   8   9
ATOM      9  O   UNL A   1      34.242  34.189  28.478  1.00  0.00    -0.467 OA
BRANCH   9  10
ATOM     10  C   UNL A   1      34.574  32.865  28.433  1.00  0.00     0.219 A 
ATOM     11  C   UNL A   1      34.323  30.612  27.886  1.00  0.00     0.080 A 
ATOM     12  C   UNL A   1      33.787  31.878  27.898  1.00  0.00     0.097 A 
ATOM     13  N   UNL A   1      35.521  30.332  28.417  1.00  0.00    -0.212 NA
ATOM     14  C   UNL A   1      36.229  31.352  28.923  1.00  0.00     0.231 A 
ATOM     15  N   UNL A   1      35.783  32.614  28.962  1.00  0.00    -0.177 NA
BRANCH  11  16
ATOM     16  C   UNL A   1      33.613  29.501  27.253  1.00  0.00     0.004 A 
ATOM     17  C   UNL A   1      33.675  27.381  26.050  1.00  0.00     0.119 A 
ATOM     18  C   UNL A   1      32.294  27.451  25.873  1.00  0.00     0.046 A 
ATOM     19  C   UNL A   1      34.330  28.410  26.726  1.00  0.00     0.056 A 
ATOM     20  C   UNL A   1      31.563  28.507  26.416  1.00  0.00     0.005 A 
ATOM     21  C   UNL A   1      32.218  29.521  27.114  1.00  0.00     0.010 A 
BRANCH  17  22
ATOM     22  O   UNL A   1      34.294  26.305  25.474  1.00  0.00    -0.497 OA
ATOM     23  C   UNL A   1      33.606  25.726  24.369  1.00  0.00     0.278 C 
ENDBRANCH  17  22
ENDBRANCH  11  16
BRANCH  14  24
ATOM     24  N   UNL A   1      37.477  31.106  29.489  1.00  0.00    -0.323 N 
ATOM     25  H   UNL A   1      38.150  31.817  29.378  1.00  0.00     0.170 HD
BRANCH  24  26
ATOM     26  C   UNL A   1      37.891  29.971  30.198  1.00  0.00     0.055 A 
ATOM     27  C   UNL A   1      37.506  29.856  31.544  1.00  0.00     0.027 A 
ATOM     28  C   UNL A   1      38.586  28.893  29.616  1.00  0.00     0.041 A 
ATOM     29  C   UNL A   1      37.769  28.694  32.276  1.00  0.00     0.002 A 
ATOM     30  C   UNL A   1      38.852  27.731  30.351  1.00  0.00     0.018 A 
ATOM     31  Br  UNL A   1      39.321  28.978  27.859  1.00  0.00    -0.049 Br
ATOM     32  C   UNL A   1      38.433  27.628  31.676  1.00  0.00     0.001 A 
ENDBRANCH  24  26
ENDBRANCH  14  24
ENDBRANCH   9  10
ENDBRANCH   8   9
ENDBRANCH   5   8
ENDBRANCH   3   4
ENDBRANCH   2   3
ENDBRANCH   1   2
BRANCH   1  33
ATOM     33  C   UNL A   1      34.488  34.134  33.564  1.00  0.00     0.002 C 
BRANCH  33  34
ATOM     34  C   UNL A   1      35.281  32.982  32.942  1.00  0.00     0.021 C 
BRANCH  34  35
ATOM     35  C   UNL A   1      36.714  32.848  33.446  1.00  0.00     0.116 C 
BRANCH  35  36
ATOM     36  N   UNL A   1      36.841  33.234  34.843  1.00  0.00    -0.352 N 
ATOM     37  C   UNL A   1      37.786  32.856  35.765  1.00  0.00     0.251 C 
ATOM     38  H   UNL A   1      36.151  33.854  35.173  1.00  0.00     0.163 HD
ATOM     39  O   UNL A   1      37.616  33.122  36.953  1.00  0.00    -0.269 OA
BRANCH  37  40
ATOM     40  C   UNL A   1      38.987  32.109  35.330  1.00  0.00     0.039 A 
ATOM     41  C   UNL A   1      40.047  32.808  34.750  1.00  0.00     0.014 A 
ATOM     42  C   UNL A   1      39.068  30.722  35.495  1.00  0.00     0.014 A 
ATOM     43  C   UNL A   1      41.216  32.127  34.399  1.00  0.00     0.010 A 
ATOM     44  C   UNL A   1      40.262  30.060  35.216  1.00  0.00     0.010 A 
ATOM     45  C   UNL A   1      41.350  30.754  34.666  1.00  0.00    -0.014 A 
BRANCH  45  46
ATOM     46  C   UNL A   1      42.616  30.029  34.371  1.00  0.00     0.031 A 
ATOM     47  C   UNL A   1      42.788  29.314  33.057  1.00  0.00     0.074 A 
ATOM     48  C   UNL A   1      43.592  29.978  35.300  1.00  0.00     0.049 A 
ATOM     49  N   UNL A   1      43.776  28.561  32.647  1.00  0.00    -0.248 NA
ATOM     50  C   UNL A   1      41.690  29.445  32.085  1.00  0.00     0.031 C 
ATOM     51  C   UNL A   1      43.536  30.611  36.620  1.00  0.00     0.029 A 
ATOM     52  N   UNL A   1      44.820  29.363  35.283  1.00  0.00    -0.354 N 
ATOM     53  C   UNL A   1      43.425  28.136  31.370  1.00  0.00     0.074 A 
ATOM     54  C   UNL A   1      42.097  28.651  31.107  1.00  0.00     0.031 C 
ATOM     55  C   UNL A   1      44.686  30.372  37.271  1.00  0.00     0.029 A 
ATOM     56  C   UNL A   1      45.539  29.525  36.445  1.00  0.00     0.049 A 
ATOM     57  H   UNL A   1      45.155  28.853  34.510  1.00  0.00     0.167 HD
ATOM     58  C   UNL A   1      44.154  27.410  30.485  1.00  0.00     0.034 A 
ATOM     59  C   UNL A   1      46.740  29.032  36.811  1.00  0.00     0.034 A 
ATOM     60  C   UNL A   1      45.474  26.900  30.758  1.00  0.00     0.049 A 
ATOM     61  C   UNL A   1      47.498  28.163  35.834  1.00  0.00     0.074 A 
ATOM     62  C   UNL A   1      46.301  26.161  29.929  1.00  0.00     0.029 A 
ATOM     63  N   UNL A   1      46.163  27.071  31.952  1.00  0.00    -0.354 N 
ATOM     64  N   UNL A   1      47.161  27.796  34.618  1.00  0.00    -0.248 NA
ATOM     65  C   UNL A   1      48.804  27.653  36.273  1.00  0.00     0.031 C 
ATOM     66  C   UNL A   1      47.458  25.831  30.642  1.00  0.00     0.029 A 
ATOM     67  C   UNL A   1      47.392  26.434  31.888  1.00  0.00     0.049 A 
ATOM     68  H   UNL A   1      45.826  27.572  32.731  1.00  0.00     0.167 HD
ATOM     69  C   UNL A   1      48.234  27.051  34.136  1.00  0.00     0.074 A 
ATOM     70  C   UNL A   1      49.234  27.037  35.183  1.00  0.00     0.031 C 
ATOM     71  C   UNL A   1      48.384  26.434  32.937  1.00  0.00     0.034 A 
BRANCH  58  72
ATOM     72  C   UNL A   1      43.530  27.125  29.140  1.00  0.00     0.023 A 
ATOM     73  C   UNL A   1      42.868  25.911  28.885  1.00  0.00     0.031 A 
ATOM     74  C   UNL A   1      43.596  28.069  28.101  1.00  0.00     0.131 A 
ATOM     75  C   UNL A   1      42.357  25.646  27.605  1.00  0.00     0.055 A 
ATOM     76  C   UNL A   1      43.013  27.833  26.853  1.00  0.00     0.041 A 
ATOM     77  F   UNL A   1      44.233  29.237  28.277  1.00  0.00    -0.206 F 
ATOM     78  C   UNL A   1      42.400  26.610  26.596  1.00  0.00     0.022 A 
BRANCH  75  79
ATOM     79  S   UNL A   1      41.755  23.975  27.245  1.00  0.00     0.124 S 
ATOM     80  O   UNL A   1      41.593  23.424  28.588  1.00  0.00    -0.237 OA
ATOM     81  O   UNL A   1      40.524  24.234  26.508  1.00  0.00    -0.237 OA
ATOM     82  O   UNL A   1      42.838  23.382  26.462  1.00  0.00    -0.744 OA
ENDBRANCH  75  79
ENDBRANCH  58  72
BRANCH  59  83
ATOM     83  C   UNL A   1      47.306  29.311  38.165  1.00  0.00     0.023 A 
ATOM     84  C   UNL A   1      46.925  28.545  39.279  1.00  0.00     0.031 A 
ATOM     85  C   UNL A   1      48.161  30.406  38.386  1.00  0.00     0.131 A 
ATOM     86  C   UNL A   1      47.328  28.930  40.567  1.00  0.00     0.055 A 
ATOM     87  C   UNL A   1      48.622  30.741  39.661  1.00  0.00     0.041 A 
ATOM     88  F   UNL A   1      48.559  31.177  37.360  1.00  0.00    -0.206 F 
ATOM     89  C   UNL A   1      48.186  30.013  40.764  1.00  0.00     0.022 A 
BRANCH  86  90
ATOM     90  S   UNL A   1      46.589  28.085  41.992  1.00  0.00     0.124 S 
ATOM     91  O   UNL A   1      45.931  29.190  42.681  1.00  0.00    -0.237 OA
ATOM     92  O   UNL A   1      45.711  27.116  41.346  1.00  0.00    -0.237 OA
ATOM     93  O   UNL A   1      47.743  27.516  42.684  1.00  0.00    -0.744 OA
ENDBRANCH  86  90
ENDBRANCH  59  83
BRANCH  71  94
ATOM     94  C   UNL A   1      49.704  25.750  32.672  1.00  0.00     0.023 A 
ATOM     95  C   UNL A   1      49.889  24.376  32.900  1.00  0.00     0.031 A 
ATOM     96  C   UNL A   1      50.799  26.493  32.193  1.00  0.00     0.131 A 
ATOM     97  C   UNL A   1      51.154  23.799  32.707  1.00  0.00     0.055 A 
ATOM     98  C   UNL A   1      52.036  25.901  31.938  1.00  0.00     0.041 A 
ATOM     99  F   UNL A   1      50.681  27.811  31.960  1.00  0.00    -0.206 F 
ATOM    100  C   UNL A   1      52.222  24.548  32.210  1.00  0.00     0.022 A 
BRANCH  97 101
ATOM    101  S   UNL A   1      51.410  22.075  33.211  1.00  0.00     0.124 S 
ATOM    102  O   UNL A   1      52.058  21.507  32.034  1.00  0.00    -0.237 OA
ATOM    103  O   UNL A   1      52.252  22.218  34.395  1.00  0.00    -0.237 OA
ATOM    104  O   UNL A   1      50.056  21.588  33.471  1.00  0.00    -0.744 OA
ENDBRANCH  97 101
ENDBRANCH  71  94
ENDBRANCH  45  46
ENDBRANCH  37  40
ENDBRANCH  35  36
ENDBRANCH  34  35
ENDBRANCH  33  34
ENDBRANCH   1  33
TORSDOF 22
ENDMDL
