MODEL 1
REMARK VINA RESULT:     -11.1      0.000      0.000
REMARK SMILES CC[C@](C)(NC(=O)N1CCS(=O)CC1)C(=O)NCCCCCCNC(=O)c1ccc(-c2c3nc(c(-c4cc(S(=O)(=O)[O-])ccc4F)c4ccc([nH]4)c(-c4cc(S(=O)(=O)[O-])ccc4F)c4nc(c(-c5cc(S(=O)(=O)[O-])ccc5F)c5ccc2[nH]5)C=C4)C=C3)cc1
REMARK SMILES IDX 21 1 20 2 19 3 18 4 17 5 15 6 16 7 3 9 4 10 2 11 1 12 5 13
REMARK SMILES IDX 6 14 7 16 8 17 9 18 14 19 10 20 13 21 11 22 12 23 22 24
REMARK SMILES IDX 23 25 24 26 25 27 26 29 27 30 28 31 89 32 29 33 88 34 30 35
REMARK SMILES IDX 31 36 32 37 82 38 33 39 87 40 81 41 83 42 34 43 86 44 80 45
REMARK SMILES IDX 79 46 35 48 67 49 47 50 66 51 48 52 51 53 65 54 84 55 49 56
REMARK SMILES IDX 50 57 64 59 85 60 52 61 36 62 37 63 45 64 38 65 44 66 46 67
REMARK SMILES IDX 43 68 39 69 40 70 41 71 42 72 68 73 69 74 77 75 70 76 76 77
REMARK SMILES IDX 78 78 75 79 71 80 72 81 73 82 74 83 53 84 54 85 62 86 55 87
REMARK SMILES IDX 61 88 63 89 60 90 56 91 57 92 58 93 59 94
REMARK H PARENT 17 8 5 15 24 28 83 47 51 58
REMARK Flexibility Score: inf
ROOT
ATOM      1  C   UNL A   1      31.481  30.725  26.262  1.00  0.00     0.002 C 
ENDROOT
BRANCH   1   2
ATOM      2  C   UNL A   1      32.364  29.922  27.208  1.00  0.00     0.002 C 
BRANCH   2   3
ATOM      3  C   UNL A   1      33.553  29.213  26.552  1.00  0.00     0.021 C 
BRANCH   3   4
ATOM      4  C   UNL A   1      33.340  27.739  26.191  1.00  0.00     0.116 C 
BRANCH   4   5
ATOM      5  N   UNL A   1      33.603  27.393  24.798  1.00  0.00    -0.354 N 
ATOM      6  C   UNL A   1      32.935  26.579  23.916  1.00  0.00     0.245 C 
ATOM      7  O   UNL A   1      33.444  26.423  22.801  1.00  0.00    -0.272 OA
ATOM      8  H   UNL A   1      34.405  27.822  24.422  1.00  0.00     0.163 HD
BRANCH   6   9
ATOM      9  C   UNL A   1      31.559  25.955  24.273  1.00  0.00     0.117 C 
ATOM     10  C   UNL A   1      31.200  24.745  23.382  1.00  0.00     0.045 C 
BRANCH   9  11
ATOM     11  C   UNL A   1      30.499  27.075  23.954  1.00  0.00     0.035 C 
ATOM     12  C   UNL A   1      29.048  26.582  23.890  1.00  0.00     0.007 C 
ENDBRANCH   9  11
BRANCH   9  13
ATOM     13  N   UNL A   1      31.451  25.519  25.699  1.00  0.00    -0.324 N 
ATOM     14  C   UNL A   1      31.659  24.330  26.331  1.00  0.00     0.318 C 
ATOM     15  H   UNL A   1      31.173  26.242  26.307  1.00  0.00     0.166 HD
ATOM     16  O   UNL A   1      30.873  24.079  27.251  1.00  0.00    -0.249 OA
ATOM     17  N   UNL A   1      32.666  23.456  25.996  1.00  0.00    -0.323 N 
ATOM     18  C   UNL A   1      32.728  22.150  26.667  1.00  0.00     0.135 C 
ATOM     19  C   UNL A   1      33.972  23.837  25.499  1.00  0.00     0.135 C 
ATOM     20  C   UNL A   1      33.266  21.022  25.782  1.00  0.00     0.126 C 
ATOM     21  C   UNL A   1      34.441  22.982  24.350  1.00  0.00     0.126 C 
ATOM     22  S   UNL A   1      34.878  21.343  24.993  1.00  0.00     0.025 S 
ATOM     23  O   UNL A   1      35.911  21.529  26.065  1.00  0.00    -0.259 OA
ENDBRANCH   9  13
ENDBRANCH   6   9
ENDBRANCH   4   5
ENDBRANCH   3   4
ENDBRANCH   2   3
ENDBRANCH   1   2
BRANCH   1  24
ATOM     24  C   UNL A   1      31.417  32.215  26.575  1.00  0.00     0.021 C 
BRANCH  24  25
ATOM     25  C   UNL A   1      32.706  32.783  27.154  1.00  0.00     0.116 C 
BRANCH  25  26
ATOM     26  N   UNL A   1      32.528  34.141  27.639  1.00  0.00    -0.352 N 
ATOM     27  C   UNL A   1      33.109  34.737  28.735  1.00  0.00     0.251 C 
ATOM     28  H   UNL A   1      31.914  34.706  27.118  1.00  0.00     0.163 HD
ATOM     29  O   UNL A   1      32.685  35.798  29.163  1.00  0.00    -0.269 OA
BRANCH  27  30
ATOM     30  C   UNL A   1      34.243  34.050  29.390  1.00  0.00     0.039 A 
ATOM     31  C   UNL A   1      35.538  34.272  28.922  1.00  0.00     0.014 A 
ATOM     32  C   UNL A   1      34.017  33.220  30.493  1.00  0.00     0.014 A 
ATOM     33  C   UNL A   1      36.615  33.694  29.594  1.00  0.00     0.010 A 
ATOM     34  C   UNL A   1      35.096  32.723  31.213  1.00  0.00     0.010 A 
ATOM     35  C   UNL A   1      36.407  32.937  30.760  1.00  0.00    -0.014 A 
BRANCH  35  36
ATOM     36  C   UNL A   1      37.541  32.310  31.486  1.00  0.00     0.031 A 
ATOM     37  C   UNL A   1      38.284  31.165  30.849  1.00  0.00     0.074 A 
ATOM     38  C   UNL A   1      37.879  32.740  32.718  1.00  0.00     0.049 A 
ATOM     39  N   UNL A   1      39.247  30.428  31.337  1.00  0.00    -0.248 NA
ATOM     40  C   UNL A   1      37.865  30.779  29.490  1.00  0.00     0.031 C 
ATOM     41  C   UNL A   1      37.213  33.820  33.451  1.00  0.00     0.029 A 
ATOM     42  N   UNL A   1      38.865  32.321  33.576  1.00  0.00    -0.354 N 
ATOM     43  C   UNL A   1      39.549  29.496  30.349  1.00  0.00     0.074 A 
ATOM     44  C   UNL A   1      38.610  29.707  29.270  1.00  0.00     0.031 C 
ATOM     45  C   UNL A   1      37.825  33.993  34.634  1.00  0.00     0.029 A 
ATOM     46  C   UNL A   1      38.894  33.008  34.769  1.00  0.00     0.049 A 
ATOM     47  H   UNL A   1      39.495  31.596  33.359  1.00  0.00     0.167 HD
ATOM     48  C   UNL A   1      40.543  28.575  30.324  1.00  0.00     0.034 A 
ATOM     49  C   UNL A   1      39.684  32.851  35.851  1.00  0.00     0.034 A 
ATOM     50  C   UNL A   1      41.479  28.383  31.403  1.00  0.00     0.049 A 
ATOM     51  C   UNL A   1      40.758  31.788  35.815  1.00  0.00     0.074 A 
ATOM     52  C   UNL A   1      42.529  27.485  31.482  1.00  0.00     0.029 A 
ATOM     53  N   UNL A   1      41.483  29.105  32.590  1.00  0.00    -0.354 N 
ATOM     54  N   UNL A   1      41.044  30.933  34.859  1.00  0.00    -0.248 NA
ATOM     55  C   UNL A   1      41.626  31.681  36.994  1.00  0.00     0.031 C 
ATOM     56  C   UNL A   1      43.128  27.621  32.739  1.00  0.00     0.029 A 
ATOM     57  C   UNL A   1      42.508  28.662  33.410  1.00  0.00     0.049 A 
ATOM     58  H   UNL A   1      40.850  29.824  32.815  1.00  0.00     0.167 HD
ATOM     59  C   UNL A   1      42.157  30.225  35.306  1.00  0.00     0.074 A 
ATOM     60  C   UNL A   1      42.497  30.763  36.605  1.00  0.00     0.031 C 
ATOM     61  C   UNL A   1      42.842  29.222  34.698  1.00  0.00     0.034 A 
BRANCH  48  62
ATOM     62  C   UNL A   1      40.660  27.710  29.094  1.00  0.00     0.023 A 
ATOM     63  C   UNL A   1      41.594  27.996  28.083  1.00  0.00     0.031 A 
ATOM     64  C   UNL A   1      39.830  26.588  28.924  1.00  0.00     0.131 A 
ATOM     65  C   UNL A   1      41.634  27.211  26.921  1.00  0.00     0.055 A 
ATOM     66  C   UNL A   1      39.929  25.762  27.802  1.00  0.00     0.041 A 
ATOM     67  F   UNL A   1      38.901  26.279  29.843  1.00  0.00    -0.206 F 
ATOM     68  C   UNL A   1      40.828  26.079  26.787  1.00  0.00     0.022 A 
BRANCH  65  69
ATOM     69  S   UNL A   1      42.665  27.765  25.537  1.00  0.00     0.124 S 
ATOM     70  O   UNL A   1      41.922  28.933  25.067  1.00  0.00    -0.237 OA
ATOM     71  O   UNL A   1      43.943  28.038  26.184  1.00  0.00    -0.237 OA
ATOM     72  O   UNL A   1      42.657  26.622  24.626  1.00  0.00    -0.744 OA
ENDBRANCH  65  69
ENDBRANCH  48  62
BRANCH  49  73
ATOM     73  C   UNL A   1      39.494  33.694  37.070  1.00  0.00     0.023 A 
ATOM     74  C   UNL A   1      40.286  34.831  37.298  1.00  0.00     0.031 A 
ATOM     75  C   UNL A   1      38.579  33.323  38.072  1.00  0.00     0.131 A 
ATOM     76  C   UNL A   1      40.211  35.503  38.528  1.00  0.00     0.055 A 
ATOM     77  C   UNL A   1      38.453  34.040  39.263  1.00  0.00     0.041 A 
ATOM     78  F   UNL A   1      37.792  32.247  37.911  1.00  0.00    -0.206 F 
ATOM     79  C   UNL A   1      39.289  35.125  39.506  1.00  0.00     0.022 A 
BRANCH  76  80
ATOM     80  S   UNL A   1      41.440  36.788  38.890  1.00  0.00     0.124 S 
ATOM     81  O   UNL A   1      42.144  36.889  37.616  1.00  0.00    -0.237 OA
ATOM     82  O   UNL A   1      40.595  37.922  39.248  1.00  0.00    -0.237 OA
ATOM     83  O   UNL A   1      42.215  36.216  39.989  1.00  0.00    -0.744 OA
ENDBRANCH  76  80
ENDBRANCH  49  73
BRANCH  61  84
ATOM     84  C   UNL A   1      44.075  28.702  35.398  1.00  0.00     0.023 A 
ATOM     85  C   UNL A   1      44.011  27.685  36.367  1.00  0.00     0.031 A 
ATOM     86  C   UNL A   1      45.336  29.248  35.094  1.00  0.00     0.131 A 
ATOM     87  C   UNL A   1      45.175  27.295  37.045  1.00  0.00     0.055 A 
ATOM     88  C   UNL A   1      46.500  28.803  35.720  1.00  0.00     0.041 A 
ATOM     89  F   UNL A   1      45.456  30.222  34.179  1.00  0.00    -0.206 F 
ATOM     90  C   UNL A   1      46.422  27.833  36.714  1.00  0.00     0.022 A 
BRANCH  87  91
ATOM     91  S   UNL A   1      45.023  26.151  38.445  1.00  0.00     0.124 S 
ATOM     92  O   UNL A   1      45.312  24.865  37.818  1.00  0.00    -0.237 OA
ATOM     93  O   UNL A   1      46.036  26.652  39.367  1.00  0.00    -0.237 OA
ATOM     94  O   UNL A   1      43.641  26.329  38.885  1.00  0.00    -0.744 OA
ENDBRANCH  87  91
ENDBRANCH  61  84
ENDBRANCH  35  36
ENDBRANCH  27  30
ENDBRANCH  25  26
ENDBRANCH  24  25
ENDBRANCH   1  24
TORSDOF 18
ENDMDL
MODEL 2
REMARK VINA RESULT:     -11.1      1.995      7.838
REMARK SMILES CC[C@](C)(NC(=O)N1CCS(=O)CC1)C(=O)NCCCCCCNC(=O)c1ccc(-c2c3nc(c(-c4cc(S(=O)(=O)[O-])ccc4F)c4ccc([nH]4)c(-c4cc(S(=O)(=O)[O-])ccc4F)c4nc(c(-c5cc(S(=O)(=O)[O-])ccc5F)c5ccc2[nH]5)C=C4)C=C3)cc1
REMARK SMILES IDX 21 1 20 2 19 3 18 4 17 5 15 6 16 7 3 9 4 10 2 11 1 12 5 13
REMARK SMILES IDX 6 14 7 16 8 17 9 18 14 19 10 20 13 21 11 22 12 23 22 24
REMARK SMILES IDX 23 25 24 26 25 27 26 29 27 30 28 31 89 32 29 33 88 34 30 35
REMARK SMILES IDX 31 36 32 37 82 38 33 39 87 40 81 41 83 42 34 43 86 44 80 45
REMARK SMILES IDX 79 46 35 48 67 49 47 50 66 51 48 52 51 53 65 54 84 55 49 56
REMARK SMILES IDX 50 57 64 59 85 60 52 61 36 62 37 63 45 64 38 65 44 66 46 67
REMARK SMILES IDX 43 68 39 69 40 70 41 71 42 72 68 73 69 74 77 75 70 76 76 77
REMARK SMILES IDX 78 78 75 79 71 80 72 81 73 82 74 83 53 84 54 85 62 86 55 87
REMARK SMILES IDX 61 88 63 89 60 90 56 91 57 92 58 93 59 94
REMARK H PARENT 17 8 5 15 24 28 83 47 51 58
REMARK Flexibility Score: inf
ROOT
ATOM      1  C   UNL A   1      31.514  30.768  26.193  1.00  0.00     0.002 C 
ENDROOT
BRANCH   1   2
ATOM      2  C   UNL A   1      32.183  29.853  27.210  1.00  0.00     0.002 C 
BRANCH   2   3
ATOM      3  C   UNL A   1      31.718  28.394  27.186  1.00  0.00     0.021 C 
BRANCH   3   4
ATOM      4  C   UNL A   1      32.781  27.355  26.815  1.00  0.00     0.116 C 
BRANCH   4   5
ATOM      5  N   UNL A   1      32.971  27.137  25.385  1.00  0.00    -0.354 N 
ATOM      6  C   UNL A   1      32.362  26.279  24.502  1.00  0.00     0.245 C 
ATOM      7  O   UNL A   1      32.789  26.271  23.342  1.00  0.00    -0.272 OA
ATOM      8  H   UNL A   1      33.660  27.710  24.979  1.00  0.00     0.163 HD
BRANCH   6   9
ATOM      9  C   UNL A   1      31.137  25.422  24.919  1.00  0.00     0.117 C 
ATOM     10  C   UNL A   1      30.815  24.303  23.904  1.00  0.00     0.045 C 
BRANCH   9  11
ATOM     11  C   UNL A   1      29.912  26.411  24.898  1.00  0.00     0.035 C 
ATOM     12  C   UNL A   1      29.534  26.930  23.504  1.00  0.00     0.007 C 
ENDBRANCH   9  11
BRANCH   9  13
ATOM     13  N   UNL A   1      31.279  24.790  26.267  1.00  0.00    -0.324 N 
ATOM     14  C   UNL A   1      31.793  23.602  26.692  1.00  0.00     0.318 C 
ATOM     15  H   UNL A   1      30.930  25.348  26.998  1.00  0.00     0.166 HD
ATOM     16  O   UNL A   1      31.182  23.067  27.623  1.00  0.00    -0.249 OA
ATOM     17  N   UNL A   1      32.913  23.018  26.147  1.00  0.00    -0.323 N 
ATOM     18  C   UNL A   1      33.313  21.680  26.604  1.00  0.00     0.135 C 
ATOM     19  C   UNL A   1      34.050  23.735  25.610  1.00  0.00     0.135 C 
ATOM     20  C   UNL A   1      33.967  20.822  25.518  1.00  0.00     0.126 C 
ATOM     21  C   UNL A   1      34.553  23.160  24.309  1.00  0.00     0.126 C 
ATOM     22  S   UNL A   1      35.381  21.585  24.658  1.00  0.00     0.025 S 
ATOM     23  O   UNL A   1      36.469  21.848  25.658  1.00  0.00    -0.259 OA
ENDBRANCH   9  13
ENDBRANCH   6   9
ENDBRANCH   4   5
ENDBRANCH   3   4
ENDBRANCH   2   3
ENDBRANCH   1   2
BRANCH   1  24
ATOM     24  C   UNL A   1      31.465  32.234  26.604  1.00  0.00     0.021 C 
BRANCH  24  25
ATOM     25  C   UNL A   1      32.753  32.745  27.235  1.00  0.00     0.116 C 
BRANCH  25  26
ATOM     26  N   UNL A   1      32.624  34.119  27.691  1.00  0.00    -0.352 N 
ATOM     27  C   UNL A   1      33.273  34.734  28.737  1.00  0.00     0.251 C 
ATOM     28  H   UNL A   1      31.990  34.680  27.189  1.00  0.00     0.163 HD
ATOM     29  O   UNL A   1      32.890  35.813  29.158  1.00  0.00    -0.269 OA
BRANCH  27  30
ATOM     30  C   UNL A   1      34.431  34.045  29.348  1.00  0.00     0.039 A 
ATOM     31  C   UNL A   1      34.209  33.082  30.332  1.00  0.00     0.014 A 
ATOM     32  C   UNL A   1      35.728  34.330  28.910  1.00  0.00     0.014 A 
ATOM     33  C   UNL A   1      35.294  32.369  30.846  1.00  0.00     0.010 A 
ATOM     34  C   UNL A   1      36.792  33.556  29.356  1.00  0.00     0.010 A 
ATOM     35  C   UNL A   1      36.589  32.580  30.344  1.00  0.00    -0.014 A 
BRANCH  35  36
ATOM     36  C   UNL A   1      37.756  31.834  30.883  1.00  0.00     0.031 A 
ATOM     37  C   UNL A   1      38.292  32.185  32.246  1.00  0.00     0.074 A 
ATOM     38  C   UNL A   1      38.350  30.877  30.143  1.00  0.00     0.049 A 
ATOM     39  N   UNL A   1      39.341  31.717  32.870  1.00  0.00    -0.248 NA
ATOM     40  C   UNL A   1      37.565  33.225  32.996  1.00  0.00     0.031 C 
ATOM     41  C   UNL A   1      37.940  30.472  28.796  1.00  0.00     0.029 A 
ATOM     42  N   UNL A   1      39.427  30.071  30.415  1.00  0.00    -0.354 N 
ATOM     43  C   UNL A   1      39.399  32.400  34.080  1.00  0.00     0.074 A 
ATOM     44  C   UNL A   1      38.331  33.374  34.066  1.00  0.00     0.031 C 
ATOM     45  C   UNL A   1      38.739  29.479  28.372  1.00  0.00     0.029 A 
ATOM     46  C   UNL A   1      39.749  29.208  29.391  1.00  0.00     0.049 A 
ATOM     47  H   UNL A   1      39.925  30.106  31.264  1.00  0.00     0.167 HD
ATOM     48  C   UNL A   1      40.240  32.208  35.125  1.00  0.00     0.034 A 
ATOM     49  C   UNL A   1      40.750  28.312  29.284  1.00  0.00     0.034 A 
ATOM     50  C   UNL A   1      41.295  31.227  35.131  1.00  0.00     0.049 A 
ATOM     51  C   UNL A   1      41.702  28.146  30.447  1.00  0.00     0.074 A 
ATOM     52  C   UNL A   1      42.201  30.941  36.136  1.00  0.00     0.029 A 
ATOM     53  N   UNL A   1      41.583  30.364  34.080  1.00  0.00    -0.354 N 
ATOM     54  N   UNL A   1      41.723  28.786  31.595  1.00  0.00    -0.248 NA
ATOM     55  C   UNL A   1      42.750  27.127  30.309  1.00  0.00     0.031 C 
ATOM     56  C   UNL A   1      43.074  29.952  35.673  1.00  0.00     0.029 A 
ATOM     57  C   UNL A   1      42.659  29.557  34.410  1.00  0.00     0.049 A 
ATOM     58  H   UNL A   1      41.094  30.332  33.226  1.00  0.00     0.167 HD
ATOM     59  C   UNL A   1      42.755  28.207  32.331  1.00  0.00     0.074 A 
ATOM     60  C   UNL A   1      43.318  27.162  31.505  1.00  0.00     0.031 C 
ATOM     61  C   UNL A   1      43.198  28.508  33.579  1.00  0.00     0.034 A 
BRANCH  48  62
ATOM     62  C   UNL A   1      40.050  33.081  36.341  1.00  0.00     0.023 A 
ATOM     63  C   UNL A   1      39.305  32.641  37.450  1.00  0.00     0.031 A 
ATOM     64  C   UNL A   1      40.615  34.367  36.397  1.00  0.00     0.131 A 
ATOM     65  C   UNL A   1      39.091  33.500  38.537  1.00  0.00     0.055 A 
ATOM     66  C   UNL A   1      40.466  35.188  37.518  1.00  0.00     0.041 A 
ATOM     67  F   UNL A   1      41.314  34.852  35.360  1.00  0.00    -0.206 F 
ATOM     68  C   UNL A   1      39.691  34.759  38.592  1.00  0.00     0.022 A 
BRANCH  65  69
ATOM     69  S   UNL A   1      37.916  32.994  39.822  1.00  0.00     0.124 S 
ATOM     70  O   UNL A   1      37.898  34.173  40.685  1.00  0.00    -0.237 OA
ATOM     71  O   UNL A   1      36.700  32.744  39.057  1.00  0.00    -0.237 OA
ATOM     72  O   UNL A   1      38.539  31.809  40.408  1.00  0.00    -0.744 OA
ENDBRANCH  65  69
ENDBRANCH  48  62
BRANCH  49  73
ATOM     73  C   UNL A   1      40.935  27.509  28.037  1.00  0.00     0.023 A 
ATOM     74  C   UNL A   1      40.605  26.145  27.996  1.00  0.00     0.031 A 
ATOM     75  C   UNL A   1      41.529  28.074  26.894  1.00  0.00     0.131 A 
ATOM     76  C   UNL A   1      40.949  25.374  26.874  1.00  0.00     0.055 A 
ATOM     77  C   UNL A   1      41.800  27.319  25.750  1.00  0.00     0.041 A 
ATOM     78  F   UNL A   1      41.864  29.374  26.872  1.00  0.00    -0.206 F 
ATOM     79  C   UNL A   1      41.530  25.955  25.745  1.00  0.00     0.022 A 
BRANCH  76  80
ATOM     80  S   UNL A   1      40.761  23.572  26.971  1.00  0.00     0.124 S 
ATOM     81  O   UNL A   1      41.712  23.121  25.962  1.00  0.00    -0.237 OA
ATOM     82  O   UNL A   1      41.124  23.306  28.360  1.00  0.00    -0.237 OA
ATOM     83  O   UNL A   1      39.353  23.359  26.644  1.00  0.00    -0.744 OA
ENDBRANCH  76  80
ENDBRANCH  49  73
BRANCH  61  84
ATOM     84  C   UNL A   1      44.291  27.639  34.154  1.00  0.00     0.023 A 
ATOM     85  C   UNL A   1      44.010  26.494  34.919  1.00  0.00     0.031 A 
ATOM     86  C   UNL A   1      45.640  27.976  33.938  1.00  0.00     0.131 A 
ATOM     87  C   UNL A   1      45.061  25.767  35.497  1.00  0.00     0.055 A 
ATOM     88  C   UNL A   1      46.682  27.206  34.456  1.00  0.00     0.041 A 
ATOM     89  F   UNL A   1      45.967  29.060  33.217  1.00  0.00    -0.206 F 
ATOM     90  C   UNL A   1      46.396  26.104  35.254  1.00  0.00     0.022 A 
BRANCH  87  91
ATOM     91  S   UNL A   1      44.660  24.436  36.664  1.00  0.00     0.124 S 
ATOM     92  O   UNL A   1      45.724  24.570  37.653  1.00  0.00    -0.237 OA
ATOM     93  O   UNL A   1      43.323  24.809  37.112  1.00  0.00    -0.237 OA
ATOM     94  O   UNL A   1      44.724  23.229  35.842  1.00  0.00    -0.744 OA
ENDBRANCH  87  91
ENDBRANCH  61  84
ENDBRANCH  35  36
ENDBRANCH  27  30
ENDBRANCH  25  26
ENDBRANCH  24  25
ENDBRANCH   1  24
TORSDOF 18
ENDMDL
MODEL 3
REMARK VINA RESULT:     -11.1      6.110      9.658
REMARK SMILES CC[C@](C)(NC(=O)N1CCS(=O)CC1)C(=O)NCCCCCCNC(=O)c1ccc(-c2c3nc(c(-c4cc(S(=O)(=O)[O-])ccc4F)c4ccc([nH]4)c(-c4cc(S(=O)(=O)[O-])ccc4F)c4nc(c(-c5cc(S(=O)(=O)[O-])ccc5F)c5ccc2[nH]5)C=C4)C=C3)cc1
REMARK SMILES IDX 21 1 20 2 19 3 18 4 17 5 15 6 16 7 3 9 4 10 2 11 1 12 5 13
REMARK SMILES IDX 6 14 7 16 8 17 9 18 14 19 10 20 13 21 11 22 12 23 22 24
REMARK SMILES IDX 23 25 24 26 25 27 26 29 27 30 28 31 89 32 29 33 88 34 30 35
REMARK SMILES IDX 31 36 32 37 82 38 33 39 87 40 81 41 83 42 34 43 86 44 80 45
REMARK SMILES IDX 79 46 35 48 67 49 47 50 66 51 48 52 51 53 65 54 84 55 49 56
REMARK SMILES IDX 50 57 64 59 85 60 52 61 36 62 37 63 45 64 38 65 44 66 46 67
REMARK SMILES IDX 43 68 39 69 40 70 41 71 42 72 68 73 69 74 77 75 70 76 76 77
REMARK SMILES IDX 78 78 75 79 71 80 72 81 73 82 74 83 53 84 54 85 62 86 55 87
REMARK SMILES IDX 61 88 63 89 60 90 56 91 57 92 58 93 59 94
REMARK H PARENT 17 8 5 15 24 28 83 47 51 58
REMARK Flexibility Score: inf
ROOT
ATOM      1  C   UNL A   1      36.905  20.767  24.967  1.00  0.00     0.002 C 
ENDROOT
BRANCH   1   2
ATOM      2  C   UNL A   1      37.257  22.221  24.679  1.00  0.00     0.002 C 
BRANCH   2   3
ATOM      3  C   UNL A   1      36.653  22.799  23.395  1.00  0.00     0.021 C 
BRANCH   3   4
ATOM      4  C   UNL A   1      35.357  23.597  23.562  1.00  0.00     0.116 C 
BRANCH   4   5
ATOM      5  N   UNL A   1      34.142  22.910  23.136  1.00  0.00    -0.354 N 
ATOM      6  C   UNL A   1      33.054  22.453  23.840  1.00  0.00     0.245 C 
ATOM      7  O   UNL A   1      32.192  21.837  23.204  1.00  0.00    -0.272 OA
ATOM      8  H   UNL A   1      34.092  22.745  22.167  1.00  0.00     0.163 HD
BRANCH   6   9
ATOM      9  C   UNL A   1      32.873  22.774  25.348  1.00  0.00     0.117 C 
ATOM     10  C   UNL A   1      33.809  23.900  25.838  1.00  0.00     0.045 C 
BRANCH   9  11
ATOM     11  C   UNL A   1      33.312  21.465  26.106  1.00  0.00     0.035 C 
ATOM     12  C   UNL A   1      34.046  21.711  27.431  1.00  0.00     0.007 C 
ENDBRANCH   9  11
BRANCH   9  13
ATOM     13  N   UNL A   1      31.473  23.150  25.716  1.00  0.00    -0.324 N 
ATOM     14  C   UNL A   1      30.812  24.340  25.780  1.00  0.00     0.318 C 
ATOM     15  H   UNL A   1      30.914  22.379  25.963  1.00  0.00     0.166 HD
ATOM     16  O   UNL A   1      30.011  24.447  26.714  1.00  0.00    -0.249 OA
ATOM     17  N   UNL A   1      30.998  25.364  24.880  1.00  0.00    -0.323 N 
ATOM     18  C   UNL A   1      30.319  26.646  25.111  1.00  0.00     0.135 C 
ATOM     19  C   UNL A   1      31.309  25.195  23.476  1.00  0.00     0.135 C 
ATOM     20  C   UNL A   1      31.113  27.865  24.633  1.00  0.00     0.126 C 
ATOM     21  C   UNL A   1      32.377  26.141  22.988  1.00  0.00     0.126 C 
ATOM     22  S   UNL A   1      31.670  27.809  22.898  1.00  0.00     0.025 S 
ATOM     23  O   UNL A   1      30.465  27.752  22.006  1.00  0.00    -0.259 OA
ENDBRANCH   9  13
ENDBRANCH   6   9
ENDBRANCH   4   5
ENDBRANCH   3   4
ENDBRANCH   2   3
ENDBRANCH   1   2
BRANCH   1  24
ATOM     24  C   UNL A   1      38.111  19.856  25.158  1.00  0.00     0.021 C 
BRANCH  24  25
ATOM     25  C   UNL A   1      39.247  20.487  25.950  1.00  0.00     0.116 C 
BRANCH  25  26
ATOM     26  N   UNL A   1      40.367  19.575  26.111  1.00  0.00    -0.352 N 
ATOM     27  C   UNL A   1      41.695  19.882  26.299  1.00  0.00     0.251 C 
ATOM     28  H   UNL A   1      40.147  18.616  26.080  1.00  0.00     0.163 HD
ATOM     29  O   UNL A   1      42.554  19.024  26.173  1.00  0.00    -0.269 OA
BRANCH  27  30
ATOM     30  C   UNL A   1      42.053  21.276  26.634  1.00  0.00     0.039 A 
ATOM     31  C   UNL A   1      42.169  22.216  25.610  1.00  0.00     0.014 A 
ATOM     32  C   UNL A   1      42.233  21.653  27.969  1.00  0.00     0.014 A 
ATOM     33  C   UNL A   1      42.422  23.550  25.933  1.00  0.00     0.010 A 
ATOM     34  C   UNL A   1      42.391  22.995  28.292  1.00  0.00     0.010 A 
ATOM     35  C   UNL A   1      42.507  23.956  27.276  1.00  0.00    -0.014 A 
BRANCH  35  36
ATOM     36  C   UNL A   1      42.780  25.371  27.638  1.00  0.00     0.031 A 
ATOM     37  C   UNL A   1      44.180  25.911  27.508  1.00  0.00     0.074 A 
ATOM     38  C   UNL A   1      41.789  26.153  28.111  1.00  0.00     0.049 A 
ATOM     39  N   UNL A   1      44.650  27.085  27.841  1.00  0.00    -0.248 NA
ATOM     40  C   UNL A   1      45.194  24.995  26.958  1.00  0.00     0.031 C 
ATOM     41  C   UNL A   1      40.400  25.732  28.310  1.00  0.00     0.029 A 
ATOM     42  N   UNL A   1      41.796  27.465  28.514  1.00  0.00    -0.354 N 
ATOM     43  C   UNL A   1      46.007  27.049  27.539  1.00  0.00     0.074 A 
ATOM     44  C   UNL A   1      46.301  25.711  27.078  1.00  0.00     0.031 C 
ATOM     45  C   UNL A   1      39.686  26.773  28.772  1.00  0.00     0.029 A 
ATOM     46  C   UNL A   1      40.572  27.920  28.951  1.00  0.00     0.049 A 
ATOM     47  H   UNL A   1      42.601  28.031  28.492  1.00  0.00     0.167 HD
ATOM     48  C   UNL A   1      46.919  28.050  27.602  1.00  0.00     0.034 A 
ATOM     49  C   UNL A   1      40.210  29.119  29.450  1.00  0.00     0.034 A 
ATOM     50  C   UNL A   1      46.610  29.383  28.055  1.00  0.00     0.049 A 
ATOM     51  C   UNL A   1      41.255  30.206  29.550  1.00  0.00     0.074 A 
ATOM     52  C   UNL A   1      47.452  30.476  28.153  1.00  0.00     0.029 A 
ATOM     53  N   UNL A   1      45.357  29.807  28.479  1.00  0.00    -0.354 N 
ATOM     54  N   UNL A   1      42.530  30.160  29.235  1.00  0.00    -0.248 NA
ATOM     55  C   UNL A   1      40.811  31.512  30.055  1.00  0.00     0.031 C 
ATOM     56  C   UNL A   1      46.726  31.541  28.694  1.00  0.00     0.029 A 
ATOM     57  C   UNL A   1      45.409  31.140  28.852  1.00  0.00     0.049 A 
ATOM     58  H   UNL A   1      44.551  29.243  28.511  1.00  0.00     0.167 HD
ATOM     59  C   UNL A   1      43.022  31.444  29.456  1.00  0.00     0.074 A 
ATOM     60  C   UNL A   1      41.906  32.242  29.915  1.00  0.00     0.031 C 
ATOM     61  C   UNL A   1      44.281  31.925  29.293  1.00  0.00     0.034 A 
BRANCH  48  62
ATOM     62  C   UNL A   1      48.331  27.733  27.176  1.00  0.00     0.023 A 
ATOM     63  C   UNL A   1      48.792  28.042  25.884  1.00  0.00     0.031 A 
ATOM     64  C   UNL A   1      49.228  27.114  28.064  1.00  0.00     0.131 A 
ATOM     65  C   UNL A   1      50.089  27.677  25.496  1.00  0.00     0.055 A 
ATOM     66  C   UNL A   1      50.544  26.826  27.697  1.00  0.00     0.041 A 
ATOM     67  F   UNL A   1      48.837  26.772  29.301  1.00  0.00    -0.206 F 
ATOM     68  C   UNL A   1      50.978  27.097  26.402  1.00  0.00     0.022 A 
BRANCH  65  69
ATOM     69  S   UNL A   1      50.554  27.857  23.752  1.00  0.00     0.124 S 
ATOM     70  O   UNL A   1      49.247  27.862  23.099  1.00  0.00    -0.237 OA
ATOM     71  O   UNL A   1      51.277  29.123  23.747  1.00  0.00    -0.237 OA
ATOM     72  O   UNL A   1      51.369  26.671  23.492  1.00  0.00    -0.744 OA
ENDBRANCH  65  69
ENDBRANCH  48  62
BRANCH  49  73
ATOM     73  C   UNL A   1      38.811  29.369  29.914  1.00  0.00     0.023 A 
ATOM     74  C   UNL A   1      37.887  30.047  29.103  1.00  0.00     0.031 A 
ATOM     75  C   UNL A   1      38.406  29.014  31.213  1.00  0.00     0.131 A 
ATOM     76  C   UNL A   1      36.640  30.424  29.625  1.00  0.00     0.055 A 
ATOM     77  C   UNL A   1      37.135  29.325  31.703  1.00  0.00     0.041 A 
ATOM     78  F   UNL A   1      39.244  28.363  32.035  1.00  0.00    -0.206 F 
ATOM     79  C   UNL A   1      36.251  30.054  30.914  1.00  0.00     0.022 A 
BRANCH  76  80
ATOM     80  S   UNL A   1      35.591  31.534  28.646  1.00  0.00     0.124 S 
ATOM     81  O   UNL A   1      34.989  30.608  27.694  1.00  0.00    -0.237 OA
ATOM     82  O   UNL A   1      34.697  32.080  29.663  1.00  0.00    -0.237 OA
ATOM     83  O   UNL A   1      36.542  32.486  28.078  1.00  0.00    -0.744 OA
ENDBRANCH  76  80
ENDBRANCH  49  73
BRANCH  61  84
ATOM     84  C   UNL A   1      44.495  33.401  29.533  1.00  0.00     0.023 A 
ATOM     85  C   UNL A   1      44.145  34.372  28.579  1.00  0.00     0.031 A 
ATOM     86  C   UNL A   1      45.073  33.837  30.739  1.00  0.00     0.131 A 
ATOM     87  C   UNL A   1      44.438  35.722  28.818  1.00  0.00     0.055 A 
ATOM     88  C   UNL A   1      45.296  35.189  31.001  1.00  0.00     0.041 A 
ATOM     89  F   UNL A   1      45.430  32.954  31.686  1.00  0.00    -0.206 F 
ATOM     90  C   UNL A   1      44.993  36.139  30.031  1.00  0.00     0.022 A 
BRANCH  87  91
ATOM     91  S   UNL A   1      44.187  36.917  27.477  1.00  0.00     0.124 S 
ATOM     92  O   UNL A   1      43.444  36.126  26.501  1.00  0.00    -0.237 OA
ATOM     93  O   UNL A   1      43.437  37.977  28.141  1.00  0.00    -0.237 OA
ATOM     94  O   UNL A   1      45.546  37.277  27.078  1.00  0.00    -0.744 OA
ENDBRANCH  87  91
ENDBRANCH  61  84
ENDBRANCH  35  36
ENDBRANCH  27  30
ENDBRANCH  25  26
ENDBRANCH  24  25
ENDBRANCH   1  24
TORSDOF 18
ENDMDL
