MODEL 1
REMARK VINA RESULT:     -12.0      0.000      0.000
REMARK SMILES O=C(Cc1ccccc1Nc1c(F)cccc1C(F)(F)F)NCCCCCCNC(=O)c1ccc(-c2c3nc(c(-c4cc(S(=O)(=O)[O-])ccc4F)c4ccc([nH]4)c(-c4cc(S(=O)(=O)[O-])ccc4F)c4nc(c(-c5cc(S(=O)(=O)[O-])ccc5F)c5ccc2[nH]5)C=C4)C=C3)cc1
REMARK SMILES IDX 25 1 24 2 23 3 22 4 1 5 2 6 3 8 4 9 5 10 9 11 6 12 8 13 7 14
REMARK SMILES IDX 10 15 11 17 12 18 17 19 13 20 14 21 16 22 15 23 18 24 19 25
REMARK SMILES IDX 20 26 21 27 26 28 27 29 28 30 29 31 30 32 31 34 32 35 33 36
REMARK SMILES IDX 94 37 34 38 93 39 35 40 36 41 37 42 87 43 38 44 92 45 86 46
REMARK SMILES IDX 88 47 39 48 91 49 85 50 84 51 40 53 72 54 52 55 71 56 53 57
REMARK SMILES IDX 56 58 70 59 89 60 54 61 55 62 69 64 90 65 57 66 41 67 42 68
REMARK SMILES IDX 50 69 43 70 49 71 51 72 48 73 44 74 45 75 46 76 47 77 73 78
REMARK SMILES IDX 74 79 82 80 75 81 81 82 83 83 80 84 76 85 77 86 78 87 79 88
REMARK SMILES IDX 58 89 59 90 67 91 60 92 66 93 68 94 65 95 61 96 62 97 63 98
REMARK SMILES IDX 64 99
REMARK H PARENT 22 7 10 16 29 33 88 52 56 63
REMARK Flexibility Score: inf
ROOT
ATOM      1  C   UNL A   1      33.877  22.371  23.826  1.00  0.00     0.002 C 
ENDROOT
BRANCH   1   2
ATOM      2  C   UNL A   1      34.135  23.867  24.051  1.00  0.00     0.021 C 
BRANCH   2   3
ATOM      3  C   UNL A   1      33.188  24.794  23.290  1.00  0.00     0.116 C 
BRANCH   3   4
ATOM      4  N   UNL A   1      33.384  26.177  23.675  1.00  0.00    -0.356 N 
ATOM      5  O   UNL A   1      33.655  26.991  21.545  1.00  0.00    -0.275 OA
ATOM      6  C   UNL A   1      33.632  27.173  22.760  1.00  0.00     0.224 C 
ATOM      7  H   UNL A   1      33.335  26.413  24.629  1.00  0.00     0.163 HD
BRANCH   6   8
ATOM      8  C   UNL A   1      34.002  28.513  23.360  1.00  0.00     0.137 C 
BRANCH   8   9
ATOM      9  C   UNL A   1      33.417  28.787  24.728  1.00  0.00    -0.015 A 
ATOM     10  C   UNL A   1      34.228  28.511  25.847  1.00  0.00     0.006 A 
ATOM     11  C   UNL A   1      32.114  29.297  24.924  1.00  0.00     0.042 A 
ATOM     12  C   UNL A   1      33.757  28.705  27.144  1.00  0.00     0.000 A 
ATOM     13  C   UNL A   1      31.655  29.460  26.242  1.00  0.00     0.026 A 
ATOM     14  C   UNL A   1      32.464  29.169  27.340  1.00  0.00     0.002 A 
BRANCH  11  15
ATOM     15  N   UNL A   1      31.316  29.688  23.826  1.00  0.00    -0.352 N 
ATOM     16  H   UNL A   1      31.815  30.033  23.052  1.00  0.00     0.167 HD
BRANCH  15  17
ATOM     17  C   UNL A   1      29.911  29.662  23.664  1.00  0.00     0.087 A 
ATOM     18  C   UNL A   1      29.234  30.897  23.722  1.00  0.00     0.147 A 
ATOM     19  C   UNL A   1      29.159  28.510  23.369  1.00  0.00     0.082 A 
ATOM     20  F   UNL A   1      29.928  32.005  24.030  1.00  0.00    -0.205 F 
ATOM     21  C   UNL A   1      27.875  31.021  23.452  1.00  0.00     0.041 A 
ATOM     22  C   UNL A   1      27.782  28.649  23.073  1.00  0.00     0.015 A 
ATOM     23  C   UNL A   1      27.147  29.891  23.108  1.00  0.00     0.004 A 
BRANCH  19  24
ATOM     24  C   UNL A   1      29.727  27.110  23.386  1.00  0.00     0.418 C 
ATOM     25  F   UNL A   1      30.452  26.870  24.520  1.00  0.00    -0.166 F 
ATOM     26  F   UNL A   1      28.756  26.154  23.379  1.00  0.00    -0.166 F 
ATOM     27  F   UNL A   1      30.576  26.817  22.364  1.00  0.00    -0.166 F 
ENDBRANCH  19  24
ENDBRANCH  15  17
ENDBRANCH  11  15
ENDBRANCH   8   9
ENDBRANCH   6   8
ENDBRANCH   3   4
ENDBRANCH   2   3
ENDBRANCH   1   2
BRANCH   1  28
ATOM     28  C   UNL A   1      34.852  21.427  24.536  1.00  0.00     0.002 C 
BRANCH  28  29
ATOM     29  C   UNL A   1      36.334  21.760  24.357  1.00  0.00     0.021 C 
BRANCH  29  30
ATOM     30  C   UNL A   1      37.092  22.036  25.651  1.00  0.00     0.116 C 
BRANCH  30  31
ATOM     31  N   UNL A   1      38.187  21.102  25.862  1.00  0.00    -0.352 N 
ATOM     32  C   UNL A   1      39.477  21.346  26.264  1.00  0.00     0.251 C 
ATOM     33  H   UNL A   1      37.971  20.156  25.691  1.00  0.00     0.163 HD
ATOM     34  O   UNL A   1      40.312  20.446  26.207  1.00  0.00    -0.269 OA
BRANCH  32  35
ATOM     35  C   UNL A   1      39.864  22.694  26.737  1.00  0.00     0.039 A 
ATOM     36  C   UNL A   1      40.796  22.807  27.772  1.00  0.00     0.014 A 
ATOM     37  C   UNL A   1      39.317  23.844  26.160  1.00  0.00     0.014 A 
ATOM     38  C   UNL A   1      41.231  24.072  28.178  1.00  0.00     0.010 A 
ATOM     39  C   UNL A   1      39.809  25.098  26.513  1.00  0.00     0.010 A 
ATOM     40  C   UNL A   1      40.775  25.227  27.523  1.00  0.00    -0.014 A 
BRANCH  40  41
ATOM     41  C   UNL A   1      41.305  26.574  27.872  1.00  0.00     0.031 A 
ATOM     42  C   UNL A   1      42.726  26.940  27.538  1.00  0.00     0.074 A 
ATOM     43  C   UNL A   1      40.526  27.444  28.545  1.00  0.00     0.049 A 
ATOM     44  N   UNL A   1      43.392  28.028  27.831  1.00  0.00    -0.248 NA
ATOM     45  C   UNL A   1      43.509  25.937  26.801  1.00  0.00     0.031 C 
ATOM     46  C   UNL A   1      39.141  27.195  28.954  1.00  0.00     0.029 A 
ATOM     47  N   UNL A   1      40.784  28.710  29.011  1.00  0.00    -0.354 N 
ATOM     48  C   UNL A   1      44.672  27.839  27.322  1.00  0.00     0.074 A 
ATOM     49  C   UNL A   1      44.705  26.505  26.758  1.00  0.00     0.031 C 
ATOM     50  C   UNL A   1      38.665  28.281  29.583  1.00  0.00     0.029 A 
ATOM     51  C   UNL A   1      39.723  29.283  29.677  1.00  0.00     0.049 A 
ATOM     52  H   UNL A   1      41.647  29.165  28.883  1.00  0.00     0.167 HD
ATOM     53  C   UNL A   1      45.716  28.705  27.306  1.00  0.00     0.034 A 
ATOM     54  C   UNL A   1      39.618  30.470  30.307  1.00  0.00     0.034 A 
ATOM     55  C   UNL A   1      45.667  30.032  27.871  1.00  0.00     0.049 A 
ATOM     56  C   UNL A   1      40.809  31.395  30.321  1.00  0.00     0.074 A 
ATOM     57  C   UNL A   1      46.651  31.007  27.866  1.00  0.00     0.029 A 
ATOM     58  N   UNL A   1      44.582  30.571  28.551  1.00  0.00    -0.354 N 
ATOM     59  N   UNL A   1      41.999  31.220  29.794  1.00  0.00    -0.248 NA
ATOM     60  C   UNL A   1      40.642  32.682  31.009  1.00  0.00     0.031 C 
ATOM     61  C   UNL A   1      46.192  32.098  28.611  1.00  0.00     0.029 A 
ATOM     62  C   UNL A   1      44.887  31.846  29.003  1.00  0.00     0.049 A 
ATOM     63  H   UNL A   1      43.722  30.113  28.692  1.00  0.00     0.167 HD
ATOM     64  C   UNL A   1      42.708  32.389  30.058  1.00  0.00     0.074 A 
ATOM     65  C   UNL A   1      41.807  33.266  30.777  1.00  0.00     0.031 C 
ATOM     66  C   UNL A   1      43.985  32.710  29.731  1.00  0.00     0.034 A 
BRANCH  53  67
ATOM     67  C   UNL A   1      47.009  28.228  26.683  1.00  0.00     0.023 A 
ATOM     68  C   UNL A   1      47.212  28.250  25.293  1.00  0.00     0.031 A 
ATOM     69  C   UNL A   1      48.048  27.732  27.490  1.00  0.00     0.131 A 
ATOM     70  C   UNL A   1      48.389  27.716  24.746  1.00  0.00     0.055 A 
ATOM     71  C   UNL A   1      49.254  27.282  26.947  1.00  0.00     0.041 A 
ATOM     72  F   UNL A   1      47.907  27.665  28.824  1.00  0.00    -0.206 F 
ATOM     73  C   UNL A   1      49.423  27.257  25.566  1.00  0.00     0.022 A 
BRANCH  70  74
ATOM     74  S   UNL A   1      48.486  27.491  22.950  1.00  0.00     0.124 S 
ATOM     75  O   UNL A   1      48.486  26.034  22.834  1.00  0.00    -0.237 OA
ATOM     76  O   UNL A   1      47.283  28.169  22.482  1.00  0.00    -0.237 OA
ATOM     77  O   UNL A   1      49.747  28.135  22.591  1.00  0.00    -0.744 OA
ENDBRANCH  70  74
ENDBRANCH  53  67
BRANCH  54  78
ATOM     78  C   UNL A   1      38.350  30.853  30.996  1.00  0.00     0.023 A 
ATOM     79  C   UNL A   1      37.328  31.526  30.308  1.00  0.00     0.031 A 
ATOM     80  C   UNL A   1      38.162  30.596  32.365  1.00  0.00     0.131 A 
ATOM     81  C   UNL A   1      36.189  31.966  31.002  1.00  0.00     0.055 A 
ATOM     82  C   UNL A   1      37.000  30.981  33.037  1.00  0.00     0.041 A 
ATOM     83  F   UNL A   1      39.107  29.956  33.073  1.00  0.00    -0.206 F 
ATOM     84  C   UNL A   1      36.011  31.684  32.357  1.00  0.00     0.022 A 
BRANCH  81  85
ATOM     85  S   UNL A   1      34.985  33.003  30.125  1.00  0.00     0.124 S 
ATOM     86  O   UNL A   1      34.591  32.132  29.024  1.00  0.00    -0.237 OA
ATOM     87  O   UNL A   1      33.977  33.234  31.154  1.00  0.00    -0.237 OA
ATOM     88  O   UNL A   1      35.764  34.179  29.743  1.00  0.00    -0.744 OA
ENDBRANCH  81  85
ENDBRANCH  54  78
BRANCH  66  89
ATOM     89  C   UNL A   1      44.468  34.092  30.105  1.00  0.00     0.023 A 
ATOM     90  C   UNL A   1      44.299  35.196  29.252  1.00  0.00     0.031 A 
ATOM     91  C   UNL A   1      45.113  34.304  31.338  1.00  0.00     0.131 A 
ATOM     92  C   UNL A   1      44.818  36.448  29.617  1.00  0.00     0.055 A 
ATOM     93  C   UNL A   1      45.566  35.565  31.725  1.00  0.00     0.041 A 
ATOM     94  F   UNL A   1      45.307  33.285  32.192  1.00  0.00    -0.206 F 
ATOM     95  C   UNL A   1      45.432  36.644  30.857  1.00  0.00     0.022 A 
BRANCH  92  96
ATOM     96  S   UNL A   1      44.765  37.800  28.409  1.00  0.00     0.124 S 
ATOM     97  O   UNL A   1      43.897  38.766  29.073  1.00  0.00    -0.237 OA
ATOM     98  O   UNL A   1      46.171  38.176  28.299  1.00  0.00    -0.237 OA
ATOM     99  O   UNL A   1      44.198  37.173  27.216  1.00  0.00    -0.744 OA
ENDBRANCH  92  96
ENDBRANCH  66  89
ENDBRANCH  40  41
ENDBRANCH  32  35
ENDBRANCH  30  31
ENDBRANCH  29  30
ENDBRANCH  28  29
ENDBRANCH   1  28
TORSDOF 20
ENDMDL
MODEL 2
REMARK VINA RESULT:     -11.8      2.169      2.495
REMARK SMILES O=C(Cc1ccccc1Nc1c(F)cccc1C(F)(F)F)NCCCCCCNC(=O)c1ccc(-c2c3nc(c(-c4cc(S(=O)(=O)[O-])ccc4F)c4ccc([nH]4)c(-c4cc(S(=O)(=O)[O-])ccc4F)c4nc(c(-c5cc(S(=O)(=O)[O-])ccc5F)c5ccc2[nH]5)C=C4)C=C3)cc1
REMARK SMILES IDX 25 1 24 2 23 3 22 4 1 5 2 6 3 8 4 9 5 10 9 11 6 12 8 13 7 14
REMARK SMILES IDX 10 15 11 17 12 18 17 19 13 20 14 21 16 22 15 23 18 24 19 25
REMARK SMILES IDX 20 26 21 27 26 28 27 29 28 30 29 31 30 32 31 34 32 35 33 36
REMARK SMILES IDX 94 37 34 38 93 39 35 40 36 41 37 42 87 43 38 44 92 45 86 46
REMARK SMILES IDX 88 47 39 48 91 49 85 50 84 51 40 53 72 54 52 55 71 56 53 57
REMARK SMILES IDX 56 58 70 59 89 60 54 61 55 62 69 64 90 65 57 66 41 67 42 68
REMARK SMILES IDX 50 69 43 70 49 71 51 72 48 73 44 74 45 75 46 76 47 77 73 78
REMARK SMILES IDX 74 79 82 80 75 81 81 82 83 83 80 84 76 85 77 86 78 87 79 88
REMARK SMILES IDX 58 89 59 90 67 91 60 92 66 93 68 94 65 95 61 96 62 97 63 98
REMARK SMILES IDX 64 99
REMARK H PARENT 22 7 10 16 29 33 88 52 56 63
REMARK Flexibility Score: inf
ROOT
ATOM      1  C   UNL A   1      34.692  22.387  23.705  1.00  0.00     0.002 C 
ENDROOT
BRANCH   1   2
ATOM      2  C   UNL A   1      34.745  23.916  23.597  1.00  0.00     0.021 C 
BRANCH   2   3
ATOM      3  C   UNL A   1      33.376  24.598  23.590  1.00  0.00     0.116 C 
BRANCH   3   4
ATOM      4  N   UNL A   1      33.491  26.010  23.892  1.00  0.00    -0.356 N 
ATOM      5  O   UNL A   1      33.857  26.696  21.731  1.00  0.00    -0.275 OA
ATOM      6  C   UNL A   1      33.753  26.955  22.928  1.00  0.00     0.224 C 
ATOM      7  H   UNL A   1      33.375  26.304  24.824  1.00  0.00     0.163 HD
BRANCH   6   8
ATOM      8  C   UNL A   1      34.029  28.347  23.457  1.00  0.00     0.137 C 
BRANCH   8   9
ATOM      9  C   UNL A   1      33.421  28.653  24.808  1.00  0.00    -0.015 A 
ATOM     10  C   UNL A   1      34.213  28.408  25.947  1.00  0.00     0.006 A 
ATOM     11  C   UNL A   1      32.113  29.162  24.969  1.00  0.00     0.042 A 
ATOM     12  C   UNL A   1      33.720  28.633  27.230  1.00  0.00     0.000 A 
ATOM     13  C   UNL A   1      31.631  29.357  26.274  1.00  0.00     0.026 A 
ATOM     14  C   UNL A   1      32.422  29.096  27.393  1.00  0.00     0.002 A 
BRANCH  11  15
ATOM     15  N   UNL A   1      31.332  29.522  23.847  1.00  0.00    -0.352 N 
ATOM     16  H   UNL A   1      31.844  29.847  23.073  1.00  0.00     0.167 HD
BRANCH  15  17
ATOM     17  C   UNL A   1      29.930  29.489  23.663  1.00  0.00     0.087 A 
ATOM     18  C   UNL A   1      29.251  30.725  23.674  1.00  0.00     0.147 A 
ATOM     19  C   UNL A   1      29.184  28.328  23.391  1.00  0.00     0.082 A 
ATOM     20  F   UNL A   1      29.939  31.842  23.960  1.00  0.00    -0.205 F 
ATOM     21  C   UNL A   1      27.897  30.838  23.378  1.00  0.00     0.041 A 
ATOM     22  C   UNL A   1      27.811  28.456  23.069  1.00  0.00     0.015 A 
ATOM     23  C   UNL A   1      27.175  29.698  23.056  1.00  0.00     0.004 A 
BRANCH  19  24
ATOM     24  C   UNL A   1      29.752  26.930  23.459  1.00  0.00     0.418 C 
ATOM     25  F   UNL A   1      30.419  26.710  24.631  1.00  0.00    -0.166 F 
ATOM     26  F   UNL A   1      28.784  25.971  23.418  1.00  0.00    -0.166 F 
ATOM     27  F   UNL A   1      30.652  26.623  22.485  1.00  0.00    -0.166 F 
ENDBRANCH  19  24
ENDBRANCH  15  17
ENDBRANCH  11  15
ENDBRANCH   8   9
ENDBRANCH   6   8
ENDBRANCH   3   4
ENDBRANCH   2   3
ENDBRANCH   1   2
BRANCH   1  28
ATOM     28  C   UNL A   1      35.828  21.750  24.512  1.00  0.00     0.002 C 
BRANCH  28  29
ATOM     29  C   UNL A   1      37.125  22.559  24.568  1.00  0.00     0.021 C 
BRANCH  29  30
ATOM     30  C   UNL A   1      37.807  22.586  25.932  1.00  0.00     0.116 C 
BRANCH  30  31
ATOM     31  N   UNL A   1      39.093  21.906  25.922  1.00  0.00    -0.352 N 
ATOM     32  C   UNL A   1      40.348  22.408  26.166  1.00  0.00     0.251 C 
ATOM     33  H   UNL A   1      39.059  20.945  25.708  1.00  0.00     0.163 HD
ATOM     34  O   UNL A   1      41.336  21.718  25.928  1.00  0.00    -0.269 OA
BRANCH  32  35
ATOM     35  C   UNL A   1      40.507  23.785  26.686  1.00  0.00     0.039 A 
ATOM     36  C   UNL A   1      40.872  23.965  28.022  1.00  0.00     0.014 A 
ATOM     37  C   UNL A   1      40.304  24.895  25.861  1.00  0.00     0.014 A 
ATOM     38  C   UNL A   1      41.103  25.255  28.510  1.00  0.00     0.010 A 
ATOM     39  C   UNL A   1      40.608  26.171  26.328  1.00  0.00     0.010 A 
ATOM     40  C   UNL A   1      41.016  26.366  27.656  1.00  0.00    -0.014 A 
BRANCH  40  41
ATOM     41  C   UNL A   1      41.359  27.735  28.132  1.00  0.00     0.031 A 
ATOM     42  C   UNL A   1      42.796  28.178  28.195  1.00  0.00     0.074 A 
ATOM     43  C   UNL A   1      40.381  28.555  28.565  1.00  0.00     0.049 A 
ATOM     44  N   UNL A   1      43.298  29.297  28.653  1.00  0.00    -0.248 NA
ATOM     45  C   UNL A   1      43.802  27.227  27.701  1.00  0.00     0.031 C 
ATOM     46  C   UNL A   1      38.953  28.229  28.583  1.00  0.00     0.029 A 
ATOM     47  N   UNL A   1      40.435  29.827  29.080  1.00  0.00    -0.354 N 
ATOM     48  C   UNL A   1      44.676  29.181  28.512  1.00  0.00     0.074 A 
ATOM     49  C   UNL A   1      44.932  27.858  27.982  1.00  0.00     0.031 C 
ATOM     50  C   UNL A   1      38.267  29.282  29.057  1.00  0.00     0.029 A 
ATOM     51  C   UNL A   1      39.204  30.336  29.431  1.00  0.00     0.049 A 
ATOM     52  H   UNL A   1      41.275  30.329  29.189  1.00  0.00     0.167 HD
ATOM     53  C   UNL A   1      45.638  30.101  28.777  1.00  0.00     0.034 A 
ATOM     54  C   UNL A   1      38.868  31.509  30.005  1.00  0.00     0.034 A 
ATOM     55  C   UNL A   1      45.366  31.417  29.302  1.00  0.00     0.049 A 
ATOM     56  C   UNL A   1      39.960  32.495  30.339  1.00  0.00     0.074 A 
ATOM     57  C   UNL A   1      46.260  32.442  29.562  1.00  0.00     0.029 A 
ATOM     58  N   UNL A   1      44.110  31.890  29.661  1.00  0.00    -0.354 N 
ATOM     59  N   UNL A   1      41.256  32.388  30.154  1.00  0.00    -0.248 NA
ATOM     60  C   UNL A   1      39.544  33.764  30.951  1.00  0.00     0.031 C 
ATOM     61  C   UNL A   1      45.559  33.499  30.151  1.00  0.00     0.029 A 
ATOM     62  C   UNL A   1      44.212  33.175  30.175  1.00  0.00     0.049 A 
ATOM     63  H   UNL A   1      43.269  31.386  29.565  1.00  0.00     0.167 HD
ATOM     64  C   UNL A   1      41.803  33.590  30.597  1.00  0.00     0.074 A 
ATOM     65  C   UNL A   1      40.695  34.410  31.042  1.00  0.00     0.031 C 
ATOM     66  C   UNL A   1      43.102  33.982  30.628  1.00  0.00     0.034 A 
BRANCH  53  67
ATOM     67  C   UNL A   1      47.074  29.700  28.530  1.00  0.00     0.023 A 
ATOM     68  C   UNL A   1      47.842  29.055  29.515  1.00  0.00     0.031 A 
ATOM     69  C   UNL A   1      47.690  29.980  27.297  1.00  0.00     0.131 A 
ATOM     70  C   UNL A   1      49.198  28.780  29.280  1.00  0.00     0.055 A 
ATOM     71  C   UNL A   1      49.016  29.625  27.037  1.00  0.00     0.041 A 
ATOM     72  F   UNL A   1      47.017  30.613  26.323  1.00  0.00    -0.206 F 
ATOM     73  C   UNL A   1      49.783  29.035  28.037  1.00  0.00     0.022 A 
BRANCH  70  74
ATOM     74  S   UNL A   1      50.222  28.223  30.669  1.00  0.00     0.124 S 
ATOM     75  O   UNL A   1      50.674  26.916  30.197  1.00  0.00    -0.237 OA
ATOM     76  O   UNL A   1      51.242  29.262  30.745  1.00  0.00    -0.237 OA
ATOM     77  O   UNL A   1      49.287  28.182  31.791  1.00  0.00    -0.744 OA
ENDBRANCH  70  74
ENDBRANCH  53  67
BRANCH  54  78
ATOM     78  C   UNL A   1      37.443  31.817  30.323  1.00  0.00     0.023 A 
ATOM     79  C   UNL A   1      36.568  32.294  29.333  1.00  0.00     0.031 A 
ATOM     80  C   UNL A   1      36.947  31.687  31.632  1.00  0.00     0.131 A 
ATOM     81  C   UNL A   1      35.261  32.673  29.679  1.00  0.00     0.055 A 
ATOM     82  C   UNL A   1      35.627  32.007  31.958  1.00  0.00     0.041 A 
ATOM     83  F   UNL A   1      37.739  31.236  32.617  1.00  0.00    -0.206 F 
ATOM     84  C   UNL A   1      34.780  32.518  30.980  1.00  0.00     0.022 A 
BRANCH  81  85
ATOM     85  S   UNL A   1      34.226  33.469  28.418  1.00  0.00     0.124 S 
ATOM     86  O   UNL A   1      33.449  34.406  29.222  1.00  0.00    -0.237 OA
ATOM     87  O   UNL A   1      35.225  34.057  27.533  1.00  0.00    -0.237 OA
ATOM     88  O   UNL A   1      33.469  32.357  27.848  1.00  0.00    -0.744 OA
ENDBRANCH  81  85
ENDBRANCH  54  78
BRANCH  66  89
ATOM     89  C   UNL A   1      43.390  35.382  31.115  1.00  0.00     0.023 A 
ATOM     90  C   UNL A   1      43.492  36.472  30.231  1.00  0.00     0.031 A 
ATOM     91  C   UNL A   1      43.571  35.629  32.488  1.00  0.00     0.131 A 
ATOM     92  C   UNL A   1      43.821  37.743  30.724  1.00  0.00     0.055 A 
ATOM     93  C   UNL A   1      43.830  36.908  32.980  1.00  0.00     0.041 A 
ATOM     94  F   UNL A   1      43.490  34.626  33.379  1.00  0.00    -0.206 F 
ATOM     95  C   UNL A   1      43.970  37.973  32.095  1.00  0.00     0.022 A 
BRANCH  92  96
ATOM     96  S   UNL A   1      44.146  39.080  29.542  1.00  0.00     0.124 S 
ATOM     97  O   UNL A   1      45.565  39.340  29.760  1.00  0.00    -0.237 OA
ATOM     98  O   UNL A   1      43.801  38.460  28.267  1.00  0.00    -0.237 OA
ATOM     99  O   UNL A   1      43.246  40.148  29.974  1.00  0.00    -0.744 OA
ENDBRANCH  92  96
ENDBRANCH  66  89
ENDBRANCH  40  41
ENDBRANCH  32  35
ENDBRANCH  30  31
ENDBRANCH  29  30
ENDBRANCH  28  29
ENDBRANCH   1  28
TORSDOF 20
ENDMDL
MODEL 3
REMARK VINA RESULT:     -11.5      4.678      9.651
REMARK SMILES O=C(Cc1ccccc1Nc1c(F)cccc1C(F)(F)F)NCCCCCCNC(=O)c1ccc(-c2c3nc(c(-c4cc(S(=O)(=O)[O-])ccc4F)c4ccc([nH]4)c(-c4cc(S(=O)(=O)[O-])ccc4F)c4nc(c(-c5cc(S(=O)(=O)[O-])ccc5F)c5ccc2[nH]5)C=C4)C=C3)cc1
REMARK SMILES IDX 25 1 24 2 23 3 22 4 1 5 2 6 3 8 4 9 5 10 9 11 6 12 8 13 7 14
REMARK SMILES IDX 10 15 11 17 12 18 17 19 13 20 14 21 16 22 15 23 18 24 19 25
REMARK SMILES IDX 20 26 21 27 26 28 27 29 28 30 29 31 30 32 31 34 32 35 33 36
REMARK SMILES IDX 94 37 34 38 93 39 35 40 36 41 37 42 87 43 38 44 92 45 86 46
REMARK SMILES IDX 88 47 39 48 91 49 85 50 84 51 40 53 72 54 52 55 71 56 53 57
REMARK SMILES IDX 56 58 70 59 89 60 54 61 55 62 69 64 90 65 57 66 41 67 42 68
REMARK SMILES IDX 50 69 43 70 49 71 51 72 48 73 44 74 45 75 46 76 47 77 73 78
REMARK SMILES IDX 74 79 82 80 75 81 81 82 83 83 80 84 76 85 77 86 78 87 79 88
REMARK SMILES IDX 58 89 59 90 67 91 60 92 66 93 68 94 65 95 61 96 62 97 63 98
REMARK SMILES IDX 64 99
REMARK H PARENT 22 7 10 16 29 33 88 52 56 63
REMARK Flexibility Score: inf
ROOT
ATOM      1  C   UNL A   1      32.391  28.951  23.566  1.00  0.00     0.002 C 
ENDROOT
BRANCH   1   2
ATOM      2  C   UNL A   1      33.772  28.519  23.058  1.00  0.00     0.021 C 
BRANCH   2   3
ATOM      3  C   UNL A   1      33.750  27.330  22.097  1.00  0.00     0.116 C 
BRANCH   3   4
ATOM      4  N   UNL A   1      33.213  26.146  22.736  1.00  0.00    -0.356 N 
ATOM      5  O   UNL A   1      33.168  24.844  20.846  1.00  0.00    -0.275 OA
ATOM      6  C   UNL A   1      32.936  24.991  22.044  1.00  0.00     0.224 C 
ATOM      7  H   UNL A   1      33.042  26.170  23.705  1.00  0.00     0.163 HD
BRANCH   6   8
ATOM      8  C   UNL A   1      32.203  23.931  22.838  1.00  0.00     0.137 C 
BRANCH   8   9
ATOM      9  C   UNL A   1      31.376  24.452  23.993  1.00  0.00    -0.015 A 
ATOM     10  C   UNL A   1      30.358  25.380  23.695  1.00  0.00     0.006 A 
ATOM     11  C   UNL A   1      31.582  24.054  25.333  1.00  0.00     0.042 A 
ATOM     12  C   UNL A   1      29.570  25.933  24.702  1.00  0.00     0.000 A 
ATOM     13  C   UNL A   1      30.791  24.645  26.331  1.00  0.00     0.026 A 
ATOM     14  C   UNL A   1      29.796  25.574  26.023  1.00  0.00     0.002 A 
BRANCH  11  15
ATOM     15  N   UNL A   1      32.519  23.045  25.654  1.00  0.00    -0.352 N 
ATOM     16  H   UNL A   1      32.147  22.274  26.137  1.00  0.00     0.167 HD
BRANCH  15  17
ATOM     17  C   UNL A   1      33.906  22.970  25.388  1.00  0.00     0.087 A 
ATOM     18  C   UNL A   1      34.656  24.152  25.554  1.00  0.00     0.147 A 
ATOM     19  C   UNL A   1      34.596  21.791  25.053  1.00  0.00     0.082 A 
ATOM     20  F   UNL A   1      34.014  25.295  25.846  1.00  0.00    -0.205 F 
ATOM     21  C   UNL A   1      36.043  24.180  25.449  1.00  0.00     0.041 A 
ATOM     22  C   UNL A   1      36.008  21.824  24.971  1.00  0.00     0.015 A 
ATOM     23  C   UNL A   1      36.725  23.004  25.173  1.00  0.00     0.004 A 
BRANCH  19  24
ATOM     24  C   UNL A   1      33.914  20.482  24.733  1.00  0.00     0.418 C 
ATOM     25  F   UNL A   1      33.167  20.028  25.784  1.00  0.00    -0.166 F 
ATOM     26  F   UNL A   1      33.037  20.590  23.697  1.00  0.00    -0.166 F 
ATOM     27  F   UNL A   1      34.752  19.451  24.434  1.00  0.00    -0.166 F 
ENDBRANCH  19  24
ENDBRANCH  15  17
ENDBRANCH  11  15
ENDBRANCH   8   9
ENDBRANCH   6   8
ENDBRANCH   3   4
ENDBRANCH   2   3
ENDBRANCH   1   2
BRANCH   1  28
ATOM     28  C   UNL A   1      32.066  28.542  25.006  1.00  0.00     0.002 C 
BRANCH  28  29
ATOM     29  C   UNL A   1      33.272  28.413  25.937  1.00  0.00     0.021 C 
BRANCH  29  30
ATOM     30  C   UNL A   1      33.107  29.079  27.299  1.00  0.00     0.116 C 
BRANCH  30  31
ATOM     31  N   UNL A   1      33.386  30.506  27.256  1.00  0.00    -0.352 N 
ATOM     32  C   UNL A   1      34.478  31.197  27.722  1.00  0.00     0.251 C 
ATOM     33  H   UNL A   1      32.689  31.058  26.831  1.00  0.00     0.163 HD
ATOM     34  O   UNL A   1      34.450  32.425  27.760  1.00  0.00    -0.269 OA
BRANCH  32  35
ATOM     35  C   UNL A   1      35.670  30.462  28.201  1.00  0.00     0.039 A 
ATOM     36  C   UNL A   1      36.810  30.421  27.393  1.00  0.00     0.014 A 
ATOM     37  C   UNL A   1      35.670  29.820  29.443  1.00  0.00     0.014 A 
ATOM     38  C   UNL A   1      37.970  29.799  27.863  1.00  0.00     0.010 A 
ATOM     39  C   UNL A   1      36.849  29.269  29.939  1.00  0.00     0.010 A 
ATOM     40  C   UNL A   1      38.014  29.256  29.157  1.00  0.00    -0.014 A 
BRANCH  40  41
ATOM     41  C   UNL A   1      39.271  28.682  29.711  1.00  0.00     0.031 A 
ATOM     42  C   UNL A   1      39.929  29.312  30.909  1.00  0.00     0.074 A 
ATOM     43  C   UNL A   1      39.853  27.631  29.098  1.00  0.00     0.049 A 
ATOM     44  N   UNL A   1      41.064  29.009  31.486  1.00  0.00    -0.248 NA
ATOM     45  C   UNL A   1      39.231  30.452  31.521  1.00  0.00     0.031 C 
ATOM     46  C   UNL A   1      39.329  26.952  27.911  1.00  0.00     0.029 A 
ATOM     47  N   UNL A   1      41.013  26.953  29.381  1.00  0.00    -0.354 N 
ATOM     48  C   UNL A   1      41.220  29.922  32.523  1.00  0.00     0.074 A 
ATOM     49  C   UNL A   1      40.093  30.829  32.453  1.00  0.00     0.031 C 
ATOM     50  C   UNL A   1      40.149  25.940  27.585  1.00  0.00     0.029 A 
ATOM     51  C   UNL A   1      41.286  25.930  28.500  1.00  0.00     0.049 A 
ATOM     52  H   UNL A   1      41.596  27.177  30.141  1.00  0.00     0.167 HD
ATOM     53  C   UNL A   1      42.200  29.985  33.459  1.00  0.00     0.034 A 
ATOM     54  C   UNL A   1      42.339  25.092  28.424  1.00  0.00     0.034 A 
ATOM     55  C   UNL A   1      43.316  29.072  33.516  1.00  0.00     0.049 A 
ATOM     56  C   UNL A   1      43.442  25.215  29.446  1.00  0.00     0.074 A 
ATOM     57  C   UNL A   1      44.337  29.018  34.450  1.00  0.00     0.029 A 
ATOM     58  N   UNL A   1      43.567  28.061  32.597  1.00  0.00    -0.354 N 
ATOM     59  N   UNL A   1      43.551  26.055  30.449  1.00  0.00    -0.248 NA
ATOM     60  C   UNL A   1      44.562  24.271  29.330  1.00  0.00     0.031 C 
ATOM     61  C   UNL A   1      45.244  28.031  34.051  1.00  0.00     0.029 A 
ATOM     62  C   UNL A   1      44.746  27.404  32.921  1.00  0.00     0.049 A 
ATOM     63  H   UNL A   1      42.992  27.842  31.829  1.00  0.00     0.167 HD
ATOM     64  C   UNL A   1      44.734  25.717  31.102  1.00  0.00     0.074 A 
ATOM     65  C   UNL A   1      45.293  24.588  30.388  1.00  0.00     0.031 C 
ATOM     66  C   UNL A   1      45.303  26.285  32.196  1.00  0.00     0.034 A 
BRANCH  53  67
ATOM     67  C   UNL A   1      42.120  31.099  34.478  1.00  0.00     0.023 A 
ATOM     68  C   UNL A   1      42.649  32.376  34.221  1.00  0.00     0.031 A 
ATOM     69  C   UNL A   1      41.521  30.878  35.731  1.00  0.00     0.131 A 
ATOM     70  C   UNL A   1      42.636  33.357  35.225  1.00  0.00     0.055 A 
ATOM     71  C   UNL A   1      41.433  31.884  36.695  1.00  0.00     0.041 A 
ATOM     72  F   UNL A   1      41.018  29.673  36.045  1.00  0.00    -0.206 F 
ATOM     73  C   UNL A   1      42.007  33.128  36.451  1.00  0.00     0.022 A 
BRANCH  70  74
ATOM     74  S   UNL A   1      43.584  34.880  34.960  1.00  0.00     0.124 S 
ATOM     75  O   UNL A   1      44.942  34.441  35.275  1.00  0.00    -0.237 OA
ATOM     76  O   UNL A   1      43.318  35.177  33.558  1.00  0.00    -0.237 OA
ATOM     77  O   UNL A   1      43.004  35.817  35.919  1.00  0.00    -0.744 OA
ENDBRANCH  70  74
ENDBRANCH  53  67
BRANCH  54  78
ATOM     78  C   UNL A   1      42.420  24.073  27.337  1.00  0.00     0.023 A 
ATOM     79  C   UNL A   1      41.771  22.833  27.456  1.00  0.00     0.031 A 
ATOM     80  C   UNL A   1      43.191  24.302  26.183  1.00  0.00     0.131 A 
ATOM     81  C   UNL A   1      41.946  21.853  26.466  1.00  0.00     0.055 A 
ATOM     82  C   UNL A   1      43.312  23.347  25.172  1.00  0.00     0.041 A 
ATOM     83  F   UNL A   1      43.834  25.469  26.017  1.00  0.00    -0.206 F 
ATOM     84  C   UNL A   1      42.698  22.107  25.318  1.00  0.00     0.022 A 
BRANCH  81  85
ATOM     85  S   UNL A   1      41.255  20.200  26.750  1.00  0.00     0.124 S 
ATOM     86  O   UNL A   1      42.357  19.342  26.328  1.00  0.00    -0.237 OA
ATOM     87  O   UNL A   1      40.977  20.229  28.182  1.00  0.00    -0.237 OA
ATOM     88  O   UNL A   1      40.076  20.171  25.888  1.00  0.00    -0.744 OA
ENDBRANCH  81  85
ENDBRANCH  54  78
BRANCH  66  89
ATOM     89  C   UNL A   1      46.574  25.658  32.717  1.00  0.00     0.023 A 
ATOM     90  C   UNL A   1      46.558  24.628  33.674  1.00  0.00     0.031 A 
ATOM     91  C   UNL A   1      47.824  26.104  32.250  1.00  0.00     0.131 A 
ATOM     92  C   UNL A   1      47.767  24.118  34.173  1.00  0.00     0.055 A 
ATOM     93  C   UNL A   1      49.021  25.547  32.700  1.00  0.00     0.041 A 
ATOM     94  F   UNL A   1      47.902  27.089  31.339  1.00  0.00    -0.206 F 
ATOM     95  C   UNL A   1      48.997  24.556  33.677  1.00  0.00     0.022 A 
BRANCH  92  96
ATOM     96  S   UNL A   1      47.713  22.939  35.551  1.00  0.00     0.124 S 
ATOM     97  O   UNL A   1      47.463  21.678  34.861  1.00  0.00    -0.237 OA
ATOM     98  O   UNL A   1      49.039  23.090  36.142  1.00  0.00    -0.237 OA
ATOM     99  O   UNL A   1      46.608  23.425  36.376  1.00  0.00    -0.744 OA
ENDBRANCH  92  96
ENDBRANCH  66  89
ENDBRANCH  40  41
ENDBRANCH  32  35
ENDBRANCH  30  31
ENDBRANCH  29  30
ENDBRANCH  28  29
ENDBRANCH   1  28
TORSDOF 20
ENDMDL
