MODEL 1
REMARK VINA RESULT:     -11.6      0.000      0.000
REMARK SMILES CC(=O)N1CCC[C@@H](Cc2nccnc2C(=O)NCCCCCCNC(=O)c2ccc(-c3c4nc(c(-c5cc(S(=O)(=O)[O-])ccc5F)c5ccc([nH]5)c(-c5cc(S(=O)(=O)[O-])ccc5F)c5nc(c(-c6cc(S(=O)(=O)[O-])ccc6F)c6ccc3[nH]6)C=C5)C=C4)cc2)C1
REMARK SMILES IDX 21 1 20 2 19 3 18 4 16 5 17 6 15 8 10 9 11 10 12 11 14 12
REMARK SMILES IDX 13 13 9 14 8 15 4 16 5 17 91 18 6 19 7 20 2 21 1 22 3 23
REMARK SMILES IDX 22 24 23 25 24 26 25 27 26 28 27 30 28 31 29 32 90 33 30 34
REMARK SMILES IDX 89 35 31 36 32 37 33 38 83 39 34 40 88 41 82 42 84 43 35 44
REMARK SMILES IDX 87 45 81 46 80 47 36 49 68 50 48 51 67 52 49 53 52 54 66 55
REMARK SMILES IDX 85 56 50 57 51 58 65 60 86 61 53 62 37 63 38 64 46 65 39 66
REMARK SMILES IDX 45 67 47 68 44 69 40 70 41 71 42 72 43 73 69 74 70 75 78 76
REMARK SMILES IDX 71 77 77 78 79 79 76 80 72 81 73 82 74 83 75 84 54 85 55 86
REMARK SMILES IDX 63 87 56 88 62 89 64 90 61 91 57 92 58 93 59 94 60 95
REMARK H PARENT 18 7 25 29 84 48 52 59
REMARK Flexibility Score: inf
ROOT
ATOM      1  C   UNL A   1      32.334  29.335  26.779  1.00  0.00     0.002 C 
ENDROOT
BRANCH   1   2
ATOM      2  C   UNL A   1      31.594  28.091  27.259  1.00  0.00     0.021 C 
BRANCH   2   3
ATOM      3  C   UNL A   1      31.930  26.807  26.518  1.00  0.00     0.116 C 
BRANCH   3   4
ATOM      4  N   UNL A   1      31.203  25.639  26.914  1.00  0.00    -0.351 N 
ATOM      5  C   UNL A   1      31.290  24.302  26.592  1.00  0.00     0.271 C 
ATOM      6  O   UNL A   1      30.551  23.595  27.297  1.00  0.00    -0.267 OA
ATOM      7  H   UNL A   1      30.483  25.834  27.558  1.00  0.00     0.163 HD
BRANCH   5   8
ATOM      8  C   UNL A   1      32.100  23.603  25.499  1.00  0.00     0.149 A 
ATOM      9  C   UNL A   1      32.014  23.591  24.097  1.00  0.00     0.072 A 
ATOM     10  N   UNL A   1      32.939  22.931  23.321  1.00  0.00    -0.257 NA
ATOM     11  C   UNL A   1      33.942  22.293  23.942  1.00  0.00     0.131 A 
ATOM     12  N   UNL A   1      33.136  22.913  26.088  1.00  0.00    -0.248 NA
ATOM     13  C   UNL A   1      34.034  22.280  25.308  1.00  0.00     0.132 A 
BRANCH   9  14
ATOM     14  C   UNL A   1      30.979  24.207  23.214  1.00  0.00     0.064 C 
BRANCH  14  15
ATOM     15  C   UNL A   1      31.339  25.642  22.718  1.00  0.00     0.015 C 
ATOM     16  N   UNL A   1      30.789  28.044  22.873  1.00  0.00    -0.343 N 
ATOM     17  C   UNL A   1      32.190  28.458  22.828  1.00  0.00     0.119 C 
ATOM     18  C   UNL A   1      30.523  26.724  23.457  1.00  0.00     0.123 C 
ATOM     19  C   UNL A   1      33.053  27.408  22.147  1.00  0.00     0.022 C 
ATOM     20  C   UNL A   1      32.837  26.045  22.799  1.00  0.00     0.007 C 
BRANCH  16  21
ATOM     21  C   UNL A   1      29.826  28.922  22.395  1.00  0.00     0.219 C 
ATOM     22  C   UNL A   1      28.409  28.708  22.855  1.00  0.00     0.114 C 
ATOM     23  O   UNL A   1      30.101  29.863  21.653  1.00  0.00    -0.275 OA
ENDBRANCH  16  21
ENDBRANCH  14  15
ENDBRANCH   9  14
ENDBRANCH   5   8
ENDBRANCH   3   4
ENDBRANCH   2   3
ENDBRANCH   1   2
BRANCH   1  24
ATOM     24  C   UNL A   1      31.525  30.316  25.922  1.00  0.00     0.002 C 
BRANCH  24  25
ATOM     25  C   UNL A   1      31.452  31.766  26.416  1.00  0.00     0.021 C 
BRANCH  25  26
ATOM     26  C   UNL A   1      32.686  32.282  27.150  1.00  0.00     0.116 C 
BRANCH  26  27
ATOM     27  N   UNL A   1      32.559  33.677  27.529  1.00  0.00    -0.352 N 
ATOM     28  C   UNL A   1      33.206  34.389  28.502  1.00  0.00     0.251 C 
ATOM     29  H   UNL A   1      31.905  34.191  27.003  1.00  0.00     0.163 HD
ATOM     30  O   UNL A   1      32.797  35.517  28.787  1.00  0.00    -0.269 OA
BRANCH  28  31
ATOM     31  C   UNL A   1      34.366  33.818  29.218  1.00  0.00     0.039 A 
ATOM     32  C   UNL A   1      34.140  32.834  30.186  1.00  0.00     0.014 A 
ATOM     33  C   UNL A   1      35.667  34.271  28.977  1.00  0.00     0.014 A 
ATOM     34  C   UNL A   1      35.218  32.280  30.880  1.00  0.00     0.010 A 
ATOM     35  C   UNL A   1      36.747  33.662  29.614  1.00  0.00     0.010 A 
ATOM     36  C   UNL A   1      36.533  32.671  30.583  1.00  0.00    -0.014 A 
BRANCH  36  37
ATOM     37  C   UNL A   1      37.691  32.086  31.310  1.00  0.00     0.031 A 
ATOM     38  C   UNL A   1      38.464  30.948  30.697  1.00  0.00     0.074 A 
ATOM     39  C   UNL A   1      38.025  32.553  32.529  1.00  0.00     0.049 A 
ATOM     40  N   UNL A   1      39.459  30.257  31.194  1.00  0.00    -0.248 NA
ATOM     41  C   UNL A   1      38.044  30.514  29.355  1.00  0.00     0.031 C 
ATOM     42  C   UNL A   1      37.342  33.640  33.234  1.00  0.00     0.029 A 
ATOM     43  N   UNL A   1      39.022  32.174  33.394  1.00  0.00    -0.354 N 
ATOM     44  C   UNL A   1      39.780  29.307  30.230  1.00  0.00     0.074 A 
ATOM     45  C   UNL A   1      38.826  29.465  29.153  1.00  0.00     0.031 C 
ATOM     46  C   UNL A   1      37.959  33.860  34.406  1.00  0.00     0.029 A 
ATOM     47  C   UNL A   1      39.047  32.899  34.563  1.00  0.00     0.049 A 
ATOM     48  H   UNL A   1      39.660  31.451  33.196  1.00  0.00     0.167 HD
ATOM     49  C   UNL A   1      40.795  28.407  30.227  1.00  0.00     0.034 A 
ATOM     50  C   UNL A   1      39.849  32.794  35.642  1.00  0.00     0.034 A 
ATOM     51  C   UNL A   1      41.738  28.261  31.308  1.00  0.00     0.049 A 
ATOM     52  C   UNL A   1      40.934  31.744  35.640  1.00  0.00     0.074 A 
ATOM     53  C   UNL A   1      42.810  27.391  31.408  1.00  0.00     0.029 A 
ATOM     54  N   UNL A   1      41.723  29.004  32.482  1.00  0.00    -0.354 N 
ATOM     55  N   UNL A   1      41.240  30.870  34.709  1.00  0.00    -0.248 NA
ATOM     56  C   UNL A   1      41.793  31.679  36.830  1.00  0.00     0.031 C 
ATOM     57  C   UNL A   1      43.401  27.562  32.664  1.00  0.00     0.029 A 
ATOM     58  C   UNL A   1      42.754  28.599  33.317  1.00  0.00     0.049 A 
ATOM     59  H   UNL A   1      41.074  29.715  32.692  1.00  0.00     0.167 HD
ATOM     60  C   UNL A   1      42.359  30.188  35.182  1.00  0.00     0.074 A 
ATOM     61  C   UNL A   1      42.677  30.760  36.473  1.00  0.00     0.031 C 
ATOM     62  C   UNL A   1      43.065  29.184  34.600  1.00  0.00     0.034 A 
BRANCH  49  63
ATOM     63  C   UNL A   1      40.916  27.501  29.023  1.00  0.00     0.023 A 
ATOM     64  C   UNL A   1      41.853  27.755  28.004  1.00  0.00     0.031 A 
ATOM     65  C   UNL A   1      40.073  26.386  28.875  1.00  0.00     0.131 A 
ATOM     66  C   UNL A   1      41.870  26.957  26.851  1.00  0.00     0.055 A 
ATOM     67  C   UNL A   1      40.155  25.543  27.765  1.00  0.00     0.041 A 
ATOM     68  F   UNL A   1      39.144  26.102  29.802  1.00  0.00    -0.206 F 
ATOM     69  C   UNL A   1      41.047  25.834  26.737  1.00  0.00     0.022 A 
BRANCH  66  70
ATOM     70  S   UNL A   1      42.879  27.492  25.442  1.00  0.00     0.124 S 
ATOM     71  O   UNL A   1      44.079  27.992  26.112  1.00  0.00    -0.237 OA
ATOM     72  O   UNL A   1      43.039  26.259  24.681  1.00  0.00    -0.237 OA
ATOM     73  O   UNL A   1      42.059  28.519  24.803  1.00  0.00    -0.744 OA
ENDBRANCH  66  70
ENDBRANCH  49  63
BRANCH  50  74
ATOM     74  C   UNL A   1      39.669  33.694  36.819  1.00  0.00     0.023 A 
ATOM     75  C   UNL A   1      39.111  33.211  38.015  1.00  0.00     0.031 A 
ATOM     76  C   UNL A   1      39.979  35.063  36.746  1.00  0.00     0.131 A 
ATOM     77  C   UNL A   1      38.817  34.099  39.060  1.00  0.00     0.055 A 
ATOM     78  C   UNL A   1      39.747  35.932  37.815  1.00  0.00     0.041 A 
ATOM     79  F   UNL A   1      40.517  35.580  35.630  1.00  0.00    -0.206 F 
ATOM     80  C   UNL A   1      39.144  35.454  38.974  1.00  0.00     0.022 A 
BRANCH  77  81
ATOM     81  S   UNL A   1      37.884  33.479  40.487  1.00  0.00     0.124 S 
ATOM     82  O   UNL A   1      38.777  32.444  40.996  1.00  0.00    -0.237 OA
ATOM     83  O   UNL A   1      37.756  34.678  41.308  1.00  0.00    -0.237 OA
ATOM     84  O   UNL A   1      36.639  32.995  39.894  1.00  0.00    -0.744 OA
ENDBRANCH  77  81
ENDBRANCH  50  74
BRANCH  62  85
ATOM     85  C   UNL A   1      44.300  28.700  35.323  1.00  0.00     0.023 A 
ATOM     86  C   UNL A   1      44.247  27.686  36.296  1.00  0.00     0.031 A 
ATOM     87  C   UNL A   1      45.549  29.282  35.043  1.00  0.00     0.131 A 
ATOM     88  C   UNL A   1      45.410  27.332  36.999  1.00  0.00     0.055 A 
ATOM     89  C   UNL A   1      46.714  28.877  35.697  1.00  0.00     0.041 A 
ATOM     90  F   UNL A   1      45.660  30.257  34.127  1.00  0.00    -0.206 F 
ATOM     91  C   UNL A   1      46.645  27.908  36.693  1.00  0.00     0.022 A 
BRANCH  88  92
ATOM     92  S   UNL A   1      45.266  26.187  38.399  1.00  0.00     0.124 S 
ATOM     93  O   UNL A   1      44.911  27.087  39.492  1.00  0.00    -0.237 OA
ATOM     94  O   UNL A   1      44.214  25.280  37.953  1.00  0.00    -0.237 OA
ATOM     95  O   UNL A   1      46.598  25.592  38.494  1.00  0.00    -0.744 OA
ENDBRANCH  88  92
ENDBRANCH  62  85
ENDBRANCH  36  37
ENDBRANCH  28  31
ENDBRANCH  26  27
ENDBRANCH  25  26
ENDBRANCH  24  25
ENDBRANCH   1  24
TORSDOF 19
ENDMDL
MODEL 2
REMARK VINA RESULT:     -11.3      1.920      8.175
REMARK SMILES CC(=O)N1CCC[C@@H](Cc2nccnc2C(=O)NCCCCCCNC(=O)c2ccc(-c3c4nc(c(-c5cc(S(=O)(=O)[O-])ccc5F)c5ccc([nH]5)c(-c5cc(S(=O)(=O)[O-])ccc5F)c5nc(c(-c6cc(S(=O)(=O)[O-])ccc6F)c6ccc3[nH]6)C=C5)C=C4)cc2)C1
REMARK SMILES IDX 21 1 20 2 19 3 18 4 16 5 17 6 15 8 10 9 11 10 12 11 14 12
REMARK SMILES IDX 13 13 9 14 8 15 4 16 5 17 91 18 6 19 7 20 2 21 1 22 3 23
REMARK SMILES IDX 22 24 23 25 24 26 25 27 26 28 27 30 28 31 29 32 90 33 30 34
REMARK SMILES IDX 89 35 31 36 32 37 33 38 83 39 34 40 88 41 82 42 84 43 35 44
REMARK SMILES IDX 87 45 81 46 80 47 36 49 68 50 48 51 67 52 49 53 52 54 66 55
REMARK SMILES IDX 85 56 50 57 51 58 65 60 86 61 53 62 37 63 38 64 46 65 39 66
REMARK SMILES IDX 45 67 47 68 44 69 40 70 41 71 42 72 43 73 69 74 70 75 78 76
REMARK SMILES IDX 71 77 77 78 79 79 76 80 72 81 73 82 74 83 75 84 54 85 55 86
REMARK SMILES IDX 63 87 56 88 62 89 64 90 61 91 57 92 58 93 59 94 60 95
REMARK H PARENT 18 7 25 29 84 48 52 59
REMARK Flexibility Score: inf
ROOT
ATOM      1  C   UNL A   1      33.965  30.478  27.323  1.00  0.00     0.002 C 
ENDROOT
BRANCH   1   2
ATOM      2  C   UNL A   1      34.610  29.099  27.225  1.00  0.00     0.021 C 
BRANCH   2   3
ATOM      3  C   UNL A   1      33.936  28.131  26.266  1.00  0.00     0.116 C 
BRANCH   3   4
ATOM      4  N   UNL A   1      34.165  28.360  24.871  1.00  0.00    -0.351 N 
ATOM      5  C   UNL A   1      33.347  28.419  23.764  1.00  0.00     0.271 C 
ATOM      6  O   UNL A   1      33.949  28.805  22.749  1.00  0.00    -0.267 OA
ATOM      7  H   UNL A   1      35.115  28.508  24.656  1.00  0.00     0.163 HD
BRANCH   5   8
ATOM      8  C   UNL A   1      31.872  28.044  23.608  1.00  0.00     0.149 A 
ATOM      9  C   UNL A   1      31.073  27.030  24.163  1.00  0.00     0.072 A 
ATOM     10  N   UNL A   1      29.720  26.960  23.919  1.00  0.00    -0.257 NA
ATOM     11  C   UNL A   1      29.172  27.899  23.131  1.00  0.00     0.131 A 
ATOM     12  N   UNL A   1      31.264  28.970  22.789  1.00  0.00    -0.248 NA
ATOM     13  C   UNL A   1      29.936  28.885  22.570  1.00  0.00     0.132 A 
BRANCH   9  14
ATOM     14  C   UNL A   1      31.477  25.887  25.033  1.00  0.00     0.064 C 
BRANCH  14  15
ATOM     15  C   UNL A   1      32.042  24.661  24.250  1.00  0.00     0.015 C 
ATOM     16  N   UNL A   1      33.833  22.964  24.146  1.00  0.00    -0.343 N 
ATOM     17  C   UNL A   1      32.922  21.901  23.725  1.00  0.00     0.119 C 
ATOM     18  C   UNL A   1      33.248  24.026  24.975  1.00  0.00     0.123 C 
ATOM     19  C   UNL A   1      31.690  22.470  23.040  1.00  0.00     0.022 C 
ATOM     20  C   UNL A   1      31.033  23.523  23.929  1.00  0.00     0.007 C 
BRANCH  16  21
ATOM     21  C   UNL A   1      35.164  22.881  23.766  1.00  0.00     0.219 C 
ATOM     22  C   UNL A   1      36.070  22.018  24.604  1.00  0.00     0.114 C 
ATOM     23  O   UNL A   1      35.602  23.454  22.769  1.00  0.00    -0.275 OA
ENDBRANCH  16  21
ENDBRANCH  14  15
ENDBRANCH   9  14
ENDBRANCH   5   8
ENDBRANCH   3   4
ENDBRANCH   2   3
ENDBRANCH   1   2
BRANCH   1  24
ATOM     24  C   UNL A   1      32.435  30.518  27.235  1.00  0.00     0.002 C 
BRANCH  24  25
ATOM     25  C   UNL A   1      31.789  31.901  27.084  1.00  0.00     0.021 C 
BRANCH  25  26
ATOM     26  C   UNL A   1      32.736  33.042  26.728  1.00  0.00     0.116 C 
BRANCH  26  27
ATOM     27  N   UNL A   1      32.520  34.216  27.552  1.00  0.00    -0.352 N 
ATOM     28  C   UNL A   1      33.076  34.568  28.752  1.00  0.00     0.251 C 
ATOM     29  H   UNL A   1      31.869  34.862  27.191  1.00  0.00     0.163 HD
ATOM     30  O   UNL A   1      32.597  35.516  29.378  1.00  0.00    -0.269 OA
BRANCH  28  31
ATOM     31  C   UNL A   1      34.224  33.818  29.305  1.00  0.00     0.039 A 
ATOM     32  C   UNL A   1      35.517  34.201  28.938  1.00  0.00     0.014 A 
ATOM     33  C   UNL A   1      34.037  32.716  30.145  1.00  0.00     0.014 A 
ATOM     34  C   UNL A   1      36.619  33.508  29.443  1.00  0.00     0.010 A 
ATOM     35  C   UNL A   1      35.138  32.075  30.710  1.00  0.00     0.010 A 
ATOM     36  C   UNL A   1      36.441  32.454  30.353  1.00  0.00    -0.014 A 
BRANCH  36  37
ATOM     37  C   UNL A   1      37.604  31.709  30.903  1.00  0.00     0.031 A 
ATOM     38  C   UNL A   1      38.086  31.997  32.301  1.00  0.00     0.074 A 
ATOM     39  C   UNL A   1      38.246  30.802  30.139  1.00  0.00     0.049 A 
ATOM     40  N   UNL A   1      39.118  31.508  32.941  1.00  0.00    -0.248 NA
ATOM     41  C   UNL A   1      37.317  32.986  33.072  1.00  0.00     0.031 C 
ATOM     42  C   UNL A   1      37.883  30.449  28.765  1.00  0.00     0.029 A 
ATOM     43  N   UNL A   1      39.336  30.012  30.406  1.00  0.00    -0.354 N 
ATOM     44  C   UNL A   1      39.124  32.131  34.184  1.00  0.00     0.074 A 
ATOM     45  C   UNL A   1      38.037  33.086  34.178  1.00  0.00     0.031 C 
ATOM     46  C   UNL A   1      38.716  29.492  28.323  1.00  0.00     0.029 A 
ATOM     47  C   UNL A   1      39.702  29.200  29.358  1.00  0.00     0.049 A 
ATOM     48  H   UNL A   1      39.812  30.027  31.268  1.00  0.00     0.167 HD
ATOM     49  C   UNL A   1      39.940  31.908  35.244  1.00  0.00     0.034 A 
ATOM     50  C   UNL A   1      40.723  28.327  29.242  1.00  0.00     0.034 A 
ATOM     51  C   UNL A   1      41.021  30.953  35.235  1.00  0.00     0.049 A 
ATOM     52  C   UNL A   1      41.654  28.139  30.416  1.00  0.00     0.074 A 
ATOM     53  C   UNL A   1      41.903  30.637  36.254  1.00  0.00     0.029 A 
ATOM     54  N   UNL A   1      41.370  30.158  34.150  1.00  0.00    -0.354 N 
ATOM     55  N   UNL A   1      41.630  28.719  31.595  1.00  0.00    -0.248 NA
ATOM     56  C   UNL A   1      42.741  27.165  30.249  1.00  0.00     0.031 C 
ATOM     57  C   UNL A   1      42.823  29.703  35.766  1.00  0.00     0.029 A 
ATOM     58  C   UNL A   1      42.464  29.368  34.470  1.00  0.00     0.049 A 
ATOM     59  H   UNL A   1      40.908  30.156  33.280  1.00  0.00     0.167 HD
ATOM     60  C   UNL A   1      42.667  28.140  32.323  1.00  0.00     0.074 A 
ATOM     61  C   UNL A   1      43.287  27.161  31.455  1.00  0.00     0.031 C 
ATOM     62  C   UNL A   1      43.068  28.389  33.597  1.00  0.00     0.034 A 
BRANCH  49  63
ATOM     63  C   UNL A   1      39.701  32.730  36.490  1.00  0.00     0.023 A 
ATOM     64  C   UNL A   1      38.846  32.280  37.514  1.00  0.00     0.031 A 
ATOM     65  C   UNL A   1      40.310  33.986  36.650  1.00  0.00     0.131 A 
ATOM     66  C   UNL A   1      38.563  33.110  38.608  1.00  0.00     0.055 A 
ATOM     67  C   UNL A   1      40.092  34.771  37.785  1.00  0.00     0.041 A 
ATOM     68  F   UNL A   1      41.118  34.481  35.700  1.00  0.00    -0.206 F 
ATOM     69  C   UNL A   1      39.203  34.341  38.766  1.00  0.00     0.022 A 
BRANCH  66  70
ATOM     70  S   UNL A   1      37.238  32.621  39.746  1.00  0.00     0.124 S 
ATOM     71  O   UNL A   1      37.362  33.633  40.794  1.00  0.00    -0.237 OA
ATOM     72  O   UNL A   1      36.050  32.712  38.906  1.00  0.00    -0.237 OA
ATOM     73  O   UNL A   1      37.614  31.268  40.151  1.00  0.00    -0.744 OA
ENDBRANCH  66  70
ENDBRANCH  49  63
BRANCH  50  74
ATOM     74  C   UNL A   1      40.935  27.560  27.979  1.00  0.00     0.023 A 
ATOM     75  C   UNL A   1      40.641  26.189  27.912  1.00  0.00     0.031 A 
ATOM     76  C   UNL A   1      41.504  28.165  26.845  1.00  0.00     0.131 A 
ATOM     77  C   UNL A   1      40.978  25.454  26.766  1.00  0.00     0.055 A 
ATOM     78  C   UNL A   1      41.777  27.443  25.681  1.00  0.00     0.041 A 
ATOM     79  F   UNL A   1      41.804  29.474  26.849  1.00  0.00    -0.206 F 
ATOM     80  C   UNL A   1      41.532  26.075  25.644  1.00  0.00     0.022 A 
BRANCH  77  81
ATOM     81  S   UNL A   1      40.799  23.649  26.809  1.00  0.00     0.124 S 
ATOM     82  O   UNL A   1      39.386  23.485  26.488  1.00  0.00    -0.237 OA
ATOM     83  O   UNL A   1      41.746  23.227  25.782  1.00  0.00    -0.237 OA
ATOM     84  O   UNL A   1      41.173  23.304  28.179  1.00  0.00    -0.744 OA
ENDBRANCH  77  81
ENDBRANCH  50  74
BRANCH  62  85
ATOM     85  C   UNL A   1      44.179  27.529  34.151  1.00  0.00     0.023 A 
ATOM     86  C   UNL A   1      43.938  26.254  34.693  1.00  0.00     0.031 A 
ATOM     87  C   UNL A   1      45.502  28.008  34.152  1.00  0.00     0.131 A 
ATOM     88  C   UNL A   1      44.994  25.531  35.272  1.00  0.00     0.055 A 
ATOM     89  C   UNL A   1      46.558  27.254  34.666  1.00  0.00     0.041 A 
ATOM     90  F   UNL A   1      45.791  29.220  33.651  1.00  0.00    -0.206 F 
ATOM     91  C   UNL A   1      46.304  26.015  35.246  1.00  0.00     0.022 A 
BRANCH  88  92
ATOM     92  S   UNL A   1      44.613  23.997  36.162  1.00  0.00     0.124 S 
ATOM     93  O   UNL A   1      43.199  23.807  35.851  1.00  0.00    -0.237 OA
ATOM     94  O   UNL A   1      45.533  23.045  35.549  1.00  0.00    -0.237 OA
ATOM     95  O   UNL A   1      44.901  24.327  37.556  1.00  0.00    -0.744 OA
ENDBRANCH  88  92
ENDBRANCH  62  85
ENDBRANCH  36  37
ENDBRANCH  28  31
ENDBRANCH  26  27
ENDBRANCH  25  26
ENDBRANCH  24  25
ENDBRANCH   1  24
TORSDOF 19
ENDMDL
MODEL 3
REMARK VINA RESULT:     -11.3      1.516      2.025
REMARK SMILES CC(=O)N1CCC[C@@H](Cc2nccnc2C(=O)NCCCCCCNC(=O)c2ccc(-c3c4nc(c(-c5cc(S(=O)(=O)[O-])ccc5F)c5ccc([nH]5)c(-c5cc(S(=O)(=O)[O-])ccc5F)c5nc(c(-c6cc(S(=O)(=O)[O-])ccc6F)c6ccc3[nH]6)C=C5)C=C4)cc2)C1
REMARK SMILES IDX 21 1 20 2 19 3 18 4 16 5 17 6 15 8 10 9 11 10 12 11 14 12
REMARK SMILES IDX 13 13 9 14 8 15 4 16 5 17 91 18 6 19 7 20 2 21 1 22 3 23
REMARK SMILES IDX 22 24 23 25 24 26 25 27 26 28 27 30 28 31 29 32 90 33 30 34
REMARK SMILES IDX 89 35 31 36 32 37 33 38 83 39 34 40 88 41 82 42 84 43 35 44
REMARK SMILES IDX 87 45 81 46 80 47 36 49 68 50 48 51 67 52 49 53 52 54 66 55
REMARK SMILES IDX 85 56 50 57 51 58 65 60 86 61 53 62 37 63 38 64 46 65 39 66
REMARK SMILES IDX 45 67 47 68 44 69 40 70 41 71 42 72 43 73 69 74 70 75 78 76
REMARK SMILES IDX 71 77 77 78 79 79 76 80 72 81 73 82 74 83 75 84 54 85 55 86
REMARK SMILES IDX 63 87 56 88 62 89 64 90 61 91 57 92 58 93 59 94 60 95
REMARK H PARENT 18 7 25 29 84 48 52 59
REMARK Flexibility Score: inf
ROOT
ATOM      1  C   UNL A   1      32.361  29.297  26.951  1.00  0.00     0.002 C 
ENDROOT
BRANCH   1   2
ATOM      2  C   UNL A   1      31.754  28.018  27.519  1.00  0.00     0.021 C 
BRANCH   2   3
ATOM      3  C   UNL A   1      31.976  26.765  26.687  1.00  0.00     0.116 C 
BRANCH   3   4
ATOM      4  N   UNL A   1      30.994  25.732  26.823  1.00  0.00    -0.351 N 
ATOM      5  C   UNL A   1      31.047  24.356  26.824  1.00  0.00     0.271 C 
ATOM      6  O   UNL A   1      29.960  23.840  27.134  1.00  0.00    -0.267 OA
ATOM      7  H   UNL A   1      30.081  26.083  26.942  1.00  0.00     0.163 HD
BRANCH   5   8
ATOM      8  C   UNL A   1      32.197  23.414  26.463  1.00  0.00     0.149 A 
ATOM      9  C   UNL A   1      32.765  23.013  25.243  1.00  0.00     0.072 A 
ATOM     10  N   UNL A   1      33.875  22.200  25.194  1.00  0.00    -0.257 NA
ATOM     11  C   UNL A   1      34.412  21.796  26.355  1.00  0.00     0.131 A 
ATOM     12  N   UNL A   1      32.773  22.953  27.626  1.00  0.00    -0.248 NA
ATOM     13  C   UNL A   1      33.863  22.163  27.554  1.00  0.00     0.132 A 
BRANCH   9  14
ATOM     14  C   UNL A   1      32.318  23.322  23.853  1.00  0.00     0.064 C 
BRANCH  14  15
ATOM     15  C   UNL A   1      31.946  24.820  23.623  1.00  0.00     0.015 C 
ATOM     16  N   UNL A   1      32.462  26.871  22.347  1.00  0.00    -0.343 N 
ATOM     17  C   UNL A   1      31.057  27.249  22.216  1.00  0.00     0.119 C 
ATOM     18  C   UNL A   1      32.738  25.432  22.447  1.00  0.00     0.123 C 
ATOM     19  C   UNL A   1      30.216  26.638  23.326  1.00  0.00     0.022 C 
ATOM     20  C   UNL A   1      30.442  25.129  23.388  1.00  0.00     0.007 C 
BRANCH  16  21
ATOM     21  C   UNL A   1      33.419  27.875  22.338  1.00  0.00     0.219 C 
ATOM     22  C   UNL A   1      33.318  28.933  23.405  1.00  0.00     0.114 C 
ATOM     23  O   UNL A   1      34.341  27.902  21.524  1.00  0.00    -0.275 OA
ENDBRANCH  16  21
ENDBRANCH  14  15
ENDBRANCH   9  14
ENDBRANCH   5   8
ENDBRANCH   3   4
ENDBRANCH   2   3
ENDBRANCH   1   2
BRANCH   1  24
ATOM     24  C   UNL A   1      31.414  30.201  26.153  1.00  0.00     0.002 C 
BRANCH  24  25
ATOM     25  C   UNL A   1      31.389  31.685  26.540  1.00  0.00     0.021 C 
BRANCH  25  26
ATOM     26  C   UNL A   1      32.738  32.303  26.893  1.00  0.00     0.116 C 
BRANCH  26  27
ATOM     27  N   UNL A   1      32.609  33.661  27.390  1.00  0.00    -0.352 N 
ATOM     28  C   UNL A   1      33.254  34.288  28.421  1.00  0.00     0.251 C 
ATOM     29  H   UNL A   1      31.955  34.218  26.909  1.00  0.00     0.163 HD
ATOM     30  O   UNL A   1      32.843  35.387  28.802  1.00  0.00    -0.269 OA
BRANCH  28  31
ATOM     31  C   UNL A   1      34.413  33.658  29.087  1.00  0.00     0.039 A 
ATOM     32  C   UNL A   1      35.687  34.192  28.866  1.00  0.00     0.014 A 
ATOM     33  C   UNL A   1      34.265  32.523  29.890  1.00  0.00     0.014 A 
ATOM     34  C   UNL A   1      36.800  33.615  29.479  1.00  0.00     0.010 A 
ATOM     35  C   UNL A   1      35.366  31.996  30.563  1.00  0.00     0.010 A 
ATOM     36  C   UNL A   1      36.648  32.526  30.353  1.00  0.00    -0.014 A 
BRANCH  36  37
ATOM     37  C   UNL A   1      37.824  31.904  31.017  1.00  0.00     0.031 A 
ATOM     38  C   UNL A   1      38.640  30.873  30.282  1.00  0.00     0.074 A 
ATOM     39  C   UNL A   1      38.137  32.239  32.284  1.00  0.00     0.049 A 
ATOM     40  N   UNL A   1      39.659  30.167  30.704  1.00  0.00    -0.248 NA
ATOM     41  C   UNL A   1      38.241  30.582  28.896  1.00  0.00     0.031 C 
ATOM     42  C   UNL A   1      37.412  33.212  33.104  1.00  0.00     0.029 A 
ATOM     43  N   UNL A   1      39.144  31.800  33.107  1.00  0.00    -0.354 N 
ATOM     44  C   UNL A   1      40.018  29.347  29.639  1.00  0.00     0.074 A 
ATOM     45  C   UNL A   1      39.062  29.593  28.581  1.00  0.00     0.031 C 
ATOM     46  C   UNL A   1      38.017  33.317  34.299  1.00  0.00     0.029 A 
ATOM     47  C   UNL A   1      39.138  32.385  34.352  1.00  0.00     0.049 A 
ATOM     48  H   UNL A   1      39.809  31.128  32.831  1.00  0.00     0.167 HD
ATOM     49  C   UNL A   1      41.065  28.490  29.540  1.00  0.00     0.034 A 
ATOM     50  C   UNL A   1      39.940  32.185  35.417  1.00  0.00     0.034 A 
ATOM     51  C   UNL A   1      42.010  28.255  30.604  1.00  0.00     0.049 A 
ATOM     52  C   UNL A   1      41.063  31.183  35.302  1.00  0.00     0.074 A 
ATOM     53  C   UNL A   1      43.113  27.419  30.611  1.00  0.00     0.029 A 
ATOM     54  N   UNL A   1      41.963  28.856  31.856  1.00  0.00    -0.354 N 
ATOM     55  N   UNL A   1      41.405  30.434  34.279  1.00  0.00    -0.248 NA
ATOM     56  C   UNL A   1      41.921  31.012  36.483  1.00  0.00     0.031 C 
ATOM     57  C   UNL A   1      43.693  27.464  31.883  1.00  0.00     0.029 A 
ATOM     58  C   UNL A   1      43.006  28.395  32.646  1.00  0.00     0.049 A 
ATOM     59  H   UNL A   1      41.288  29.515  32.141  1.00  0.00     0.167 HD
ATOM     60  C   UNL A   1      42.547  29.743  34.679  1.00  0.00     0.074 A 
ATOM     61  C   UNL A   1      42.839  30.173  36.030  1.00  0.00     0.031 C 
ATOM     62  C   UNL A   1      43.291  28.840  33.990  1.00  0.00     0.034 A 
BRANCH  49  63
ATOM     63  C   UNL A   1      41.224  27.734  28.241  1.00  0.00     0.023 A 
ATOM     64  C   UNL A   1      40.868  26.377  28.133  1.00  0.00     0.031 A 
ATOM     65  C   UNL A   1      41.758  28.364  27.104  1.00  0.00     0.131 A 
ATOM     66  C   UNL A   1      41.123  25.677  26.945  1.00  0.00     0.055 A 
ATOM     67  C   UNL A   1      41.929  27.683  25.896  1.00  0.00     0.041 A 
ATOM     68  F   UNL A   1      42.138  29.651  27.148  1.00  0.00    -0.206 F 
ATOM     69  C   UNL A   1      41.625  26.327  25.816  1.00  0.00     0.022 A 
BRANCH  66  70
ATOM     70  S   UNL A   1      40.927  23.873  26.944  1.00  0.00     0.124 S 
ATOM     71  O   UNL A   1      41.887  23.474  25.916  1.00  0.00    -0.237 OA
ATOM     72  O   UNL A   1      41.273  23.517  28.315  1.00  0.00    -0.237 OA
ATOM     73  O   UNL A   1      39.524  23.680  26.584  1.00  0.00    -0.744 OA
ENDBRANCH  66  70
ENDBRANCH  49  63
BRANCH  50  74
ATOM     74  C   UNL A   1      39.723  32.936  36.689  1.00  0.00     0.023 A 
ATOM     75  C   UNL A   1      38.854  32.443  37.676  1.00  0.00     0.031 A 
ATOM     76  C   UNL A   1      40.319  34.191  36.907  1.00  0.00     0.131 A 
ATOM     77  C   UNL A   1      38.551  33.227  38.799  1.00  0.00     0.055 A 
ATOM     78  C   UNL A   1      40.066  34.939  38.059  1.00  0.00     0.041 A 
ATOM     79  F   UNL A   1      41.160  34.712  36.000  1.00  0.00    -0.206 F 
ATOM     80  C   UNL A   1      39.162  34.466  39.004  1.00  0.00     0.022 A 
BRANCH  77  81
ATOM     81  S   UNL A   1      37.249  32.659  39.927  1.00  0.00     0.124 S 
ATOM     82  O   UNL A   1      37.329  33.650  40.994  1.00  0.00    -0.237 OA
ATOM     83  O   UNL A   1      36.065  32.722  39.077  1.00  0.00    -0.237 OA
ATOM     84  O   UNL A   1      37.681  31.311  40.292  1.00  0.00    -0.744 OA
ENDBRANCH  77  81
ENDBRANCH  50  74
BRANCH  62  85
ATOM     85  C   UNL A   1      44.540  28.320  34.662  1.00  0.00     0.023 A 
ATOM     86  C   UNL A   1      44.543  27.140  35.427  1.00  0.00     0.031 A 
ATOM     87  C   UNL A   1      45.746  29.035  34.547  1.00  0.00     0.131 A 
ATOM     88  C   UNL A   1      45.710  26.747  36.100  1.00  0.00     0.055 A 
ATOM     89  C   UNL A   1      46.921  28.601  35.162  1.00  0.00     0.041 A 
ATOM     90  F   UNL A   1      45.803  30.171  33.833  1.00  0.00    -0.206 F 
ATOM     91  C   UNL A   1      46.903  27.460  35.958  1.00  0.00     0.022 A 
BRANCH  88  92
ATOM     92  S   UNL A   1      45.621  25.352  37.256  1.00  0.00     0.124 S 
ATOM     93  O   UNL A   1      46.899  24.684  37.027  1.00  0.00    -0.237 OA
ATOM     94  O   UNL A   1      45.475  26.023  38.544  1.00  0.00    -0.237 OA
ATOM     95  O   UNL A   1      44.445  24.609  36.808  1.00  0.00    -0.744 OA
ENDBRANCH  88  92
ENDBRANCH  62  85
ENDBRANCH  36  37
ENDBRANCH  28  31
ENDBRANCH  26  27
ENDBRANCH  25  26
ENDBRANCH  24  25
ENDBRANCH   1  24
TORSDOF 19
ENDMDL
