MODEL 1
REMARK VINA RESULT:     -12.1      0.000      0.000
REMARK SMILES O=C(NCCCCCCNC(=O)[C@@H]1[C@H](C(=O)Nc2cccc(Cl)c2F)[C@@H]2C=C[C@H]1C2)c1ccc(-c2c3nc(c(-c4cc(S(=O)(=O)[O-])ccc4F)c4ccc([nH]4)c(-c4cc(S(=O)(=O)[O-])ccc4F)c4nc(c(-c5cc(S(=O)(=O)[O-])ccc5F)c5ccc2[nH]5)C=C4)C=C3)cc1
REMARK SMILES IDX 6 1 5 2 4 3 3 4 1 5 2 6 31 8 32 9 93 10 33 11 92 12 34 13
REMARK SMILES IDX 35 14 36 15 86 16 37 17 91 18 85 19 87 20 38 21 90 22 84 23
REMARK SMILES IDX 83 24 39 26 71 27 51 28 70 29 52 30 55 31 69 32 88 33 53 34
REMARK SMILES IDX 54 35 68 37 89 38 56 39 40 40 41 41 49 42 42 43 48 44 50 45
REMARK SMILES IDX 47 46 43 47 44 48 45 49 46 50 72 51 73 52 81 53 74 54 80 55
REMARK SMILES IDX 82 56 79 57 75 58 76 59 77 60 78 61 57 62 58 63 66 64 59 65
REMARK SMILES IDX 65 66 67 67 64 68 60 69 61 70 62 71 63 72 7 73 8 74 9 75
REMARK SMILES IDX 10 76 11 77 12 79 13 80 14 81 29 82 26 83 28 84 30 85 27 86
REMARK SMILES IDX 15 87 16 88 17 89 18 91 19 92 24 93 20 94 22 95 25 96 21 97
REMARK SMILES IDX 23 98
REMARK H PARENT 3 7 87 25 55 36 10 78 17 90
REMARK Flexibility Score: inf
ROOT
ATOM      1  C   UNL A   1      31.424  30.760  25.894  1.00  0.00     0.002 C 
ENDROOT
BRANCH   1   2
ATOM      2  C   UNL A   1      31.331  32.105  26.621  1.00  0.00     0.021 C 
BRANCH   2   3
ATOM      3  C   UNL A   1      32.656  32.651  27.149  1.00  0.00     0.116 C 
BRANCH   3   4
ATOM      4  N   UNL A   1      32.516  34.008  27.651  1.00  0.00    -0.352 N 
ATOM      5  O   UNL A   1      32.781  35.654  29.178  1.00  0.00    -0.269 OA
ATOM      6  C   UNL A   1      33.180  34.588  28.699  1.00  0.00     0.251 C 
ATOM      7  H   UNL A   1      31.865  34.577  27.181  1.00  0.00     0.163 HD
BRANCH   6   8
ATOM      8  C   UNL A   1      34.378  33.926  29.248  1.00  0.00     0.039 A 
ATOM      9  C   UNL A   1      35.651  34.345  28.847  1.00  0.00     0.014 A 
ATOM     10  C   UNL A   1      34.230  32.889  30.170  1.00  0.00     0.014 A 
ATOM     11  C   UNL A   1      36.777  33.667  29.301  1.00  0.00     0.010 A 
ATOM     12  C   UNL A   1      35.365  32.255  30.678  1.00  0.00     0.010 A 
ATOM     13  C   UNL A   1      36.648  32.636  30.243  1.00  0.00    -0.014 A 
BRANCH  13  14
ATOM     14  C   UNL A   1      37.858  32.013  30.836  1.00  0.00     0.031 A 
ATOM     15  C   UNL A   1      38.633  30.970  30.089  1.00  0.00     0.074 A 
ATOM     16  C   UNL A   1      38.223  32.371  32.082  1.00  0.00     0.049 A 
ATOM     17  N   UNL A   1      39.643  30.242  30.493  1.00  0.00    -0.248 NA
ATOM     18  C   UNL A   1      38.207  30.698  28.710  1.00  0.00     0.031 C 
ATOM     19  C   UNL A   1      37.537  33.375  32.900  1.00  0.00     0.029 A 
ATOM     20  N   UNL A   1      39.238  31.923  32.887  1.00  0.00    -0.354 N 
ATOM     21  C   UNL A   1      39.963  29.408  29.429  1.00  0.00     0.074 A 
ATOM     22  C   UNL A   1      39.012  29.700  28.373  1.00  0.00     0.031 C 
ATOM     23  C   UNL A   1      38.152  33.469  34.086  1.00  0.00     0.029 A 
ATOM     24  C   UNL A   1      39.222  32.480  34.144  1.00  0.00     0.049 A 
ATOM     25  H   UNL A   1      39.913  31.269  32.594  1.00  0.00     0.167 HD
ATOM     26  C   UNL A   1      40.959  28.489  29.345  1.00  0.00     0.034 A 
ATOM     27  C   UNL A   1      39.947  32.193  35.243  1.00  0.00     0.034 A 
ATOM     28  C   UNL A   1      41.880  28.210  30.424  1.00  0.00     0.049 A 
ATOM     29  C   UNL A   1      41.000  31.123  35.156  1.00  0.00     0.074 A 
ATOM     30  C   UNL A   1      42.951  27.334  30.438  1.00  0.00     0.029 A 
ATOM     31  N   UNL A   1      41.823  28.781  31.691  1.00  0.00    -0.354 N 
ATOM     32  N   UNL A   1      41.315  30.361  34.134  1.00  0.00    -0.248 NA
ATOM     33  C   UNL A   1      41.798  30.877  36.362  1.00  0.00     0.031 C 
ATOM     34  C   UNL A   1      43.482  27.310  31.733  1.00  0.00     0.029 A 
ATOM     35  C   UNL A   1      42.808  28.244  32.505  1.00  0.00     0.049 A 
ATOM     36  H   UNL A   1      41.174  29.468  31.969  1.00  0.00     0.167 HD
ATOM     37  C   UNL A   1      42.367  29.561  34.566  1.00  0.00     0.074 A 
ATOM     38  C   UNL A   1      42.634  29.936  35.941  1.00  0.00     0.031 C 
ATOM     39  C   UNL A   1      43.058  28.615  33.881  1.00  0.00     0.034 A 
BRANCH  26  40
ATOM     40  C   UNL A   1      41.055  27.682  28.069  1.00  0.00     0.023 A 
ATOM     41  C   UNL A   1      40.648  26.336  28.009  1.00  0.00     0.031 A 
ATOM     42  C   UNL A   1      41.613  28.247  26.908  1.00  0.00     0.131 A 
ATOM     43  C   UNL A   1      40.900  25.578  26.855  1.00  0.00     0.055 A 
ATOM     44  C   UNL A   1      41.770  27.513  25.730  1.00  0.00     0.041 A 
ATOM     45  F   UNL A   1      42.039  29.520  26.903  1.00  0.00    -0.206 F 
ATOM     46  C   UNL A   1      41.434  26.163  25.705  1.00  0.00     0.022 A 
BRANCH  43  47
ATOM     47  S   UNL A   1      40.703  23.776  26.948  1.00  0.00     0.124 S 
ATOM     48  O   UNL A   1      41.031  23.513  28.348  1.00  0.00    -0.237 OA
ATOM     49  O   UNL A   1      39.306  23.592  26.576  1.00  0.00    -0.237 OA
ATOM     50  O   UNL A   1      41.679  23.274  25.985  1.00  0.00    -0.744 OA
ENDBRANCH  43  47
ENDBRANCH  26  40
BRANCH  27  51
ATOM     51  C   UNL A   1      39.647  32.896  36.521  1.00  0.00     0.023 A 
ATOM     52  C   UNL A   1      38.738  32.370  37.449  1.00  0.00     0.031 A 
ATOM     53  C   UNL A   1      40.296  34.103  36.841  1.00  0.00     0.131 A 
ATOM     54  C   UNL A   1      38.490  33.059  38.648  1.00  0.00     0.055 A 
ATOM     55  C   UNL A   1      40.086  34.756  38.055  1.00  0.00     0.041 A 
ATOM     56  F   UNL A   1      41.181  34.645  35.988  1.00  0.00    -0.206 F 
ATOM     57  C   UNL A   1      39.171  34.237  38.964  1.00  0.00     0.022 A 
BRANCH  54  58
ATOM     58  S   UNL A   1      37.222  32.417  39.774  1.00  0.00     0.124 S 
ATOM     59  O   UNL A   1      37.898  31.263  40.354  1.00  0.00    -0.237 OA
ATOM     60  O   UNL A   1      37.008  33.552  40.667  1.00  0.00    -0.237 OA
ATOM     61  O   UNL A   1      36.103  32.106  38.887  1.00  0.00    -0.744 OA
ENDBRANCH  54  58
ENDBRANCH  27  51
BRANCH  39  62
ATOM     62  C   UNL A   1      44.213  27.952  34.590  1.00  0.00     0.023 A 
ATOM     63  C   UNL A   1      44.073  26.732  35.274  1.00  0.00     0.031 A 
ATOM     64  C   UNL A   1      45.489  28.545  34.548  1.00  0.00     0.131 A 
ATOM     65  C   UNL A   1      45.184  26.160  35.914  1.00  0.00     0.055 A 
ATOM     66  C   UNL A   1      46.600  27.943  35.138  1.00  0.00     0.041 A 
ATOM     67  F   UNL A   1      45.677  29.714  33.916  1.00  0.00    -0.206 F 
ATOM     68  C   UNL A   1      46.450  26.747  35.831  1.00  0.00     0.022 A 
BRANCH  65  69
ATOM     69  S   UNL A   1      44.946  24.664  36.913  1.00  0.00     0.124 S 
ATOM     70  O   UNL A   1      46.261  24.494  37.520  1.00  0.00    -0.237 OA
ATOM     71  O   UNL A   1      43.870  25.058  37.818  1.00  0.00    -0.237 OA
ATOM     72  O   UNL A   1      44.582  23.648  35.926  1.00  0.00    -0.744 OA
ENDBRANCH  65  69
ENDBRANCH  39  62
ENDBRANCH  13  14
ENDBRANCH   6   8
ENDBRANCH   3   4
ENDBRANCH   2   3
ENDBRANCH   1   2
BRANCH   1  73
ATOM     73  C   UNL A   1      32.586  29.863  26.312  1.00  0.00     0.002 C 
BRANCH  73  74
ATOM     74  C   UNL A   1      32.209  28.608  27.096  1.00  0.00     0.021 C 
BRANCH  74  75
ATOM     75  C   UNL A   1      32.997  27.330  26.807  1.00  0.00     0.116 C 
BRANCH  75  76
ATOM     76  N   UNL A   1      32.188  26.264  26.236  1.00  0.00    -0.356 N 
ATOM     77  C   UNL A   1      32.495  24.973  25.912  1.00  0.00     0.224 C 
ATOM     78  H   UNL A   1      31.255  26.518  26.049  1.00  0.00     0.163 HD
ATOM     79  O   UNL A   1      31.561  24.162  25.911  1.00  0.00    -0.275 OA
BRANCH  77  80
ATOM     80  C   UNL A   1      33.922  24.495  25.711  1.00  0.00     0.098 C 
ATOM     81  C   UNL A   1      34.654  24.426  24.363  1.00  0.00     0.099 C 
ATOM     82  C   UNL A   1      34.361  23.138  26.368  1.00  0.00     0.025 C 
ATOM     83  C   UNL A   1      35.681  23.275  24.561  1.00  0.00     0.025 C 
ATOM     84  C   UNL A   1      34.145  21.898  25.508  1.00  0.00    -0.027 C 
ATOM     85  C   UNL A   1      35.872  23.246  26.089  1.00  0.00     0.017 C 
ATOM     86  C   UNL A   1      34.954  21.972  24.441  1.00  0.00    -0.027 C 
BRANCH  81  87
ATOM     87  C   UNL A   1      33.999  24.413  22.991  1.00  0.00     0.228 C 
ATOM     88  O   UNL A   1      34.252  23.405  22.297  1.00  0.00    -0.274 OA
ATOM     89  N   UNL A   1      33.072  25.206  22.408  1.00  0.00    -0.323 N 
ATOM     90  H   UNL A   1      32.851  24.849  21.517  1.00  0.00     0.170 HD
BRANCH  89  91
ATOM     91  C   UNL A   1      32.317  26.370  22.647  1.00  0.00     0.078 A 
ATOM     92  C   UNL A   1      33.054  27.563  22.598  1.00  0.00     0.029 A 
ATOM     93  C   UNL A   1      30.963  26.488  22.937  1.00  0.00     0.165 A 
ATOM     94  C   UNL A   1      32.430  28.814  22.667  1.00  0.00     0.004 A 
ATOM     95  C   UNL A   1      30.323  27.732  22.996  1.00  0.00     0.078 A 
ATOM     96  F   UNL A   1      30.250  25.420  23.255  1.00  0.00    -0.203 F 
ATOM     97  C   UNL A   1      31.052  28.900  22.828  1.00  0.00     0.024 A 
ATOM     98  Cl  UNL A   1      28.621  27.837  23.259  1.00  0.00    -0.081 Cl
ENDBRANCH  89  91
ENDBRANCH  81  87
ENDBRANCH  77  80
ENDBRANCH  75  76
ENDBRANCH  74  75
ENDBRANCH  73  74
ENDBRANCH   1  73
TORSDOF 18
ENDMDL
MODEL 2
REMARK VINA RESULT:     -12.1      2.279      3.092
REMARK SMILES O=C(NCCCCCCNC(=O)[C@@H]1[C@H](C(=O)Nc2cccc(Cl)c2F)[C@@H]2C=C[C@H]1C2)c1ccc(-c2c3nc(c(-c4cc(S(=O)(=O)[O-])ccc4F)c4ccc([nH]4)c(-c4cc(S(=O)(=O)[O-])ccc4F)c4nc(c(-c5cc(S(=O)(=O)[O-])ccc5F)c5ccc2[nH]5)C=C4)C=C3)cc1
REMARK SMILES IDX 6 1 5 2 4 3 3 4 1 5 2 6 31 8 32 9 93 10 33 11 92 12 34 13
REMARK SMILES IDX 35 14 36 15 86 16 37 17 91 18 85 19 87 20 38 21 90 22 84 23
REMARK SMILES IDX 83 24 39 26 71 27 51 28 70 29 52 30 55 31 69 32 88 33 53 34
REMARK SMILES IDX 54 35 68 37 89 38 56 39 40 40 41 41 49 42 42 43 48 44 50 45
REMARK SMILES IDX 47 46 43 47 44 48 45 49 46 50 72 51 73 52 81 53 74 54 80 55
REMARK SMILES IDX 82 56 79 57 75 58 76 59 77 60 78 61 57 62 58 63 66 64 59 65
REMARK SMILES IDX 65 66 67 67 64 68 60 69 61 70 62 71 63 72 7 73 8 74 9 75
REMARK SMILES IDX 10 76 11 77 12 79 13 80 14 81 29 82 26 83 28 84 30 85 27 86
REMARK SMILES IDX 15 87 16 88 17 89 18 91 19 92 24 93 20 94 22 95 25 96 21 97
REMARK SMILES IDX 23 98
REMARK H PARENT 3 7 87 25 55 36 10 78 17 90
REMARK Flexibility Score: inf
ROOT
ATOM      1  C   UNL A   1      34.559  30.532  27.618  1.00  0.00     0.002 C 
ENDROOT
BRANCH   1   2
ATOM      2  C   UNL A   1      34.163  31.976  27.296  1.00  0.00     0.021 C 
BRANCH   2   3
ATOM      3  C   UNL A   1      32.740  32.363  27.690  1.00  0.00     0.116 C 
BRANCH   3   4
ATOM      4  N   UNL A   1      32.601  33.800  27.857  1.00  0.00    -0.352 N 
ATOM      5  O   UNL A   1      32.859  35.759  28.959  1.00  0.00    -0.269 OA
ATOM      6  C   UNL A   1      33.257  34.609  28.748  1.00  0.00     0.251 C 
ATOM      7  H   UNL A   1      31.959  34.246  27.260  1.00  0.00     0.163 HD
BRANCH   6   8
ATOM      8  C   UNL A   1      34.445  34.091  29.452  1.00  0.00     0.039 A 
ATOM      9  C   UNL A   1      34.288  33.271  30.574  1.00  0.00     0.014 A 
ATOM     10  C   UNL A   1      35.719  34.422  28.988  1.00  0.00     0.014 A 
ATOM     11  C   UNL A   1      35.406  32.852  31.286  1.00  0.00     0.010 A 
ATOM     12  C   UNL A   1      36.842  33.941  29.663  1.00  0.00     0.010 A 
ATOM     13  C   UNL A   1      36.694  33.157  30.821  1.00  0.00    -0.014 A 
BRANCH  13  14
ATOM     14  C   UNL A   1      37.885  32.585  31.499  1.00  0.00     0.031 A 
ATOM     15  C   UNL A   1      38.637  31.436  30.896  1.00  0.00     0.074 A 
ATOM     16  C   UNL A   1      38.251  33.087  32.693  1.00  0.00     0.049 A 
ATOM     17  N   UNL A   1      39.626  30.741  31.399  1.00  0.00    -0.248 NA
ATOM     18  C   UNL A   1      38.212  31.003  29.559  1.00  0.00     0.031 C 
ATOM     19  C   UNL A   1      37.587  34.204  33.371  1.00  0.00     0.029 A 
ATOM     20  N   UNL A   1      39.250  32.721  33.557  1.00  0.00    -0.354 N 
ATOM     21  C   UNL A   1      39.931  29.771  30.451  1.00  0.00     0.074 A 
ATOM     22  C   UNL A   1      38.994  29.951  29.359  1.00  0.00     0.031 C 
ATOM     23  C   UNL A   1      38.197  34.432  34.542  1.00  0.00     0.029 A 
ATOM     24  C   UNL A   1      39.241  33.432  34.734  1.00  0.00     0.049 A 
ATOM     25  H   UNL A   1      39.910  32.018  33.355  1.00  0.00     0.167 HD
ATOM     26  C   UNL A   1      40.903  28.825  30.493  1.00  0.00     0.034 A 
ATOM     27  C   UNL A   1      39.953  33.269  35.867  1.00  0.00     0.034 A 
ATOM     28  C   UNL A   1      41.810  28.661  31.607  1.00  0.00     0.049 A 
ATOM     29  C   UNL A   1      40.977  32.170  35.925  1.00  0.00     0.074 A 
ATOM     30  C   UNL A   1      42.859  27.769  31.741  1.00  0.00     0.029 A 
ATOM     31  N   UNL A   1      41.760  29.390  32.791  1.00  0.00    -0.354 N 
ATOM     32  N   UNL A   1      41.279  31.278  35.010  1.00  0.00    -0.248 NA
ATOM     33  C   UNL A   1      41.762  32.059  37.159  1.00  0.00     0.031 C 
ATOM     34  C   UNL A   1      43.381  27.895  33.033  1.00  0.00     0.029 A 
ATOM     35  C   UNL A   1      42.727  28.935  33.675  1.00  0.00     0.049 A 
ATOM     36  H   UNL A   1      41.128  30.123  32.974  1.00  0.00     0.167 HD
ATOM     37  C   UNL A   1      42.308  30.513  35.549  1.00  0.00     0.074 A 
ATOM     38  C   UNL A   1      42.576  31.053  36.868  1.00  0.00     0.031 C 
ATOM     39  C   UNL A   1      42.978  29.471  34.996  1.00  0.00     0.034 A 
BRANCH  26  40
ATOM     40  C   UNL A   1      40.986  27.860  29.330  1.00  0.00     0.023 A 
ATOM     41  C   UNL A   1      41.956  27.993  28.321  1.00  0.00     0.031 A 
ATOM     42  C   UNL A   1      40.044  26.823  29.197  1.00  0.00     0.131 A 
ATOM     43  C   UNL A   1      41.900  27.178  27.180  1.00  0.00     0.055 A 
ATOM     44  C   UNL A   1      40.054  25.951  28.106  1.00  0.00     0.041 A 
ATOM     45  F   UNL A   1      39.079  26.652  30.114  1.00  0.00    -0.206 F 
ATOM     46  C   UNL A   1      40.972  26.140  27.077  1.00  0.00     0.022 A 
BRANCH  43  47
ATOM     47  S   UNL A   1      42.927  27.622  25.751  1.00  0.00     0.124 S 
ATOM     48  O   UNL A   1      42.287  26.863  24.678  1.00  0.00    -0.237 OA
ATOM     49  O   UNL A   1      42.769  29.070  25.688  1.00  0.00    -0.237 OA
ATOM     50  O   UNL A   1      44.258  27.153  26.126  1.00  0.00    -0.744 OA
ENDBRANCH  43  47
ENDBRANCH  26  40
BRANCH  27  51
ATOM     51  C   UNL A   1      39.662  34.135  37.043  1.00  0.00     0.023 A 
ATOM     52  C   UNL A   1      39.027  33.629  38.185  1.00  0.00     0.031 A 
ATOM     53  C   UNL A   1      40.049  35.488  37.044  1.00  0.00     0.131 A 
ATOM     54  C   UNL A   1      38.781  34.477  39.277  1.00  0.00     0.055 A 
ATOM     55  C   UNL A   1      39.850  36.313  38.151  1.00  0.00     0.041 A 
ATOM     56  F   UNL A   1      40.667  36.019  35.976  1.00  0.00    -0.206 F 
ATOM     57  C   UNL A   1      39.205  35.809  39.275  1.00  0.00     0.022 A 
BRANCH  54  58
ATOM     58  S   UNL A   1      37.852  33.826  40.692  1.00  0.00     0.124 S 
ATOM     59  O   UNL A   1      36.870  32.972  40.034  1.00  0.00    -0.237 OA
ATOM     60  O   UNL A   1      38.894  33.141  41.450  1.00  0.00    -0.237 OA
ATOM     61  O   UNL A   1      37.312  35.026  41.326  1.00  0.00    -0.744 OA
ENDBRANCH  54  58
ENDBRANCH  27  51
BRANCH  39  62
ATOM     62  C   UNL A   1      44.112  28.875  35.793  1.00  0.00     0.023 A 
ATOM     63  C   UNL A   1      43.939  27.749  36.615  1.00  0.00     0.031 A 
ATOM     64  C   UNL A   1      45.401  29.434  35.697  1.00  0.00     0.131 A 
ATOM     65  C   UNL A   1      45.031  27.235  37.333  1.00  0.00     0.055 A 
ATOM     66  C   UNL A   1      46.493  28.884  36.368  1.00  0.00     0.041 A 
ATOM     67  F   UNL A   1      45.620  30.515  34.932  1.00  0.00    -0.206 F 
ATOM     68  C   UNL A   1      46.310  27.783  37.196  1.00  0.00     0.022 A 
BRANCH  65  69
ATOM     69  S   UNL A   1      44.751  25.874  38.500  1.00  0.00     0.124 S 
ATOM     70  O   UNL A   1      44.213  26.577  39.660  1.00  0.00    -0.237 OA
ATOM     71  O   UNL A   1      43.811  25.026  37.774  1.00  0.00    -0.237 OA
ATOM     72  O   UNL A   1      46.085  25.302  38.685  1.00  0.00    -0.744 OA
ENDBRANCH  65  69
ENDBRANCH  39  62
ENDBRANCH  13  14
ENDBRANCH   6   8
ENDBRANCH   3   4
ENDBRANCH   2   3
ENDBRANCH   1   2
BRANCH   1  73
ATOM     73  C   UNL A   1      33.961  29.464  26.706  1.00  0.00     0.002 C 
BRANCH  73  74
ATOM     74  C   UNL A   1      33.251  28.309  27.410  1.00  0.00     0.021 C 
BRANCH  74  75
ATOM     75  C   UNL A   1      31.741  28.426  27.611  1.00  0.00     0.116 C 
BRANCH  75  76
ATOM     76  N   UNL A   1      31.006  27.236  27.212  1.00  0.00    -0.356 N 
ATOM     77  C   UNL A   1      31.074  26.469  26.084  1.00  0.00     0.224 C 
ATOM     78  H   UNL A   1      30.341  26.929  27.870  1.00  0.00     0.163 HD
ATOM     79  O   UNL A   1      30.726  25.287  26.191  1.00  0.00    -0.275 OA
BRANCH  77  80
ATOM     80  C   UNL A   1      31.690  26.968  24.789  1.00  0.00     0.098 C 
ATOM     81  C   UNL A   1      30.942  27.733  23.686  1.00  0.00     0.099 C 
ATOM     82  C   UNL A   1      32.561  25.978  23.937  1.00  0.00     0.025 C 
ATOM     83  C   UNL A   1      31.724  27.369  22.392  1.00  0.00     0.025 C 
ATOM     84  C   UNL A   1      31.795  25.159  22.904  1.00  0.00    -0.027 C 
ATOM     85  C   UNL A   1      33.119  26.999  22.928  1.00  0.00     0.017 C 
ATOM     86  C   UNL A   1      31.316  25.993  21.968  1.00  0.00    -0.027 C 
BRANCH  81  87
ATOM     87  C   UNL A   1      29.435  27.763  23.486  1.00  0.00     0.228 C 
ATOM     88  O   UNL A   1      28.827  26.765  23.929  1.00  0.00    -0.274 OA
ATOM     89  N   UNL A   1      28.584  28.720  23.052  1.00  0.00    -0.323 N 
ATOM     90  H   UNL A   1      27.660  28.386  23.111  1.00  0.00     0.170 HD
BRANCH  89  91
ATOM     91  C   UNL A   1      28.577  30.032  22.544  1.00  0.00     0.078 A 
ATOM     92  C   UNL A   1      28.096  30.147  21.231  1.00  0.00     0.029 A 
ATOM     93  C   UNL A   1      28.994  31.208  23.156  1.00  0.00     0.165 A 
ATOM     94  C   UNL A   1      27.886  31.394  20.632  1.00  0.00     0.004 A 
ATOM     95  C   UNL A   1      28.778  32.464  22.576  1.00  0.00     0.078 A 
ATOM     96  F   UNL A   1      29.691  31.167  24.280  1.00  0.00    -0.203 F 
ATOM     97  C   UNL A   1      28.192  32.561  21.322  1.00  0.00     0.024 A 
ATOM     98  Cl  UNL A   1      29.217  33.909  23.410  1.00  0.00    -0.081 Cl
ENDBRANCH  89  91
ENDBRANCH  81  87
ENDBRANCH  77  80
ENDBRANCH  75  76
ENDBRANCH  74  75
ENDBRANCH  73  74
ENDBRANCH   1  73
TORSDOF 18
ENDMDL
MODEL 3
REMARK VINA RESULT:     -12.0      3.324      8.623
REMARK SMILES O=C(NCCCCCCNC(=O)[C@@H]1[C@H](C(=O)Nc2cccc(Cl)c2F)[C@@H]2C=C[C@H]1C2)c1ccc(-c2c3nc(c(-c4cc(S(=O)(=O)[O-])ccc4F)c4ccc([nH]4)c(-c4cc(S(=O)(=O)[O-])ccc4F)c4nc(c(-c5cc(S(=O)(=O)[O-])ccc5F)c5ccc2[nH]5)C=C4)C=C3)cc1
REMARK SMILES IDX 6 1 5 2 4 3 3 4 1 5 2 6 31 8 32 9 93 10 33 11 92 12 34 13
REMARK SMILES IDX 35 14 36 15 86 16 37 17 91 18 85 19 87 20 38 21 90 22 84 23
REMARK SMILES IDX 83 24 39 26 71 27 51 28 70 29 52 30 55 31 69 32 88 33 53 34
REMARK SMILES IDX 54 35 68 37 89 38 56 39 40 40 41 41 49 42 42 43 48 44 50 45
REMARK SMILES IDX 47 46 43 47 44 48 45 49 46 50 72 51 73 52 81 53 74 54 80 55
REMARK SMILES IDX 82 56 79 57 75 58 76 59 77 60 78 61 57 62 58 63 66 64 59 65
REMARK SMILES IDX 65 66 67 67 64 68 60 69 61 70 62 71 63 72 7 73 8 74 9 75
REMARK SMILES IDX 10 76 11 77 12 79 13 80 14 81 29 82 26 83 28 84 30 85 27 86
REMARK SMILES IDX 15 87 16 88 17 89 18 91 19 92 24 93 20 94 22 95 25 96 21 97
REMARK SMILES IDX 23 98
REMARK H PARENT 3 7 87 25 55 36 10 78 17 90
REMARK Flexibility Score: inf
ROOT
ATOM      1  C   UNL A   1      33.209  28.970  24.204  1.00  0.00     0.002 C 
ENDROOT
BRANCH   1   2
ATOM      2  C   UNL A   1      34.179  28.260  25.153  1.00  0.00     0.021 C 
BRANCH   2   3
ATOM      3  C   UNL A   1      34.038  28.635  26.626  1.00  0.00     0.116 C 
BRANCH   3   4
ATOM      4  N   UNL A   1      33.912  30.072  26.805  1.00  0.00    -0.352 N 
ATOM      5  O   UNL A   1      34.279  32.034  27.867  1.00  0.00    -0.269 OA
ATOM      6  C   UNL A   1      34.658  30.886  27.617  1.00  0.00     0.251 C 
ATOM      7  H   UNL A   1      33.205  30.513  26.281  1.00  0.00     0.163 HD
BRANCH   6   8
ATOM      8  C   UNL A   1      35.919  30.376  28.186  1.00  0.00     0.039 A 
ATOM      9  C   UNL A   1      35.910  29.712  29.417  1.00  0.00     0.014 A 
ATOM     10  C   UNL A   1      37.113  30.556  27.486  1.00  0.00     0.014 A 
ATOM     11  C   UNL A   1      37.109  29.305  29.992  1.00  0.00     0.010 A 
ATOM     12  C   UNL A   1      38.307  30.084  28.033  1.00  0.00     0.010 A 
ATOM     13  C   UNL A   1      38.315  29.459  29.293  1.00  0.00    -0.014 A 
BRANCH  13  14
ATOM     14  C   UNL A   1      39.572  28.892  29.843  1.00  0.00     0.031 A 
ATOM     15  C   UNL A   1      40.293  29.566  30.972  1.00  0.00     0.074 A 
ATOM     16  C   UNL A   1      40.081  27.782  29.276  1.00  0.00     0.049 A 
ATOM     17  N   UNL A   1      41.454  29.277  31.502  1.00  0.00    -0.248 NA
ATOM     18  C   UNL A   1      39.626  30.727  31.576  1.00  0.00     0.031 C 
ATOM     19  C   UNL A   1      39.462  27.047  28.170  1.00  0.00     0.029 A 
ATOM     20  N   UNL A   1      41.236  27.088  29.531  1.00  0.00    -0.354 N 
ATOM     21  C   UNL A   1      41.672  30.232  32.488  1.00  0.00     0.074 A 
ATOM     22  C   UNL A   1      40.533  31.129  32.455  1.00  0.00     0.031 C 
ATOM     23  C   UNL A   1      40.240  26.007  27.844  1.00  0.00     0.029 A 
ATOM     24  C   UNL A   1      41.448  26.045  28.661  1.00  0.00     0.049 A 
ATOM     25  H   UNL A   1      41.852  27.314  30.265  1.00  0.00     0.167 HD
ATOM     26  C   UNL A   1      42.724  30.342  33.339  1.00  0.00     0.034 A 
ATOM     27  C   UNL A   1      42.516  25.240  28.496  1.00  0.00     0.034 A 
ATOM     28  C   UNL A   1      43.854  29.439  33.333  1.00  0.00     0.049 A 
ATOM     29  C   UNL A   1      43.704  25.420  29.399  1.00  0.00     0.074 A 
ATOM     30  C   UNL A   1      44.952  29.428  34.174  1.00  0.00     0.029 A 
ATOM     31  N   UNL A   1      44.043  28.403  32.425  1.00  0.00    -0.354 N 
ATOM     32  N   UNL A   1      43.887  26.307  30.350  1.00  0.00    -0.248 NA
ATOM     33  C   UNL A   1      44.824  24.491  29.217  1.00  0.00     0.031 C 
ATOM     34  C   UNL A   1      45.843  28.449  33.720  1.00  0.00     0.029 A 
ATOM     35  C   UNL A   1      45.259  27.778  32.656  1.00  0.00     0.049 A 
ATOM     36  H   UNL A   1      43.405  28.150  31.718  1.00  0.00     0.167 HD
ATOM     37  C   UNL A   1      45.134  26.027  30.897  1.00  0.00     0.074 A 
ATOM     38  C   UNL A   1      45.657  24.886  30.171  1.00  0.00     0.031 C 
ATOM     39  C   UNL A   1      45.779  26.648  31.916  1.00  0.00     0.034 A 
BRANCH  26  40
ATOM     40  C   UNL A   1      42.726  31.515  34.294  1.00  0.00     0.023 A 
ATOM     41  C   UNL A   1      42.083  31.457  35.544  1.00  0.00     0.031 A 
ATOM     42  C   UNL A   1      43.331  32.732  33.928  1.00  0.00     0.131 A 
ATOM     43  C   UNL A   1      41.970  32.614  36.330  1.00  0.00     0.055 A 
ATOM     44  C   UNL A   1      43.300  33.853  34.760  1.00  0.00     0.041 A 
ATOM     45  F   UNL A   1      43.944  32.861  32.741  1.00  0.00    -0.206 F 
ATOM     46  C   UNL A   1      42.596  33.805  35.960  1.00  0.00     0.022 A 
BRANCH  43  47
ATOM     47  S   UNL A   1      40.828  32.589  37.741  1.00  0.00     0.124 S 
ATOM     48  O   UNL A   1      39.704  31.828  37.200  1.00  0.00    -0.237 OA
ATOM     49  O   UNL A   1      41.614  31.919  38.771  1.00  0.00    -0.237 OA
ATOM     50  O   UNL A   1      40.553  34.002  37.985  1.00  0.00    -0.744 OA
ENDBRANCH  43  47
ENDBRANCH  26  40
BRANCH  27  51
ATOM     51  C   UNL A   1      42.514  24.242  27.391  1.00  0.00     0.023 A 
ATOM     52  C   UNL A   1      41.722  23.086  27.449  1.00  0.00     0.031 A 
ATOM     53  C   UNL A   1      43.294  24.453  26.238  1.00  0.00     0.131 A 
ATOM     54  C   UNL A   1      41.741  22.175  26.381  1.00  0.00     0.055 A 
ATOM     55  C   UNL A   1      43.269  23.571  25.158  1.00  0.00     0.041 A 
ATOM     56  F   UNL A   1      44.064  25.548  26.130  1.00  0.00    -0.206 F 
ATOM     57  C   UNL A   1      42.494  22.420  25.229  1.00  0.00     0.022 A 
BRANCH  54  58
ATOM     58  S   UNL A   1      40.800  20.633  26.536  1.00  0.00     0.124 S 
ATOM     59  O   UNL A   1      39.471  21.052  26.108  1.00  0.00    -0.237 OA
ATOM     60  O   UNL A   1      41.519  19.747  25.626  1.00  0.00    -0.237 OA
ATOM     61  O   UNL A   1      40.924  20.299  27.953  1.00  0.00    -0.744 OA
ENDBRANCH  54  58
ENDBRANCH  27  51
BRANCH  39  62
ATOM     62  C   UNL A   1      47.104  26.073  32.351  1.00  0.00     0.023 A 
ATOM     63  C   UNL A   1      47.204  25.097  33.357  1.00  0.00     0.031 A 
ATOM     64  C   UNL A   1      48.289  26.493  31.717  1.00  0.00     0.131 A 
ATOM     65  C   UNL A   1      48.464  24.595  33.720  1.00  0.00     0.055 A 
ATOM     66  C   UNL A   1      49.531  25.950  32.043  1.00  0.00     0.041 A 
ATOM     67  F   UNL A   1      48.252  27.429  30.756  1.00  0.00    -0.206 F 
ATOM     68  C   UNL A   1      49.624  24.999  33.054  1.00  0.00     0.022 A 
BRANCH  65  69
ATOM     69  S   UNL A   1      48.580  23.447  35.120  1.00  0.00     0.124 S 
ATOM     70  O   UNL A   1      48.047  24.250  36.215  1.00  0.00    -0.237 OA
ATOM     71  O   UNL A   1      47.746  22.332  34.682  1.00  0.00    -0.237 OA
ATOM     72  O   UNL A   1      50.010  23.154  35.205  1.00  0.00    -0.744 OA
ENDBRANCH  65  69
ENDBRANCH  39  62
ENDBRANCH  13  14
ENDBRANCH   6   8
ENDBRANCH   3   4
ENDBRANCH   2   3
ENDBRANCH   1   2
BRANCH   1  73
ATOM     73  C   UNL A   1      33.259  28.515  22.747  1.00  0.00     0.002 C 
BRANCH  73  74
ATOM     74  C   UNL A   1      33.296  27.004  22.524  1.00  0.00     0.021 C 
BRANCH  74  75
ATOM     75  C   UNL A   1      32.014  26.218  22.794  1.00  0.00     0.116 C 
BRANCH  75  76
ATOM     76  N   UNL A   1      31.859  25.817  24.184  1.00  0.00    -0.356 N 
ATOM     77  C   UNL A   1      32.621  25.011  24.982  1.00  0.00     0.224 C 
ATOM     78  H   UNL A   1      31.064  26.191  24.629  1.00  0.00     0.163 HD
ATOM     79  O   UNL A   1      32.562  25.217  26.200  1.00  0.00    -0.275 OA
BRANCH  77  80
ATOM     80  C   UNL A   1      33.618  24.012  24.424  1.00  0.00     0.098 C 
ATOM     81  C   UNL A   1      33.425  22.488  24.390  1.00  0.00     0.099 C 
ATOM     82  C   UNL A   1      35.121  24.120  24.866  1.00  0.00     0.025 C 
ATOM     83  C   UNL A   1      34.877  21.933  24.439  1.00  0.00     0.025 C 
ATOM     84  C   UNL A   1      35.490  23.332  26.118  1.00  0.00    -0.027 C 
ATOM     85  C   UNL A   1      35.709  23.099  23.873  1.00  0.00     0.017 C 
ATOM     86  C   UNL A   1      35.366  22.023  25.851  1.00  0.00    -0.027 C 
BRANCH  81  87
ATOM     87  C   UNL A   1      32.451  21.693  25.244  1.00  0.00     0.228 C 
ATOM     88  O   UNL A   1      31.700  22.384  25.966  1.00  0.00    -0.274 OA
ATOM     89  N   UNL A   1      32.121  20.383  25.284  1.00  0.00    -0.323 N 
ATOM     90  H   UNL A   1      31.399  20.247  25.940  1.00  0.00     0.170 HD
BRANCH  89  91
ATOM     91  C   UNL A   1      32.463  19.147  24.703  1.00  0.00     0.078 A 
ATOM     92  C   UNL A   1      32.417  19.129  23.301  1.00  0.00     0.029 A 
ATOM     93  C   UNL A   1      32.819  17.957  25.327  1.00  0.00     0.165 A 
ATOM     94  C   UNL A   1      32.869  18.027  22.566  1.00  0.00     0.004 A 
ATOM     95  C   UNL A   1      33.286  16.852  24.606  1.00  0.00     0.078 A 
ATOM     96  F   UNL A   1      32.643  17.806  26.630  1.00  0.00    -0.203 F 
ATOM     97  C   UNL A   1      33.343  16.896  23.221  1.00  0.00     0.024 A 
ATOM     98  Cl  UNL A   1      33.814  15.426  25.421  1.00  0.00    -0.081 Cl
ENDBRANCH  89  91
ENDBRANCH  81  87
ENDBRANCH  77  80
ENDBRANCH  75  76
ENDBRANCH  74  75
ENDBRANCH  73  74
ENDBRANCH   1  73
TORSDOF 18
ENDMDL
