MODEL 1
REMARK VINA RESULT:     -11.1      0.000      0.000
REMARK SMILES CC[C@@H](C)Nc1cc(OC)c(C(=O)NCCCCCCNC(=O)c2ccc(-c3c4nc(c(-c5cc(S(=O)(=O)[O-])ccc5F)c5ccc([nH]5)c(-c5cc(S(=O)(=O)[O-])ccc5F)c5nc(c(-c6cc(S(=O)(=O)[O-])ccc6F)c6ccc3[nH]6)C=C5)C=C4)cc2)cc1Cl
REMARK SMILES IDX 17 1 16 2 15 3 14 4 12 5 13 6 11 8 6 9 7 10 88 11 8 12 87 13
REMARK SMILES IDX 89 14 5 15 3 17 4 18 2 19 1 20 9 21 10 22 18 23 19 24 20 25
REMARK SMILES IDX 21 26 22 27 23 29 24 30 25 31 86 32 26 33 85 34 27 35 28 36
REMARK SMILES IDX 29 37 79 38 30 39 84 40 78 41 80 42 31 43 83 44 77 45 76 46
REMARK SMILES IDX 32 48 64 49 44 50 63 51 45 52 48 53 62 54 81 55 46 56 47 57
REMARK SMILES IDX 61 59 82 60 49 61 33 62 34 63 42 64 35 65 41 66 43 67 40 68
REMARK SMILES IDX 36 69 37 70 38 71 39 72 65 73 66 74 74 75 67 76 73 77 75 78
REMARK SMILES IDX 72 79 68 80 69 81 70 82 71 83 50 84 51 85 59 86 52 87 58 88
REMARK SMILES IDX 60 89 57 90 53 91 54 92 55 93 56 94
REMARK H PARENT 14 7 5 16 21 28 80 47 48 58
REMARK Flexibility Score: inf
ROOT
ATOM      1  C   UNL A   1      32.810  29.125  26.561  1.00  0.00     0.002 C 
ENDROOT
BRANCH   1   2
ATOM      2  C   UNL A   1      32.583  27.632  26.269  1.00  0.00     0.021 C 
BRANCH   2   3
ATOM      3  C   UNL A   1      33.837  26.919  25.745  1.00  0.00     0.116 C 
BRANCH   3   4
ATOM      4  N   UNL A   1      33.656  26.613  24.337  1.00  0.00    -0.352 N 
ATOM      5  C   UNL A   1      33.865  25.498  23.560  1.00  0.00     0.255 C 
ATOM      6  O   UNL A   1      33.947  25.736  22.357  1.00  0.00    -0.269 OA
ATOM      7  H   UNL A   1      33.305  27.375  23.823  1.00  0.00     0.163 HD
BRANCH   5   8
ATOM      8  C   UNL A   1      33.971  24.102  24.106  1.00  0.00     0.083 A 
ATOM      9  C   UNL A   1      34.229  21.296  24.747  1.00  0.00     0.057 A 
ATOM     10  C   UNL A   1      35.021  22.288  25.348  1.00  0.00     0.074 A 
ATOM     11  C   UNL A   1      33.253  21.756  23.860  1.00  0.00     0.065 A 
ATOM     12  C   UNL A   1      34.926  23.672  25.044  1.00  0.00     0.133 A 
ATOM     13  C   UNL A   1      33.090  23.128  23.616  1.00  0.00     0.040 A 
ATOM     14  Cl  UNL A   1      32.144  20.720  23.031  1.00  0.00    -0.082 Cl
BRANCH   9  15
ATOM     15  N   UNL A   1      34.522  19.971  25.046  1.00  0.00    -0.381 N 
ATOM     16  H   UNL A   1      35.315  19.787  25.600  1.00  0.00     0.160 HD
BRANCH  15  17
ATOM     17  C   UNL A   1      33.723  18.830  24.587  1.00  0.00     0.075 C 
ATOM     18  C   UNL A   1      32.789  18.380  25.712  1.00  0.00     0.031 C 
BRANCH  17  19
ATOM     19  C   UNL A   1      34.694  17.690  24.203  1.00  0.00     0.021 C 
ATOM     20  C   UNL A   1      34.053  16.597  23.356  1.00  0.00     0.006 C 
ENDBRANCH  17  19
ENDBRANCH  15  17
ENDBRANCH   9  15
BRANCH  12  21
ATOM     21  O   UNL A   1      35.923  24.354  25.690  1.00  0.00    -0.496 OA
ATOM     22  C   UNL A   1      37.245  23.843  25.721  1.00  0.00     0.278 C 
ENDBRANCH  12  21
ENDBRANCH   5   8
ENDBRANCH   3   4
ENDBRANCH   2   3
ENDBRANCH   1   2
BRANCH   1  23
ATOM     23  C   UNL A   1      31.525  29.943  26.736  1.00  0.00     0.002 C 
BRANCH  23  24
ATOM     24  C   UNL A   1      31.688  31.442  26.477  1.00  0.00     0.021 C 
BRANCH  24  25
ATOM     25  C   UNL A   1      32.877  32.067  27.197  1.00  0.00     0.116 C 
BRANCH  25  26
ATOM     26  N   UNL A   1      32.666  33.488  27.426  1.00  0.00    -0.352 N 
ATOM     27  C   UNL A   1      33.198  34.288  28.408  1.00  0.00     0.251 C 
ATOM     28  H   UNL A   1      32.063  33.936  26.792  1.00  0.00     0.163 HD
ATOM     29  O   UNL A   1      32.708  35.388  28.632  1.00  0.00    -0.269 OA
BRANCH  27  30
ATOM     30  C   UNL A   1      34.350  33.800  29.194  1.00  0.00     0.039 A 
ATOM     31  C   UNL A   1      34.126  32.953  30.279  1.00  0.00     0.014 A 
ATOM     32  C   UNL A   1      35.652  34.183  28.853  1.00  0.00     0.014 A 
ATOM     33  C   UNL A   1      35.213  32.446  30.993  1.00  0.00     0.010 A 
ATOM     34  C   UNL A   1      36.735  33.616  29.515  1.00  0.00     0.010 A 
ATOM     35  C   UNL A   1      36.527  32.748  30.599  1.00  0.00    -0.014 A 
BRANCH  35  36
ATOM     36  C   UNL A   1      37.698  32.179  31.314  1.00  0.00     0.031 A 
ATOM     37  C   UNL A   1      38.468  31.039  30.707  1.00  0.00     0.074 A 
ATOM     38  C   UNL A   1      38.031  32.654  32.529  1.00  0.00     0.049 A 
ATOM     39  N   UNL A   1      39.479  30.368  31.196  1.00  0.00    -0.248 NA
ATOM     40  C   UNL A   1      38.018  30.573  29.388  1.00  0.00     0.031 C 
ATOM     41  C   UNL A   1      37.342  33.738  33.231  1.00  0.00     0.029 A 
ATOM     42  N   UNL A   1      39.033  32.286  33.390  1.00  0.00    -0.354 N 
ATOM     43  C   UNL A   1      39.782  29.396  30.248  1.00  0.00     0.074 A 
ATOM     44  C   UNL A   1      38.794  29.519  29.196  1.00  0.00     0.031 C 
ATOM     45  C   UNL A   1      37.966  33.975  34.396  1.00  0.00     0.029 A 
ATOM     46  C   UNL A   1      39.066  33.027  34.549  1.00  0.00     0.049 A 
ATOM     47  H   UNL A   1      39.670  31.561  33.199  1.00  0.00     0.167 HD
ATOM     48  C   UNL A   1      40.804  28.504  30.241  1.00  0.00     0.034 A 
ATOM     49  C   UNL A   1      39.885  32.947  35.616  1.00  0.00     0.034 A 
ATOM     50  C   UNL A   1      41.775  28.396  31.304  1.00  0.00     0.049 A 
ATOM     51  C   UNL A   1      40.972  31.903  35.620  1.00  0.00     0.074 A 
ATOM     52  C   UNL A   1      42.876  27.562  31.385  1.00  0.00     0.029 A 
ATOM     53  N   UNL A   1      41.754  29.136  32.480  1.00  0.00    -0.354 N 
ATOM     54  N   UNL A   1      41.278  31.023  34.694  1.00  0.00    -0.248 NA
ATOM     55  C   UNL A   1      41.828  31.848  36.810  1.00  0.00     0.031 C 
ATOM     56  C   UNL A   1      43.471  27.740  32.641  1.00  0.00     0.029 A 
ATOM     57  C   UNL A   1      42.795  28.748  33.310  1.00  0.00     0.049 A 
ATOM     58  H   UNL A   1      41.094  29.835  32.694  1.00  0.00     0.167 HD
ATOM     59  C   UNL A   1      42.386  30.332  35.180  1.00  0.00     0.074 A 
ATOM     60  C   UNL A   1      42.699  30.909  36.471  1.00  0.00     0.031 C 
ATOM     61  C   UNL A   1      43.086  29.319  34.606  1.00  0.00     0.034 A 
BRANCH  48  62
ATOM     62  C   UNL A   1      40.890  27.563  29.060  1.00  0.00     0.023 A 
ATOM     63  C   UNL A   1      41.855  27.734  28.050  1.00  0.00     0.031 A 
ATOM     64  C   UNL A   1      39.960  26.520  28.905  1.00  0.00     0.131 A 
ATOM     65  C   UNL A   1      41.803  26.950  26.888  1.00  0.00     0.055 A 
ATOM     66  C   UNL A   1      39.976  25.677  27.791  1.00  0.00     0.041 A 
ATOM     67  F   UNL A   1      39.001  26.316  29.821  1.00  0.00    -0.206 F 
ATOM     68  C   UNL A   1      40.887  25.905  26.762  1.00  0.00     0.022 A 
BRANCH  65  69
ATOM     69  S   UNL A   1      42.818  27.446  25.468  1.00  0.00     0.124 S 
ATOM     70  O   UNL A   1      44.050  27.879  26.124  1.00  0.00    -0.237 OA
ATOM     71  O   UNL A   1      42.902  26.213  24.695  1.00  0.00    -0.237 OA
ATOM     72  O   UNL A   1      42.041  28.519  24.851  1.00  0.00    -0.744 OA
ENDBRANCH  65  69
ENDBRANCH  48  62
BRANCH  49  73
ATOM     73  C   UNL A   1      39.721  33.881  36.766  1.00  0.00     0.023 A 
ATOM     74  C   UNL A   1      39.173  33.434  37.979  1.00  0.00     0.031 A 
ATOM     75  C   UNL A   1      40.075  35.239  36.662  1.00  0.00     0.131 A 
ATOM     76  C   UNL A   1      38.954  34.342  39.024  1.00  0.00     0.055 A 
ATOM     77  C   UNL A   1      39.904  36.127  37.725  1.00  0.00     0.041 A 
ATOM     78  F   UNL A   1      40.605  35.718  35.526  1.00  0.00    -0.206 F 
ATOM     79  C   UNL A   1      39.330  35.683  38.912  1.00  0.00     0.022 A 
BRANCH  76  80
ATOM     80  S   UNL A   1      38.093  33.761  40.511  1.00  0.00     0.124 S 
ATOM     81  O   UNL A   1      37.884  35.007  41.238  1.00  0.00    -0.237 OA
ATOM     82  O   UNL A   1      36.902  33.137  39.947  1.00  0.00    -0.237 OA
ATOM     83  O   UNL A   1      39.049  32.836  41.117  1.00  0.00    -0.744 OA
ENDBRANCH  76  80
ENDBRANCH  49  73
BRANCH  61  84
ATOM     84  C   UNL A   1      44.288  28.804  35.362  1.00  0.00     0.023 A 
ATOM     85  C   UNL A   1      44.169  27.834  36.373  1.00  0.00     0.031 A 
ATOM     86  C   UNL A   1      45.571  29.305  35.077  1.00  0.00     0.131 A 
ATOM     87  C   UNL A   1      45.302  27.440  37.102  1.00  0.00     0.055 A 
ATOM     88  C   UNL A   1      46.704  28.859  35.759  1.00  0.00     0.041 A 
ATOM     89  F   UNL A   1      45.746  30.236  34.125  1.00  0.00    -0.206 F 
ATOM     90  C   UNL A   1      46.571  27.932  36.788  1.00  0.00     0.022 A 
BRANCH  87  91
ATOM     91  S   UNL A   1      45.079  26.352  38.536  1.00  0.00     0.124 S 
ATOM     92  O   UNL A   1      43.633  26.393  38.726  1.00  0.00    -0.237 OA
ATOM     93  O   UNL A   1      45.624  25.086  38.057  1.00  0.00    -0.237 OA
ATOM     94  O   UNL A   1      45.861  27.005  39.586  1.00  0.00    -0.744 OA
ENDBRANCH  87  91
ENDBRANCH  61  84
ENDBRANCH  35  36
ENDBRANCH  27  30
ENDBRANCH  25  26
ENDBRANCH  24  25
ENDBRANCH  23  24
ENDBRANCH   1  23
TORSDOF 20
ENDMDL
MODEL 2
REMARK VINA RESULT:     -10.8      3.368      8.619
REMARK SMILES CC[C@@H](C)Nc1cc(OC)c(C(=O)NCCCCCCNC(=O)c2ccc(-c3c4nc(c(-c5cc(S(=O)(=O)[O-])ccc5F)c5ccc([nH]5)c(-c5cc(S(=O)(=O)[O-])ccc5F)c5nc(c(-c6cc(S(=O)(=O)[O-])ccc6F)c6ccc3[nH]6)C=C5)C=C4)cc2)cc1Cl
REMARK SMILES IDX 17 1 16 2 15 3 14 4 12 5 13 6 11 8 6 9 7 10 88 11 8 12 87 13
REMARK SMILES IDX 89 14 5 15 3 17 4 18 2 19 1 20 9 21 10 22 18 23 19 24 20 25
REMARK SMILES IDX 21 26 22 27 23 29 24 30 25 31 86 32 26 33 85 34 27 35 28 36
REMARK SMILES IDX 29 37 79 38 30 39 84 40 78 41 80 42 31 43 83 44 77 45 76 46
REMARK SMILES IDX 32 48 64 49 44 50 63 51 45 52 48 53 62 54 81 55 46 56 47 57
REMARK SMILES IDX 61 59 82 60 49 61 33 62 34 63 42 64 35 65 41 66 43 67 40 68
REMARK SMILES IDX 36 69 37 70 38 71 39 72 65 73 66 74 74 75 67 76 73 77 75 78
REMARK SMILES IDX 72 79 68 80 69 81 70 82 71 83 50 84 51 85 59 86 52 87 58 88
REMARK SMILES IDX 60 89 57 90 53 91 54 92 55 93 56 94
REMARK H PARENT 14 7 5 16 21 28 80 47 48 58
REMARK Flexibility Score: inf
ROOT
ATOM      1  C   UNL A   1      33.897  26.606  25.368  1.00  0.00     0.002 C 
ENDROOT
BRANCH   1   2
ATOM      2  C   UNL A   1      34.405  25.158  25.472  1.00  0.00     0.021 C 
BRANCH   2   3
ATOM      3  C   UNL A   1      34.085  24.312  24.232  1.00  0.00     0.116 C 
BRANCH   3   4
ATOM      4  N   UNL A   1      32.644  24.179  24.107  1.00  0.00    -0.352 N 
ATOM      5  C   UNL A   1      31.793  23.133  23.840  1.00  0.00     0.255 C 
ATOM      6  O   UNL A   1      30.681  23.480  23.452  1.00  0.00    -0.269 OA
ATOM      7  H   UNL A   1      32.169  25.031  24.244  1.00  0.00     0.163 HD
BRANCH   5   8
ATOM      8  C   UNL A   1      32.162  21.687  24.014  1.00  0.00     0.083 A 
ATOM      9  C   UNL A   1      33.118  18.960  24.001  1.00  0.00     0.057 A 
ATOM     10  C   UNL A   1      33.207  19.790  25.131  1.00  0.00     0.074 A 
ATOM     11  C   UNL A   1      32.475  19.513  22.892  1.00  0.00     0.065 A 
ATOM     12  C   UNL A   1      32.757  21.137  25.163  1.00  0.00     0.133 A 
ATOM     13  C   UNL A   1      31.948  20.813  22.939  1.00  0.00     0.040 A 
ATOM     14  Cl  UNL A   1      32.221  18.664  21.407  1.00  0.00    -0.082 Cl
BRANCH   9  15
ATOM     15  N   UNL A   1      33.717  17.708  24.075  1.00  0.00    -0.381 N 
ATOM     16  H   UNL A   1      34.136  17.348  23.260  1.00  0.00     0.160 HD
BRANCH  15  17
ATOM     17  C   UNL A   1      33.764  16.890  25.291  1.00  0.00     0.075 C 
ATOM     18  C   UNL A   1      34.982  15.967  25.234  1.00  0.00     0.031 C 
BRANCH  17  19
ATOM     19  C   UNL A   1      32.461  16.062  25.361  1.00  0.00     0.021 C 
ATOM     20  C   UNL A   1      32.689  14.580  25.634  1.00  0.00     0.006 C 
ENDBRANCH  17  19
ENDBRANCH  15  17
ENDBRANCH   9  15
BRANCH  12  21
ATOM     21  O   UNL A   1      33.112  21.711  26.355  1.00  0.00    -0.496 OA
ATOM     22  C   UNL A   1      34.441  21.611  26.838  1.00  0.00     0.278 C 
ENDBRANCH  12  21
ENDBRANCH   5   8
ENDBRANCH   3   4
ENDBRANCH   2   3
ENDBRANCH   1   2
BRANCH   1  23
ATOM     23  C   UNL A   1      32.929  27.023  26.481  1.00  0.00     0.002 C 
BRANCH  23  24
ATOM     24  C   UNL A   1      32.608  28.518  26.515  1.00  0.00     0.021 C 
BRANCH  24  25
ATOM     25  C   UNL A   1      33.778  29.410  26.115  1.00  0.00     0.116 C 
BRANCH  25  26
ATOM     26  N   UNL A   1      33.636  30.746  26.672  1.00  0.00    -0.352 N 
ATOM     27  C   UNL A   1      34.340  31.329  27.696  1.00  0.00     0.251 C 
ATOM     28  H   UNL A   1      32.943  31.308  26.257  1.00  0.00     0.163 HD
ATOM     29  O   UNL A   1      33.916  32.349  28.227  1.00  0.00    -0.269 OA
BRANCH  27  30
ATOM     30  C   UNL A   1      35.599  30.706  28.156  1.00  0.00     0.039 A 
ATOM     31  C   UNL A   1      36.815  31.315  27.844  1.00  0.00     0.014 A 
ATOM     32  C   UNL A   1      35.572  29.519  28.895  1.00  0.00     0.014 A 
ATOM     33  C   UNL A   1      38.004  30.760  28.320  1.00  0.00     0.010 A 
ATOM     34  C   UNL A   1      36.750  29.012  29.434  1.00  0.00     0.010 A 
ATOM     35  C   UNL A   1      37.980  29.622  29.143  1.00  0.00    -0.014 A 
BRANCH  35  36
ATOM     36  C   UNL A   1      39.230  29.046  29.701  1.00  0.00     0.031 A 
ATOM     37  C   UNL A   1      39.854  29.651  30.928  1.00  0.00     0.074 A 
ATOM     38  C   UNL A   1      39.827  28.016  29.072  1.00  0.00     0.049 A 
ATOM     39  N   UNL A   1      40.970  29.332  31.534  1.00  0.00    -0.248 NA
ATOM     40  C   UNL A   1      39.144  30.786  31.533  1.00  0.00     0.031 C 
ATOM     41  C   UNL A   1      39.330  27.364  27.858  1.00  0.00     0.029 A 
ATOM     42  N   UNL A   1      40.981  27.335  29.364  1.00  0.00    -0.354 N 
ATOM     43  C   UNL A   1      41.098  30.231  32.587  1.00  0.00     0.074 A 
ATOM     44  C   UNL A   1      39.987  31.154  32.484  1.00  0.00     0.031 C 
ATOM     45  C   UNL A   1      40.151  26.353  27.534  1.00  0.00     0.029 A 
ATOM     46  C   UNL A   1      41.260  26.316  28.482  1.00  0.00     0.049 A 
ATOM     47  H   UNL A   1      41.557  27.555  30.131  1.00  0.00     0.167 HD
ATOM     48  C   UNL A   1      42.038  30.267  33.565  1.00  0.00     0.034 A 
ATOM     49  C   UNL A   1      42.295  25.455  28.441  1.00  0.00     0.034 A 
ATOM     50  C   UNL A   1      43.141  29.340  33.645  1.00  0.00     0.049 A 
ATOM     51  C   UNL A   1      43.367  25.556  29.497  1.00  0.00     0.074 A 
ATOM     52  C   UNL A   1      44.127  29.252  34.612  1.00  0.00     0.029 A 
ATOM     53  N   UNL A   1      43.414  28.345  32.712  1.00  0.00    -0.354 N 
ATOM     54  N   UNL A   1      43.449  26.380  30.517  1.00  0.00    -0.248 NA
ATOM     55  C   UNL A   1      44.479  24.604  29.399  1.00  0.00     0.031 C 
ATOM     56  C   UNL A   1      45.038  28.262  34.223  1.00  0.00     0.029 A 
ATOM     57  C   UNL A   1      44.575  27.669  33.059  1.00  0.00     0.049 A 
ATOM     58  H   UNL A   1      42.863  28.149  31.920  1.00  0.00     0.167 HD
ATOM     59  C   UNL A   1      44.609  26.020  31.201  1.00  0.00     0.074 A 
ATOM     60  C   UNL A   1      45.180  24.899  30.484  1.00  0.00     0.031 C 
ATOM     61  C   UNL A   1      45.146  26.562  32.324  1.00  0.00     0.034 A 
BRANCH  48  62
ATOM     62  C   UNL A   1      41.919  31.367  34.596  1.00  0.00     0.023 A 
ATOM     63  C   UNL A   1      40.913  31.349  35.580  1.00  0.00     0.031 A 
ATOM     64  C   UNL A   1      42.778  32.480  34.561  1.00  0.00     0.131 A 
ATOM     65  C   UNL A   1      40.724  32.462  36.413  1.00  0.00     0.055 A 
ATOM     66  C   UNL A   1      42.648  33.541  35.460  1.00  0.00     0.041 A 
ATOM     67  F   UNL A   1      43.745  32.569  33.634  1.00  0.00    -0.206 F 
ATOM     68  C   UNL A   1      41.601  33.547  36.378  1.00  0.00     0.022 A 
BRANCH  65  69
ATOM     69  S   UNL A   1      39.204  32.552  37.399  1.00  0.00     0.124 S 
ATOM     70  O   UNL A   1      38.600  33.784  36.897  1.00  0.00    -0.237 OA
ATOM     71  O   UNL A   1      38.523  31.313  37.042  1.00  0.00    -0.237 OA
ATOM     72  O   UNL A   1      39.693  32.624  38.774  1.00  0.00    -0.744 OA
ENDBRANCH  65  69
ENDBRANCH  48  62
BRANCH  49  73
ATOM     73  C   UNL A   1      42.373  24.418  27.373  1.00  0.00     0.023 A 
ATOM     74  C   UNL A   1      41.739  23.176  27.535  1.00  0.00     0.031 A 
ATOM     75  C   UNL A   1      43.109  24.635  26.194  1.00  0.00     0.131 A 
ATOM     76  C   UNL A   1      41.887  22.183  26.556  1.00  0.00     0.055 A 
ATOM     77  C   UNL A   1      43.207  23.662  25.198  1.00  0.00     0.041 A 
ATOM     78  F   UNL A   1      43.733  25.806  25.988  1.00  0.00    -0.206 F 
ATOM     79  C   UNL A   1      42.604  22.423  25.381  1.00  0.00     0.022 A 
BRANCH  76  80
ATOM     80  S   UNL A   1      41.193  20.539  26.878  1.00  0.00     0.124 S 
ATOM     81  O   UNL A   1      40.070  20.504  25.947  1.00  0.00    -0.237 OA
ATOM     82  O   UNL A   1      42.318  19.667  26.561  1.00  0.00    -0.237 OA
ATOM     83  O   UNL A   1      40.829  20.594  28.293  1.00  0.00    -0.744 OA
ENDBRANCH  76  80
ENDBRANCH  49  73
BRANCH  61  84
ATOM     84  C   UNL A   1      46.398  25.913  32.866  1.00  0.00     0.023 A 
ATOM     85  C   UNL A   1      47.681  26.319  32.458  1.00  0.00     0.031 A 
ATOM     86  C   UNL A   1      46.304  24.860  33.794  1.00  0.00     0.131 A 
ATOM     87  C   UNL A   1      48.814  25.637  32.929  1.00  0.00     0.055 A 
ATOM     88  C   UNL A   1      47.437  24.231  34.311  1.00  0.00     0.041 A 
ATOM     89  F   UNL A   1      45.105  24.426  34.216  1.00  0.00    -0.206 F 
ATOM     90  C   UNL A   1      48.701  24.609  33.867  1.00  0.00     0.022 A 
BRANCH  87  91
ATOM     91  S   UNL A   1      50.432  26.045  32.219  1.00  0.00     0.124 S 
ATOM     92  O   UNL A   1      50.059  26.753  31.000  1.00  0.00    -0.237 OA
ATOM     93  O   UNL A   1      51.038  26.858  33.268  1.00  0.00    -0.237 OA
ATOM     94  O   UNL A   1      51.054  24.738  32.012  1.00  0.00    -0.744 OA
ENDBRANCH  87  91
ENDBRANCH  61  84
ENDBRANCH  35  36
ENDBRANCH  27  30
ENDBRANCH  25  26
ENDBRANCH  24  25
ENDBRANCH  23  24
ENDBRANCH   1  23
TORSDOF 20
ENDMDL
MODEL 3
REMARK VINA RESULT:     -10.8      2.537      8.160
REMARK SMILES CC[C@@H](C)Nc1cc(OC)c(C(=O)NCCCCCCNC(=O)c2ccc(-c3c4nc(c(-c5cc(S(=O)(=O)[O-])ccc5F)c5ccc([nH]5)c(-c5cc(S(=O)(=O)[O-])ccc5F)c5nc(c(-c6cc(S(=O)(=O)[O-])ccc6F)c6ccc3[nH]6)C=C5)C=C4)cc2)cc1Cl
REMARK SMILES IDX 17 1 16 2 15 3 14 4 12 5 13 6 11 8 6 9 7 10 88 11 8 12 87 13
REMARK SMILES IDX 89 14 5 15 3 17 4 18 2 19 1 20 9 21 10 22 18 23 19 24 20 25
REMARK SMILES IDX 21 26 22 27 23 29 24 30 25 31 86 32 26 33 85 34 27 35 28 36
REMARK SMILES IDX 29 37 79 38 30 39 84 40 78 41 80 42 31 43 83 44 77 45 76 46
REMARK SMILES IDX 32 48 64 49 44 50 63 51 45 52 48 53 62 54 81 55 46 56 47 57
REMARK SMILES IDX 61 59 82 60 49 61 33 62 34 63 42 64 35 65 41 66 43 67 40 68
REMARK SMILES IDX 36 69 37 70 38 71 39 72 65 73 66 74 74 75 67 76 73 77 75 78
REMARK SMILES IDX 72 79 68 80 69 81 70 82 71 83 50 84 51 85 59 86 52 87 58 88
REMARK SMILES IDX 60 89 57 90 53 91 54 92 55 93 56 94
REMARK H PARENT 14 7 5 16 21 28 80 47 48 58
REMARK Flexibility Score: inf
ROOT
ATOM      1  C   UNL A   1      33.004  27.164  26.501  1.00  0.00     0.002 C 
ENDROOT
BRANCH   1   2
ATOM      2  C   UNL A   1      32.767  26.708  25.051  1.00  0.00     0.021 C 
BRANCH   2   3
ATOM      3  C   UNL A   1      33.710  27.377  24.042  1.00  0.00     0.116 C 
BRANCH   3   4
ATOM      4  N   UNL A   1      33.276  27.047  22.696  1.00  0.00    -0.352 N 
ATOM      5  C   UNL A   1      33.288  25.902  21.935  1.00  0.00     0.255 C 
ATOM      6  O   UNL A   1      33.178  26.104  20.727  1.00  0.00    -0.269 OA
ATOM      7  H   UNL A   1      32.887  27.816  22.221  1.00  0.00     0.163 HD
BRANCH   5   8
ATOM      8  C   UNL A   1      33.406  24.517  22.504  1.00  0.00     0.083 A 
ATOM      9  C   UNL A   1      33.864  22.035  23.913  1.00  0.00     0.057 A 
ATOM     10  C   UNL A   1      32.581  22.480  23.556  1.00  0.00     0.074 A 
ATOM     11  C   UNL A   1      34.924  22.838  23.484  1.00  0.00     0.065 A 
ATOM     12  C   UNL A   1      32.324  23.700  22.876  1.00  0.00     0.133 A 
ATOM     13  C   UNL A   1      34.689  24.001  22.735  1.00  0.00     0.040 A 
ATOM     14  Cl  UNL A   1      36.588  22.469  23.778  1.00  0.00    -0.082 Cl
BRANCH   9  15
ATOM     15  N   UNL A   1      33.954  20.887  24.690  1.00  0.00    -0.381 N 
ATOM     16  H   UNL A   1      34.631  20.216  24.445  1.00  0.00     0.160 HD
BRANCH  15  17
ATOM     17  C   UNL A   1      33.103  20.615  25.853  1.00  0.00     0.075 C 
ATOM     18  C   UNL A   1      33.828  21.056  27.126  1.00  0.00     0.031 C 
BRANCH  17  19
ATOM     19  C   UNL A   1      32.820  19.095  25.892  1.00  0.00     0.021 C 
ATOM     20  C   UNL A   1      32.497  18.497  24.528  1.00  0.00     0.006 C 
ENDBRANCH  17  19
ENDBRANCH  15  17
ENDBRANCH   9  15
BRANCH  12  21
ATOM     21  O   UNL A   1      30.972  23.910  22.803  1.00  0.00    -0.496 OA
ATOM     22  C   UNL A   1      30.346  24.876  23.629  1.00  0.00     0.278 C 
ENDBRANCH  12  21
ENDBRANCH   5   8
ENDBRANCH   3   4
ENDBRANCH   2   3
ENDBRANCH   1   2
BRANCH   1  23
ATOM     23  C   UNL A   1      31.777  27.777  27.186  1.00  0.00     0.002 C 
BRANCH  23  24
ATOM     24  C   UNL A   1      31.753  29.306  27.195  1.00  0.00     0.021 C 
BRANCH  24  25
ATOM     25  C   UNL A   1      33.033  29.946  26.670  1.00  0.00     0.116 C 
BRANCH  25  26
ATOM     26  N   UNL A   1      33.032  31.383  26.892  1.00  0.00    -0.352 N 
ATOM     27  C   UNL A   1      33.853  32.128  27.703  1.00  0.00     0.251 C 
ATOM     28  H   UNL A   1      32.353  31.890  26.393  1.00  0.00     0.163 HD
ATOM     29  O   UNL A   1      33.547  33.278  27.993  1.00  0.00    -0.269 OA
BRANCH  27  30
ATOM     30  C   UNL A   1      35.094  31.521  28.229  1.00  0.00     0.039 A 
ATOM     31  C   UNL A   1      36.288  32.240  28.158  1.00  0.00     0.014 A 
ATOM     32  C   UNL A   1      35.072  30.241  28.791  1.00  0.00     0.014 A 
ATOM     33  C   UNL A   1      37.453  31.694  28.701  1.00  0.00     0.010 A 
ATOM     34  C   UNL A   1      36.215  29.733  29.400  1.00  0.00     0.010 A 
ATOM     35  C   UNL A   1      37.420  30.451  29.353  1.00  0.00    -0.014 A 
BRANCH  35  36
ATOM     36  C   UNL A   1      38.637  29.876  29.980  1.00  0.00     0.031 A 
ATOM     37  C   UNL A   1      39.092  30.367  31.327  1.00  0.00     0.074 A 
ATOM     38  C   UNL A   1      39.358  28.954  29.314  1.00  0.00     0.049 A 
ATOM     39  N   UNL A   1      40.155  30.036  32.015  1.00  0.00    -0.248 NA
ATOM     40  C   UNL A   1      38.254  31.390  31.968  1.00  0.00     0.031 C 
ATOM     41  C   UNL A   1      39.032  28.421  27.990  1.00  0.00     0.029 A 
ATOM     42  N   UNL A   1      40.514  28.302  29.657  1.00  0.00    -0.354 N 
ATOM     43  C   UNL A   1      40.117  30.814  33.167  1.00  0.00     0.074 A 
ATOM     44  C   UNL A   1      38.969  31.688  33.041  1.00  0.00     0.031 C 
ATOM     45  C   UNL A   1      39.942  27.495  27.652  1.00  0.00     0.029 A 
ATOM     46  C   UNL A   1      40.946  27.404  28.708  1.00  0.00     0.049 A 
ATOM     47  H   UNL A   1      40.992  28.460  30.503  1.00  0.00     0.167 HD
ATOM     48  C   UNL A   1      40.945  30.784  34.241  1.00  0.00     0.034 A 
ATOM     49  C   UNL A   1      42.030  26.605  28.689  1.00  0.00     0.034 A 
ATOM     50  C   UNL A   1      42.088  29.908  34.343  1.00  0.00     0.049 A 
ATOM     51  C   UNL A   1      42.976  26.636  29.862  1.00  0.00     0.074 A 
ATOM     52  C   UNL A   1      42.970  29.758  35.398  1.00  0.00     0.029 A 
ATOM     53  N   UNL A   1      42.517  29.040  33.345  1.00  0.00    -0.354 N 
ATOM     54  N   UNL A   1      42.901  27.342  30.968  1.00  0.00    -0.248 NA
ATOM     55  C   UNL A   1      44.148  25.757  29.786  1.00  0.00     0.031 C 
ATOM     56  C   UNL A   1      43.975  28.865  35.008  1.00  0.00     0.029 A 
ATOM     57  C   UNL A   1      43.673  28.386  33.743  1.00  0.00     0.049 A 
ATOM     58  H   UNL A   1      42.065  28.909  32.480  1.00  0.00     0.167 HD
ATOM     59  C   UNL A   1      44.002  26.963  31.733  1.00  0.00     0.074 A 
ATOM     60  C   UNL A   1      44.712  25.959  30.968  1.00  0.00     0.031 C 
ATOM     61  C   UNL A   1      44.384  27.399  32.961  1.00  0.00     0.034 A 
BRANCH  48  62
ATOM     62  C   UNL A   1      40.652  31.752  35.365  1.00  0.00     0.023 A 
ATOM     63  C   UNL A   1      39.589  31.540  36.263  1.00  0.00     0.031 A 
ATOM     64  C   UNL A   1      41.400  32.934  35.508  1.00  0.00     0.131 A 
ATOM     65  C   UNL A   1      39.238  32.536  37.186  1.00  0.00     0.055 A 
ATOM     66  C   UNL A   1      41.109  33.877  36.497  1.00  0.00     0.041 A 
ATOM     67  F   UNL A   1      42.414  33.208  34.672  1.00  0.00    -0.206 F 
ATOM     68  C   UNL A   1      40.007  33.692  37.328  1.00  0.00     0.022 A 
BRANCH  65  69
ATOM     69  S   UNL A   1      37.654  32.385  38.058  1.00  0.00     0.124 S 
ATOM     70  O   UNL A   1      37.425  30.942  38.003  1.00  0.00    -0.237 OA
ATOM     71  O   UNL A   1      37.964  32.935  39.372  1.00  0.00    -0.237 OA
ATOM     72  O   UNL A   1      36.739  33.183  37.245  1.00  0.00    -0.744 OA
ENDBRANCH  65  69
ENDBRANCH  48  62
BRANCH  49  73
ATOM     73  C   UNL A   1      42.282  25.701  27.531  1.00  0.00     0.023 A 
ATOM     74  C   UNL A   1      41.700  24.424  27.480  1.00  0.00     0.031 A 
ATOM     75  C   UNL A   1      43.133  26.081  26.477  1.00  0.00     0.131 A 
ATOM     76  C   UNL A   1      42.009  23.556  26.422  1.00  0.00     0.055 A 
ATOM     77  C   UNL A   1      43.394  25.233  25.399  1.00  0.00     0.041 A 
ATOM     78  F   UNL A   1      43.713  27.292  26.475  1.00  0.00    -0.206 F 
ATOM     79  C   UNL A   1      42.840  23.958  25.374  1.00  0.00     0.022 A 
BRANCH  76  80
ATOM     80  S   UNL A   1      41.371  21.860  26.479  1.00  0.00     0.124 S 
ATOM     81  O   UNL A   1      41.480  21.550  27.900  1.00  0.00    -0.237 OA
ATOM     82  O   UNL A   1      40.019  22.026  25.958  1.00  0.00    -0.237 OA
ATOM     83  O   UNL A   1      42.285  21.123  25.608  1.00  0.00    -0.744 OA
ENDBRANCH  76  80
ENDBRANCH  49  73
BRANCH  61  84
ATOM     84  C   UNL A   1      45.610  26.754  33.566  1.00  0.00     0.023 A 
ATOM     85  C   UNL A   1      45.541  25.531  34.255  1.00  0.00     0.031 A 
ATOM     86  C   UNL A   1      46.863  27.384  33.463  1.00  0.00     0.131 A 
ATOM     87  C   UNL A   1      46.691  25.006  34.866  1.00  0.00     0.055 A 
ATOM     88  C   UNL A   1      48.016  26.823  34.014  1.00  0.00     0.041 A 
ATOM     89  F   UNL A   1      46.989  28.557  32.821  1.00  0.00    -0.206 F 
ATOM     90  C   UNL A   1      47.931  25.635  34.733  1.00  0.00     0.022 A 
BRANCH  87  91
ATOM     91  S   UNL A   1      46.524  23.543  35.925  1.00  0.00     0.124 S 
ATOM     92  O   UNL A   1      46.646  22.456  34.960  1.00  0.00    -0.237 OA
ATOM     93  O   UNL A   1      47.638  23.699  36.853  1.00  0.00    -0.237 OA
ATOM     94  O   UNL A   1      45.197  23.699  36.518  1.00  0.00    -0.744 OA
ENDBRANCH  87  91
ENDBRANCH  61  84
ENDBRANCH  35  36
ENDBRANCH  27  30
ENDBRANCH  25  26
ENDBRANCH  24  25
ENDBRANCH  23  24
ENDBRANCH   1  23
TORSDOF 20
ENDMDL
