MODEL 1
REMARK VINA RESULT:     -11.0      0.000      0.000
REMARK SMILES C[C@H]1CCCC[C@@H]1n1c(SCC(=O)NCCCCCCNC(=O)c2ccc(-c3c4nc(c(-c5cc(S(=O)(=O)[O-])ccc5F)c5ccc([nH]5)c(-c5cc(S(=O)(=O)[O-])ccc5F)c5nc(c(-c6cc(S(=O)(=O)[O-])ccc6F)c6ccc3[nH]6)C=C5)C=C4)cc2)nc2ccccc2c1=O
REMARK SMILES IDX 17 1 16 2 15 3 14 4 12 5 13 6 11 8 10 9 9 10 8 11 94 12
REMARK SMILES IDX 87 13 93 14 95 15 88 16 92 17 89 18 91 19 90 20 7 21 1 22
REMARK SMILES IDX 2 23 3 24 4 25 6 26 5 27 18 28 19 29 20 30 21 31 22 32 23 34
REMARK SMILES IDX 24 35 25 36 86 37 26 38 85 39 27 40 28 41 29 42 79 43 30 44
REMARK SMILES IDX 84 45 78 46 80 47 31 48 83 49 77 50 76 51 32 53 64 54 44 55
REMARK SMILES IDX 63 56 45 57 48 58 62 59 81 60 46 61 47 62 61 64 82 65 49 66
REMARK SMILES IDX 33 67 34 68 42 69 35 70 41 71 43 72 40 73 36 74 37 75 38 76
REMARK SMILES IDX 39 77 65 78 66 79 74 80 67 81 73 82 75 83 72 84 68 85 69 86
REMARK SMILES IDX 70 87 71 88 50 89 51 90 59 91 52 92 58 93 60 94 57 95 53 96
REMARK SMILES IDX 54 97 55 98 56 99
REMARK H PARENT 14 7 21 33 80 52 48 63
REMARK Flexibility Score: inf
ROOT
ATOM      1  C   UNL A   1      35.359  33.054  28.008  1.00  0.00     0.002 C 
ENDROOT
BRANCH   1   2
ATOM      2  C   UNL A   1      36.187  31.760  28.090  1.00  0.00     0.021 C 
BRANCH   2   3
ATOM      3  C   UNL A   1      35.414  30.445  28.098  1.00  0.00     0.116 C 
BRANCH   3   4
ATOM      4  N   UNL A   1      34.885  30.108  26.803  1.00  0.00    -0.355 N 
ATOM      5  C   UNL A   1      33.649  29.659  26.500  1.00  0.00     0.230 C 
ATOM      6  O   UNL A   1      33.179  30.065  25.428  1.00  0.00    -0.274 OA
ATOM      7  H   UNL A   1      35.501  30.219  26.043  1.00  0.00     0.163 HD
BRANCH   5   8
ATOM      8  C   UNL A   1      32.817  28.747  27.366  1.00  0.00     0.178 C 
BRANCH   8   9
ATOM      9  S   UNL A   1      31.939  27.319  26.800  1.00  0.00    -0.078 SA
BRANCH   9  10
ATOM     10  C   UNL A   1      32.567  26.251  25.576  1.00  0.00     0.172 A 
ATOM     11  N   UNL A   1      32.084  26.014  24.284  1.00  0.00    -0.284 N 
ATOM     12  C   UNL A   1      32.889  25.244  23.443  1.00  0.00     0.262 A 
ATOM     13  N   UNL A   1      33.501  25.515  26.104  1.00  0.00    -0.224 NA
ATOM     14  C   UNL A   1      33.649  24.175  24.099  1.00  0.00     0.066 A 
ATOM     15  O   UNL A   1      32.973  25.356  22.222  1.00  0.00    -0.269 OA
ATOM     16  C   UNL A   1      33.929  24.366  25.439  1.00  0.00     0.079 A 
ATOM     17  C   UNL A   1      33.958  22.974  23.450  1.00  0.00     0.016 A 
ATOM     18  C   UNL A   1      34.551  23.338  26.150  1.00  0.00     0.029 A 
ATOM     19  C   UNL A   1      34.552  21.939  24.174  1.00  0.00     0.001 A 
ATOM     20  C   UNL A   1      34.855  22.124  25.523  1.00  0.00     0.002 A 
BRANCH  11  21
ATOM     21  C   UNL A   1      30.838  26.570  23.709  1.00  0.00     0.096 C 
ATOM     22  C   UNL A   1      31.879  28.700  22.586  1.00  0.00     0.010 C 
ATOM     23  C   UNL A   1      30.751  28.118  23.437  1.00  0.00     0.009 C 
ATOM     24  C   UNL A   1      29.393  28.498  22.790  1.00  0.00     0.005 C 
ATOM     25  C   UNL A   1      28.170  27.897  23.486  1.00  0.00     0.000 C 
ATOM     26  C   UNL A   1      29.649  26.276  24.615  1.00  0.00     0.026 C 
ATOM     27  C   UNL A   1      28.367  26.426  23.809  1.00  0.00     0.002 C 
ENDBRANCH  11  21
ENDBRANCH   9  10
ENDBRANCH   8   9
ENDBRANCH   5   8
ENDBRANCH   3   4
ENDBRANCH   2   3
ENDBRANCH   1   2
BRANCH   1  28
ATOM     28  C   UNL A   1      33.837  32.942  28.160  1.00  0.00     0.002 C 
BRANCH  28  29
ATOM     29  C   UNL A   1      33.053  34.248  28.119  1.00  0.00     0.021 C 
BRANCH  29  30
ATOM     30  C   UNL A   1      33.654  35.388  28.924  1.00  0.00     0.116 C 
BRANCH  30  31
ATOM     31  N   UNL A   1      32.985  35.606  30.196  1.00  0.00    -0.352 N 
ATOM     32  C   UNL A   1      33.307  35.079  31.429  1.00  0.00     0.251 C 
ATOM     33  H   UNL A   1      32.204  36.205  30.176  1.00  0.00     0.163 HD
ATOM     34  O   UNL A   1      32.568  35.249  32.392  1.00  0.00    -0.269 OA
BRANCH  32  35
ATOM     35  C   UNL A   1      34.535  34.261  31.552  1.00  0.00     0.039 A 
ATOM     36  C   UNL A   1      34.448  32.927  31.956  1.00  0.00     0.014 A 
ATOM     37  C   UNL A   1      35.781  34.860  31.361  1.00  0.00     0.014 A 
ATOM     38  C   UNL A   1      35.597  32.261  32.365  1.00  0.00     0.010 A 
ATOM     39  C   UNL A   1      36.943  34.146  31.668  1.00  0.00     0.010 A 
ATOM     40  C   UNL A   1      36.859  32.862  32.230  1.00  0.00    -0.014 A 
BRANCH  40  41
ATOM     41  C   UNL A   1      38.074  32.125  32.675  1.00  0.00     0.031 A 
ATOM     42  C   UNL A   1      38.689  31.048  31.821  1.00  0.00     0.074 A 
ATOM     43  C   UNL A   1      38.649  32.465  33.846  1.00  0.00     0.049 A 
ATOM     44  N   UNL A   1      39.747  30.315  32.057  1.00  0.00    -0.248 NA
ATOM     45  C   UNL A   1      38.032  30.748  30.538  1.00  0.00     0.031 C 
ATOM     46  C   UNL A   1      38.145  33.498  34.751  1.00  0.00     0.029 A 
ATOM     47  N   UNL A   1      39.780  32.000  34.469  1.00  0.00    -0.354 N 
ATOM     48  C   UNL A   1      39.871  29.456  30.969  1.00  0.00     0.074 A 
ATOM     49  C   UNL A   1      38.757  29.732  30.090  1.00  0.00     0.031 C 
ATOM     50  C   UNL A   1      38.990  33.628  35.782  1.00  0.00     0.029 A 
ATOM     51  C   UNL A   1      40.047  32.628  35.663  1.00  0.00     0.049 A 
ATOM     52  H   UNL A   1      40.346  31.286  34.097  1.00  0.00     0.167 HD
ATOM     53  C   UNL A   1      40.836  28.537  30.724  1.00  0.00     0.034 A 
ATOM     54  C   UNL A   1      41.016  32.417  36.577  1.00  0.00     0.034 A 
ATOM     55  C   UNL A   1      41.950  28.291  31.606  1.00  0.00     0.049 A 
ATOM     56  C   UNL A   1      42.053  31.363  36.301  1.00  0.00     0.074 A 
ATOM     57  C   UNL A   1      42.998  27.405  31.429  1.00  0.00     0.029 A 
ATOM     58  N   UNL A   1      42.166  28.924  32.823  1.00  0.00    -0.354 N 
ATOM     59  N   UNL A   1      42.183  30.593  35.245  1.00  0.00    -0.248 NA
ATOM     60  C   UNL A   1      43.077  31.145  37.330  1.00  0.00     0.031 C 
ATOM     61  C   UNL A   1      43.800  27.443  32.569  1.00  0.00     0.029 A 
ATOM     62  C   UNL A   1      43.311  28.420  33.422  1.00  0.00     0.049 A 
ATOM     63  H   UNL A   1      41.593  29.626  33.205  1.00  0.00     0.167 HD
ATOM     64  C   UNL A   1      43.313  29.814  35.474  1.00  0.00     0.074 A 
ATOM     65  C   UNL A   1      43.847  30.226  36.756  1.00  0.00     0.031 C 
ATOM     66  C   UNL A   1      43.851  28.843  34.694  1.00  0.00     0.034 A 
BRANCH  53  67
ATOM     67  C   UNL A   1      40.761  27.720  29.453  1.00  0.00     0.023 A 
ATOM     68  C   UNL A   1      41.628  28.006  28.380  1.00  0.00     0.031 A 
ATOM     69  C   UNL A   1      39.751  26.763  29.248  1.00  0.00     0.131 A 
ATOM     70  C   UNL A   1      41.443  27.376  27.144  1.00  0.00     0.055 A 
ATOM     71  C   UNL A   1      39.603  26.099  28.028  1.00  0.00     0.041 A 
ATOM     72  F   UNL A   1      38.892  26.455  30.234  1.00  0.00    -0.206 F 
ATOM     73  C   UNL A   1      40.442  26.416  26.964  1.00  0.00     0.022 A 
BRANCH  70  74
ATOM     74  S   UNL A   1      42.438  27.832  25.697  1.00  0.00     0.124 S 
ATOM     75  O   UNL A   1      42.195  26.705  24.799  1.00  0.00    -0.237 OA
ATOM     76  O   UNL A   1      41.824  29.094  25.291  1.00  0.00    -0.237 OA
ATOM     77  O   UNL A   1      43.795  27.929  26.220  1.00  0.00    -0.744 OA
ENDBRANCH  70  74
ENDBRANCH  53  67
BRANCH  54  78
ATOM     78  C   UNL A   1      41.044  33.266  37.805  1.00  0.00     0.023 A 
ATOM     79  C   UNL A   1      40.186  32.992  38.888  1.00  0.00     0.031 A 
ATOM     80  C   UNL A   1      41.818  34.435  37.855  1.00  0.00     0.131 A 
ATOM     81  C   UNL A   1      40.053  33.924  39.925  1.00  0.00     0.055 A 
ATOM     82  C   UNL A   1      41.745  35.320  38.934  1.00  0.00     0.041 A 
ATOM     83  F   UNL A   1      42.640  34.748  36.842  1.00  0.00    -0.206 F 
ATOM     84  C   UNL A   1      40.842  35.077  39.965  1.00  0.00     0.022 A 
BRANCH  81  85
ATOM     85  S   UNL A   1      38.741  33.748  41.166  1.00  0.00     0.124 S 
ATOM     86  O   UNL A   1      37.613  33.300  40.356  1.00  0.00    -0.237 OA
ATOM     87  O   UNL A   1      39.313  32.746  42.061  1.00  0.00    -0.237 OA
ATOM     88  O   UNL A   1      38.620  35.087  41.732  1.00  0.00    -0.744 OA
ENDBRANCH  81  85
ENDBRANCH  54  78
BRANCH  66  89
ATOM     89  C   UNL A   1      45.097  28.134  35.174  1.00  0.00     0.023 A 
ATOM     90  C   UNL A   1      44.983  26.995  35.996  1.00  0.00     0.031 A 
ATOM     91  C   UNL A   1      46.377  28.674  34.964  1.00  0.00     0.131 A 
ATOM     92  C   UNL A   1      46.120  26.470  36.623  1.00  0.00     0.055 A 
ATOM     93  C   UNL A   1      47.515  28.110  35.543  1.00  0.00     0.041 A 
ATOM     94  F   UNL A   1      46.540  29.765  34.198  1.00  0.00    -0.206 F 
ATOM     95  C   UNL A   1      47.387  27.014  36.392  1.00  0.00     0.022 A 
BRANCH  92  96
ATOM     96  S   UNL A   1      45.982  25.132  37.841  1.00  0.00     0.124 S 
ATOM     97  O   UNL A   1      46.570  24.005  37.121  1.00  0.00    -0.237 OA
ATOM     98  O   UNL A   1      46.779  25.646  38.952  1.00  0.00    -0.237 OA
ATOM     99  O   UNL A   1      44.548  25.028  38.091  1.00  0.00    -0.744 OA
ENDBRANCH  92  96
ENDBRANCH  66  89
ENDBRANCH  40  41
ENDBRANCH  32  35
ENDBRANCH  30  31
ENDBRANCH  29  30
ENDBRANCH  28  29
ENDBRANCH   1  28
TORSDOF 19
ENDMDL
MODEL 2
REMARK VINA RESULT:     -10.8      2.289      3.088
REMARK SMILES C[C@H]1CCCC[C@@H]1n1c(SCC(=O)NCCCCCCNC(=O)c2ccc(-c3c4nc(c(-c5cc(S(=O)(=O)[O-])ccc5F)c5ccc([nH]5)c(-c5cc(S(=O)(=O)[O-])ccc5F)c5nc(c(-c6cc(S(=O)(=O)[O-])ccc6F)c6ccc3[nH]6)C=C5)C=C4)cc2)nc2ccccc2c1=O
REMARK SMILES IDX 17 1 16 2 15 3 14 4 12 5 13 6 11 8 10 9 9 10 8 11 94 12
REMARK SMILES IDX 87 13 93 14 95 15 88 16 92 17 89 18 91 19 90 20 7 21 1 22
REMARK SMILES IDX 2 23 3 24 4 25 6 26 5 27 18 28 19 29 20 30 21 31 22 32 23 34
REMARK SMILES IDX 24 35 25 36 86 37 26 38 85 39 27 40 28 41 29 42 79 43 30 44
REMARK SMILES IDX 84 45 78 46 80 47 31 48 83 49 77 50 76 51 32 53 64 54 44 55
REMARK SMILES IDX 63 56 45 57 48 58 62 59 81 60 46 61 47 62 61 64 82 65 49 66
REMARK SMILES IDX 33 67 34 68 42 69 35 70 41 71 43 72 40 73 36 74 37 75 38 76
REMARK SMILES IDX 39 77 65 78 66 79 74 80 67 81 73 82 75 83 72 84 68 85 69 86
REMARK SMILES IDX 70 87 71 88 50 89 51 90 59 91 52 92 58 93 60 94 57 95 53 96
REMARK SMILES IDX 54 97 55 98 56 99
REMARK H PARENT 14 7 21 33 80 52 48 63
REMARK Flexibility Score: inf
ROOT
ATOM      1  C   UNL A   1      32.256  29.566  26.995  1.00  0.00     0.002 C 
ENDROOT
BRANCH   1   2
ATOM      2  C   UNL A   1      33.749  29.198  26.953  1.00  0.00     0.021 C 
BRANCH   2   3
ATOM      3  C   UNL A   1      34.311  28.748  25.608  1.00  0.00     0.116 C 
BRANCH   3   4
ATOM      4  N   UNL A   1      33.463  29.114  24.505  1.00  0.00    -0.355 N 
ATOM      5  C   UNL A   1      33.118  28.367  23.436  1.00  0.00     0.230 C 
ATOM      6  O   UNL A   1      31.962  28.528  23.018  1.00  0.00    -0.274 OA
ATOM      7  H   UNL A   1      33.086  30.023  24.534  1.00  0.00     0.163 HD
BRANCH   5   8
ATOM      8  C   UNL A   1      34.009  27.358  22.754  1.00  0.00     0.178 C 
BRANCH   8   9
ATOM      9  S   UNL A   1      33.501  25.759  22.194  1.00  0.00    -0.078 SA
BRANCH   9  10
ATOM     10  C   UNL A   1      33.755  24.309  23.125  1.00  0.00     0.172 A 
ATOM     11  N   UNL A   1      33.052  23.848  24.243  1.00  0.00    -0.284 N 
ATOM     12  C   UNL A   1      33.348  22.558  24.684  1.00  0.00     0.262 A 
ATOM     13  N   UNL A   1      34.867  23.754  22.737  1.00  0.00    -0.224 NA
ATOM     14  C   UNL A   1      34.747  22.142  24.532  1.00  0.00     0.066 A 
ATOM     15  O   UNL A   1      32.562  21.778  25.219  1.00  0.00    -0.269 OA
ATOM     16  C   UNL A   1      35.462  22.778  23.536  1.00  0.00     0.079 A 
ATOM     17  C   UNL A   1      35.362  21.256  25.424  1.00  0.00     0.016 A 
ATOM     18  C   UNL A   1      36.827  22.511  23.411  1.00  0.00     0.029 A 
ATOM     19  C   UNL A   1      36.733  21.017  25.313  1.00  0.00     0.001 A 
ATOM     20  C   UNL A   1      37.464  21.640  24.302  1.00  0.00     0.002 A 
BRANCH  11  21
ATOM     21  C   UNL A   1      31.972  24.575  24.948  1.00  0.00     0.096 C 
ATOM     22  C   UNL A   1      30.123  24.352  23.103  1.00  0.00     0.010 C 
ATOM     23  C   UNL A   1      30.838  25.261  24.100  1.00  0.00     0.009 C 
ATOM     24  C   UNL A   1      29.777  25.926  25.018  1.00  0.00     0.005 C 
ATOM     25  C   UNL A   1      30.360  26.794  26.134  1.00  0.00     0.000 C 
ATOM     26  C   UNL A   1      32.548  25.701  25.798  1.00  0.00     0.026 C 
ATOM     27  C   UNL A   1      31.517  26.108  26.841  1.00  0.00     0.002 C 
ENDBRANCH  11  21
ENDBRANCH   9  10
ENDBRANCH   8   9
ENDBRANCH   5   8
ENDBRANCH   3   4
ENDBRANCH   2   3
ENDBRANCH   1   2
BRANCH   1  28
ATOM     28  C   UNL A   1      31.791  30.772  26.171  1.00  0.00     0.002 C 
BRANCH  28  29
ATOM     29  C   UNL A   1      31.471  32.043  26.949  1.00  0.00     0.021 C 
BRANCH  29  30
ATOM     30  C   UNL A   1      32.678  32.849  27.395  1.00  0.00     0.116 C 
BRANCH  30  31
ATOM     31  N   UNL A   1      32.375  34.251  27.635  1.00  0.00    -0.352 N 
ATOM     32  C   UNL A   1      32.973  35.110  28.532  1.00  0.00     0.251 C 
ATOM     33  H   UNL A   1      31.651  34.635  27.090  1.00  0.00     0.163 HD
ATOM     34  O   UNL A   1      32.519  36.234  28.717  1.00  0.00    -0.269 OA
BRANCH  32  35
ATOM     35  C   UNL A   1      34.141  34.629  29.304  1.00  0.00     0.039 A 
ATOM     36  C   UNL A   1      35.413  34.638  28.728  1.00  0.00     0.014 A 
ATOM     37  C   UNL A   1      33.945  34.074  30.570  1.00  0.00     0.014 A 
ATOM     38  C   UNL A   1      36.438  33.914  29.323  1.00  0.00     0.010 A 
ATOM     39  C   UNL A   1      35.010  33.441  31.218  1.00  0.00     0.010 A 
ATOM     40  C   UNL A   1      36.251  33.303  30.574  1.00  0.00    -0.014 A 
BRANCH  40  41
ATOM     41  C   UNL A   1      37.367  32.533  31.190  1.00  0.00     0.031 A 
ATOM     42  C   UNL A   1      38.105  31.476  30.414  1.00  0.00     0.074 A 
ATOM     43  C   UNL A   1      37.740  32.825  32.452  1.00  0.00     0.049 A 
ATOM     44  N   UNL A   1      39.101  30.718  30.797  1.00  0.00    -0.248 NA
ATOM     45  C   UNL A   1      37.669  31.228  29.029  1.00  0.00     0.031 C 
ATOM     46  C   UNL A   1      37.102  33.836  33.295  1.00  0.00     0.029 A 
ATOM     47  N   UNL A   1      38.747  32.322  33.238  1.00  0.00    -0.354 N 
ATOM     48  C   UNL A   1      39.397  29.894  29.716  1.00  0.00     0.074 A 
ATOM     49  C   UNL A   1      38.449  30.216  28.673  1.00  0.00     0.031 C 
ATOM     50  C   UNL A   1      37.764  33.918  34.456  1.00  0.00     0.029 A 
ATOM     51  C   UNL A   1      38.816  32.907  34.481  1.00  0.00     0.049 A 
ATOM     52  H   UNL A   1      39.360  31.612  32.941  1.00  0.00     0.167 HD
ATOM     53  C   UNL A   1      40.380  28.968  29.603  1.00  0.00     0.034 A 
ATOM     54  C   UNL A   1      39.616  32.651  35.536  1.00  0.00     0.034 A 
ATOM     55  C   UNL A   1      41.328  28.676  30.650  1.00  0.00     0.049 A 
ATOM     56  C   UNL A   1      40.674  31.590  35.401  1.00  0.00     0.074 A 
ATOM     57  C   UNL A   1      42.382  27.780  30.620  1.00  0.00     0.029 A 
ATOM     58  N   UNL A   1      41.344  29.265  31.908  1.00  0.00    -0.354 N 
ATOM     59  N   UNL A   1      40.972  30.853  34.355  1.00  0.00    -0.248 NA
ATOM     60  C   UNL A   1      41.509  31.322  36.578  1.00  0.00     0.031 C 
ATOM     61  C   UNL A   1      42.982  27.767  31.879  1.00  0.00     0.029 A 
ATOM     62  C   UNL A   1      42.367  28.723  32.671  1.00  0.00     0.049 A 
ATOM     63  H   UNL A   1      40.721  29.963  32.213  1.00  0.00     0.167 HD
ATOM     64  C   UNL A   1      42.039  30.049  34.742  1.00  0.00     0.074 A 
ATOM     65  C   UNL A   1      42.354  30.411  36.109  1.00  0.00     0.031 C 
ATOM     66  C   UNL A   1      42.690  29.096  34.030  1.00  0.00     0.034 A 
BRANCH  53  67
ATOM     67  C   UNL A   1      40.510  28.195  28.310  1.00  0.00     0.023 A 
ATOM     68  C   UNL A   1      39.929  26.917  28.192  1.00  0.00     0.031 A 
ATOM     69  C   UNL A   1      41.318  28.652  27.253  1.00  0.00     0.131 A 
ATOM     70  C   UNL A   1      40.197  26.127  27.067  1.00  0.00     0.055 A 
ATOM     71  C   UNL A   1      41.540  27.881  26.110  1.00  0.00     0.041 A 
ATOM     72  F   UNL A   1      41.902  29.860  27.314  1.00  0.00    -0.206 F 
ATOM     73  C   UNL A   1      40.990  26.606  26.021  1.00  0.00     0.022 A 
BRANCH  70  74
ATOM     74  S   UNL A   1      39.596  24.419  26.952  1.00  0.00     0.124 S 
ATOM     75  O   UNL A   1      38.734  24.485  25.774  1.00  0.00    -0.237 OA
ATOM     76  O   UNL A   1      40.838  23.671  26.775  1.00  0.00    -0.237 OA
ATOM     77  O   UNL A   1      38.903  24.204  28.217  1.00  0.00    -0.744 OA
ENDBRANCH  70  74
ENDBRANCH  53  67
BRANCH  54  78
ATOM     78  C   UNL A   1      39.447  33.458  36.781  1.00  0.00     0.023 A 
ATOM     79  C   UNL A   1      40.240  34.599  37.010  1.00  0.00     0.031 A 
ATOM     80  C   UNL A   1      38.600  33.024  37.812  1.00  0.00     0.131 A 
ATOM     81  C   UNL A   1      40.240  35.206  38.272  1.00  0.00     0.055 A 
ATOM     82  C   UNL A   1      38.540  33.685  39.041  1.00  0.00     0.041 A 
ATOM     83  F   UNL A   1      37.834  31.935  37.647  1.00  0.00    -0.206 F 
ATOM     84  C   UNL A   1      39.380  34.768  39.284  1.00  0.00     0.022 A 
BRANCH  81  85
ATOM     85  S   UNL A   1      41.469  36.474  38.691  1.00  0.00     0.124 S 
ATOM     86  O   UNL A   1      42.119  35.894  39.861  1.00  0.00    -0.237 OA
ATOM     87  O   UNL A   1      42.277  36.516  37.474  1.00  0.00    -0.237 OA
ATOM     88  O   UNL A   1      40.664  37.665  38.941  1.00  0.00    -0.744 OA
ENDBRANCH  81  85
ENDBRANCH  54  78
BRANCH  66  89
ATOM     89  C   UNL A   1      43.831  28.352  34.686  1.00  0.00     0.023 A 
ATOM     90  C   UNL A   1      43.589  27.118  35.322  1.00  0.00     0.031 A 
ATOM     91  C   UNL A   1      45.102  28.934  34.829  1.00  0.00     0.131 A 
ATOM     92  C   UNL A   1      44.584  26.536  36.118  1.00  0.00     0.055 A 
ATOM     93  C   UNL A   1      46.110  28.320  35.575  1.00  0.00     0.041 A 
ATOM     94  F   UNL A   1      45.381  30.114  34.253  1.00  0.00    -0.206 F 
ATOM     95  C   UNL A   1      45.847  27.125  36.239  1.00  0.00     0.022 A 
BRANCH  92  96
ATOM     96  S   UNL A   1      44.241  25.055  37.109  1.00  0.00     0.124 S 
ATOM     97  O   UNL A   1      44.770  25.436  38.416  1.00  0.00    -0.237 OA
ATOM     98  O   UNL A   1      42.786  24.963  37.028  1.00  0.00    -0.237 OA
ATOM     99  O   UNL A   1      44.977  23.996  36.427  1.00  0.00    -0.744 OA
ENDBRANCH  92  96
ENDBRANCH  66  89
ENDBRANCH  40  41
ENDBRANCH  32  35
ENDBRANCH  30  31
ENDBRANCH  29  30
ENDBRANCH  28  29
ENDBRANCH   1  28
TORSDOF 19
ENDMDL
MODEL 3
REMARK VINA RESULT:     -10.6      2.038      7.792
REMARK SMILES C[C@H]1CCCC[C@@H]1n1c(SCC(=O)NCCCCCCNC(=O)c2ccc(-c3c4nc(c(-c5cc(S(=O)(=O)[O-])ccc5F)c5ccc([nH]5)c(-c5cc(S(=O)(=O)[O-])ccc5F)c5nc(c(-c6cc(S(=O)(=O)[O-])ccc6F)c6ccc3[nH]6)C=C5)C=C4)cc2)nc2ccccc2c1=O
REMARK SMILES IDX 17 1 16 2 15 3 14 4 12 5 13 6 11 8 10 9 9 10 8 11 94 12
REMARK SMILES IDX 87 13 93 14 95 15 88 16 92 17 89 18 91 19 90 20 7 21 1 22
REMARK SMILES IDX 2 23 3 24 4 25 6 26 5 27 18 28 19 29 20 30 21 31 22 32 23 34
REMARK SMILES IDX 24 35 25 36 86 37 26 38 85 39 27 40 28 41 29 42 79 43 30 44
REMARK SMILES IDX 84 45 78 46 80 47 31 48 83 49 77 50 76 51 32 53 64 54 44 55
REMARK SMILES IDX 63 56 45 57 48 58 62 59 81 60 46 61 47 62 61 64 82 65 49 66
REMARK SMILES IDX 33 67 34 68 42 69 35 70 41 71 43 72 40 73 36 74 37 75 38 76
REMARK SMILES IDX 39 77 65 78 66 79 74 80 67 81 73 82 75 83 72 84 68 85 69 86
REMARK SMILES IDX 70 87 71 88 50 89 51 90 59 91 52 92 58 93 60 94 57 95 53 96
REMARK SMILES IDX 54 97 55 98 56 99
REMARK H PARENT 14 7 21 33 80 52 48 63
REMARK Flexibility Score: inf
ROOT
ATOM      1  C   UNL A   1      32.354  29.187  27.108  1.00  0.00     0.002 C 
ENDROOT
BRANCH   1   2
ATOM      2  C   UNL A   1      33.498  28.227  26.738  1.00  0.00     0.021 C 
BRANCH   2   3
ATOM      3  C   UNL A   1      34.033  28.307  25.313  1.00  0.00     0.116 C 
BRANCH   3   4
ATOM      4  N   UNL A   1      33.059  28.821  24.386  1.00  0.00    -0.355 N 
ATOM      5  C   UNL A   1      32.689  28.303  23.196  1.00  0.00     0.230 C 
ATOM      6  O   UNL A   1      31.490  28.429  22.906  1.00  0.00    -0.274 OA
ATOM      7  H   UNL A   1      32.606  29.653  24.653  1.00  0.00     0.163 HD
BRANCH   5   8
ATOM      8  C   UNL A   1      33.601  27.579  22.239  1.00  0.00     0.178 C 
BRANCH   8   9
ATOM      9  S   UNL A   1      33.358  25.931  21.643  1.00  0.00    -0.078 SA
BRANCH   9  10
ATOM     10  C   UNL A   1      33.486  24.529  22.669  1.00  0.00     0.172 A 
ATOM     11  N   UNL A   1      32.677  24.152  23.747  1.00  0.00    -0.284 N 
ATOM     12  C   UNL A   1      32.893  22.881  24.281  1.00  0.00     0.262 A 
ATOM     13  N   UNL A   1      34.607  23.922  22.408  1.00  0.00    -0.224 NA
ATOM     14  C   UNL A   1      34.285  22.418  24.271  1.00  0.00     0.066 A 
ATOM     15  O   UNL A   1      32.040  22.156  24.789  1.00  0.00    -0.269 OA
ATOM     16  C   UNL A   1      35.101  22.976  23.306  1.00  0.00     0.079 A 
ATOM     17  C   UNL A   1      34.795  21.567  25.258  1.00  0.00     0.016 A 
ATOM     18  C   UNL A   1      36.462  22.664  23.312  1.00  0.00     0.029 A 
ATOM     19  C   UNL A   1      36.161  21.282  25.277  1.00  0.00     0.001 A 
ATOM     20  C   UNL A   1      36.994  21.826  24.299  1.00  0.00     0.002 A 
BRANCH  11  21
ATOM     21  C   UNL A   1      31.568  24.949  24.318  1.00  0.00     0.096 C 
ATOM     22  C   UNL A   1      32.298  24.831  26.834  1.00  0.00     0.010 C 
ATOM     23  C   UNL A   1      31.161  24.717  25.821  1.00  0.00     0.009 C 
ATOM     24  C   UNL A   1      30.017  25.677  26.246  1.00  0.00     0.005 C 
ATOM     25  C   UNL A   1      28.846  25.740  25.264  1.00  0.00     0.000 C 
ATOM     26  C   UNL A   1      30.281  24.719  23.536  1.00  0.00     0.026 C 
ATOM     27  C   UNL A   1      29.318  25.860  23.825  1.00  0.00     0.002 C 
ENDBRANCH  11  21
ENDBRANCH   9  10
ENDBRANCH   8   9
ENDBRANCH   5   8
ENDBRANCH   3   4
ENDBRANCH   2   3
ENDBRANCH   1   2
BRANCH   1  28
ATOM     28  C   UNL A   1      32.054  30.347  26.150  1.00  0.00     0.002 C 
BRANCH  28  29
ATOM     29  C   UNL A   1      31.701  31.683  26.793  1.00  0.00     0.021 C 
BRANCH  29  30
ATOM     30  C   UNL A   1      32.872  32.442  27.391  1.00  0.00     0.116 C 
BRANCH  30  31
ATOM     31  N   UNL A   1      32.590  33.850  27.615  1.00  0.00    -0.352 N 
ATOM     32  C   UNL A   1      33.196  34.709  28.507  1.00  0.00     0.251 C 
ATOM     33  H   UNL A   1      31.875  34.240  27.062  1.00  0.00     0.163 HD
ATOM     34  O   UNL A   1      32.758  35.841  28.679  1.00  0.00    -0.269 OA
BRANCH  32  35
ATOM     35  C   UNL A   1      34.351  34.218  29.292  1.00  0.00     0.039 A 
ATOM     36  C   UNL A   1      35.652  34.533  28.894  1.00  0.00     0.014 A 
ATOM     37  C   UNL A   1      34.133  33.356  30.368  1.00  0.00     0.014 A 
ATOM     38  C   UNL A   1      36.721  33.831  29.435  1.00  0.00     0.010 A 
ATOM     39  C   UNL A   1      35.223  32.736  30.986  1.00  0.00     0.010 A 
ATOM     40  C   UNL A   1      36.522  32.921  30.486  1.00  0.00    -0.014 A 
BRANCH  40  41
ATOM     41  C   UNL A   1      37.686  32.182  31.049  1.00  0.00     0.031 A 
ATOM     42  C   UNL A   1      38.151  32.422  32.461  1.00  0.00     0.074 A 
ATOM     43  C   UNL A   1      38.301  31.258  30.285  1.00  0.00     0.049 A 
ATOM     44  N   UNL A   1      39.142  31.861  33.106  1.00  0.00    -0.248 NA
ATOM     45  C   UNL A   1      37.416  33.421  33.252  1.00  0.00     0.031 C 
ATOM     46  C   UNL A   1      37.931  30.937  28.907  1.00  0.00     0.029 A 
ATOM     47  N   UNL A   1      39.345  30.409  30.556  1.00  0.00    -0.354 N 
ATOM     48  C   UNL A   1      39.165  32.451  34.366  1.00  0.00     0.074 A 
ATOM     49  C   UNL A   1      38.112  33.442  34.382  1.00  0.00     0.031 C 
ATOM     50  C   UNL A   1      38.695  29.928  28.471  1.00  0.00     0.029 A 
ATOM     51  C   UNL A   1      39.671  29.586  29.502  1.00  0.00     0.049 A 
ATOM     52  H   UNL A   1      39.816  30.390  31.420  1.00  0.00     0.167 HD
ATOM     53  C   UNL A   1      39.978  32.176  35.415  1.00  0.00     0.034 A 
ATOM     54  C   UNL A   1      40.655  28.675  29.362  1.00  0.00     0.034 A 
ATOM     55  C   UNL A   1      41.010  31.169  35.383  1.00  0.00     0.049 A 
ATOM     56  C   UNL A   1      41.571  28.416  30.526  1.00  0.00     0.074 A 
ATOM     57  C   UNL A   1      41.864  30.792  36.405  1.00  0.00     0.029 A 
ATOM     58  N   UNL A   1      41.332  30.381  34.286  1.00  0.00    -0.354 N 
ATOM     59  N   UNL A   1      41.548  28.948  31.727  1.00  0.00    -0.248 NA
ATOM     60  C   UNL A   1      42.645  27.434  30.329  1.00  0.00     0.031 C 
ATOM     61  C   UNL A   1      42.750  29.838  35.905  1.00  0.00     0.029 A 
ATOM     62  C   UNL A   1      42.395  29.546  34.598  1.00  0.00     0.049 A 
ATOM     63  H   UNL A   1      40.874  30.410  33.416  1.00  0.00     0.167 HD
ATOM     64  C   UNL A   1      42.589  28.353  32.432  1.00  0.00     0.074 A 
ATOM     65  C   UNL A   1      43.204  27.398  31.533  1.00  0.00     0.031 C 
ATOM     66  C   UNL A   1      42.998  28.584  33.704  1.00  0.00     0.034 A 
BRANCH  53  67
ATOM     67  C   UNL A   1      39.802  32.953  36.700  1.00  0.00     0.023 A 
ATOM     68  C   UNL A   1      38.960  32.455  37.714  1.00  0.00     0.031 A 
ATOM     69  C   UNL A   1      40.345  34.239  36.867  1.00  0.00     0.131 A 
ATOM     70  C   UNL A   1      38.654  33.251  38.824  1.00  0.00     0.055 A 
ATOM     71  C   UNL A   1      40.078  35.010  38.001  1.00  0.00     0.041 A 
ATOM     72  F   UNL A   1      41.149  34.767  35.929  1.00  0.00    -0.206 F 
ATOM     73  C   UNL A   1      39.217  34.521  38.979  1.00  0.00     0.022 A 
BRANCH  70  74
ATOM     74  S   UNL A   1      37.454  32.707  40.070  1.00  0.00     0.124 S 
ATOM     75  O   UNL A   1      36.330  32.282  39.238  1.00  0.00    -0.237 OA
ATOM     76  O   UNL A   1      38.176  31.627  40.738  1.00  0.00    -0.237 OA
ATOM     77  O   UNL A   1      37.215  33.900  40.874  1.00  0.00    -0.744 OA
ENDBRANCH  70  74
ENDBRANCH  53  67
BRANCH  54  78
ATOM     78  C   UNL A   1      40.768  27.930  28.073  1.00  0.00     0.023 A 
ATOM     79  C   UNL A   1      40.268  26.619  27.954  1.00  0.00     0.031 A 
ATOM     80  C   UNL A   1      41.497  28.458  26.997  1.00  0.00     0.131 A 
ATOM     81  C   UNL A   1      40.587  25.851  26.827  1.00  0.00     0.055 A 
ATOM     82  C   UNL A   1      41.739  27.717  25.838  1.00  0.00     0.041 A 
ATOM     83  F   UNL A   1      42.006  29.698  27.067  1.00  0.00    -0.206 F 
ATOM     84  C   UNL A   1      41.303  26.398  25.759  1.00  0.00     0.022 A 
BRANCH  81  85
ATOM     85  S   UNL A   1      40.223  24.073  26.784  1.00  0.00     0.124 S 
ATOM     86  O   UNL A   1      40.390  23.693  28.183  1.00  0.00    -0.237 OA
ATOM     87  O   UNL A   1      38.848  24.065  26.288  1.00  0.00    -0.237 OA
ATOM     88  O   UNL A   1      41.218  23.539  25.861  1.00  0.00    -0.744 OA
ENDBRANCH  81  85
ENDBRANCH  54  78
BRANCH  66  89
ATOM     89  C   UNL A   1      44.171  27.798  34.244  1.00  0.00     0.023 A 
ATOM     90  C   UNL A   1      43.949  26.579  34.916  1.00  0.00     0.031 A 
ATOM     91  C   UNL A   1      45.473  28.327  34.246  1.00  0.00     0.131 A 
ATOM     92  C   UNL A   1      44.998  25.962  35.608  1.00  0.00     0.055 A 
ATOM     93  C   UNL A   1      46.528  27.677  34.887  1.00  0.00     0.041 A 
ATOM     94  F   UNL A   1      45.736  29.491  33.631  1.00  0.00    -0.206 F 
ATOM     95  C   UNL A   1      46.289  26.498  35.588  1.00  0.00     0.022 A 
BRANCH  92  96
ATOM     96  S   UNL A   1      44.702  24.502  36.645  1.00  0.00     0.124 S 
ATOM     97  O   UNL A   1      44.176  25.102  37.869  1.00  0.00    -0.237 OA
ATOM     98  O   UNL A   1      43.731  23.754  35.851  1.00  0.00    -0.237 OA
ATOM     99  O   UNL A   1      46.019  23.887  36.772  1.00  0.00    -0.744 OA
ENDBRANCH  92  96
ENDBRANCH  66  89
ENDBRANCH  40  41
ENDBRANCH  32  35
ENDBRANCH  30  31
ENDBRANCH  29  30
ENDBRANCH  28  29
ENDBRANCH   1  28
TORSDOF 19
ENDMDL
