MODEL 1
REMARK VINA RESULT:     -12.5      0.000      0.000
REMARK SMILES Cc1ccccc1NC(=O)NC[C@@H]1CC[C@@H](C(=O)NCCCCCCNC(=O)c2ccc(-c3c4nc(c(-c5cc(S(=O)(=O)[O-])ccc5F)c5ccc([nH]5)c(-c5cc(S(=O)(=O)[O-])ccc5F)c5nc(c(-c6cc(S(=O)(=O)[O-])ccc6F)c6ccc3[nH]6)C=C5)C=C4)cc2)O1
REMARK SMILES IDX 22 1 21 2 20 3 19 4 17 5 18 6 16 8 13 9 14 10 92 11 15 12
REMARK SMILES IDX 12 13 11 14 8 15 9 16 10 18 7 20 1 21 2 22 3 23 4 24 6 25
REMARK SMILES IDX 5 26 23 27 24 28 25 29 26 30 27 31 28 33 29 34 30 35 91 36
REMARK SMILES IDX 31 37 90 38 32 39 33 40 34 41 84 42 35 43 89 44 83 45 85 46
REMARK SMILES IDX 36 47 88 48 82 49 81 50 37 52 69 53 49 54 68 55 50 56 53 57
REMARK SMILES IDX 67 58 86 59 51 60 52 61 66 63 87 64 54 65 38 66 39 67 47 68
REMARK SMILES IDX 40 69 46 70 48 71 45 72 41 73 42 74 43 75 44 76 70 77 71 78
REMARK SMILES IDX 79 79 72 80 78 81 80 82 77 83 73 84 74 85 75 86 76 87 55 88
REMARK SMILES IDX 56 89 64 90 57 91 63 92 65 93 62 94 58 95 59 96 60 97 61 98
REMARK H PARENT 19 7 8 17 11 19 26 32 85 51 53 62
REMARK Flexibility Score: inf
ROOT
ATOM      1  C   UNL A   1      31.724  28.945  26.926  1.00  0.00     0.002 C 
ENDROOT
BRANCH   1   2
ATOM      2  C   UNL A   1      31.644  27.411  26.918  1.00  0.00     0.021 C 
BRANCH   2   3
ATOM      3  C   UNL A   1      30.932  26.815  25.703  1.00  0.00     0.116 C 
BRANCH   3   4
ATOM      4  N   UNL A   1      31.665  27.063  24.477  1.00  0.00    -0.354 N 
ATOM      5  C   UNL A   1      32.742  26.417  23.941  1.00  0.00     0.249 C 
ATOM      6  O   UNL A   1      33.182  26.837  22.867  1.00  0.00    -0.272 OA
ATOM      7  H   UNL A   1      31.332  27.820  23.946  1.00  0.00     0.163 HD
BRANCH   5   8
ATOM      8  C   UNL A   1      33.320  25.158  24.626  1.00  0.00     0.207 C 
ATOM      9  C   UNL A   1      35.259  24.013  23.937  1.00  0.00     0.138 C 
ATOM     10  C   UNL A   1      35.367  24.254  25.425  1.00  0.00     0.037 C 
ATOM     11  O   UNL A   1      33.857  24.224  23.661  1.00  0.00    -0.363 OA
ATOM     12  C   UNL A   1      34.441  25.426  25.620  1.00  0.00     0.045 C 
BRANCH   9  13
ATOM     13  C   UNL A   1      35.653  22.603  23.467  1.00  0.00     0.149 C 
BRANCH  13  14
ATOM     14  N   UNL A   1      36.645  21.956  24.310  1.00  0.00    -0.335 N 
ATOM     15  N   UNL A   1      36.199  19.698  25.041  1.00  0.00    -0.308 N 
ATOM     16  C   UNL A   1      36.918  20.804  24.895  1.00  0.00     0.319 C 
ATOM     17  H   UNL A   1      36.748  19.039  25.524  1.00  0.00     0.171 HD
ATOM     18  O   UNL A   1      38.041  20.759  25.427  1.00  0.00    -0.249 OA
ATOM     19  H   UNL A   1      37.362  22.599  24.514  1.00  0.00     0.165 HD
BRANCH  15  20
ATOM     20  C   UNL A   1      34.953  19.109  24.767  1.00  0.00     0.045 A 
ATOM     21  C   UNL A   1      33.719  21.040  26.008  1.00  0.00     0.046 C 
ATOM     22  C   UNL A   1      33.770  19.774  25.187  1.00  0.00    -0.027 A 
ATOM     23  C   UNL A   1      32.506  19.248  24.837  1.00  0.00     0.005 A 
ATOM     24  C   UNL A   1      32.389  18.072  24.109  1.00  0.00     0.000 A 
ATOM     25  C   UNL A   1      34.795  17.904  24.097  1.00  0.00     0.026 A 
ATOM     26  C   UNL A   1      33.538  17.389  23.754  1.00  0.00     0.002 A 
ENDBRANCH  15  20
ENDBRANCH  13  14
ENDBRANCH   9  13
ENDBRANCH   5   8
ENDBRANCH   3   4
ENDBRANCH   2   3
ENDBRANCH   1   2
BRANCH   1  27
ATOM     27  C   UNL A   1      33.118  29.556  26.708  1.00  0.00     0.002 C 
BRANCH  27  28
ATOM     28  C   UNL A   1      33.393  30.866  27.448  1.00  0.00     0.021 C 
BRANCH  28  29
ATOM     29  C   UNL A   1      34.876  31.213  27.539  1.00  0.00     0.116 C 
BRANCH  29  30
ATOM     30  N   UNL A   1      35.273  31.764  28.833  1.00  0.00    -0.352 N 
ATOM     31  C   UNL A   1      36.184  31.239  29.731  1.00  0.00     0.251 C 
ATOM     32  H   UNL A   1      34.842  32.608  29.097  1.00  0.00     0.163 HD
ATOM     33  O   UNL A   1      36.437  31.786  30.801  1.00  0.00    -0.269 OA
BRANCH  31  34
ATOM     34  C   UNL A   1      36.928  30.030  29.324  1.00  0.00     0.039 A 
ATOM     35  C   UNL A   1      37.177  29.062  30.301  1.00  0.00     0.014 A 
ATOM     36  C   UNL A   1      37.598  30.008  28.102  1.00  0.00     0.014 A 
ATOM     37  C   UNL A   1      38.257  28.199  30.137  1.00  0.00     0.010 A 
ATOM     38  C   UNL A   1      38.722  29.210  27.981  1.00  0.00     0.010 A 
ATOM     39  C   UNL A   1      39.093  28.355  29.027  1.00  0.00    -0.014 A 
BRANCH  39  40
ATOM     40  C   UNL A   1      40.454  27.819  28.998  1.00  0.00     0.031 A 
ATOM     41  C   UNL A   1      40.744  26.441  28.545  1.00  0.00     0.074 A 
ATOM     42  C   UNL A   1      41.490  28.593  29.398  1.00  0.00     0.049 A 
ATOM     43  N   UNL A   1      41.752  25.742  28.951  1.00  0.00    -0.248 NA
ATOM     44  C   UNL A   1      39.885  25.719  27.616  1.00  0.00     0.031 C 
ATOM     45  C   UNL A   1      42.915  28.321  29.228  1.00  0.00     0.029 A 
ATOM     46  N   UNL A   1      41.450  29.671  30.273  1.00  0.00    -0.354 N 
ATOM     47  C   UNL A   1      41.844  24.628  28.151  1.00  0.00     0.074 A 
ATOM     48  C   UNL A   1      40.619  24.627  27.381  1.00  0.00     0.031 C 
ATOM     49  C   UNL A   1      43.602  29.019  30.144  1.00  0.00     0.029 A 
ATOM     50  C   UNL A   1      42.640  29.674  31.011  1.00  0.00     0.049 A 
ATOM     51  H   UNL A   1      40.715  30.321  30.359  1.00  0.00     0.167 HD
ATOM     52  C   UNL A   1      43.001  23.904  28.122  1.00  0.00     0.034 A 
ATOM     53  C   UNL A   1      42.635  29.610  32.374  1.00  0.00     0.034 A 
ATOM     54  C   UNL A   1      44.001  24.421  29.057  1.00  0.00     0.049 A 
ATOM     55  C   UNL A   1      43.362  28.408  32.932  1.00  0.00     0.074 A 
ATOM     56  C   UNL A   1      45.138  25.193  28.886  1.00  0.00     0.029 A 
ATOM     57  N   UNL A   1      43.769  24.366  30.428  1.00  0.00    -0.354 N 
ATOM     58  N   UNL A   1      43.705  27.365  32.227  1.00  0.00    -0.248 NA
ATOM     59  C   UNL A   1      43.730  28.277  34.337  1.00  0.00     0.031 C 
ATOM     60  C   UNL A   1      45.572  25.631  30.164  1.00  0.00     0.029 A 
ATOM     61  C   UNL A   1      44.710  25.111  31.114  1.00  0.00     0.049 A 
ATOM     62  H   UNL A   1      43.034  23.865  30.851  1.00  0.00     0.167 HD
ATOM     63  C   UNL A   1      44.287  26.427  33.046  1.00  0.00     0.074 A 
ATOM     64  C   UNL A   1      44.309  27.065  34.351  1.00  0.00     0.031 C 
ATOM     65  C   UNL A   1      44.680  25.205  32.570  1.00  0.00     0.034 A 
BRANCH  52  66
ATOM     66  C   UNL A   1      43.339  22.916  27.022  1.00  0.00     0.023 A 
ATOM     67  C   UNL A   1      42.784  21.618  27.056  1.00  0.00     0.031 A 
ATOM     68  C   UNL A   1      44.219  23.163  25.952  1.00  0.00     0.131 A 
ATOM     69  C   UNL A   1      43.195  20.615  26.156  1.00  0.00     0.055 A 
ATOM     70  C   UNL A   1      44.679  22.152  25.096  1.00  0.00     0.041 A 
ATOM     71  F   UNL A   1      44.634  24.404  25.658  1.00  0.00    -0.206 F 
ATOM     72  C   UNL A   1      44.180  20.864  25.207  1.00  0.00     0.022 A 
BRANCH  69  73
ATOM     73  S   UNL A   1      42.420  18.977  26.241  1.00  0.00     0.124 S 
ATOM     74  O   UNL A   1      42.535  18.650  27.659  1.00  0.00    -0.237 OA
ATOM     75  O   UNL A   1      41.075  19.247  25.746  1.00  0.00    -0.237 OA
ATOM     76  O   UNL A   1      43.250  18.163  25.354  1.00  0.00    -0.744 OA
ENDBRANCH  69  73
ENDBRANCH  52  66
BRANCH  53  77
ATOM     77  C   UNL A   1      41.465  30.278  33.002  1.00  0.00     0.023 A 
ATOM     78  C   UNL A   1      41.498  31.685  33.089  1.00  0.00     0.031 A 
ATOM     79  C   UNL A   1      40.228  29.638  33.156  1.00  0.00     0.131 A 
ATOM     80  C   UNL A   1      40.308  32.417  33.172  1.00  0.00     0.055 A 
ATOM     81  C   UNL A   1      39.044  30.373  33.299  1.00  0.00     0.041 A 
ATOM     82  F   UNL A   1      40.130  28.305  33.046  1.00  0.00    -0.206 F 
ATOM     83  C   UNL A   1      39.075  31.769  33.265  1.00  0.00     0.022 A 
BRANCH  80  84
ATOM     84  S   UNL A   1      40.364  34.211  32.885  1.00  0.00     0.124 S 
ATOM     85  O   UNL A   1      41.306  34.653  33.907  1.00  0.00    -0.237 OA
ATOM     86  O   UNL A   1      40.833  34.305  31.504  1.00  0.00    -0.237 OA
ATOM     87  O   UNL A   1      38.976  34.624  33.078  1.00  0.00    -0.744 OA
ENDBRANCH  80  84
ENDBRANCH  53  77
BRANCH  65  88
ATOM     88  C   UNL A   1      45.163  24.027  33.397  1.00  0.00     0.023 A 
ATOM     89  C   UNL A   1      46.443  23.940  33.965  1.00  0.00     0.031 A 
ATOM     90  C   UNL A   1      44.296  22.945  33.701  1.00  0.00     0.131 A 
ATOM     91  C   UNL A   1      46.847  22.808  34.702  1.00  0.00     0.055 A 
ATOM     92  C   UNL A   1      44.674  21.854  34.491  1.00  0.00     0.041 A 
ATOM     93  F   UNL A   1      43.033  22.903  33.252  1.00  0.00    -0.206 F 
ATOM     94  C   UNL A   1      45.966  21.771  34.984  1.00  0.00     0.022 A 
BRANCH  91  95
ATOM     95  S   UNL A   1      48.576  22.703  35.238  1.00  0.00     0.124 S 
ATOM     96  O   UNL A   1      49.163  21.863  34.197  1.00  0.00    -0.237 OA
ATOM     97  O   UNL A   1      48.992  24.102  35.230  1.00  0.00    -0.237 OA
ATOM     98  O   UNL A   1      48.493  22.086  36.560  1.00  0.00    -0.744 OA
ENDBRANCH  91  95
ENDBRANCH  65  88
ENDBRANCH  39  40
ENDBRANCH  31  34
ENDBRANCH  29  30
ENDBRANCH  28  29
ENDBRANCH  27  28
ENDBRANCH   1  27
TORSDOF 19
ENDMDL
MODEL 2
REMARK VINA RESULT:     -12.2      1.274      2.108
REMARK SMILES Cc1ccccc1NC(=O)NC[C@@H]1CC[C@@H](C(=O)NCCCCCCNC(=O)c2ccc(-c3c4nc(c(-c5cc(S(=O)(=O)[O-])ccc5F)c5ccc([nH]5)c(-c5cc(S(=O)(=O)[O-])ccc5F)c5nc(c(-c6cc(S(=O)(=O)[O-])ccc6F)c6ccc3[nH]6)C=C5)C=C4)cc2)O1
REMARK SMILES IDX 22 1 21 2 20 3 19 4 17 5 18 6 16 8 13 9 14 10 92 11 15 12
REMARK SMILES IDX 12 13 11 14 8 15 9 16 10 18 7 20 1 21 2 22 3 23 4 24 6 25
REMARK SMILES IDX 5 26 23 27 24 28 25 29 26 30 27 31 28 33 29 34 30 35 91 36
REMARK SMILES IDX 31 37 90 38 32 39 33 40 34 41 84 42 35 43 89 44 83 45 85 46
REMARK SMILES IDX 36 47 88 48 82 49 81 50 37 52 69 53 49 54 68 55 50 56 53 57
REMARK SMILES IDX 67 58 86 59 51 60 52 61 66 63 87 64 54 65 38 66 39 67 47 68
REMARK SMILES IDX 40 69 46 70 48 71 45 72 41 73 42 74 43 75 44 76 70 77 71 78
REMARK SMILES IDX 79 79 72 80 78 81 80 82 77 83 73 84 74 85 75 86 76 87 55 88
REMARK SMILES IDX 56 89 64 90 57 91 63 92 65 93 62 94 58 95 59 96 60 97 61 98
REMARK H PARENT 19 7 8 17 11 19 26 32 85 51 53 62
REMARK Flexibility Score: inf
ROOT
ATOM      1  C   UNL A   1      32.594  28.148  26.530  1.00  0.00     0.002 C 
ENDROOT
BRANCH   1   2
ATOM      2  C   UNL A   1      32.792  28.223  25.008  1.00  0.00     0.021 C 
BRANCH   2   3
ATOM      3  C   UNL A   1      31.498  28.188  24.193  1.00  0.00     0.116 C 
BRANCH   3   4
ATOM      4  N   UNL A   1      31.669  27.469  22.946  1.00  0.00    -0.354 N 
ATOM      5  C   UNL A   1      31.412  26.166  22.630  1.00  0.00     0.249 C 
ATOM      6  O   UNL A   1      31.651  25.801  21.476  1.00  0.00    -0.272 OA
ATOM      7  H   UNL A   1      32.031  28.008  22.207  1.00  0.00     0.163 HD
BRANCH   5   8
ATOM      8  C   UNL A   1      30.765  25.223  23.669  1.00  0.00     0.207 C 
ATOM      9  C   UNL A   1      31.620  24.790  25.821  1.00  0.00     0.138 C 
ATOM     10  C   UNL A   1      30.153  25.129  25.964  1.00  0.00     0.037 C 
ATOM     11  O   UNL A   1      31.760  24.486  24.415  1.00  0.00    -0.363 OA
ATOM     12  C   UNL A   1      29.889  25.913  24.705  1.00  0.00     0.045 C 
BRANCH   9  13
ATOM     13  C   UNL A   1      32.100  23.584  26.643  1.00  0.00     0.149 C 
BRANCH  13  14
ATOM     14  N   UNL A   1      31.823  22.298  26.023  1.00  0.00    -0.335 N 
ATOM     15  N   UNL A   1      33.671  21.114  25.016  1.00  0.00    -0.308 N 
ATOM     16  C   UNL A   1      32.420  21.282  25.429  1.00  0.00     0.319 C 
ATOM     17  H   UNL A   1      33.746  20.212  24.631  1.00  0.00     0.171 HD
ATOM     18  O   UNL A   1      31.669  20.320  25.193  1.00  0.00    -0.249 OA
ATOM     19  H   UNL A   1      30.854  22.126  26.059  1.00  0.00     0.165 HD
BRANCH  15  20
ATOM     20  C   UNL A   1      34.928  21.734  24.920  1.00  0.00     0.045 A 
ATOM     21  C   UNL A   1      34.166  23.050  22.803  1.00  0.00     0.046 C 
ATOM     22  C   UNL A   1      35.146  22.692  23.894  1.00  0.00    -0.027 A 
ATOM     23  C   UNL A   1      36.370  23.397  23.840  1.00  0.00     0.005 A 
ATOM     24  C   UNL A   1      37.384  23.157  24.757  1.00  0.00     0.000 A 
ATOM     25  C   UNL A   1      35.988  21.477  25.779  1.00  0.00     0.026 A 
ATOM     26  C   UNL A   1      37.198  22.179  25.717  1.00  0.00     0.002 A 
ENDBRANCH  15  20
ENDBRANCH  13  14
ENDBRANCH   9  13
ENDBRANCH   5   8
ENDBRANCH   3   4
ENDBRANCH   2   3
ENDBRANCH   1   2
BRANCH   1  27
ATOM     27  C   UNL A   1      31.913  29.360  27.188  1.00  0.00     0.002 C 
BRANCH  27  28
ATOM     28  C   UNL A   1      32.751  30.638  27.255  1.00  0.00     0.021 C 
BRANCH  28  29
ATOM     29  C   UNL A   1      34.226  30.383  27.551  1.00  0.00     0.116 C 
BRANCH  29  30
ATOM     30  N   UNL A   1      34.797  31.307  28.529  1.00  0.00    -0.352 N 
ATOM     31  C   UNL A   1      35.911  31.112  29.324  1.00  0.00     0.251 C 
ATOM     32  H   UNL A   1      34.336  32.169  28.633  1.00  0.00     0.163 HD
ATOM     33  O   UNL A   1      36.301  31.960  30.123  1.00  0.00    -0.269 OA
BRANCH  31  34
ATOM     34  C   UNL A   1      36.691  29.875  29.120  1.00  0.00     0.039 A 
ATOM     35  C   UNL A   1      37.060  29.147  30.254  1.00  0.00     0.014 A 
ATOM     36  C   UNL A   1      37.275  29.621  27.880  1.00  0.00     0.014 A 
ATOM     37  C   UNL A   1      38.172  28.311  30.188  1.00  0.00     0.010 A 
ATOM     38  C   UNL A   1      38.430  28.861  27.839  1.00  0.00     0.010 A 
ATOM     39  C   UNL A   1      38.919  28.261  29.007  1.00  0.00    -0.014 A 
BRANCH  39  40
ATOM     40  C   UNL A   1      40.303  27.786  28.982  1.00  0.00     0.031 A 
ATOM     41  C   UNL A   1      40.655  26.427  28.516  1.00  0.00     0.074 A 
ATOM     42  C   UNL A   1      41.301  28.599  29.398  1.00  0.00     0.049 A 
ATOM     43  N   UNL A   1      41.690  25.768  28.921  1.00  0.00    -0.248 NA
ATOM     44  C   UNL A   1      39.835  25.679  27.572  1.00  0.00     0.031 C 
ATOM     45  C   UNL A   1      42.738  28.391  29.235  1.00  0.00     0.029 A 
ATOM     46  N   UNL A   1      41.209  29.665  30.285  1.00  0.00    -0.354 N 
ATOM     47  C   UNL A   1      41.836  24.667  28.110  1.00  0.00     0.074 A 
ATOM     48  C   UNL A   1      40.618  24.622  27.331  1.00  0.00     0.031 C 
ATOM     49  C   UNL A   1      43.387  29.107  30.164  1.00  0.00     0.029 A 
ATOM     50  C   UNL A   1      42.392  29.710  31.032  1.00  0.00     0.049 A 
ATOM     51  H   UNL A   1      40.446  30.281  30.372  1.00  0.00     0.167 HD
ATOM     52  C   UNL A   1      43.024  23.995  28.081  1.00  0.00     0.034 A 
ATOM     53  C   UNL A   1      42.381  29.630  32.393  1.00  0.00     0.034 A 
ATOM     54  C   UNL A   1      43.993  24.544  29.029  1.00  0.00     0.049 A 
ATOM     55  C   UNL A   1      43.156  28.456  32.943  1.00  0.00     0.074 A 
ATOM     56  C   UNL A   1      45.098  25.367  28.875  1.00  0.00     0.029 A 
ATOM     57  N   UNL A   1      43.755  24.463  30.398  1.00  0.00    -0.354 N 
ATOM     58  N   UNL A   1      43.548  27.437  32.230  1.00  0.00    -0.248 NA
ATOM     59  C   UNL A   1      43.519  28.325  34.350  1.00  0.00     0.031 C 
ATOM     60  C   UNL A   1      45.503  25.809  30.161  1.00  0.00     0.029 A 
ATOM     61  C   UNL A   1      44.658  25.241  31.099  1.00  0.00     0.049 A 
ATOM     62  H   UNL A   1      43.040  23.926  30.810  1.00  0.00     0.167 HD
ATOM     63  C   UNL A   1      44.165  26.515  33.043  1.00  0.00     0.074 A 
ATOM     64  C   UNL A   1      44.150  27.138  34.355  1.00  0.00     0.031 C 
ATOM     65  C   UNL A   1      44.614  25.317  32.555  1.00  0.00     0.034 A 
BRANCH  52  66
ATOM     66  C   UNL A   1      43.411  23.035  26.973  1.00  0.00     0.023 A 
ATOM     67  C   UNL A   1      42.894  21.721  26.975  1.00  0.00     0.031 A 
ATOM     68  C   UNL A   1      44.305  23.325  25.925  1.00  0.00     0.131 A 
ATOM     69  C   UNL A   1      43.351  20.746  26.068  1.00  0.00     0.055 A 
ATOM     70  C   UNL A   1      44.811  22.342  25.062  1.00  0.00     0.041 A 
ATOM     71  F   UNL A   1      44.689  24.582  25.659  1.00  0.00    -0.206 F 
ATOM     72  C   UNL A   1      44.347  21.038  25.143  1.00  0.00     0.022 A 
BRANCH  69  73
ATOM     73  S   UNL A   1      42.623  19.085  26.111  1.00  0.00     0.124 S 
ATOM     74  O   UNL A   1      42.487  18.841  27.544  1.00  0.00    -0.237 OA
ATOM     75  O   UNL A   1      41.383  19.273  25.367  1.00  0.00    -0.237 OA
ATOM     76  O   UNL A   1      43.624  18.257  25.439  1.00  0.00    -0.744 OA
ENDBRANCH  69  73
ENDBRANCH  52  66
BRANCH  53  77
ATOM     77  C   UNL A   1      41.178  30.240  33.021  1.00  0.00     0.023 A 
ATOM     78  C   UNL A   1      41.118  31.649  33.061  1.00  0.00     0.031 A 
ATOM     79  C   UNL A   1      39.990  29.525  33.218  1.00  0.00     0.131 A 
ATOM     80  C   UNL A   1      39.883  32.302  33.141  1.00  0.00     0.055 A 
ATOM     81  C   UNL A   1      38.762  30.183  33.358  1.00  0.00     0.041 A 
ATOM     82  F   UNL A   1      39.980  28.185  33.154  1.00  0.00    -0.206 F 
ATOM     83  C   UNL A   1      38.698  31.576  33.278  1.00  0.00     0.022 A 
BRANCH  80  84
ATOM     84  S   UNL A   1      39.813  34.085  32.794  1.00  0.00     0.124 S 
ATOM     85  O   UNL A   1      40.987  34.579  33.504  1.00  0.00    -0.237 OA
ATOM     86  O   UNL A   1      39.883  34.135  31.335  1.00  0.00    -0.237 OA
ATOM     87  O   UNL A   1      38.521  34.483  33.347  1.00  0.00    -0.744 OA
ENDBRANCH  80  84
ENDBRANCH  53  77
BRANCH  65  88
ATOM     88  C   UNL A   1      45.142  24.151  33.373  1.00  0.00     0.023 A 
ATOM     89  C   UNL A   1      46.426  24.107  33.938  1.00  0.00     0.031 A 
ATOM     90  C   UNL A   1      44.316  23.036  33.671  1.00  0.00     0.131 A 
ATOM     91  C   UNL A   1      46.874  22.986  34.666  1.00  0.00     0.055 A 
ATOM     92  C   UNL A   1      44.736  21.954  34.452  1.00  0.00     0.041 A 
ATOM     93  F   UNL A   1      43.054  22.950  33.224  1.00  0.00    -0.206 F 
ATOM     94  C   UNL A   1      46.031  21.915  34.942  1.00  0.00     0.022 A 
BRANCH  91  95
ATOM     95  S   UNL A   1      48.606  22.941  35.197  1.00  0.00     0.124 S 
ATOM     96  O   UNL A   1      49.096  21.741  34.524  1.00  0.00    -0.237 OA
ATOM     97  O   UNL A   1      49.123  24.207  34.687  1.00  0.00    -0.237 OA
ATOM     98  O   UNL A   1      48.521  22.845  36.652  1.00  0.00    -0.744 OA
ENDBRANCH  91  95
ENDBRANCH  65  88
ENDBRANCH  39  40
ENDBRANCH  31  34
ENDBRANCH  29  30
ENDBRANCH  28  29
ENDBRANCH  27  28
ENDBRANCH   1  27
TORSDOF 19
ENDMDL
MODEL 3
REMARK VINA RESULT:     -12.2      2.793      4.216
REMARK SMILES Cc1ccccc1NC(=O)NC[C@@H]1CC[C@@H](C(=O)NCCCCCCNC(=O)c2ccc(-c3c4nc(c(-c5cc(S(=O)(=O)[O-])ccc5F)c5ccc([nH]5)c(-c5cc(S(=O)(=O)[O-])ccc5F)c5nc(c(-c6cc(S(=O)(=O)[O-])ccc6F)c6ccc3[nH]6)C=C5)C=C4)cc2)O1
REMARK SMILES IDX 22 1 21 2 20 3 19 4 17 5 18 6 16 8 13 9 14 10 92 11 15 12
REMARK SMILES IDX 12 13 11 14 8 15 9 16 10 18 7 20 1 21 2 22 3 23 4 24 6 25
REMARK SMILES IDX 5 26 23 27 24 28 25 29 26 30 27 31 28 33 29 34 30 35 91 36
REMARK SMILES IDX 31 37 90 38 32 39 33 40 34 41 84 42 35 43 89 44 83 45 85 46
REMARK SMILES IDX 36 47 88 48 82 49 81 50 37 52 69 53 49 54 68 55 50 56 53 57
REMARK SMILES IDX 67 58 86 59 51 60 52 61 66 63 87 64 54 65 38 66 39 67 47 68
REMARK SMILES IDX 40 69 46 70 48 71 45 72 41 73 42 74 43 75 44 76 70 77 71 78
REMARK SMILES IDX 79 79 72 80 78 81 80 82 77 83 73 84 74 85 75 86 76 87 55 88
REMARK SMILES IDX 56 89 64 90 57 91 63 92 65 93 62 94 58 95 59 96 60 97 61 98
REMARK H PARENT 19 7 8 17 11 19 26 32 85 51 53 62
REMARK Flexibility Score: inf
ROOT
ATOM      1  C   UNL A   1      33.855  28.486  27.080  1.00  0.00     0.002 C 
ENDROOT
BRANCH   1   2
ATOM      2  C   UNL A   1      32.404  28.971  27.229  1.00  0.00     0.021 C 
BRANCH   2   3
ATOM      3  C   UNL A   1      31.418  28.347  26.240  1.00  0.00     0.116 C 
BRANCH   3   4
ATOM      4  N   UNL A   1      31.741  28.695  24.871  1.00  0.00    -0.354 N 
ATOM      5  C   UNL A   1      32.348  27.965  23.889  1.00  0.00     0.249 C 
ATOM      6  O   UNL A   1      32.506  28.507  22.791  1.00  0.00    -0.272 OA
ATOM      7  H   UNL A   1      31.480  29.605  24.606  1.00  0.00     0.163 HD
BRANCH   5   8
ATOM      8  C   UNL A   1      32.737  26.491  24.138  1.00  0.00     0.207 C 
ATOM      9  C   UNL A   1      31.651  24.627  23.192  1.00  0.00     0.138 C 
ATOM     10  C   UNL A   1      33.138  24.456  22.979  1.00  0.00     0.037 C 
ATOM     11  O   UNL A   1      31.573  25.638  24.221  1.00  0.00    -0.363 OA
ATOM     12  C   UNL A   1      33.633  25.875  23.073  1.00  0.00     0.045 C 
BRANCH   9  13
ATOM     13  C   UNL A   1      30.905  23.370  23.668  1.00  0.00     0.149 C 
BRANCH  13  14
ATOM     14  N   UNL A   1      30.653  23.340  25.100  1.00  0.00    -0.335 N 
ATOM     15  N   UNL A   1      32.554  23.104  26.571  1.00  0.00    -0.308 N 
ATOM     16  C   UNL A   1      31.277  23.294  26.263  1.00  0.00     0.319 C 
ATOM     17  H   UNL A   1      32.641  23.152  27.550  1.00  0.00     0.171 HD
ATOM     18  O   UNL A   1      30.527  23.429  27.245  1.00  0.00    -0.249 OA
ATOM     19  H   UNL A   1      29.681  23.361  25.256  1.00  0.00     0.165 HD
BRANCH  15  20
ATOM     20  C   UNL A   1      33.829  22.861  26.031  1.00  0.00     0.045 A 
ATOM     21  C   UNL A   1      33.096  20.483  25.257  1.00  0.00     0.046 C 
ATOM     22  C   UNL A   1      34.070  21.631  25.363  1.00  0.00    -0.027 A 
ATOM     23  C   UNL A   1      35.314  21.408  24.730  1.00  0.00     0.005 A 
ATOM     24  C   UNL A   1      36.325  22.358  24.766  1.00  0.00     0.000 A 
ATOM     25  C   UNL A   1      34.885  23.759  26.100  1.00  0.00     0.026 A 
ATOM     26  C   UNL A   1      36.114  23.530  25.471  1.00  0.00     0.002 A 
ENDBRANCH  15  20
ENDBRANCH  13  14
ENDBRANCH   9  13
ENDBRANCH   5   8
ENDBRANCH   3   4
ENDBRANCH   2   3
ENDBRANCH   1   2
BRANCH   1  27
ATOM     27  C   UNL A   1      34.941  29.573  27.093  1.00  0.00     0.002 C 
BRANCH  27  28
ATOM     28  C   UNL A   1      34.810  30.631  28.191  1.00  0.00     0.021 C 
BRANCH  28  29
ATOM     29  C   UNL A   1      34.825  32.061  27.662  1.00  0.00     0.116 C 
BRANCH  29  30
ATOM     30  N   UNL A   1      33.925  32.963  28.378  1.00  0.00    -0.352 N 
ATOM     31  C   UNL A   1      34.184  33.668  29.540  1.00  0.00     0.251 C 
ATOM     32  H   UNL A   1      33.030  33.083  27.989  1.00  0.00     0.163 HD
ATOM     33  O   UNL A   1      33.345  34.397  30.063  1.00  0.00    -0.269 OA
BRANCH  31  34
ATOM     34  C   UNL A   1      35.551  33.596  30.095  1.00  0.00     0.039 A 
ATOM     35  C   UNL A   1      36.578  34.204  29.369  1.00  0.00     0.014 A 
ATOM     36  C   UNL A   1      35.830  32.709  31.133  1.00  0.00     0.014 A 
ATOM     37  C   UNL A   1      37.885  33.756  29.542  1.00  0.00     0.010 A 
ATOM     38  C   UNL A   1      37.114  32.203  31.240  1.00  0.00     0.010 A 
ATOM     39  C   UNL A   1      38.128  32.677  30.397  1.00  0.00    -0.014 A 
BRANCH  39  40
ATOM     40  C   UNL A   1      39.347  31.872  30.306  1.00  0.00     0.031 A 
ATOM     41  C   UNL A   1      39.358  30.538  29.667  1.00  0.00     0.074 A 
ATOM     42  C   UNL A   1      40.505  32.346  30.819  1.00  0.00     0.049 A 
ATOM     43  N   UNL A   1      40.180  29.592  29.981  1.00  0.00    -0.248 NA
ATOM     44  C   UNL A   1      38.403  30.147  28.639  1.00  0.00     0.031 C 
ATOM     45  C   UNL A   1      41.847  31.802  30.626  1.00  0.00     0.029 A 
ATOM     46  N   UNL A   1      40.660  33.280  31.836  1.00  0.00    -0.354 N 
ATOM     47  C   UNL A   1      40.067  28.601  29.034  1.00  0.00     0.074 A 
ATOM     48  C   UNL A   1      38.900  28.965  28.260  1.00  0.00     0.031 C 
ATOM     49  C   UNL A   1      42.630  32.207  31.636  1.00  0.00     0.029 A 
ATOM     50  C   UNL A   1      41.794  32.929  32.578  1.00  0.00     0.049 A 
ATOM     51  H   UNL A   1      40.075  34.054  32.005  1.00  0.00     0.167 HD
ATOM     52  C   UNL A   1      41.047  27.658  28.915  1.00  0.00     0.034 A 
ATOM     53  C   UNL A   1      41.724  32.685  33.918  1.00  0.00     0.034 A 
ATOM     54  C   UNL A   1      42.096  27.819  29.921  1.00  0.00     0.049 A 
ATOM     55  C   UNL A   1      42.160  31.292  34.310  1.00  0.00     0.074 A 
ATOM     56  C   UNL A   1      43.376  28.347  29.871  1.00  0.00     0.029 A 
ATOM     57  N   UNL A   1      41.805  27.631  31.269  1.00  0.00    -0.354 N 
ATOM     58  N   UNL A   1      42.303  30.305  33.469  1.00  0.00    -0.248 NA
ATOM     59  C   UNL A   1      42.438  30.898  35.686  1.00  0.00     0.031 C 
ATOM     60  C   UNL A   1      43.842  28.506  31.201  1.00  0.00     0.029 A 
ATOM     61  C   UNL A   1      42.854  28.059  32.061  1.00  0.00     0.049 A 
ATOM     62  H   UNL A   1      40.966  27.246  31.612  1.00  0.00     0.167 HD
ATOM     63  C   UNL A   1      42.643  29.162  34.154  1.00  0.00     0.074 A 
ATOM     64  C   UNL A   1      42.748  29.599  35.536  1.00  0.00     0.031 C 
ATOM     65  C   UNL A   1      42.789  27.961  33.515  1.00  0.00     0.034 A 
BRANCH  52  66
ATOM     66  C   UNL A   1      41.211  26.778  27.691  1.00  0.00     0.023 A 
ATOM     67  C   UNL A   1      41.037  25.381  27.806  1.00  0.00     0.031 A 
ATOM     68  C   UNL A   1      41.578  27.231  26.409  1.00  0.00     0.131 A 
ATOM     69  C   UNL A   1      41.341  24.508  26.744  1.00  0.00     0.055 A 
ATOM     70  C   UNL A   1      41.943  26.363  25.370  1.00  0.00     0.041 A 
ATOM     71  F   UNL A   1      41.548  28.533  26.092  1.00  0.00    -0.206 F 
ATOM     72  C   UNL A   1      41.844  24.991  25.541  1.00  0.00     0.022 A 
BRANCH  69  73
ATOM     73  S   UNL A   1      41.068  22.727  26.955  1.00  0.00     0.124 S 
ATOM     74  O   UNL A   1      41.453  22.515  28.348  1.00  0.00    -0.237 OA
ATOM     75  O   UNL A   1      39.649  22.595  26.648  1.00  0.00    -0.237 OA
ATOM     76  O   UNL A   1      41.969  22.127  25.971  1.00  0.00    -0.744 OA
ENDBRANCH  69  73
ENDBRANCH  52  66
BRANCH  53  77
ATOM     77  C   UNL A   1      40.696  33.497  34.623  1.00  0.00     0.023 A 
ATOM     78  C   UNL A   1      39.625  32.801  35.220  1.00  0.00     0.031 A 
ATOM     79  C   UNL A   1      40.932  34.817  35.029  1.00  0.00     0.131 A 
ATOM     80  C   UNL A   1      38.924  33.366  36.292  1.00  0.00     0.055 A 
ATOM     81  C   UNL A   1      40.188  35.402  36.062  1.00  0.00     0.041 A 
ATOM     82  F   UNL A   1      41.959  35.515  34.523  1.00  0.00    -0.206 F 
ATOM     83  C   UNL A   1      39.208  34.663  36.727  1.00  0.00     0.022 A 
BRANCH  80  84
ATOM     84  S   UNL A   1      37.832  32.302  37.280  1.00  0.00     0.124 S 
ATOM     85  O   UNL A   1      37.768  31.093  36.468  1.00  0.00    -0.237 OA
ATOM     86  O   UNL A   1      38.554  32.181  38.545  1.00  0.00    -0.237 OA
ATOM     87  O   UNL A   1      36.597  33.077  37.366  1.00  0.00    -0.744 OA
ENDBRANCH  80  84
ENDBRANCH  53  77
BRANCH  65  88
ATOM     88  C   UNL A   1      42.981  26.606  34.174  1.00  0.00     0.023 A 
ATOM     89  C   UNL A   1      44.201  25.913  34.202  1.00  0.00     0.031 A 
ATOM     90  C   UNL A   1      41.918  25.977  34.873  1.00  0.00     0.131 A 
ATOM     91  C   UNL A   1      44.316  24.644  34.805  1.00  0.00     0.055 A 
ATOM     92  C   UNL A   1      42.050  24.749  35.532  1.00  0.00     0.041 A 
ATOM     93  F   UNL A   1      40.700  26.533  34.958  1.00  0.00    -0.206 F 
ATOM     94  C   UNL A   1      43.252  24.064  35.486  1.00  0.00     0.022 A 
BRANCH  91  95
ATOM     95  S   UNL A   1      45.881  23.746  34.628  1.00  0.00     0.124 S 
ATOM     96  O   UNL A   1      45.426  22.437  34.169  1.00  0.00    -0.237 OA
ATOM     97  O   UNL A   1      46.594  24.550  33.641  1.00  0.00    -0.237 OA
ATOM     98  O   UNL A   1      46.448  23.769  35.975  1.00  0.00    -0.744 OA
ENDBRANCH  91  95
ENDBRANCH  65  88
ENDBRANCH  39  40
ENDBRANCH  31  34
ENDBRANCH  29  30
ENDBRANCH  28  29
ENDBRANCH  27  28
ENDBRANCH   1  27
TORSDOF 19
ENDMDL
