MODEL 1
REMARK VINA RESULT:     -12.6      0.000      0.000
REMARK SMILES CCn1nc(-c2cccnc2)c2cc(C(=O)NCCCCCCNC(=O)c3ccc(-c4c5nc(c(-c6cc(S(=O)(=O)[O-])ccc6F)c6ccc([nH]6)c(-c6cc(S(=O)(=O)[O-])ccc6F)c6nc(c(-c7cc(S(=O)(=O)[O-])ccc7F)c7ccc4[nH]7)C=C6)C=C5)cc3)sc21
REMARK SMILES IDX 21 1 20 2 19 3 18 4 17 5 15 6 16 7 14 9 3 10 4 11 91 12 5 13
REMARK SMILES IDX 12 14 90 15 13 16 2 17 1 18 6 19 7 20 11 21 8 22 10 23 9 24
REMARK SMILES IDX 22 25 23 26 24 27 25 28 26 30 27 31 28 32 89 33 29 34 88 35
REMARK SMILES IDX 30 36 31 37 32 38 82 39 33 40 87 41 81 42 83 43 34 44 86 45
REMARK SMILES IDX 80 46 79 47 35 49 67 50 47 51 66 52 48 53 51 54 65 55 84 56
REMARK SMILES IDX 49 57 50 58 64 60 85 61 52 62 36 63 37 64 45 65 38 66 44 67
REMARK SMILES IDX 46 68 43 69 39 70 40 71 41 72 42 73 68 74 69 75 77 76 70 77
REMARK SMILES IDX 76 78 78 79 75 80 71 81 72 82 73 83 74 84 53 85 54 86 62 87
REMARK SMILES IDX 55 88 61 89 63 90 60 91 56 92 57 93 58 94 59 95
REMARK H PARENT 17 8 24 29 83 48 51 59
REMARK Flexibility Score: inf
ROOT
ATOM      1  C   UNL A   1      33.838  27.533  26.236  1.00  0.00     0.002 C 
ENDROOT
BRANCH   1   2
ATOM      2  C   UNL A   1      32.580  27.300  25.380  1.00  0.00     0.002 C 
BRANCH   2   3
ATOM      3  C   UNL A   1      32.491  28.126  24.090  1.00  0.00     0.021 C 
BRANCH   3   4
ATOM      4  C   UNL A   1      33.740  28.020  23.212  1.00  0.00     0.116 C 
BRANCH   4   5
ATOM      5  N   UNL A   1      33.484  27.257  22.002  1.00  0.00    -0.351 N 
ATOM      6  C   UNL A   1      33.348  25.909  21.744  1.00  0.00     0.261 C 
ATOM      7  O   UNL A   1      33.008  25.632  20.589  1.00  0.00    -0.268 OA
ATOM      8  H   UNL A   1      33.387  27.818  21.200  1.00  0.00     0.163 HD
BRANCH   6   9
ATOM      9  C   UNL A   1      33.506  24.868  22.756  1.00  0.00     0.095 A 
ATOM     10  N   UNL A   1      33.310  21.657  24.647  1.00  0.00    -0.254 N 
ATOM     11  N   UNL A   1      34.532  21.386  25.190  1.00  0.00    -0.171 NA
ATOM     12  C   UNL A   1      33.288  22.875  24.076  1.00  0.00     0.122 A 
ATOM     13  C   UNL A   1      35.272  22.503  24.950  1.00  0.00     0.103 A 
ATOM     14  C   UNL A   1      34.515  23.380  24.170  1.00  0.00     0.040 A 
ATOM     15  S   UNL A   1      32.206  23.846  23.302  1.00  0.00    -0.110 S 
ATOM     16  C   UNL A   1      34.693  24.566  23.456  1.00  0.00     0.038 A 
BRANCH  10  17
ATOM     17  C   UNL A   1      32.296  20.631  24.537  1.00  0.00     0.142 C 
ATOM     18  C   UNL A   1      32.712  19.321  25.170  1.00  0.00     0.029 C 
ENDBRANCH  10  17
BRANCH  13  19
ATOM     19  C   UNL A   1      36.609  22.635  25.500  1.00  0.00     0.021 A 
ATOM     20  C   UNL A   1      37.043  23.829  26.081  1.00  0.00     0.013 A 
ATOM     21  C   UNL A   1      37.540  21.608  25.378  1.00  0.00     0.121 A 
ATOM     22  C   UNL A   1      38.364  23.951  26.505  1.00  0.00     0.021 A 
ATOM     23  N   UNL A   1      38.830  21.694  25.789  1.00  0.00    -0.264 NA
ATOM     24  C   UNL A   1      39.213  22.870  26.333  1.00  0.00     0.111 A 
ENDBRANCH  13  19
ENDBRANCH   6   9
ENDBRANCH   4   5
ENDBRANCH   3   4
ENDBRANCH   2   3
ENDBRANCH   1   2
BRANCH   1  25
ATOM     25  C   UNL A   1      33.949  28.899  26.929  1.00  0.00     0.021 C 
BRANCH  25  26
ATOM     26  C   UNL A   1      35.376  29.296  27.284  1.00  0.00     0.116 C 
BRANCH  26  27
ATOM     27  N   UNL A   1      35.483  29.802  28.649  1.00  0.00    -0.352 N 
ATOM     28  C   UNL A   1      36.446  29.518  29.599  1.00  0.00     0.251 C 
ATOM     29  H   UNL A   1      34.776  30.427  28.930  1.00  0.00     0.163 HD
ATOM     30  O   UNL A   1      36.206  29.687  30.783  1.00  0.00    -0.269 OA
BRANCH  28  31
ATOM     31  C   UNL A   1      37.753  28.992  29.153  1.00  0.00     0.039 A 
ATOM     32  C   UNL A   1      38.384  29.515  28.024  1.00  0.00     0.014 A 
ATOM     33  C   UNL A   1      38.360  27.978  29.893  1.00  0.00     0.014 A 
ATOM     34  C   UNL A   1      39.671  29.079  27.712  1.00  0.00     0.010 A 
ATOM     35  C   UNL A   1      39.677  27.648  29.664  1.00  0.00     0.010 A 
ATOM     36  C   UNL A   1      40.335  28.170  28.559  1.00  0.00    -0.014 A 
BRANCH  36  37
ATOM     37  C   UNL A   1      41.757  27.876  28.355  1.00  0.00     0.031 A 
ATOM     38  C   UNL A   1      42.018  26.643  27.564  1.00  0.00     0.074 A 
ATOM     39  C   UNL A   1      42.786  28.680  28.704  1.00  0.00     0.049 A 
ATOM     40  N   UNL A   1      42.419  25.508  28.024  1.00  0.00    -0.248 NA
ATOM     41  C   UNL A   1      41.642  26.607  26.144  1.00  0.00     0.031 C 
ATOM     42  C   UNL A   1      42.741  30.032  29.267  1.00  0.00     0.029 A 
ATOM     43  N   UNL A   1      44.126  28.464  28.556  1.00  0.00    -0.354 N 
ATOM     44  C   UNL A   1      42.579  24.674  26.925  1.00  0.00     0.074 A 
ATOM     45  C   UNL A   1      41.912  25.335  25.833  1.00  0.00     0.031 C 
ATOM     46  C   UNL A   1      43.971  30.593  29.214  1.00  0.00     0.029 A 
ATOM     47  C   UNL A   1      44.922  29.584  28.785  1.00  0.00     0.049 A 
ATOM     48  H   UNL A   1      44.499  27.588  28.306  1.00  0.00     0.167 HD
ATOM     49  C   UNL A   1      43.437  23.616  26.972  1.00  0.00     0.034 A 
ATOM     50  C   UNL A   1      46.274  29.680  28.670  1.00  0.00     0.034 A 
ATOM     51  C   UNL A   1      43.837  23.340  28.336  1.00  0.00     0.049 A 
ATOM     52  C   UNL A   1      46.811  28.313  28.854  1.00  0.00     0.074 A 
ATOM     53  C   UNL A   1      43.170  22.987  29.492  1.00  0.00     0.029 A 
ATOM     54  N   UNL A   1      45.065  23.809  28.745  1.00  0.00    -0.354 N 
ATOM     55  N   UNL A   1      46.718  27.659  29.979  1.00  0.00    -0.248 NA
ATOM     56  C   UNL A   1      47.029  27.488  27.678  1.00  0.00     0.031 C 
ATOM     57  C   UNL A   1      43.821  23.720  30.530  1.00  0.00     0.029 A 
ATOM     58  C   UNL A   1      44.899  24.410  29.969  1.00  0.00     0.049 A 
ATOM     59  H   UNL A   1      45.912  23.727  28.249  1.00  0.00     0.167 HD
ATOM     60  C   UNL A   1      46.407  26.361  29.611  1.00  0.00     0.074 A 
ATOM     61  C   UNL A   1      46.728  26.290  28.186  1.00  0.00     0.031 C 
ATOM     62  C   UNL A   1      45.667  25.554  30.428  1.00  0.00     0.034 A 
BRANCH  49  63
ATOM     63  C   UNL A   1      44.204  23.055  25.798  1.00  0.00     0.023 A 
ATOM     64  C   UNL A   1      44.096  21.670  25.559  1.00  0.00     0.031 A 
ATOM     65  C   UNL A   1      45.238  23.721  25.106  1.00  0.00     0.131 A 
ATOM     66  C   UNL A   1      45.037  20.999  24.760  1.00  0.00     0.055 A 
ATOM     67  C   UNL A   1      46.132  23.060  24.258  1.00  0.00     0.041 A 
ATOM     68  F   UNL A   1      45.506  25.020  25.284  1.00  0.00    -0.206 F 
ATOM     69  C   UNL A   1      46.055  21.687  24.106  1.00  0.00     0.022 A 
BRANCH  66  70
ATOM     70  S   UNL A   1      45.012  19.188  24.738  1.00  0.00     0.124 S 
ATOM     71  O   UNL A   1      46.129  18.868  25.620  1.00  0.00    -0.237 OA
ATOM     72  O   UNL A   1      43.679  18.900  25.255  1.00  0.00    -0.237 OA
ATOM     73  O   UNL A   1      45.217  18.864  23.328  1.00  0.00    -0.744 OA
ENDBRANCH  66  70
ENDBRANCH  49  63
BRANCH  50  74
ATOM     74  C   UNL A   1      47.066  30.811  28.109  1.00  0.00     0.023 A 
ATOM     75  C   UNL A   1      46.515  31.778  27.240  1.00  0.00     0.031 A 
ATOM     76  C   UNL A   1      48.337  31.098  28.653  1.00  0.00     0.131 A 
ATOM     77  C   UNL A   1      47.222  32.974  26.963  1.00  0.00     0.055 A 
ATOM     78  C   UNL A   1      49.030  32.281  28.378  1.00  0.00     0.041 A 
ATOM     79  F   UNL A   1      48.911  30.277  29.547  1.00  0.00    -0.206 F 
ATOM     80  C   UNL A   1      48.468  33.230  27.540  1.00  0.00     0.022 A 
BRANCH  77  81
ATOM     81  S   UNL A   1      46.481  34.271  25.915  1.00  0.00     0.124 S 
ATOM     82  O   UNL A   1      47.617  34.708  25.111  1.00  0.00    -0.237 OA
ATOM     83  O   UNL A   1      45.429  33.545  25.214  1.00  0.00    -0.237 OA
ATOM     84  O   UNL A   1      46.000  35.258  26.883  1.00  0.00    -0.744 OA
ENDBRANCH  77  81
ENDBRANCH  50  74
BRANCH  62  85
ATOM     85  C   UNL A   1      45.477  25.978  31.875  1.00  0.00     0.023 A 
ATOM     86  C   UNL A   1      44.300  26.549  32.414  1.00  0.00     0.031 A 
ATOM     87  C   UNL A   1      46.528  25.696  32.766  1.00  0.00     0.131 A 
ATOM     88  C   UNL A   1      44.217  26.825  33.794  1.00  0.00     0.055 A 
ATOM     89  C   UNL A   1      46.433  25.947  34.134  1.00  0.00     0.041 A 
ATOM     90  F   UNL A   1      47.665  25.136  32.321  1.00  0.00    -0.206 F 
ATOM     91  C   UNL A   1      45.279  26.519  34.653  1.00  0.00     0.022 A 
BRANCH  88  92
ATOM     92  S   UNL A   1      42.734  27.616  34.502  1.00  0.00     0.124 S 
ATOM     93  O   UNL A   1      43.276  28.707  35.303  1.00  0.00    -0.237 OA
ATOM     94  O   UNL A   1      41.985  28.009  33.312  1.00  0.00    -0.237 OA
ATOM     95  O   UNL A   1      42.114  26.541  35.280  1.00  0.00    -0.744 OA
ENDBRANCH  88  92
ENDBRANCH  62  85
ENDBRANCH  36  37
ENDBRANCH  28  31
ENDBRANCH  26  27
ENDBRANCH  25  26
ENDBRANCH   1  25
TORSDOF 18
ENDMDL
MODEL 2
REMARK VINA RESULT:     -12.1      4.541     10.438
REMARK SMILES CCn1nc(-c2cccnc2)c2cc(C(=O)NCCCCCCNC(=O)c3ccc(-c4c5nc(c(-c6cc(S(=O)(=O)[O-])ccc6F)c6ccc([nH]6)c(-c6cc(S(=O)(=O)[O-])ccc6F)c6nc(c(-c7cc(S(=O)(=O)[O-])ccc7F)c7ccc4[nH]7)C=C6)C=C5)cc3)sc21
REMARK SMILES IDX 21 1 20 2 19 3 18 4 17 5 15 6 16 7 14 9 3 10 4 11 91 12 5 13
REMARK SMILES IDX 12 14 90 15 13 16 2 17 1 18 6 19 7 20 11 21 8 22 10 23 9 24
REMARK SMILES IDX 22 25 23 26 24 27 25 28 26 30 27 31 28 32 89 33 29 34 88 35
REMARK SMILES IDX 30 36 31 37 32 38 82 39 33 40 87 41 81 42 83 43 34 44 86 45
REMARK SMILES IDX 80 46 79 47 35 49 67 50 47 51 66 52 48 53 51 54 65 55 84 56
REMARK SMILES IDX 49 57 50 58 64 60 85 61 52 62 36 63 37 64 45 65 38 66 44 67
REMARK SMILES IDX 46 68 43 69 39 70 40 71 41 72 42 73 68 74 69 75 77 76 70 77
REMARK SMILES IDX 76 78 78 79 75 80 71 81 72 82 73 83 74 84 53 85 54 86 62 87
REMARK SMILES IDX 55 88 61 89 63 90 60 91 56 92 57 93 58 94 59 95
REMARK H PARENT 17 8 24 29 83 48 51 59
REMARK Flexibility Score: inf
ROOT
ATOM      1  C   UNL A   1      35.878  23.140  26.170  1.00  0.00     0.002 C 
ENDROOT
BRANCH   1   2
ATOM      2  C   UNL A   1      35.311  21.793  25.691  1.00  0.00     0.002 C 
BRANCH   2   3
ATOM      3  C   UNL A   1      33.916  21.432  26.219  1.00  0.00     0.021 C 
BRANCH   3   4
ATOM      4  C   UNL A   1      32.786  22.186  25.514  1.00  0.00     0.116 C 
BRANCH   4   5
ATOM      5  N   UNL A   1      31.689  22.482  26.421  1.00  0.00    -0.351 N 
ATOM      6  C   UNL A   1      30.914  23.603  26.635  1.00  0.00     0.261 C 
ATOM      7  O   UNL A   1      29.975  23.444  27.422  1.00  0.00    -0.268 OA
ATOM      8  H   UNL A   1      31.449  21.726  27.003  1.00  0.00     0.163 HD
BRANCH   6   9
ATOM      9  C   UNL A   1      31.110  24.871  25.939  1.00  0.00     0.095 A 
ATOM     10  N   UNL A   1      30.564  27.994  23.971  1.00  0.00    -0.254 N 
ATOM     11  N   UNL A   1      31.261  29.013  24.552  1.00  0.00    -0.171 NA
ATOM     12  C   UNL A   1      30.841  26.815  24.557  1.00  0.00     0.122 A 
ATOM     13  C   UNL A   1      32.006  28.414  25.520  1.00  0.00     0.103 A 
ATOM     14  C   UNL A   1      31.660  27.062  25.576  1.00  0.00     0.040 A 
ATOM     15  S   UNL A   1      30.432  25.230  24.375  1.00  0.00    -0.110 S 
ATOM     16  C   UNL A   1      31.890  25.954  26.394  1.00  0.00     0.038 A 
BRANCH  10  17
ATOM     17  C   UNL A   1      29.514  28.258  23.011  1.00  0.00     0.142 C 
ATOM     18  C   UNL A   1      29.000  29.680  23.076  1.00  0.00     0.029 C 
ENDBRANCH  10  17
BRANCH  13  19
ATOM     19  C   UNL A   1      32.983  29.175  26.277  1.00  0.00     0.021 A 
ATOM     20  C   UNL A   1      34.204  28.615  26.662  1.00  0.00     0.013 A 
ATOM     21  C   UNL A   1      32.696  30.458  26.734  1.00  0.00     0.121 A 
ATOM     22  C   UNL A   1      35.072  29.341  27.474  1.00  0.00     0.021 A 
ATOM     23  N   UNL A   1      33.525  31.192  27.519  1.00  0.00    -0.264 NA
ATOM     24  C   UNL A   1      34.689  30.609  27.879  1.00  0.00     0.111 A 
ENDBRANCH  13  19
ENDBRANCH   6   9
ENDBRANCH   4   5
ENDBRANCH   3   4
ENDBRANCH   2   3
ENDBRANCH   1   2
BRANCH   1  25
ATOM     25  C   UNL A   1      37.217  23.575  25.555  1.00  0.00     0.021 C 
BRANCH  25  26
ATOM     26  C   UNL A   1      38.073  24.428  26.481  1.00  0.00     0.116 C 
BRANCH  26  27
ATOM     27  N   UNL A   1      39.452  24.533  26.014  1.00  0.00    -0.352 N 
ATOM     28  C   UNL A   1      40.333  25.588  26.163  1.00  0.00     0.251 C 
ATOM     29  H   UNL A   1      39.800  23.751  25.528  1.00  0.00     0.163 HD
ATOM     30  O   UNL A   1      41.283  25.703  25.406  1.00  0.00    -0.269 OA
BRANCH  28  31
ATOM     31  C   UNL A   1      40.088  26.575  27.235  1.00  0.00     0.039 A 
ATOM     32  C   UNL A   1      39.793  26.157  28.534  1.00  0.00     0.014 A 
ATOM     33  C   UNL A   1      40.181  27.933  26.936  1.00  0.00     0.014 A 
ATOM     34  C   UNL A   1      39.694  27.116  29.541  1.00  0.00     0.010 A 
ATOM     35  C   UNL A   1      40.217  28.865  27.951  1.00  0.00     0.010 A 
ATOM     36  C   UNL A   1      39.947  28.472  29.254  1.00  0.00    -0.014 A 
BRANCH  36  37
ATOM     37  C   UNL A   1      40.055  29.448  30.343  1.00  0.00     0.031 A 
ATOM     38  C   UNL A   1      38.808  30.214  30.603  1.00  0.00     0.074 A 
ATOM     39  C   UNL A   1      41.116  29.593  31.168  1.00  0.00     0.049 A 
ATOM     40  N   UNL A   1      38.577  31.439  30.273  1.00  0.00    -0.248 NA
ATOM     41  C   UNL A   1      37.630  29.513  31.134  1.00  0.00     0.031 C 
ATOM     42  C   UNL A   1      42.337  28.785  31.241  1.00  0.00     0.029 A 
ATOM     43  N   UNL A   1      41.289  30.483  32.188  1.00  0.00    -0.354 N 
ATOM     44  C   UNL A   1      37.315  31.747  30.763  1.00  0.00     0.074 A 
ATOM     45  C   UNL A   1      36.713  30.485  31.110  1.00  0.00     0.031 C 
ATOM     46  C   UNL A   1      43.017  29.081  32.372  1.00  0.00     0.029 A 
ATOM     47  C   UNL A   1      42.382  30.219  33.010  1.00  0.00     0.049 A 
ATOM     48  H   UNL A   1      40.688  31.250  32.333  1.00  0.00     0.167 HD
ATOM     49  C   UNL A   1      36.970  33.036  31.040  1.00  0.00     0.034 A 
ATOM     50  C   UNL A   1      42.772  30.902  34.120  1.00  0.00     0.034 A 
ATOM     51  C   UNL A   1      37.923  33.958  30.459  1.00  0.00     0.049 A 
ATOM     52  C   UNL A   1      42.241  32.276  33.978  1.00  0.00     0.074 A 
ATOM     53  C   UNL A   1      38.350  34.236  29.176  1.00  0.00     0.029 A 
ATOM     54  N   UNL A   1      38.885  34.485  31.292  1.00  0.00    -0.354 N 
ATOM     55  N   UNL A   1      42.638  33.099  33.046  1.00  0.00    -0.248 NA
ATOM     56  C   UNL A   1      40.945  32.584  34.560  1.00  0.00     0.031 C 
ATOM     57  C   UNL A   1      39.755  34.456  29.296  1.00  0.00     0.029 A 
ATOM     58  C   UNL A   1      40.095  34.387  30.649  1.00  0.00     0.049 A 
ATOM     59  H   UNL A   1      38.733  34.864  32.188  1.00  0.00     0.167 HD
ATOM     60  C   UNL A   1      41.483  33.728  32.610  1.00  0.00     0.074 A 
ATOM     61  C   UNL A   1      40.496  33.459  33.655  1.00  0.00     0.031 C 
ATOM     62  C   UNL A   1      41.363  34.171  31.324  1.00  0.00     0.034 A 
BRANCH  49  63
ATOM     63  C   UNL A   1      36.006  33.475  32.116  1.00  0.00     0.023 A 
ATOM     64  C   UNL A   1      34.982  34.368  31.740  1.00  0.00     0.031 A 
ATOM     65  C   UNL A   1      36.204  33.314  33.504  1.00  0.00     0.131 A 
ATOM     66  C   UNL A   1      34.288  35.119  32.704  1.00  0.00     0.055 A 
ATOM     67  C   UNL A   1      35.464  34.013  34.462  1.00  0.00     0.041 A 
ATOM     68  F   UNL A   1      37.181  32.554  34.011  1.00  0.00    -0.206 F 
ATOM     69  C   UNL A   1      34.522  34.946  34.065  1.00  0.00     0.022 A 
BRANCH  66  70
ATOM     70  S   UNL A   1      33.203  36.454  32.137  1.00  0.00     0.124 S 
ATOM     71  O   UNL A   1      31.895  35.972  32.566  1.00  0.00    -0.237 OA
ATOM     72  O   UNL A   1      33.736  37.603  32.861  1.00  0.00    -0.237 OA
ATOM     73  O   UNL A   1      33.417  36.474  30.692  1.00  0.00    -0.744 OA
ENDBRANCH  66  70
ENDBRANCH  49  63
BRANCH  50  74
ATOM     74  C   UNL A   1      43.293  30.346  35.400  1.00  0.00     0.023 A 
ATOM     75  C   UNL A   1      43.049  29.019  35.817  1.00  0.00     0.031 A 
ATOM     76  C   UNL A   1      44.281  31.062  36.112  1.00  0.00     0.131 A 
ATOM     77  C   UNL A   1      43.788  28.459  36.887  1.00  0.00     0.055 A 
ATOM     78  C   UNL A   1      45.009  30.504  37.166  1.00  0.00     0.041 A 
ATOM     79  F   UNL A   1      44.638  32.303  35.744  1.00  0.00    -0.206 F 
ATOM     80  C   UNL A   1      44.773  29.194  37.551  1.00  0.00     0.022 A 
BRANCH  77  81
ATOM     81  S   UNL A   1      43.546  26.718  37.375  1.00  0.00     0.124 S 
ATOM     82  O   UNL A   1      42.093  26.597  37.387  1.00  0.00    -0.237 OA
ATOM     83  O   UNL A   1      44.249  25.996  36.321  1.00  0.00    -0.237 OA
ATOM     84  O   UNL A   1      44.178  26.641  38.693  1.00  0.00    -0.744 OA
ENDBRANCH  77  81
ENDBRANCH  50  74
BRANCH  62  85
ATOM     85  C   UNL A   1      42.622  34.267  30.478  1.00  0.00     0.023 A 
ATOM     86  C   UNL A   1      43.021  33.333  29.494  1.00  0.00     0.031 A 
ATOM     87  C   UNL A   1      43.404  35.427  30.626  1.00  0.00     0.131 A 
ATOM     88  C   UNL A   1      44.171  33.576  28.714  1.00  0.00     0.055 A 
ATOM     89  C   UNL A   1      44.525  35.676  29.836  1.00  0.00     0.041 A 
ATOM     90  F   UNL A   1      43.067  36.363  31.529  1.00  0.00    -0.206 F 
ATOM     91  C   UNL A   1      44.918  34.748  28.882  1.00  0.00     0.022 A 
BRANCH  88  92
ATOM     92  S   UNL A   1      44.740  32.358  27.481  1.00  0.00     0.124 S 
ATOM     93  O   UNL A   1      46.174  32.262  27.730  1.00  0.00    -0.237 OA
ATOM     94  O   UNL A   1      43.953  31.175  27.817  1.00  0.00    -0.237 OA
ATOM     95  O   UNL A   1      44.386  32.978  26.202  1.00  0.00    -0.744 OA
ENDBRANCH  88  92
ENDBRANCH  62  85
ENDBRANCH  36  37
ENDBRANCH  28  31
ENDBRANCH  26  27
ENDBRANCH  25  26
ENDBRANCH   1  25
TORSDOF 18
ENDMDL
MODEL 3
REMARK VINA RESULT:     -12.0      2.886      7.413
REMARK SMILES CCn1nc(-c2cccnc2)c2cc(C(=O)NCCCCCCNC(=O)c3ccc(-c4c5nc(c(-c6cc(S(=O)(=O)[O-])ccc6F)c6ccc([nH]6)c(-c6cc(S(=O)(=O)[O-])ccc6F)c6nc(c(-c7cc(S(=O)(=O)[O-])ccc7F)c7ccc4[nH]7)C=C6)C=C5)cc3)sc21
REMARK SMILES IDX 21 1 20 2 19 3 18 4 17 5 15 6 16 7 14 9 3 10 4 11 91 12 5 13
REMARK SMILES IDX 12 14 90 15 13 16 2 17 1 18 6 19 7 20 11 21 8 22 10 23 9 24
REMARK SMILES IDX 22 25 23 26 24 27 25 28 26 30 27 31 28 32 89 33 29 34 88 35
REMARK SMILES IDX 30 36 31 37 32 38 82 39 33 40 87 41 81 42 83 43 34 44 86 45
REMARK SMILES IDX 80 46 79 47 35 49 67 50 47 51 66 52 48 53 51 54 65 55 84 56
REMARK SMILES IDX 49 57 50 58 64 60 85 61 52 62 36 63 37 64 45 65 38 66 44 67
REMARK SMILES IDX 46 68 43 69 39 70 40 71 41 72 42 73 68 74 69 75 77 76 70 77
REMARK SMILES IDX 76 78 78 79 75 80 71 81 72 82 73 83 74 84 53 85 54 86 62 87
REMARK SMILES IDX 55 88 61 89 63 90 60 91 56 92 57 93 58 94 59 95
REMARK H PARENT 17 8 24 29 83 48 51 59
REMARK Flexibility Score: inf
ROOT
ATOM      1  C   UNL A   1      33.809  29.827  26.853  1.00  0.00     0.002 C 
ENDROOT
BRANCH   1   2
ATOM      2  C   UNL A   1      33.108  28.534  27.304  1.00  0.00     0.002 C 
BRANCH   2   3
ATOM      3  C   UNL A   1      31.886  28.114  26.475  1.00  0.00     0.021 C 
BRANCH   3   4
ATOM      4  C   UNL A   1      32.056  26.758  25.787  1.00  0.00     0.116 C 
BRANCH   4   5
ATOM      5  N   UNL A   1      31.338  25.706  26.487  1.00  0.00    -0.351 N 
ATOM      6  C   UNL A   1      31.554  24.352  26.640  1.00  0.00     0.261 C 
ATOM      7  O   UNL A   1      30.783  23.787  27.422  1.00  0.00    -0.268 OA
ATOM      8  H   UNL A   1      30.530  26.026  26.950  1.00  0.00     0.163 HD
BRANCH   6   9
ATOM      9  C   UNL A   1      32.651  23.628  26.005  1.00  0.00     0.095 A 
ATOM     10  N   UNL A   1      36.025  22.296  25.127  1.00  0.00    -0.254 N 
ATOM     11  N   UNL A   1      35.918  20.965  24.846  1.00  0.00    -0.171 NA
ATOM     12  C   UNL A   1      34.815  22.857  25.309  1.00  0.00     0.122 A 
ATOM     13  C   UNL A   1      34.580  20.720  24.841  1.00  0.00     0.103 A 
ATOM     14  C   UNL A   1      33.911  21.884  25.228  1.00  0.00     0.040 A 
ATOM     15  S   UNL A   1      34.190  24.348  25.621  1.00  0.00    -0.110 S 
ATOM     16  C   UNL A   1      32.621  22.283  25.580  1.00  0.00     0.038 A 
BRANCH  10  17
ATOM     17  C   UNL A   1      37.310  22.902  25.403  1.00  0.00     0.142 C 
ATOM     18  C   UNL A   1      38.401  21.882  25.645  1.00  0.00     0.029 C 
ENDBRANCH  10  17
BRANCH  13  19
ATOM     19  C   UNL A   1      34.068  19.419  24.451  1.00  0.00     0.021 A 
ATOM     20  C   UNL A   1      34.804  18.251  24.668  1.00  0.00     0.013 A 
ATOM     21  C   UNL A   1      32.869  19.298  23.754  1.00  0.00     0.121 A 
ATOM     22  C   UNL A   1      34.327  17.034  24.189  1.00  0.00     0.021 A 
ATOM     23  N   UNL A   1      32.375  18.125  23.282  1.00  0.00    -0.264 NA
ATOM     24  C   UNL A   1      33.123  17.023  23.503  1.00  0.00     0.111 A 
ENDBRANCH  13  19
ENDBRANCH   6   9
ENDBRANCH   4   5
ENDBRANCH   3   4
ENDBRANCH   2   3
ENDBRANCH   1   2
BRANCH   1  25
ATOM     25  C   UNL A   1      33.316  31.132  27.496  1.00  0.00     0.021 C 
BRANCH  25  26
ATOM     26  C   UNL A   1      34.409  32.171  27.699  1.00  0.00     0.116 C 
BRANCH  26  27
ATOM     27  N   UNL A   1      34.420  32.701  29.059  1.00  0.00    -0.352 N 
ATOM     28  C   UNL A   1      35.149  32.261  30.148  1.00  0.00     0.251 C 
ATOM     29  H   UNL A   1      33.830  33.472  29.223  1.00  0.00     0.163 HD
ATOM     30  O   UNL A   1      34.778  32.525  31.280  1.00  0.00    -0.269 OA
BRANCH  28  31
ATOM     31  C   UNL A   1      36.363  31.452  29.913  1.00  0.00     0.039 A 
ATOM     32  C   UNL A   1      37.630  32.036  29.970  1.00  0.00     0.014 A 
ATOM     33  C   UNL A   1      36.227  30.089  29.656  1.00  0.00     0.014 A 
ATOM     34  C   UNL A   1      38.752  31.215  29.869  1.00  0.00     0.010 A 
ATOM     35  C   UNL A   1      37.330  29.264  29.691  1.00  0.00     0.010 A 
ATOM     36  C   UNL A   1      38.601  29.818  29.769  1.00  0.00    -0.014 A 
BRANCH  36  37
ATOM     37  C   UNL A   1      39.769  28.941  29.877  1.00  0.00     0.031 A 
ATOM     38  C   UNL A   1      40.159  28.611  31.274  1.00  0.00     0.074 A 
ATOM     39  C   UNL A   1      40.399  28.336  28.845  1.00  0.00     0.049 A 
ATOM     40  N   UNL A   1      41.157  29.099  31.927  1.00  0.00    -0.248 NA
ATOM     41  C   UNL A   1      39.262  27.785  32.095  1.00  0.00     0.031 C 
ATOM     42  C   UNL A   1      40.033  28.331  27.425  1.00  0.00     0.029 A 
ATOM     43  N   UNL A   1      41.493  27.521  28.872  1.00  0.00    -0.354 N 
ATOM     44  C   UNL A   1      41.165  28.467  33.164  1.00  0.00     0.074 A 
ATOM     45  C   UNL A   1      39.882  27.820  33.279  1.00  0.00     0.031 C 
ATOM     46  C   UNL A   1      40.752  27.391  26.769  1.00  0.00     0.029 A 
ATOM     47  C   UNL A   1      41.752  26.857  27.675  1.00  0.00     0.049 A 
ATOM     48  H   UNL A   1      42.055  27.410  29.674  1.00  0.00     0.167 HD
ATOM     49  C   UNL A   1      42.316  28.356  33.883  1.00  0.00     0.034 A 
ATOM     50  C   UNL A   1      42.739  25.955  27.421  1.00  0.00     0.034 A 
ATOM     51  C   UNL A   1      43.340  29.231  33.351  1.00  0.00     0.049 A 
ATOM     52  C   UNL A   1      43.826  26.236  28.386  1.00  0.00     0.074 A 
ATOM     53  C   UNL A   1      43.457  30.595  33.172  1.00  0.00     0.029 A 
ATOM     54  N   UNL A   1      44.296  28.666  32.536  1.00  0.00    -0.354 N 
ATOM     55  N   UNL A   1      44.514  27.344  28.379  1.00  0.00    -0.248 NA
ATOM     56  C   UNL A   1      43.841  25.509  29.645  1.00  0.00     0.031 C 
ATOM     57  C   UNL A   1      44.113  30.744  31.913  1.00  0.00     0.029 A 
ATOM     58  C   UNL A   1      44.436  29.473  31.434  1.00  0.00     0.049 A 
ATOM     59  H   UNL A   1      44.791  27.833  32.713  1.00  0.00     0.167 HD
ATOM     60  C   UNL A   1      44.657  27.683  29.714  1.00  0.00     0.074 A 
ATOM     61  C   UNL A   1      44.328  26.461  30.446  1.00  0.00     0.031 C 
ATOM     62  C   UNL A   1      44.762  28.989  30.103  1.00  0.00     0.034 A 
BRANCH  49  63
ATOM     63  C   UNL A   1      42.659  27.225  34.824  1.00  0.00     0.023 A 
ATOM     64  C   UNL A   1      43.467  26.187  34.319  1.00  0.00     0.031 A 
ATOM     65  C   UNL A   1      42.015  26.963  36.052  1.00  0.00     0.131 A 
ATOM     66  C   UNL A   1      43.526  24.939  34.961  1.00  0.00     0.055 A 
ATOM     67  C   UNL A   1      42.131  25.742  36.724  1.00  0.00     0.041 A 
ATOM     68  F   UNL A   1      41.164  27.824  36.621  1.00  0.00    -0.206 F 
ATOM     69  C   UNL A   1      42.863  24.709  36.163  1.00  0.00     0.022 A 
BRANCH  66  70
ATOM     70  S   UNL A   1      44.339  23.567  34.103  1.00  0.00     0.124 S 
ATOM     71  O   UNL A   1      45.288  24.274  33.251  1.00  0.00    -0.237 OA
ATOM     72  O   UNL A   1      44.909  22.812  35.214  1.00  0.00    -0.237 OA
ATOM     73  O   UNL A   1      43.240  22.908  33.401  1.00  0.00    -0.744 OA
ENDBRANCH  66  70
ENDBRANCH  49  63
BRANCH  50  74
ATOM     74  C   UNL A   1      42.649  24.703  26.619  1.00  0.00     0.023 A 
ATOM     75  C   UNL A   1      43.618  24.333  25.661  1.00  0.00     0.031 A 
ATOM     76  C   UNL A   1      41.718  23.709  26.995  1.00  0.00     0.131 A 
ATOM     77  C   UNL A   1      43.637  23.018  25.136  1.00  0.00     0.055 A 
ATOM     78  C   UNL A   1      41.742  22.413  26.475  1.00  0.00     0.041 A 
ATOM     79  F   UNL A   1      40.806  23.940  27.953  1.00  0.00    -0.206 F 
ATOM     80  C   UNL A   1      42.712  22.058  25.550  1.00  0.00     0.022 A 
BRANCH  77  81
ATOM     81  S   UNL A   1      44.939  22.502  23.966  1.00  0.00     0.124 S 
ATOM     82  O   UNL A   1      45.492  21.320  24.617  1.00  0.00    -0.237 OA
ATOM     83  O   UNL A   1      44.186  22.275  22.738  1.00  0.00    -0.237 OA
ATOM     84  O   UNL A   1      45.838  23.656  23.925  1.00  0.00    -0.744 OA
ENDBRANCH  77  81
ENDBRANCH  50  74
BRANCH  62  85
ATOM     85  C   UNL A   1      45.054  30.033  29.039  1.00  0.00     0.023 A 
ATOM     86  C   UNL A   1      46.343  30.432  28.615  1.00  0.00     0.031 A 
ATOM     87  C   UNL A   1      43.950  30.580  28.361  1.00  0.00     0.131 A 
ATOM     88  C   UNL A   1      46.484  31.354  27.556  1.00  0.00     0.055 A 
ATOM     89  C   UNL A   1      44.094  31.471  27.299  1.00  0.00     0.041 A 
ATOM     90  F   UNL A   1      42.699  30.227  28.702  1.00  0.00    -0.206 F 
ATOM     91  C   UNL A   1      45.362  31.867  26.897  1.00  0.00     0.022 A 
BRANCH  88  92
ATOM     92  S   UNL A   1      48.134  31.929  27.031  1.00  0.00     0.124 S 
ATOM     93  O   UNL A   1      48.758  30.729  26.486  1.00  0.00    -0.237 OA
ATOM     94  O   UNL A   1      47.812  32.976  26.065  1.00  0.00    -0.237 OA
ATOM     95  O   UNL A   1      48.736  32.416  28.274  1.00  0.00    -0.744 OA
ENDBRANCH  88  92
ENDBRANCH  62  85
ENDBRANCH  36  37
ENDBRANCH  28  31
ENDBRANCH  26  27
ENDBRANCH  25  26
ENDBRANCH   1  25
TORSDOF 18
ENDMDL
