MODEL 1
REMARK VINA RESULT:     -11.7      0.000      0.000
REMARK SMILES CC[C@@H](C)c1ccccc1NC(=O)[C@@H]1[C@@H](C(=O)NCCCCCCNC(=O)c2ccc(-c3c4nc(c(-c5cc(S(=O)(=O)[O-])ccc5F)c5ccc([nH]5)c(-c5cc(S(=O)(=O)[O-])ccc5F)c5nc(c(-c6cc(S(=O)(=O)[O-])ccc6F)c6ccc3[nH]6)C=C5)C=C4)cc2)[C@@H]2C=C[C@H]1C2
REMARK SMILES IDX 21 1 20 2 19 3 18 4 16 5 17 6 15 8 14 9 94 10 91 11 93 12
REMARK SMILES IDX 95 13 92 14 12 15 11 16 13 18 10 19 5 20 6 21 7 22 9 23 8 24
REMARK SMILES IDX 3 25 4 26 2 27 1 28 22 29 23 30 24 31 25 32 26 33 27 35
REMARK SMILES IDX 28 36 29 37 90 38 30 39 89 40 31 41 32 42 33 43 83 44 34 45
REMARK SMILES IDX 88 46 82 47 84 48 35 49 87 50 81 51 80 52 36 54 68 55 48 56
REMARK SMILES IDX 67 57 49 58 52 59 66 60 85 61 50 62 51 63 65 65 86 66 53 67
REMARK SMILES IDX 37 68 38 69 46 70 39 71 45 72 47 73 44 74 40 75 41 76 42 77
REMARK SMILES IDX 43 78 69 79 70 80 78 81 71 82 77 83 79 84 76 85 72 86 73 87
REMARK SMILES IDX 74 88 75 89 54 90 55 91 63 92 56 93 62 94 64 95 61 96 57 97
REMARK SMILES IDX 58 98 59 99 60 100
REMARK H PARENT 18 7 11 17 25 34 84 53 52 64
REMARK Flexibility Score: inf
ROOT
ATOM      1  C   UNL A   1      30.771  30.379  24.695  1.00  0.00     0.002 C 
ENDROOT
BRANCH   1   2
ATOM      2  C   UNL A   1      29.793  30.087  23.546  1.00  0.00     0.021 C 
BRANCH   2   3
ATOM      3  C   UNL A   1      30.174  28.915  22.641  1.00  0.00     0.116 C 
BRANCH   3   4
ATOM      4  N   UNL A   1      29.637  27.650  23.114  1.00  0.00    -0.356 N 
ATOM      5  C   UNL A   1      30.284  26.555  23.612  1.00  0.00     0.224 C 
ATOM      6  O   UNL A   1      29.616  25.537  23.803  1.00  0.00    -0.275 OA
ATOM      7  H   UNL A   1      28.656  27.570  23.070  1.00  0.00     0.163 HD
BRANCH   5   8
ATOM      8  C   UNL A   1      31.780  26.623  23.908  1.00  0.00     0.098 C 
ATOM      9  C   UNL A   1      32.484  25.195  23.853  1.00  0.00     0.099 C 
ATOM     10  C   UNL A   1      33.042  25.067  25.301  1.00  0.00     0.025 C 
ATOM     11  C   UNL A   1      32.009  27.029  25.389  1.00  0.00     0.025 C 
ATOM     12  C   UNL A   1      34.099  26.121  25.530  1.00  0.00    -0.027 C 
ATOM     13  C   UNL A   1      31.912  25.686  26.109  1.00  0.00     0.017 C 
ATOM     14  C   UNL A   1      33.479  27.306  25.569  1.00  0.00    -0.027 C 
BRANCH   9  15
ATOM     15  C   UNL A   1      33.568  25.034  22.772  1.00  0.00     0.228 C 
ATOM     16  N   UNL A   1      34.259  23.840  22.654  1.00  0.00    -0.326 N 
ATOM     17  H   UNL A   1      35.023  23.840  22.034  1.00  0.00     0.169 HD
ATOM     18  O   UNL A   1      33.868  25.957  22.011  1.00  0.00    -0.274 OA
BRANCH  16  19
ATOM     19  C   UNL A   1      33.995  22.627  23.316  1.00  0.00     0.044 A 
ATOM     20  C   UNL A   1      34.947  22.040  24.175  1.00  0.00    -0.022 A 
ATOM     21  C   UNL A   1      34.484  21.053  25.071  1.00  0.00     0.006 A 
ATOM     22  C   UNL A   1      33.176  20.565  25.016  1.00  0.00     0.000 A 
ATOM     23  C   UNL A   1      32.723  22.047  23.186  1.00  0.00     0.026 A 
ATOM     24  C   UNL A   1      32.312  21.022  24.034  1.00  0.00     0.002 A 
BRANCH  20  25
ATOM     25  C   UNL A   1      36.426  22.429  24.206  1.00  0.00     0.018 C 
ATOM     26  C   UNL A   1      37.269  21.250  24.725  1.00  0.00     0.013 C 
BRANCH  25  27
ATOM     27  C   UNL A   1      36.681  23.713  25.018  1.00  0.00     0.005 C 
ATOM     28  C   UNL A   1      37.768  23.572  26.078  1.00  0.00     0.004 C 
ENDBRANCH  25  27
ENDBRANCH  20  25
ENDBRANCH  16  19
ENDBRANCH   9  15
ENDBRANCH   5   8
ENDBRANCH   3   4
ENDBRANCH   2   3
ENDBRANCH   1   2
BRANCH   1  29
ATOM     29  C   UNL A   1      30.570  31.696  25.452  1.00  0.00     0.002 C 
BRANCH  29  30
ATOM     30  C   UNL A   1      31.257  31.812  26.816  1.00  0.00     0.021 C 
BRANCH  30  31
ATOM     31  C   UNL A   1      32.608  32.528  26.836  1.00  0.00     0.116 C 
BRANCH  31  32
ATOM     32  N   UNL A   1      32.541  33.869  27.386  1.00  0.00    -0.352 N 
ATOM     33  C   UNL A   1      33.261  34.432  28.410  1.00  0.00     0.251 C 
ATOM     34  H   UNL A   1      31.881  34.465  26.961  1.00  0.00     0.163 HD
ATOM     35  O   UNL A   1      32.969  35.569  28.790  1.00  0.00    -0.269 OA
BRANCH  33  36
ATOM     36  C   UNL A   1      34.348  33.687  29.089  1.00  0.00     0.039 A 
ATOM     37  C   UNL A   1      35.665  34.119  28.908  1.00  0.00     0.014 A 
ATOM     38  C   UNL A   1      34.095  32.560  29.879  1.00  0.00     0.014 A 
ATOM     39  C   UNL A   1      36.714  33.466  29.561  1.00  0.00     0.010 A 
ATOM     40  C   UNL A   1      35.136  31.948  30.584  1.00  0.00     0.010 A 
ATOM     41  C   UNL A   1      36.457  32.395  30.433  1.00  0.00    -0.014 A 
BRANCH  41  42
ATOM     42  C   UNL A   1      37.568  31.764  31.197  1.00  0.00     0.031 A 
ATOM     43  C   UNL A   1      38.430  30.700  30.572  1.00  0.00     0.074 A 
ATOM     44  C   UNL A   1      37.783  32.140  32.473  1.00  0.00     0.049 A 
ATOM     45  N   UNL A   1      39.462  30.071  31.075  1.00  0.00    -0.248 NA
ATOM     46  C   UNL A   1      38.068  30.268  29.215  1.00  0.00     0.031 C 
ATOM     47  C   UNL A   1      36.976  33.114  33.212  1.00  0.00     0.029 A 
ATOM     48  N   UNL A   1      38.745  31.757  33.374  1.00  0.00    -0.354 N 
ATOM     49  C   UNL A   1      39.874  29.170  30.098  1.00  0.00     0.074 A 
ATOM     50  C   UNL A   1      38.936  29.291  29.001  1.00  0.00     0.031 C 
ATOM     51  C   UNL A   1      37.498  33.279  34.438  1.00  0.00     0.029 A 
ATOM     52  C   UNL A   1      38.657  32.405  34.586  1.00  0.00     0.049 A 
ATOM     53  H   UNL A   1      39.433  31.082  33.174  1.00  0.00     0.167 HD
ATOM     54  C   UNL A   1      40.947  28.338  30.105  1.00  0.00     0.034 A 
ATOM     55  C   UNL A   1      39.425  32.311  35.688  1.00  0.00     0.034 A 
ATOM     56  C   UNL A   1      41.876  28.231  31.207  1.00  0.00     0.049 A 
ATOM     57  C   UNL A   1      40.616  31.389  35.669  1.00  0.00     0.074 A 
ATOM     58  C   UNL A   1      43.026  27.464  31.296  1.00  0.00     0.029 A 
ATOM     59  N   UNL A   1      41.757  28.903  32.417  1.00  0.00    -0.354 N 
ATOM     60  N   UNL A   1      41.035  30.597  34.708  1.00  0.00    -0.248 NA
ATOM     61  C   UNL A   1      41.451  31.367  36.876  1.00  0.00     0.031 C 
ATOM     62  C   UNL A   1      43.564  27.623  32.579  1.00  0.00     0.029 A 
ATOM     63  C   UNL A   1      42.794  28.545  33.268  1.00  0.00     0.049 A 
ATOM     64  H   UNL A   1      41.040  29.541  32.639  1.00  0.00     0.167 HD
ATOM     65  C   UNL A   1      42.193  29.996  35.191  1.00  0.00     0.074 A 
ATOM     66  C   UNL A   1      42.423  30.543  36.513  1.00  0.00     0.031 C 
ATOM     67  C   UNL A   1      42.995  29.074  34.598  1.00  0.00     0.034 A 
BRANCH  54  68
ATOM     68  C   UNL A   1      41.154  27.464  28.889  1.00  0.00     0.023 A 
ATOM     69  C   UNL A   1      42.157  27.742  27.943  1.00  0.00     0.031 A 
ATOM     70  C   UNL A   1      40.324  26.352  28.657  1.00  0.00     0.131 A 
ATOM     71  C   UNL A   1      42.254  26.970  26.774  1.00  0.00     0.055 A 
ATOM     72  C   UNL A   1      40.479  25.538  27.532  1.00  0.00     0.041 A 
ATOM     73  F   UNL A   1      39.338  26.045  29.514  1.00  0.00    -0.206 F 
ATOM     74  C   UNL A   1      41.438  25.855  26.574  1.00  0.00     0.022 A 
BRANCH  71  75
ATOM     75  S   UNL A   1      43.365  27.531  25.455  1.00  0.00     0.124 S 
ATOM     76  O   UNL A   1      44.291  28.387  26.193  1.00  0.00    -0.237 OA
ATOM     77  O   UNL A   1      43.916  26.278  24.951  1.00  0.00    -0.237 OA
ATOM     78  O   UNL A   1      42.476  28.236  24.535  1.00  0.00    -0.744 OA
ENDBRANCH  71  75
ENDBRANCH  54  68
BRANCH  55  79
ATOM     79  C   UNL A   1      39.105  33.115  36.903  1.00  0.00     0.023 A 
ATOM     80  C   UNL A   1      39.634  34.403  37.078  1.00  0.00     0.031 A 
ATOM     81  C   UNL A   1      38.294  32.589  37.924  1.00  0.00     0.131 A 
ATOM     82  C   UNL A   1      39.384  35.106  38.268  1.00  0.00     0.055 A 
ATOM     83  C   UNL A   1      38.008  33.311  39.083  1.00  0.00     0.041 A 
ATOM     84  F   UNL A   1      37.757  31.365  37.801  1.00  0.00    -0.206 F 
ATOM     85  C   UNL A   1      38.565  34.573  39.266  1.00  0.00     0.022 A 
BRANCH  82  86
ATOM     86  S   UNL A   1      40.210  36.700  38.525  1.00  0.00     0.124 S 
ATOM     87  O   UNL A   1      41.171  36.373  39.572  1.00  0.00    -0.237 OA
ATOM     88  O   UNL A   1      40.767  36.969  37.204  1.00  0.00    -0.237 OA
ATOM     89  O   UNL A   1      39.121  37.586  38.932  1.00  0.00    -0.744 OA
ENDBRANCH  82  86
ENDBRANCH  55  79
BRANCH  67  90
ATOM     90  C   UNL A   1      44.203  28.623  35.384  1.00  0.00     0.023 A 
ATOM     91  C   UNL A   1      44.126  27.563  36.306  1.00  0.00     0.031 A 
ATOM     92  C   UNL A   1      45.431  29.295  35.253  1.00  0.00     0.131 A 
ATOM     93  C   UNL A   1      45.230  27.257  37.116  1.00  0.00     0.055 A 
ATOM     94  C   UNL A   1      46.547  28.941  36.012  1.00  0.00     0.041 A 
ATOM     95  F   UNL A   1      45.564  30.315  34.390  1.00  0.00    -0.206 F 
ATOM     96  C   UNL A   1      46.445  27.930  36.964  1.00  0.00     0.022 A 
BRANCH  93  97
ATOM     97  S   UNL A   1      45.017  26.056  38.458  1.00  0.00     0.124 S 
ATOM     98  O   UNL A   1      46.399  25.771  38.833  1.00  0.00    -0.237 OA
ATOM     99  O   UNL A   1      44.237  26.812  39.432  1.00  0.00    -0.237 OA
ATOM    100  O   UNL A   1      44.308  24.949  37.819  1.00  0.00    -0.744 OA
ENDBRANCH  93  97
ENDBRANCH  67  90
ENDBRANCH  41  42
ENDBRANCH  33  36
ENDBRANCH  31  32
ENDBRANCH  30  31
ENDBRANCH  29  30
ENDBRANCH   1  29
TORSDOF 20
ENDMDL
MODEL 2
REMARK VINA RESULT:     -11.5      5.511     11.411
REMARK SMILES CC[C@@H](C)c1ccccc1NC(=O)[C@@H]1[C@@H](C(=O)NCCCCCCNC(=O)c2ccc(-c3c4nc(c(-c5cc(S(=O)(=O)[O-])ccc5F)c5ccc([nH]5)c(-c5cc(S(=O)(=O)[O-])ccc5F)c5nc(c(-c6cc(S(=O)(=O)[O-])ccc6F)c6ccc3[nH]6)C=C5)C=C4)cc2)[C@@H]2C=C[C@H]1C2
REMARK SMILES IDX 21 1 20 2 19 3 18 4 16 5 17 6 15 8 14 9 94 10 91 11 93 12
REMARK SMILES IDX 95 13 92 14 12 15 11 16 13 18 10 19 5 20 6 21 7 22 9 23 8 24
REMARK SMILES IDX 3 25 4 26 2 27 1 28 22 29 23 30 24 31 25 32 26 33 27 35
REMARK SMILES IDX 28 36 29 37 90 38 30 39 89 40 31 41 32 42 33 43 83 44 34 45
REMARK SMILES IDX 88 46 82 47 84 48 35 49 87 50 81 51 80 52 36 54 68 55 48 56
REMARK SMILES IDX 67 57 49 58 52 59 66 60 85 61 50 62 51 63 65 65 86 66 53 67
REMARK SMILES IDX 37 68 38 69 46 70 39 71 45 72 47 73 44 74 40 75 41 76 42 77
REMARK SMILES IDX 43 78 69 79 70 80 78 81 71 82 77 83 79 84 76 85 72 86 73 87
REMARK SMILES IDX 74 88 75 89 54 90 55 91 63 92 56 93 62 94 64 95 61 96 57 97
REMARK SMILES IDX 58 98 59 99 60 100
REMARK H PARENT 18 7 11 17 25 34 84 53 52 64
REMARK Flexibility Score: inf
ROOT
ATOM      1  C   UNL A   1      38.817  23.621  26.574  1.00  0.00     0.002 C 
ENDROOT
BRANCH   1   2
ATOM      2  C   UNL A   1      37.729  23.278  25.544  1.00  0.00     0.021 C 
BRANCH   2   3
ATOM      3  C   UNL A   1      36.315  23.729  25.908  1.00  0.00     0.116 C 
BRANCH   3   4
ATOM      4  N   UNL A   1      35.574  22.709  26.631  1.00  0.00    -0.356 N 
ATOM      5  C   UNL A   1      34.415  22.067  26.299  1.00  0.00     0.224 C 
ATOM      6  O   UNL A   1      33.898  21.347  27.154  1.00  0.00    -0.275 OA
ATOM      7  H   UNL A   1      35.968  22.437  27.492  1.00  0.00     0.163 HD
BRANCH   5   8
ATOM      8  C   UNL A   1      33.810  22.258  24.910  1.00  0.00     0.098 C 
ATOM      9  C   UNL A   1      33.147  23.694  24.719  1.00  0.00     0.099 C 
ATOM     10  C   UNL A   1      31.670  23.316  24.406  1.00  0.00     0.025 C 
ATOM     11  C   UNL A   1      32.585  21.321  24.732  1.00  0.00     0.025 C 
ATOM     12  C   UNL A   1      31.605  22.573  23.093  1.00  0.00    -0.027 C 
ATOM     13  C   UNL A   1      31.458  22.144  25.352  1.00  0.00     0.017 C 
ATOM     14  C   UNL A   1      32.170  21.375  23.284  1.00  0.00    -0.027 C 
BRANCH   9  15
ATOM     15  C   UNL A   1      33.788  24.577  23.632  1.00  0.00     0.228 C 
ATOM     16  N   UNL A   1      33.586  25.947  23.644  1.00  0.00    -0.326 N 
ATOM     17  H   UNL A   1      33.911  26.440  22.857  1.00  0.00     0.169 HD
ATOM     18  O   UNL A   1      34.463  24.097  22.720  1.00  0.00    -0.274 OA
BRANCH  16  19
ATOM     19  C   UNL A   1      32.972  26.715  24.650  1.00  0.00     0.044 A 
ATOM     20  C   UNL A   1      31.578  26.927  24.660  1.00  0.00    -0.022 A 
ATOM     21  C   UNL A   1      31.003  27.375  25.869  1.00  0.00     0.006 A 
ATOM     22  C   UNL A   1      31.788  27.738  26.966  1.00  0.00     0.000 A 
ATOM     23  C   UNL A   1      33.757  27.197  25.709  1.00  0.00     0.026 A 
ATOM     24  C   UNL A   1      33.170  27.703  26.865  1.00  0.00     0.002 A 
BRANCH  20  25
ATOM     25  C   UNL A   1      30.665  26.676  23.458  1.00  0.00     0.018 C 
ATOM     26  C   UNL A   1      30.689  27.894  22.517  1.00  0.00     0.013 C 
BRANCH  25  27
ATOM     27  C   UNL A   1      29.229  26.306  23.877  1.00  0.00     0.005 C 
ATOM     28  C   UNL A   1      28.193  27.377  23.554  1.00  0.00     0.004 C 
ENDBRANCH  25  27
ENDBRANCH  20  25
ENDBRANCH  16  19
ENDBRANCH   9  15
ENDBRANCH   5   8
ENDBRANCH   3   4
ENDBRANCH   2   3
ENDBRANCH   1   2
BRANCH   1  29
ATOM     29  C   UNL A   1      39.940  22.595  26.757  1.00  0.00     0.002 C 
BRANCH  29  30
ATOM     30  C   UNL A   1      39.739  21.234  26.083  1.00  0.00     0.021 C 
BRANCH  30  31
ATOM     31  C   UNL A   1      40.302  20.021  26.823  1.00  0.00     0.116 C 
BRANCH  31  32
ATOM     32  N   UNL A   1      41.326  19.314  26.076  1.00  0.00    -0.352 N 
ATOM     33  C   UNL A   1      42.551  19.753  25.638  1.00  0.00     0.251 C 
ATOM     34  H   UNL A   1      41.111  18.379  25.851  1.00  0.00     0.163 HD
ATOM     35  O   UNL A   1      43.229  19.011  24.922  1.00  0.00    -0.269 OA
BRANCH  33  36
ATOM     36  C   UNL A   1      43.049  21.108  25.973  1.00  0.00     0.039 A 
ATOM     37  C   UNL A   1      43.138  22.056  24.949  1.00  0.00     0.014 A 
ATOM     38  C   UNL A   1      43.449  21.453  27.268  1.00  0.00     0.014 A 
ATOM     39  C   UNL A   1      43.567  23.356  25.233  1.00  0.00     0.010 A 
ATOM     40  C   UNL A   1      43.815  22.769  27.564  1.00  0.00     0.010 A 
ATOM     41  C   UNL A   1      43.877  23.736  26.549  1.00  0.00    -0.014 A 
BRANCH  41  42
ATOM     42  C   UNL A   1      44.243  25.145  26.858  1.00  0.00     0.031 A 
ATOM     43  C   UNL A   1      43.235  26.094  27.450  1.00  0.00     0.074 A 
ATOM     44  C   UNL A   1      45.490  25.576  26.581  1.00  0.00     0.049 A 
ATOM     45  N   UNL A   1      43.391  27.342  27.817  1.00  0.00    -0.248 NA
ATOM     46  C   UNL A   1      41.869  25.583  27.625  1.00  0.00     0.031 C 
ATOM     47  C   UNL A   1      46.538  24.771  25.948  1.00  0.00     0.029 A 
ATOM     48  N   UNL A   1      46.092  26.789  26.798  1.00  0.00    -0.354 N 
ATOM     49  C   UNL A   1      42.144  27.765  28.267  1.00  0.00     0.074 A 
ATOM     50  C   UNL A   1      41.232  26.659  28.063  1.00  0.00     0.031 C 
ATOM     51  C   UNL A   1      47.662  25.499  25.864  1.00  0.00     0.029 A 
ATOM     52  C   UNL A   1      47.411  26.830  26.406  1.00  0.00     0.049 A 
ATOM     53  H   UNL A   1      45.626  27.559  27.196  1.00  0.00     0.167 HD
ATOM     54  C   UNL A   1      41.798  28.955  28.822  1.00  0.00     0.034 A 
ATOM     55  C   UNL A   1      48.318  27.823  26.482  1.00  0.00     0.034 A 
ATOM     56  C   UNL A   1      42.721  30.049  29.022  1.00  0.00     0.049 A 
ATOM     57  C   UNL A   1      47.915  29.131  27.110  1.00  0.00     0.074 A 
ATOM     58  C   UNL A   1      42.491  31.274  29.625  1.00  0.00     0.029 A 
ATOM     59  N   UNL A   1      44.049  30.054  28.615  1.00  0.00    -0.354 N 
ATOM     60  N   UNL A   1      46.750  29.490  27.599  1.00  0.00    -0.248 NA
ATOM     61  C   UNL A   1      48.957  30.159  27.217  1.00  0.00     0.031 C 
ATOM     62  C   UNL A   1      43.658  32.041  29.524  1.00  0.00     0.029 A 
ATOM     63  C   UNL A   1      44.641  31.271  28.925  1.00  0.00     0.049 A 
ATOM     64  H   UNL A   1      44.505  29.303  28.170  1.00  0.00     0.167 HD
ATOM     65  C   UNL A   1      46.926  30.781  28.089  1.00  0.00     0.074 A 
ATOM     66  C   UNL A   1      48.317  31.122  27.864  1.00  0.00     0.031 C 
ATOM     67  C   UNL A   1      46.022  31.612  28.668  1.00  0.00     0.034 A 
BRANCH  54  68
ATOM     68  C   UNL A   1      40.353  29.137  29.228  1.00  0.00     0.023 A 
ATOM     69  C   UNL A   1      39.948  29.051  30.573  1.00  0.00     0.031 A 
ATOM     70  C   UNL A   1      39.362  29.374  28.259  1.00  0.00     0.131 A 
ATOM     71  C   UNL A   1      38.586  29.122  30.902  1.00  0.00     0.055 A 
ATOM     72  C   UNL A   1      38.016  29.526  28.602  1.00  0.00     0.041 A 
ATOM     73  F   UNL A   1      39.682  29.449  26.958  1.00  0.00    -0.206 F 
ATOM     74  C   UNL A   1      37.619  29.384  29.929  1.00  0.00     0.022 A 
BRANCH  71  75
ATOM     75  S   UNL A   1      38.082  28.725  32.599  1.00  0.00     0.124 S 
ATOM     76  O   UNL A   1      36.705  29.209  32.619  1.00  0.00    -0.237 OA
ATOM     77  O   UNL A   1      38.253  27.277  32.648  1.00  0.00    -0.237 OA
ATOM     78  O   UNL A   1      39.016  29.491  33.421  1.00  0.00    -0.744 OA
ENDBRANCH  71  75
ENDBRANCH  54  68
BRANCH  55  79
ATOM     79  C   UNL A   1      49.701  27.625  25.959  1.00  0.00     0.023 A 
ATOM     80  C   UNL A   1      49.999  27.833  24.603  1.00  0.00     0.031 A 
ATOM     81  C   UNL A   1      50.736  27.187  26.804  1.00  0.00     0.131 A 
ATOM     82  C   UNL A   1      51.289  27.560  24.121  1.00  0.00     0.055 A 
ATOM     83  C   UNL A   1      52.029  26.964  26.329  1.00  0.00     0.041 A 
ATOM     84  F   UNL A   1      50.505  26.982  28.110  1.00  0.00    -0.206 F 
ATOM     85  C   UNL A   1      52.308  27.139  24.977  1.00  0.00     0.022 A 
BRANCH  82  86
ATOM     86  S   UNL A   1      51.595  27.690  22.338  1.00  0.00     0.124 S 
ATOM     87  O   UNL A   1      52.533  26.597  22.114  1.00  0.00    -0.237 OA
ATOM     88  O   UNL A   1      50.256  27.511  21.787  1.00  0.00    -0.237 OA
ATOM     89  O   UNL A   1      52.153  29.033  22.186  1.00  0.00    -0.744 OA
ENDBRANCH  82  86
ENDBRANCH  55  79
BRANCH  67  90
ATOM     90  C   UNL A   1      46.532  32.962  29.112  1.00  0.00     0.023 A 
ATOM     91  C   UNL A   1      46.504  34.077  28.254  1.00  0.00     0.031 A 
ATOM     92  C   UNL A   1      47.103  33.125  30.386  1.00  0.00     0.131 A 
ATOM     93  C   UNL A   1      47.107  35.280  28.649  1.00  0.00     0.055 A 
ATOM     94  C   UNL A   1      47.640  34.345  30.801  1.00  0.00     0.041 A 
ATOM     95  F   UNL A   1      47.160  32.097  31.247  1.00  0.00    -0.206 F 
ATOM     96  C   UNL A   1      47.661  35.426  29.923  1.00  0.00     0.022 A 
BRANCH  93  97
ATOM     97  S   UNL A   1      47.270  36.612  27.429  1.00  0.00     0.124 S 
ATOM     98  O   UNL A   1      47.769  35.894  26.260  1.00  0.00    -0.237 OA
ATOM     99  O   UNL A   1      45.904  37.115  27.332  1.00  0.00    -0.237 OA
ATOM    100  O   UNL A   1      48.227  37.529  28.047  1.00  0.00    -0.744 OA
ENDBRANCH  93  97
ENDBRANCH  67  90
ENDBRANCH  41  42
ENDBRANCH  33  36
ENDBRANCH  31  32
ENDBRANCH  30  31
ENDBRANCH  29  30
ENDBRANCH   1  29
TORSDOF 20
ENDMDL
MODEL 3
REMARK VINA RESULT:     -11.3      1.785      2.073
REMARK SMILES CC[C@@H](C)c1ccccc1NC(=O)[C@@H]1[C@@H](C(=O)NCCCCCCNC(=O)c2ccc(-c3c4nc(c(-c5cc(S(=O)(=O)[O-])ccc5F)c5ccc([nH]5)c(-c5cc(S(=O)(=O)[O-])ccc5F)c5nc(c(-c6cc(S(=O)(=O)[O-])ccc6F)c6ccc3[nH]6)C=C5)C=C4)cc2)[C@@H]2C=C[C@H]1C2
REMARK SMILES IDX 21 1 20 2 19 3 18 4 16 5 17 6 15 8 14 9 94 10 91 11 93 12
REMARK SMILES IDX 95 13 92 14 12 15 11 16 13 18 10 19 5 20 6 21 7 22 9 23 8 24
REMARK SMILES IDX 3 25 4 26 2 27 1 28 22 29 23 30 24 31 25 32 26 33 27 35
REMARK SMILES IDX 28 36 29 37 90 38 30 39 89 40 31 41 32 42 33 43 83 44 34 45
REMARK SMILES IDX 88 46 82 47 84 48 35 49 87 50 81 51 80 52 36 54 68 55 48 56
REMARK SMILES IDX 67 57 49 58 52 59 66 60 85 61 50 62 51 63 65 65 86 66 53 67
REMARK SMILES IDX 37 68 38 69 46 70 39 71 45 72 47 73 44 74 40 75 41 76 42 77
REMARK SMILES IDX 43 78 69 79 70 80 78 81 71 82 77 83 79 84 76 85 72 86 73 87
REMARK SMILES IDX 74 88 75 89 54 90 55 91 63 92 56 93 62 94 64 95 61 96 57 97
REMARK SMILES IDX 58 98 59 99 60 100
REMARK H PARENT 18 7 11 17 25 34 84 53 52 64
REMARK Flexibility Score: inf
ROOT
ATOM      1  C   UNL A   1      30.695  30.434  24.839  1.00  0.00     0.002 C 
ENDROOT
BRANCH   1   2
ATOM      2  C   UNL A   1      29.753  30.167  23.654  1.00  0.00     0.021 C 
BRANCH   2   3
ATOM      3  C   UNL A   1      30.157  29.008  22.743  1.00  0.00     0.116 C 
BRANCH   3   4
ATOM      4  N   UNL A   1      29.626  27.733  23.197  1.00  0.00    -0.356 N 
ATOM      5  C   UNL A   1      30.282  26.617  23.634  1.00  0.00     0.224 C 
ATOM      6  O   UNL A   1      29.612  25.600  23.819  1.00  0.00    -0.275 OA
ATOM      7  H   UNL A   1      28.644  27.662  23.188  1.00  0.00     0.163 HD
BRANCH   5   8
ATOM      8  C   UNL A   1      31.789  26.664  23.874  1.00  0.00     0.098 C 
ATOM      9  C   UNL A   1      32.467  25.223  23.813  1.00  0.00     0.099 C 
ATOM     10  C   UNL A   1      33.076  25.106  25.241  1.00  0.00     0.025 C 
ATOM     11  C   UNL A   1      32.080  27.086  25.340  1.00  0.00     0.025 C 
ATOM     12  C   UNL A   1      34.158  26.144  25.416  1.00  0.00    -0.027 C 
ATOM     13  C   UNL A   1      31.987  25.754  26.082  1.00  0.00     0.017 C 
ATOM     14  C   UNL A   1      33.560  27.340  25.461  1.00  0.00    -0.027 C 
BRANCH   9  15
ATOM     15  C   UNL A   1      33.507  25.030  22.695  1.00  0.00     0.228 C 
ATOM     16  N   UNL A   1      34.184  23.828  22.578  1.00  0.00    -0.326 N 
ATOM     17  H   UNL A   1      34.923  23.808  21.929  1.00  0.00     0.169 HD
ATOM     18  O   UNL A   1      33.784  25.932  21.902  1.00  0.00    -0.274 OA
BRANCH  16  19
ATOM     19  C   UNL A   1      33.937  22.632  23.276  1.00  0.00     0.044 A 
ATOM     20  C   UNL A   1      34.905  22.073  24.136  1.00  0.00    -0.022 A 
ATOM     21  C   UNL A   1      34.462  21.109  25.066  1.00  0.00     0.006 A 
ATOM     22  C   UNL A   1      33.155  20.613  25.045  1.00  0.00     0.000 A 
ATOM     23  C   UNL A   1      32.666  22.042  23.182  1.00  0.00     0.026 A 
ATOM     24  C   UNL A   1      32.274  21.039  24.064  1.00  0.00     0.002 A 
BRANCH  20  25
ATOM     25  C   UNL A   1      36.382  22.470  24.133  1.00  0.00     0.018 C 
ATOM     26  C   UNL A   1      37.251  21.265  24.538  1.00  0.00     0.013 C 
BRANCH  25  27
ATOM     27  C   UNL A   1      36.664  23.700  25.019  1.00  0.00     0.005 C 
ATOM     28  C   UNL A   1      37.771  23.485  26.045  1.00  0.00     0.004 C 
ENDBRANCH  25  27
ENDBRANCH  20  25
ENDBRANCH  16  19
ENDBRANCH   9  15
ENDBRANCH   5   8
ENDBRANCH   3   4
ENDBRANCH   2   3
ENDBRANCH   1   2
BRANCH   1  29
ATOM     29  C   UNL A   1      30.672  31.846  25.432  1.00  0.00     0.002 C 
BRANCH  29  30
ATOM     30  C   UNL A   1      31.241  32.004  26.845  1.00  0.00     0.021 C 
BRANCH  30  31
ATOM     31  C   UNL A   1      32.616  32.663  26.953  1.00  0.00     0.116 C 
BRANCH  31  32
ATOM     32  N   UNL A   1      32.569  34.009  27.495  1.00  0.00    -0.352 N 
ATOM     33  C   UNL A   1      33.305  34.570  28.509  1.00  0.00     0.251 C 
ATOM     34  H   UNL A   1      31.912  34.609  27.072  1.00  0.00     0.163 HD
ATOM     35  O   UNL A   1      33.028  35.713  28.884  1.00  0.00    -0.269 OA
BRANCH  33  36
ATOM     36  C   UNL A   1      34.389  33.817  29.183  1.00  0.00     0.039 A 
ATOM     37  C   UNL A   1      35.704  34.013  28.749  1.00  0.00     0.014 A 
ATOM     38  C   UNL A   1      34.132  32.908  30.215  1.00  0.00     0.014 A 
ATOM     39  C   UNL A   1      36.758  33.350  29.385  1.00  0.00     0.010 A 
ATOM     40  C   UNL A   1      35.191  32.296  30.892  1.00  0.00     0.010 A 
ATOM     41  C   UNL A   1      36.516  32.511  30.485  1.00  0.00    -0.014 A 
BRANCH  41  42
ATOM     42  C   UNL A   1      37.650  31.882  31.215  1.00  0.00     0.031 A 
ATOM     43  C   UNL A   1      38.448  30.768  30.591  1.00  0.00     0.074 A 
ATOM     44  C   UNL A   1      37.946  32.306  32.459  1.00  0.00     0.049 A 
ATOM     45  N   UNL A   1      39.490  30.132  31.065  1.00  0.00    -0.248 NA
ATOM     46  C   UNL A   1      38.000  30.289  29.277  1.00  0.00     0.031 C 
ATOM     47  C   UNL A   1      37.207  33.334  33.197  1.00  0.00     0.029 A 
ATOM     48  N   UNL A   1      38.946  31.935  33.323  1.00  0.00    -0.354 N 
ATOM     49  C   UNL A   1      39.823  29.177  30.108  1.00  0.00     0.074 A 
ATOM     50  C   UNL A   1      38.829  29.278  29.060  1.00  0.00     0.031 C 
ATOM     51  C   UNL A   1      37.801  33.537  34.384  1.00  0.00     0.029 A 
ATOM     52  C   UNL A   1      38.942  32.636  34.507  1.00  0.00     0.049 A 
ATOM     53  H   UNL A   1      39.604  31.232  33.116  1.00  0.00     0.167 HD
ATOM     54  C   UNL A   1      40.872  28.317  30.094  1.00  0.00     0.034 A 
ATOM     55  C   UNL A   1      39.768  32.568  35.569  1.00  0.00     0.034 A 
ATOM     56  C   UNL A   1      41.857  28.230  31.147  1.00  0.00     0.049 A 
ATOM     57  C   UNL A   1      40.932  31.612  35.527  1.00  0.00     0.074 A 
ATOM     58  C   UNL A   1      42.990  27.435  31.208  1.00  0.00     0.029 A 
ATOM     59  N   UNL A   1      41.824  28.956  32.331  1.00  0.00    -0.354 N 
ATOM     60  N   UNL A   1      41.275  30.768  34.580  1.00  0.00    -0.248 NA
ATOM     61  C   UNL A   1      41.831  31.617  36.687  1.00  0.00     0.031 C 
ATOM     62  C   UNL A   1      43.602  27.633  32.451  1.00  0.00     0.029 A 
ATOM     63  C   UNL A   1      42.896  28.606  33.140  1.00  0.00     0.049 A 
ATOM     64  H   UNL A   1      41.138  29.624  32.563  1.00  0.00     0.167 HD
ATOM     65  C   UNL A   1      42.442  30.155  35.026  1.00  0.00     0.074 A 
ATOM     66  C   UNL A   1      42.759  30.751  36.308  1.00  0.00     0.031 C 
ATOM     67  C   UNL A   1      43.185  29.185  34.432  1.00  0.00     0.034 A 
BRANCH  54  68
ATOM     68  C   UNL A   1      40.988  27.385  28.909  1.00  0.00     0.023 A 
ATOM     69  C   UNL A   1      41.975  27.565  27.923  1.00  0.00     0.031 A 
ATOM     70  C   UNL A   1      40.087  26.318  28.746  1.00  0.00     0.131 A 
ATOM     71  C   UNL A   1      41.989  26.744  26.784  1.00  0.00     0.055 A 
ATOM     72  C   UNL A   1      40.157  25.453  27.651  1.00  0.00     0.041 A 
ATOM     73  F   UNL A   1      39.111  26.105  29.643  1.00  0.00    -0.206 F 
ATOM     74  C   UNL A   1      41.102  25.674  26.653  1.00  0.00     0.022 A 
BRANCH  71  75
ATOM     75  S   UNL A   1      43.090  27.186  25.411  1.00  0.00     0.124 S 
ATOM     76  O   UNL A   1      43.297  25.889  24.771  1.00  0.00    -0.237 OA
ATOM     77  O   UNL A   1      42.290  28.149  24.663  1.00  0.00    -0.237 OA
ATOM     78  O   UNL A   1      44.267  27.736  26.079  1.00  0.00    -0.744 OA
ENDBRANCH  71  75
ENDBRANCH  54  68
BRANCH  55  79
ATOM     79  C   UNL A   1      39.537  33.432  36.762  1.00  0.00     0.023 A 
ATOM     80  C   UNL A   1      38.939  32.918  37.924  1.00  0.00     0.031 A 
ATOM     81  C   UNL A   1      39.879  34.796  36.743  1.00  0.00     0.131 A 
ATOM     82  C   UNL A   1      38.657  33.772  39.002  1.00  0.00     0.055 A 
ATOM     83  C   UNL A   1      39.642  35.629  37.837  1.00  0.00     0.041 A 
ATOM     84  F   UNL A   1      40.462  35.334  35.661  1.00  0.00    -0.206 F 
ATOM     85  C   UNL A   1      39.016  35.121  38.971  1.00  0.00     0.022 A 
BRANCH  82  86
ATOM     86  S   UNL A   1      37.744  33.107  40.421  1.00  0.00     0.124 S 
ATOM     87  O   UNL A   1      38.504  31.902  40.728  1.00  0.00    -0.237 OA
ATOM     88  O   UNL A   1      37.848  34.196  41.386  1.00  0.00    -0.237 OA
ATOM     89  O   UNL A   1      36.403  32.879  39.885  1.00  0.00    -0.744 OA
ENDBRANCH  82  86
ENDBRANCH  55  79
BRANCH  67  90
ATOM     90  C   UNL A   1      44.423  28.735  35.171  1.00  0.00     0.023 A 
ATOM     91  C   UNL A   1      45.678  29.323  34.930  1.00  0.00     0.031 A 
ATOM     92  C   UNL A   1      44.358  27.670  36.086  1.00  0.00     0.131 A 
ATOM     93  C   UNL A   1      46.827  28.793  35.534  1.00  0.00     0.055 A 
ATOM     94  C   UNL A   1      45.496  27.190  36.737  1.00  0.00     0.041 A 
ATOM     95  F   UNL A   1      43.189  27.068  36.355  1.00  0.00    -0.206 F 
ATOM     96  C   UNL A   1      46.743  27.740  36.448  1.00  0.00     0.022 A 
BRANCH  93  97
ATOM     97  S   UNL A   1      48.449  29.414  35.011  1.00  0.00     0.124 S 
ATOM     98  O   UNL A   1      48.119  30.749  34.519  1.00  0.00    -0.237 OA
ATOM     99  O   UNL A   1      49.216  29.365  36.251  1.00  0.00    -0.237 OA
ATOM    100  O   UNL A   1      48.867  28.461  33.984  1.00  0.00    -0.744 OA
ENDBRANCH  93  97
ENDBRANCH  67  90
ENDBRANCH  41  42
ENDBRANCH  33  36
ENDBRANCH  31  32
ENDBRANCH  30  31
ENDBRANCH  29  30
ENDBRANCH   1  29
TORSDOF 20
ENDMDL
