MODEL 1
REMARK VINA RESULT:     -11.4      0.000      0.000
REMARK SMILES O=C(NCCCCCCNC(=O)c1ccc(-c2c3nc(c(-c4cc(S(=O)(=O)[O-])ccc4F)c4ccc([nH]4)c(-c4cc(S(=O)(=O)[O-])ccc4F)c4nc(c(-c5cc(S(=O)(=O)[O-])ccc5F)c5ccc2[nH]5)C=C4)C=C3)cc1)c1ccc(NC(=O)[C@@H]2CC=CC[C@@H]2C(=O)Nc2ccc(Br)cc2)cc1
REMARK SMILES IDX 6 1 5 2 4 3 3 4 1 5 2 6 76 8 77 9 100 10 78 11 99 12 79 13
REMARK SMILES IDX 80 14 81 15 82 17 83 18 84 19 88 20 85 21 87 22 86 23 89 24
REMARK SMILES IDX 90 25 91 26 92 28 93 29 98 30 94 31 97 32 95 33 96 34 7 35
REMARK SMILES IDX 8 36 9 37 10 38 11 39 12 41 13 42 14 43 75 44 15 45 74 46
REMARK SMILES IDX 16 47 17 48 18 49 68 50 19 51 73 52 67 53 69 54 20 55 72 56
REMARK SMILES IDX 66 57 65 58 21 60 53 61 33 62 52 63 34 64 37 65 51 66 70 67
REMARK SMILES IDX 35 68 36 69 50 71 71 72 38 73 22 74 23 75 31 76 24 77 30 78
REMARK SMILES IDX 32 79 29 80 25 81 26 82 27 83 28 84 54 85 55 86 63 87 56 88
REMARK SMILES IDX 62 89 64 90 61 91 57 92 58 93 59 94 60 95 39 96 40 97 48 98
REMARK SMILES IDX 41 99 47 100 49 101 46 102 42 103 43 104 44 105 45 106
REMARK H PARENT 3 7 80 16 91 27 10 40 69 59 37 70
REMARK Flexibility Score: inf
ROOT
ATOM      1  C   UNL A   1      35.642  32.520  27.947  1.00  0.00     0.002 C 
ENDROOT
BRANCH   1   2
ATOM      2  C   UNL A   1      35.948  31.065  28.293  1.00  0.00     0.021 C 
BRANCH   2   3
ATOM      3  C   UNL A   1      34.994  30.045  27.689  1.00  0.00     0.116 C 
BRANCH   3   4
ATOM      4  N   UNL A   1      33.605  30.488  27.680  1.00  0.00    -0.352 N 
ATOM      5  O   UNL A   1      31.451  30.473  26.942  1.00  0.00    -0.269 OA
ATOM      6  C   UNL A   1      32.566  29.973  26.934  1.00  0.00     0.251 C 
ATOM      7  H   UNL A   1      33.384  31.241  28.274  1.00  0.00     0.163 HD
BRANCH   6   8
ATOM      8  C   UNL A   1      32.853  28.795  26.093  1.00  0.00     0.039 A 
ATOM      9  C   UNL A   1      32.909  27.538  26.689  1.00  0.00     0.016 A 
ATOM     10  C   UNL A   1      33.229  28.962  24.764  1.00  0.00     0.016 A 
ATOM     11  C   UNL A   1      33.480  26.475  25.995  1.00  0.00     0.027 A 
ATOM     12  C   UNL A   1      33.744  27.867  24.058  1.00  0.00     0.027 A 
ATOM     13  C   UNL A   1      33.891  26.609  24.669  1.00  0.00     0.041 A 
BRANCH  13  14
ATOM     14  N   UNL A   1      34.463  25.588  23.884  1.00  0.00    -0.326 N 
ATOM     15  C   UNL A   1      34.696  24.249  24.046  1.00  0.00     0.228 C 
ATOM     16  H   UNL A   1      34.768  25.918  23.008  1.00  0.00     0.169 HD
ATOM     17  O   UNL A   1      35.231  23.662  23.100  1.00  0.00    -0.274 OA
BRANCH  15  18
ATOM     18  C   UNL A   1      34.292  23.500  25.295  1.00  0.00     0.095 C 
ATOM     19  C   UNL A   1      34.607  22.000  25.265  1.00  0.00     0.041 C 
ATOM     20  C   UNL A   1      32.843  23.753  25.765  1.00  0.00     0.095 C 
ATOM     21  C   UNL A   1      34.303  21.397  26.613  1.00  0.00    -0.030 C 
ATOM     22  C   UNL A   1      32.756  23.276  27.244  1.00  0.00     0.041 C 
ATOM     23  C   UNL A   1      33.501  21.990  27.514  1.00  0.00    -0.030 C 
BRANCH  20  24
ATOM     24  C   UNL A   1      31.702  23.053  24.997  1.00  0.00     0.228 C 
ATOM     25  O   UNL A   1      31.619  21.831  24.879  1.00  0.00    -0.274 OA
ATOM     26  N   UNL A   1      30.592  23.809  24.691  1.00  0.00    -0.326 N 
ATOM     27  H   UNL A   1      29.724  23.400  24.910  1.00  0.00     0.169 HD
BRANCH  26  28
ATOM     28  C   UNL A   1      30.531  25.081  24.108  1.00  0.00     0.041 A 
ATOM     29  C   UNL A   1      29.827  26.095  24.759  1.00  0.00     0.027 A 
ATOM     30  C   UNL A   1      31.038  25.316  22.832  1.00  0.00     0.027 A 
ATOM     31  C   UNL A   1      29.719  27.363  24.175  1.00  0.00     0.018 A 
ATOM     32  C   UNL A   1      30.926  26.576  22.238  1.00  0.00     0.018 A 
ATOM     33  C   UNL A   1      30.281  27.601  22.922  1.00  0.00     0.018 A 
ATOM     34  Br  UNL A   1      30.138  29.309  22.128  1.00  0.00    -0.051 Br
ENDBRANCH  26  28
ENDBRANCH  20  24
ENDBRANCH  15  18
ENDBRANCH  13  14
ENDBRANCH   6   8
ENDBRANCH   3   4
ENDBRANCH   2   3
ENDBRANCH   1   2
BRANCH   1  35
ATOM     35  C   UNL A   1      35.190  33.402  29.115  1.00  0.00     0.002 C 
BRANCH  35  36
ATOM     36  C   UNL A   1      33.756  33.938  29.049  1.00  0.00     0.021 C 
BRANCH  36  37
ATOM     37  C   UNL A   1      33.577  35.417  29.382  1.00  0.00     0.116 C 
BRANCH  37  38
ATOM     38  N   UNL A   1      32.674  35.638  30.496  1.00  0.00    -0.352 N 
ATOM     39  C   UNL A   1      32.807  35.289  31.817  1.00  0.00     0.251 C 
ATOM     40  H   UNL A   1      31.839  36.108  30.270  1.00  0.00     0.163 HD
ATOM     41  O   UNL A   1      31.859  35.454  32.579  1.00  0.00    -0.269 OA
BRANCH  39  42
ATOM     42  C   UNL A   1      34.067  34.693  32.317  1.00  0.00     0.039 A 
ATOM     43  C   UNL A   1      34.024  33.409  32.868  1.00  0.00     0.014 A 
ATOM     44  C   UNL A   1      35.277  35.392  32.272  1.00  0.00     0.014 A 
ATOM     45  C   UNL A   1      35.200  32.802  33.320  1.00  0.00     0.010 A 
ATOM     46  C   UNL A   1      36.458  34.765  32.671  1.00  0.00     0.010 A 
ATOM     47  C   UNL A   1      36.431  33.464  33.199  1.00  0.00    -0.014 A 
BRANCH  47  48
ATOM     48  C   UNL A   1      37.698  32.815  33.624  1.00  0.00     0.031 A 
ATOM     49  C   UNL A   1      38.279  31.687  32.816  1.00  0.00     0.074 A 
ATOM     50  C   UNL A   1      38.290  33.197  34.773  1.00  0.00     0.049 A 
ATOM     51  N   UNL A   1      39.328  30.945  33.062  1.00  0.00    -0.248 NA
ATOM     52  C   UNL A   1      37.566  31.332  31.581  1.00  0.00     0.031 C 
ATOM     53  C   UNL A   1      37.804  34.254  35.662  1.00  0.00     0.029 A 
ATOM     54  N   UNL A   1      39.421  32.734  35.395  1.00  0.00    -0.354 N 
ATOM     55  C   UNL A   1      39.391  30.019  32.026  1.00  0.00     0.074 A 
ATOM     56  C   UNL A   1      38.243  30.268  31.176  1.00  0.00     0.031 C 
ATOM     57  C   UNL A   1      38.641  34.370  36.706  1.00  0.00     0.029 A 
ATOM     58  C   UNL A   1      39.701  33.372  36.581  1.00  0.00     0.049 A 
ATOM     59  H   UNL A   1      39.981  32.012  35.028  1.00  0.00     0.167 HD
ATOM     60  C   UNL A   1      40.325  29.062  31.796  1.00  0.00     0.034 A 
ATOM     61  C   UNL A   1      40.691  33.171  37.471  1.00  0.00     0.034 A 
ATOM     62  C   UNL A   1      41.475  28.842  32.640  1.00  0.00     0.049 A 
ATOM     63  C   UNL A   1      41.712  32.098  37.201  1.00  0.00     0.074 A 
ATOM     64  C   UNL A   1      42.522  27.955  32.457  1.00  0.00     0.029 A 
ATOM     65  N   UNL A   1      41.725  29.509  33.832  1.00  0.00    -0.354 N 
ATOM     66  N   UNL A   1      41.786  31.265  36.190  1.00  0.00    -0.248 NA
ATOM     67  C   UNL A   1      42.788  31.945  38.190  1.00  0.00     0.031 C 
ATOM     68  C   UNL A   1      43.374  28.046  33.567  1.00  0.00     0.029 A 
ATOM     69  C   UNL A   1      42.892  29.032  34.411  1.00  0.00     0.049 A 
ATOM     70  H   UNL A   1      41.157  30.218  34.212  1.00  0.00     0.167 HD
ATOM     71  C   UNL A   1      42.933  30.507  36.408  1.00  0.00     0.074 A 
ATOM     72  C   UNL A   1      43.521  30.988  37.641  1.00  0.00     0.031 C 
ATOM     73  C   UNL A   1      43.458  29.510  35.651  1.00  0.00     0.034 A 
BRANCH  60  74
ATOM     74  C   UNL A   1      40.115  28.164  30.601  1.00  0.00     0.023 A 
ATOM     75  C   UNL A   1      40.814  28.361  29.397  1.00  0.00     0.031 A 
ATOM     76  C   UNL A   1      39.173  27.122  30.652  1.00  0.00     0.131 A 
ATOM     77  C   UNL A   1      40.500  27.584  28.270  1.00  0.00     0.055 A 
ATOM     78  C   UNL A   1      38.923  26.300  29.552  1.00  0.00     0.041 A 
ATOM     79  F   UNL A   1      38.462  26.899  31.769  1.00  0.00    -0.206 F 
ATOM     80  C   UNL A   1      39.577  26.540  28.346  1.00  0.00     0.022 A 
BRANCH  77  81
ATOM     81  S   UNL A   1      41.206  28.060  26.668  1.00  0.00     0.124 S 
ATOM     82  O   UNL A   1      41.111  26.808  25.921  1.00  0.00    -0.237 OA
ATOM     83  O   UNL A   1      40.316  29.132  26.238  1.00  0.00    -0.237 OA
ATOM     84  O   UNL A   1      42.567  28.474  27.003  1.00  0.00    -0.744 OA
ENDBRANCH  77  81
ENDBRANCH  60  74
BRANCH  61  85
ATOM     85  C   UNL A   1      40.769  33.997  38.708  1.00  0.00     0.023 A 
ATOM     86  C   UNL A   1      41.453  35.223  38.711  1.00  0.00     0.031 A 
ATOM     87  C   UNL A   1      40.186  33.559  39.909  1.00  0.00     0.131 A 
ATOM     88  C   UNL A   1      41.570  35.953  39.903  1.00  0.00     0.055 A 
ATOM     89  C   UNL A   1      40.271  34.308  41.084  1.00  0.00     0.041 A 
ATOM     90  F   UNL A   1      39.514  32.398  39.953  1.00  0.00    -0.206 F 
ATOM     91  C   UNL A   1      40.975  35.509  41.087  1.00  0.00     0.022 A 
BRANCH  88  92
ATOM     92  S   UNL A   1      42.562  37.471  39.897  1.00  0.00     0.124 S 
ATOM     93  O   UNL A   1      41.606  38.453  40.394  1.00  0.00    -0.237 OA
ATOM     94  O   UNL A   1      43.653  37.122  40.800  1.00  0.00    -0.237 OA
ATOM     95  O   UNL A   1      42.942  37.623  38.494  1.00  0.00    -0.744 OA
ENDBRANCH  88  92
ENDBRANCH  61  85
BRANCH  73  96
ATOM     96  C   UNL A   1      44.756  28.908  36.126  1.00  0.00     0.023 A 
ATOM     97  C   UNL A   1      44.782  27.785  36.972  1.00  0.00     0.031 A 
ATOM     98  C   UNL A   1      45.980  29.481  35.743  1.00  0.00     0.131 A 
ATOM     99  C   UNL A   1      46.010  27.301  37.448  1.00  0.00     0.055 A 
ATOM    100  C   UNL A   1      47.201  28.964  36.179  1.00  0.00     0.041 A 
ATOM    101  F   UNL A   1      46.008  30.556  34.938  1.00  0.00    -0.206 F 
ATOM    102  C   UNL A   1      47.220  27.876  37.046  1.00  0.00     0.022 A 
BRANCH  99 103
ATOM    103  S   UNL A   1      46.004  25.958  38.667  1.00  0.00     0.124 S 
ATOM    104  O   UNL A   1      47.415  25.589  38.719  1.00  0.00    -0.237 OA
ATOM    105  O   UNL A   1      45.472  26.617  39.855  1.00  0.00    -0.237 OA
ATOM    106  O   UNL A   1      45.123  24.956  38.070  1.00  0.00    -0.744 OA
ENDBRANCH  99 103
ENDBRANCH  73  96
ENDBRANCH  47  48
ENDBRANCH  39  42
ENDBRANCH  37  38
ENDBRANCH  36  37
ENDBRANCH  35  36
ENDBRANCH   1  35
TORSDOF 20
ENDMDL
MODEL 2
REMARK VINA RESULT:     -11.2      1.472      7.211
REMARK SMILES O=C(NCCCCCCNC(=O)c1ccc(-c2c3nc(c(-c4cc(S(=O)(=O)[O-])ccc4F)c4ccc([nH]4)c(-c4cc(S(=O)(=O)[O-])ccc4F)c4nc(c(-c5cc(S(=O)(=O)[O-])ccc5F)c5ccc2[nH]5)C=C4)C=C3)cc1)c1ccc(NC(=O)[C@@H]2CC=CC[C@@H]2C(=O)Nc2ccc(Br)cc2)cc1
REMARK SMILES IDX 6 1 5 2 4 3 3 4 1 5 2 6 76 8 77 9 100 10 78 11 99 12 79 13
REMARK SMILES IDX 80 14 81 15 82 17 83 18 84 19 88 20 85 21 87 22 86 23 89 24
REMARK SMILES IDX 90 25 91 26 92 28 93 29 98 30 94 31 97 32 95 33 96 34 7 35
REMARK SMILES IDX 8 36 9 37 10 38 11 39 12 41 13 42 14 43 75 44 15 45 74 46
REMARK SMILES IDX 16 47 17 48 18 49 68 50 19 51 73 52 67 53 69 54 20 55 72 56
REMARK SMILES IDX 66 57 65 58 21 60 53 61 33 62 52 63 34 64 37 65 51 66 70 67
REMARK SMILES IDX 35 68 36 69 50 71 71 72 38 73 22 74 23 75 31 76 24 77 30 78
REMARK SMILES IDX 32 79 29 80 25 81 26 82 27 83 28 84 54 85 55 86 63 87 56 88
REMARK SMILES IDX 62 89 64 90 61 91 57 92 58 93 59 94 60 95 39 96 40 97 48 98
REMARK SMILES IDX 41 99 47 100 49 101 46 102 42 103 43 104 44 105 45 106
REMARK H PARENT 3 7 80 16 91 27 10 40 69 59 37 70
REMARK Flexibility Score: inf
ROOT
ATOM      1  C   UNL A   1      35.426  32.785  27.689  1.00  0.00     0.002 C 
ENDROOT
BRANCH   1   2
ATOM      2  C   UNL A   1      35.712  31.345  28.106  1.00  0.00     0.021 C 
BRANCH   2   3
ATOM      3  C   UNL A   1      34.831  30.296  27.445  1.00  0.00     0.116 C 
BRANCH   3   4
ATOM      4  N   UNL A   1      33.453  30.735  27.255  1.00  0.00    -0.352 N 
ATOM      5  O   UNL A   1      31.379  30.639  26.320  1.00  0.00    -0.269 OA
ATOM      6  C   UNL A   1      32.484  30.141  26.473  1.00  0.00     0.251 C 
ATOM      7  H   UNL A   1      33.184  31.549  27.739  1.00  0.00     0.163 HD
BRANCH   6   8
ATOM      8  C   UNL A   1      32.837  28.878  25.798  1.00  0.00     0.039 A 
ATOM      9  C   UNL A   1      32.898  27.706  26.547  1.00  0.00     0.016 A 
ATOM     10  C   UNL A   1      33.270  28.891  24.476  1.00  0.00     0.016 A 
ATOM     11  C   UNL A   1      33.525  26.583  26.014  1.00  0.00     0.027 A 
ATOM     12  C   UNL A   1      33.842  27.734  23.932  1.00  0.00     0.027 A 
ATOM     13  C   UNL A   1      33.992  26.565  24.701  1.00  0.00     0.041 A 
BRANCH  13  14
ATOM     14  N   UNL A   1      34.623  25.473  24.073  1.00  0.00    -0.326 N 
ATOM     15  C   UNL A   1      34.789  24.145  24.362  1.00  0.00     0.228 C 
ATOM     16  H   UNL A   1      35.047  25.727  23.221  1.00  0.00     0.169 HD
ATOM     17  O   UNL A   1      35.419  23.474  23.538  1.00  0.00    -0.274 OA
BRANCH  15  18
ATOM     18  C   UNL A   1      34.205  23.505  25.600  1.00  0.00     0.095 C 
ATOM     19  C   UNL A   1      34.463  21.999  25.717  1.00  0.00     0.041 C 
ATOM     20  C   UNL A   1      32.721  23.836  25.866  1.00  0.00     0.095 C 
ATOM     21  C   UNL A   1      33.972  21.509  27.056  1.00  0.00    -0.030 C 
ATOM     22  C   UNL A   1      32.435  23.475  27.352  1.00  0.00     0.041 C 
ATOM     23  C   UNL A   1      33.090  22.192  27.805  1.00  0.00    -0.030 C 
BRANCH  20  24
ATOM     24  C   UNL A   1      31.656  23.115  25.013  1.00  0.00     0.228 C 
ATOM     25  O   UNL A   1      31.613  21.892  24.879  1.00  0.00    -0.274 OA
ATOM     26  N   UNL A   1      30.551  23.845  24.634  1.00  0.00    -0.326 N 
ATOM     27  H   UNL A   1      29.681  23.413  24.788  1.00  0.00     0.169 HD
BRANCH  26  28
ATOM     28  C   UNL A   1      30.499  25.121  24.058  1.00  0.00     0.041 A 
ATOM     29  C   UNL A   1      29.741  26.116  24.676  1.00  0.00     0.027 A 
ATOM     30  C   UNL A   1      31.071  25.377  22.814  1.00  0.00     0.027 A 
ATOM     31  C   UNL A   1      29.641  27.387  24.097  1.00  0.00     0.018 A 
ATOM     32  C   UNL A   1      30.969  26.639  22.225  1.00  0.00     0.018 A 
ATOM     33  C   UNL A   1      30.268  27.646  22.879  1.00  0.00     0.018 A 
ATOM     34  Br  UNL A   1      30.137  29.358  22.092  1.00  0.00    -0.051 Br
ENDBRANCH  26  28
ENDBRANCH  20  24
ENDBRANCH  15  18
ENDBRANCH  13  14
ENDBRANCH   6   8
ENDBRANCH   3   4
ENDBRANCH   2   3
ENDBRANCH   1   2
BRANCH   1  35
ATOM     35  C   UNL A   1      35.141  33.766  28.831  1.00  0.00     0.002 C 
BRANCH  35  36
ATOM     36  C   UNL A   1      33.731  34.365  28.878  1.00  0.00     0.021 C 
BRANCH  36  37
ATOM     37  C   UNL A   1      33.628  35.794  29.406  1.00  0.00     0.116 C 
BRANCH  37  38
ATOM     38  N   UNL A   1      32.821  35.892  30.607  1.00  0.00    -0.352 N 
ATOM     39  C   UNL A   1      32.995  35.302  31.834  1.00  0.00     0.251 C 
ATOM     40  H   UNL A   1      32.026  36.469  30.531  1.00  0.00     0.163 HD
ATOM     41  O   UNL A   1      32.116  35.412  32.684  1.00  0.00    -0.269 OA
BRANCH  39  42
ATOM     42  C   UNL A   1      34.215  34.514  32.125  1.00  0.00     0.039 A 
ATOM     43  C   UNL A   1      35.444  35.179  32.171  1.00  0.00     0.014 A 
ATOM     44  C   UNL A   1      34.164  33.131  32.325  1.00  0.00     0.014 A 
ATOM     45  C   UNL A   1      36.611  34.472  32.475  1.00  0.00     0.010 A 
ATOM     46  C   UNL A   1      35.319  32.436  32.685  1.00  0.00     0.010 A 
ATOM     47  C   UNL A   1      36.554  33.100  32.763  1.00  0.00    -0.014 A 
BRANCH  47  48
ATOM     48  C   UNL A   1      37.775  32.343  33.140  1.00  0.00     0.031 A 
ATOM     49  C   UNL A   1      38.490  32.652  34.427  1.00  0.00     0.074 A 
ATOM     50  C   UNL A   1      38.276  31.421  32.294  1.00  0.00     0.049 A 
ATOM     51  N   UNL A   1      39.608  32.158  34.893  1.00  0.00    -0.248 NA
ATOM     52  C   UNL A   1      37.877  33.674  35.287  1.00  0.00     0.031 C 
ATOM     53  C   UNL A   1      37.694  31.057  31.001  1.00  0.00     0.029 A 
ATOM     54  N   UNL A   1      39.394  30.632  32.389  1.00  0.00    -0.354 N 
ATOM     55  C   UNL A   1      39.847  32.824  36.092  1.00  0.00     0.074 A 
ATOM     56  C   UNL A   1      38.778  33.790  36.251  1.00  0.00     0.031 C 
ATOM     57  C   UNL A   1      38.449  30.104  30.432  1.00  0.00     0.029 A 
ATOM     58  C   UNL A   1      39.589  29.816  31.299  1.00  0.00     0.049 A 
ATOM     59  H   UNL A   1      40.001  30.647  33.164  1.00  0.00     0.167 HD
ATOM     60  C   UNL A   1      40.854  32.637  36.982  1.00  0.00     0.034 A 
ATOM     61  C   UNL A   1      40.577  28.944  31.023  1.00  0.00     0.034 A 
ATOM     62  C   UNL A   1      41.899  31.655  36.820  1.00  0.00     0.049 A 
ATOM     63  C   UNL A   1      41.689  28.758  32.022  1.00  0.00     0.074 A 
ATOM     64  C   UNL A   1      42.919  31.328  37.696  1.00  0.00     0.029 A 
ATOM     65  N   UNL A   1      42.063  30.846  35.703  1.00  0.00    -0.354 N 
ATOM     66  N   UNL A   1      41.873  29.359  33.174  1.00  0.00    -0.248 NA
ATOM     67  C   UNL A   1      42.722  27.770  31.684  1.00  0.00     0.031 C 
ATOM     68  C   UNL A   1      43.732  30.364  37.085  1.00  0.00     0.029 A 
ATOM     69  C   UNL A   1      43.184  30.044  35.854  1.00  0.00     0.049 A 
ATOM     70  H   UNL A   1      41.469  30.842  34.917  1.00  0.00     0.167 HD
ATOM     71  C   UNL A   1      43.028  28.800  33.711  1.00  0.00     0.074 A 
ATOM     72  C   UNL A   1      43.493  27.811  32.760  1.00  0.00     0.031 C 
ATOM     73  C   UNL A   1      43.645  29.073  34.889  1.00  0.00     0.034 A 
BRANCH  60  74
ATOM     74  C   UNL A   1      40.884  33.540  38.192  1.00  0.00     0.023 A 
ATOM     75  C   UNL A   1      40.218  33.203  39.383  1.00  0.00     0.031 A 
ATOM     76  C   UNL A   1      41.554  34.776  38.139  1.00  0.00     0.131 A 
ATOM     77  C   UNL A   1      40.165  34.125  40.440  1.00  0.00     0.055 A 
ATOM     78  C   UNL A   1      41.566  35.654  39.223  1.00  0.00     0.041 A 
ATOM     79  F   UNL A   1      42.191  35.160  37.022  1.00  0.00    -0.206 F 
ATOM     80  C   UNL A   1      40.853  35.338  40.378  1.00  0.00     0.022 A 
BRANCH  77  81
ATOM     81  S   UNL A   1      39.057  33.779  41.834  1.00  0.00     0.124 S 
ATOM     82  O   UNL A   1      37.745  33.976  41.224  1.00  0.00    -0.237 OA
ATOM     83  O   UNL A   1      39.404  32.405  42.178  1.00  0.00    -0.237 OA
ATOM     84  O   UNL A   1      39.432  34.784  42.828  1.00  0.00    -0.744 OA
ENDBRANCH  77  81
ENDBRANCH  60  74
BRANCH  61  85
ATOM     85  C   UNL A   1      40.569  28.178  29.746  1.00  0.00     0.023 A 
ATOM     86  C   UNL A   1      41.496  28.464  28.732  1.00  0.00     0.031 A 
ATOM     87  C   UNL A   1      39.617  27.172  29.511  1.00  0.00     0.131 A 
ATOM     88  C   UNL A   1      41.430  27.776  27.511  1.00  0.00     0.055 A 
ATOM     89  C   UNL A   1      39.579  26.462  28.310  1.00  0.00     0.041 A 
ATOM     90  F   UNL A   1      38.716  26.857  30.454  1.00  0.00    -0.206 F 
ATOM     91  C   UNL A   1      40.484  26.769  27.297  1.00  0.00     0.022 A 
BRANCH  88  92
ATOM     92  S   UNL A   1      42.566  28.254  26.182  1.00  0.00     0.124 S 
ATOM     93  O   UNL A   1      41.999  27.550  25.039  1.00  0.00    -0.237 OA
ATOM     94  O   UNL A   1      42.428  29.707  26.175  1.00  0.00    -0.237 OA
ATOM     95  O   UNL A   1      43.860  27.756  26.645  1.00  0.00    -0.744 OA
ENDBRANCH  88  92
ENDBRANCH  61  85
BRANCH  73  96
ATOM     96  C   UNL A   1      44.866  28.255  35.223  1.00  0.00     0.023 A 
ATOM     97  C   UNL A   1      44.765  27.001  35.851  1.00  0.00     0.031 A 
ATOM     98  C   UNL A   1      46.149  28.748  34.928  1.00  0.00     0.131 A 
ATOM     99  C   UNL A   1      45.929  26.305  36.209  1.00  0.00     0.055 A 
ATOM    100  C   UNL A   1      47.302  28.029  35.241  1.00  0.00     0.041 A 
ATOM    101  F   UNL A   1      46.299  29.941  34.330  1.00  0.00    -0.206 F 
ATOM    102  C   UNL A   1      47.197  26.805  35.896  1.00  0.00     0.022 A 
BRANCH  99 103
ATOM    103  S   UNL A   1      45.770  24.772  37.165  1.00  0.00     0.124 S 
ATOM    104  O   UNL A   1      47.148  24.296  37.209  1.00  0.00    -0.237 OA
ATOM    105  O   UNL A   1      45.218  25.248  38.430  1.00  0.00    -0.237 OA
ATOM    106  O   UNL A   1      44.859  23.959  36.361  1.00  0.00    -0.744 OA
ENDBRANCH  99 103
ENDBRANCH  73  96
ENDBRANCH  47  48
ENDBRANCH  39  42
ENDBRANCH  37  38
ENDBRANCH  36  37
ENDBRANCH  35  36
ENDBRANCH   1  35
TORSDOF 20
ENDMDL
MODEL 3
REMARK VINA RESULT:     -11.0      2.387      2.673
REMARK SMILES O=C(NCCCCCCNC(=O)c1ccc(-c2c3nc(c(-c4cc(S(=O)(=O)[O-])ccc4F)c4ccc([nH]4)c(-c4cc(S(=O)(=O)[O-])ccc4F)c4nc(c(-c5cc(S(=O)(=O)[O-])ccc5F)c5ccc2[nH]5)C=C4)C=C3)cc1)c1ccc(NC(=O)[C@@H]2CC=CC[C@@H]2C(=O)Nc2ccc(Br)cc2)cc1
REMARK SMILES IDX 6 1 5 2 4 3 3 4 1 5 2 6 76 8 77 9 100 10 78 11 99 12 79 13
REMARK SMILES IDX 80 14 81 15 82 17 83 18 84 19 88 20 85 21 87 22 86 23 89 24
REMARK SMILES IDX 90 25 91 26 92 28 93 29 98 30 94 31 97 32 95 33 96 34 7 35
REMARK SMILES IDX 8 36 9 37 10 38 11 39 12 41 13 42 14 43 75 44 15 45 74 46
REMARK SMILES IDX 16 47 17 48 18 49 68 50 19 51 73 52 67 53 69 54 20 55 72 56
REMARK SMILES IDX 66 57 65 58 21 60 53 61 33 62 52 63 34 64 37 65 51 66 70 67
REMARK SMILES IDX 35 68 36 69 50 71 71 72 38 73 22 74 23 75 31 76 24 77 30 78
REMARK SMILES IDX 32 79 29 80 25 81 26 82 27 83 28 84 54 85 55 86 63 87 56 88
REMARK SMILES IDX 62 89 64 90 61 91 57 92 58 93 59 94 60 95 39 96 40 97 48 98
REMARK SMILES IDX 41 99 47 100 49 101 46 102 42 103 43 104 44 105 45 106
REMARK H PARENT 3 7 80 16 91 27 10 40 69 59 37 70
REMARK Flexibility Score: inf
ROOT
ATOM      1  C   UNL A   1      35.910  32.137  27.991  1.00  0.00     0.002 C 
ENDROOT
BRANCH   1   2
ATOM      2  C   UNL A   1      36.168  30.668  28.317  1.00  0.00     0.021 C 
BRANCH   2   3
ATOM      3  C   UNL A   1      35.161  29.691  27.728  1.00  0.00     0.116 C 
BRANCH   3   4
ATOM      4  N   UNL A   1      33.799  30.212  27.702  1.00  0.00    -0.352 N 
ATOM      5  O   UNL A   1      31.665  30.338  26.917  1.00  0.00    -0.269 OA
ATOM      6  C   UNL A   1      32.751  29.777  26.919  1.00  0.00     0.251 C 
ATOM      7  H   UNL A   1      33.606  30.959  28.312  1.00  0.00     0.163 HD
BRANCH   6   8
ATOM      8  C   UNL A   1      32.991  28.607  26.051  1.00  0.00     0.039 A 
ATOM      9  C   UNL A   1      33.063  27.342  26.628  1.00  0.00     0.016 A 
ATOM     10  C   UNL A   1      33.310  28.789  24.709  1.00  0.00     0.016 A 
ATOM     11  C   UNL A   1      33.594  26.284  25.895  1.00  0.00     0.027 A 
ATOM     12  C   UNL A   1      33.785  27.700  23.967  1.00  0.00     0.027 A 
ATOM     13  C   UNL A   1      33.948  26.433  24.555  1.00  0.00     0.041 A 
BRANCH  13  14
ATOM     14  N   UNL A   1      34.477  25.418  23.733  1.00  0.00    -0.326 N 
ATOM     15  C   UNL A   1      34.708  24.076  23.867  1.00  0.00     0.228 C 
ATOM     16  H   UNL A   1      34.744  25.757  22.847  1.00  0.00     0.169 HD
ATOM     17  O   UNL A   1      35.196  23.497  22.891  1.00  0.00    -0.274 OA
BRANCH  15  18
ATOM     18  C   UNL A   1      34.355  23.314  25.124  1.00  0.00     0.095 C 
ATOM     19  C   UNL A   1      34.652  21.811  25.059  1.00  0.00     0.041 C 
ATOM     20  C   UNL A   1      32.934  23.575  25.666  1.00  0.00     0.095 C 
ATOM     21  C   UNL A   1      34.406  21.193  26.412  1.00  0.00    -0.030 C 
ATOM     22  C   UNL A   1      32.912  23.079  27.141  1.00  0.00     0.041 C 
ATOM     23  C   UNL A   1      33.655  21.782  27.358  1.00  0.00    -0.030 C 
BRANCH  20  24
ATOM     24  C   UNL A   1      31.749  22.898  24.945  1.00  0.00     0.228 C 
ATOM     25  O   UNL A   1      31.646  21.679  24.815  1.00  0.00    -0.274 OA
ATOM     26  N   UNL A   1      30.635  23.670  24.701  1.00  0.00    -0.326 N 
ATOM     27  H   UNL A   1      29.774  23.269  24.956  1.00  0.00     0.169 HD
BRANCH  26  28
ATOM     28  C   UNL A   1      30.562  24.951  24.137  1.00  0.00     0.041 A 
ATOM     29  C   UNL A   1      29.895  25.962  24.829  1.00  0.00     0.027 A 
ATOM     30  C   UNL A   1      31.018  25.198  22.844  1.00  0.00     0.027 A 
ATOM     31  C   UNL A   1      29.774  27.238  24.267  1.00  0.00     0.018 A 
ATOM     32  C   UNL A   1      30.893  26.467  22.272  1.00  0.00     0.018 A 
ATOM     33  C   UNL A   1      30.286  27.488  22.994  1.00  0.00     0.018 A 
ATOM     34  Br  UNL A   1      30.126  29.207  22.229  1.00  0.00    -0.051 Br
ENDBRANCH  26  28
ENDBRANCH  20  24
ENDBRANCH  15  18
ENDBRANCH  13  14
ENDBRANCH   6   8
ENDBRANCH   3   4
ENDBRANCH   2   3
ENDBRANCH   1   2
BRANCH   1  35
ATOM     35  C   UNL A   1      35.391  32.996  29.148  1.00  0.00     0.002 C 
BRANCH  35  36
ATOM     36  C   UNL A   1      33.949  33.499  29.029  1.00  0.00     0.021 C 
BRANCH  36  37
ATOM     37  C   UNL A   1      33.733  34.986  29.301  1.00  0.00     0.116 C 
BRANCH  37  38
ATOM     38  N   UNL A   1      32.848  35.229  30.424  1.00  0.00    -0.352 N 
ATOM     39  C   UNL A   1      33.036  34.979  31.761  1.00  0.00     0.251 C 
ATOM     40  H   UNL A   1      31.982  35.636  30.193  1.00  0.00     0.163 HD
ATOM     41  O   UNL A   1      32.100  35.140  32.539  1.00  0.00    -0.269 OA
BRANCH  39  42
ATOM     42  C   UNL A   1      34.341  34.490  32.261  1.00  0.00     0.039 A 
ATOM     43  C   UNL A   1      34.433  33.166  32.702  1.00  0.00     0.014 A 
ATOM     44  C   UNL A   1      35.461  35.324  32.325  1.00  0.00     0.014 A 
ATOM     45  C   UNL A   1      35.657  32.662  33.150  1.00  0.00     0.010 A 
ATOM     46  C   UNL A   1      36.695  34.804  32.718  1.00  0.00     0.010 A 
ATOM     47  C   UNL A   1      36.804  33.469  33.135  1.00  0.00    -0.014 A 
BRANCH  47  48
ATOM     48  C   UNL A   1      38.125  32.934  33.557  1.00  0.00     0.031 A 
ATOM     49  C   UNL A   1      38.948  32.111  32.605  1.00  0.00     0.074 A 
ATOM     50  C   UNL A   1      38.553  33.136  34.820  1.00  0.00     0.049 A 
ATOM     51  N   UNL A   1      40.084  31.495  32.809  1.00  0.00    -0.248 NA
ATOM     52  C   UNL A   1      38.403  31.937  31.251  1.00  0.00     0.031 C 
ATOM     53  C   UNL A   1      37.829  33.887  35.847  1.00  0.00     0.029 A 
ATOM     54  N   UNL A   1      39.693  32.718  35.456  1.00  0.00    -0.354 N 
ATOM     55  C   UNL A   1      40.382  30.841  31.618  1.00  0.00     0.074 A 
ATOM     56  C   UNL A   1      39.279  31.100  30.714  1.00  0.00     0.031 C 
ATOM     57  C   UNL A   1      38.551  33.890  36.979  1.00  0.00     0.029 A 
ATOM     58  C   UNL A   1      39.769  33.112  36.771  1.00  0.00     0.049 A 
ATOM     59  H   UNL A   1      40.394  32.185  35.013  1.00  0.00     0.167 HD
ATOM     60  C   UNL A   1      41.478  30.106  31.303  1.00  0.00     0.034 A 
ATOM     61  C   UNL A   1      40.706  32.867  37.707  1.00  0.00     0.034 A 
ATOM     62  C   UNL A   1      42.579  29.876  32.207  1.00  0.00     0.049 A 
ATOM     63  C   UNL A   1      41.911  32.042  37.337  1.00  0.00     0.074 A 
ATOM     64  C   UNL A   1      43.771  29.215  31.965  1.00  0.00     0.029 A 
ATOM     65  N   UNL A   1      42.620  30.292  33.531  1.00  0.00    -0.354 N 
ATOM     66  N   UNL A   1      42.202  31.472  36.191  1.00  0.00    -0.248 NA
ATOM     67  C   UNL A   1      42.916  31.833  38.388  1.00  0.00     0.031 C 
ATOM     68  C   UNL A   1      44.507  29.182  33.157  1.00  0.00     0.029 A 
ATOM     69  C   UNL A   1      43.802  29.875  34.127  1.00  0.00     0.049 A 
ATOM     70  H   UNL A   1      41.913  30.808  33.983  1.00  0.00     0.167 HD
ATOM     71  C   UNL A   1      43.439  30.862  36.376  1.00  0.00     0.074 A 
ATOM     72  C   UNL A   1      43.840  31.139  37.740  1.00  0.00     0.031 C 
ATOM     73  C   UNL A   1      44.181  30.145  35.494  1.00  0.00     0.034 A 
BRANCH  60  74
ATOM     74  C   UNL A   1      41.516  29.474  29.932  1.00  0.00     0.023 A 
ATOM     75  C   UNL A   1      40.857  28.263  29.657  1.00  0.00     0.031 A 
ATOM     76  C   UNL A   1      42.256  30.071  28.896  1.00  0.00     0.131 A 
ATOM     77  C   UNL A   1      41.019  27.646  28.407  1.00  0.00     0.055 A 
ATOM     78  C   UNL A   1      42.347  29.492  27.629  1.00  0.00     0.041 A 
ATOM     79  F   UNL A   1      42.922  31.217  29.105  1.00  0.00    -0.206 F 
ATOM     80  C   UNL A   1      41.741  28.263  27.384  1.00  0.00     0.022 A 
BRANCH  77  81
ATOM     81  S   UNL A   1      40.401  25.954  28.191  1.00  0.00     0.124 S 
ATOM     82  O   UNL A   1      41.571  25.163  28.566  1.00  0.00    -0.237 OA
ATOM     83  O   UNL A   1      39.275  25.910  29.117  1.00  0.00    -0.237 OA
ATOM     84  O   UNL A   1      40.047  25.896  26.774  1.00  0.00    -0.744 OA
ENDBRANCH  77  81
ENDBRANCH  60  74
BRANCH  61  85
ATOM     85  C   UNL A   1      40.548  33.401  39.087  1.00  0.00     0.023 A 
ATOM     86  C   UNL A   1      39.853  32.672  40.064  1.00  0.00     0.031 A 
ATOM     87  C   UNL A   1      41.064  34.660  39.440  1.00  0.00     0.131 A 
ATOM     88  C   UNL A   1      39.659  33.224  41.340  1.00  0.00     0.055 A 
ATOM     89  C   UNL A   1      40.904  35.187  40.722  1.00  0.00     0.041 A 
ATOM     90  F   UNL A   1      41.745  35.390  38.542  1.00  0.00    -0.206 F 
ATOM     91  C   UNL A   1      40.188  34.472  41.679  1.00  0.00     0.022 A 
BRANCH  88  92
ATOM     92  S   UNL A   1      38.653  32.307  42.538  1.00  0.00     0.124 S 
ATOM     93  O   UNL A   1      38.134  31.218  41.719  1.00  0.00    -0.237 OA
ATOM     94  O   UNL A   1      39.644  31.939  43.544  1.00  0.00    -0.237 OA
ATOM     95  O   UNL A   1      37.662  33.289  42.973  1.00  0.00    -0.744 OA
ENDBRANCH  88  92
ENDBRANCH  61  85
BRANCH  73  96
ATOM     96  C   UNL A   1      45.520  29.650  35.978  1.00  0.00     0.023 A 
ATOM     97  C   UNL A   1      46.690  30.415  35.822  1.00  0.00     0.031 A 
ATOM     98  C   UNL A   1      45.629  28.386  36.582  1.00  0.00     0.131 A 
ATOM     99  C   UNL A   1      47.926  29.886  36.220  1.00  0.00     0.055 A 
ATOM    100  C   UNL A   1      46.854  27.886  37.022  1.00  0.00     0.041 A 
ATOM    101  F   UNL A   1      44.542  27.615  36.752  1.00  0.00    -0.206 F 
ATOM    102  C   UNL A   1      48.014  28.631  36.832  1.00  0.00     0.022 A 
BRANCH  99 103
ATOM    103  S   UNL A   1      49.435  30.825  35.856  1.00  0.00     0.124 S 
ATOM    104  O   UNL A   1      50.208  29.867  35.073  1.00  0.00    -0.237 OA
ATOM    105  O   UNL A   1      48.916  31.977  35.125  1.00  0.00    -0.237 OA
ATOM    106  O   UNL A   1      49.979  31.127  37.179  1.00  0.00    -0.744 OA
ENDBRANCH  99 103
ENDBRANCH  73  96
ENDBRANCH  47  48
ENDBRANCH  39  42
ENDBRANCH  37  38
ENDBRANCH  36  37
ENDBRANCH  35  36
ENDBRANCH   1  35
TORSDOF 20
ENDMDL
