MODEL 1
REMARK VINA RESULT:      -8.9      0.000      0.000
REMARK SMILES O=C(COc1ccc(/C=C2\C(=O)N(c3ccc(Cl)cc3Cl)C(=O)N=C2O)cc1Cl)NCCCCCCNC(=O)c1ccc(-c2c3nc(c(-c4cc(S(=O)(=O)[O-])ccc4F)c4ccc([nH]4)c(-c4cc(S(=O)(=O)[O-])ccc4F)c4nc(c(-c5cc(S(=O)(=O)[O-])ccc5F)c5ccc2[nH]5)C=C4)C=C3)cc1
REMARK SMILES IDX 33 1 32 2 31 3 30 4 1 5 2 6 3 8 4 9 5 10 6 11 28 12 7 13
REMARK SMILES IDX 27 14 29 15 8 16 9 17 10 18 11 19 25 20 12 21 13 22 24 23
REMARK SMILES IDX 22 24 23 25 26 26 14 28 15 29 20 30 16 31 19 32 21 33 17 34
REMARK SMILES IDX 18 35 34 36 35 37 36 38 37 39 38 40 39 42 40 43 41 44 102 45
REMARK SMILES IDX 42 46 101 47 43 48 44 49 45 50 95 51 46 52 100 53 94 54
REMARK SMILES IDX 96 55 47 56 99 57 93 58 92 59 48 61 80 62 60 63 79 64 61 65
REMARK SMILES IDX 64 66 78 67 97 68 62 69 63 70 77 72 98 73 65 74 49 75 50 76
REMARK SMILES IDX 58 77 51 78 57 79 59 80 56 81 52 82 53 83 54 84 55 85 81 86
REMARK SMILES IDX 82 87 90 88 83 89 89 90 91 91 88 92 84 93 85 94 86 95 87 96
REMARK SMILES IDX 66 97 67 98 75 99 68 100 74 101 76 102 73 103 69 104 70 105
REMARK SMILES IDX 71 106 72 107
REMARK H PARENT 30 7 26 27 37 41 96 60 64 71
REMARK Flexibility Score: inf
ROOT
ATOM      1  C   UNL A   1      45.122  24.720  29.219  1.00  0.00     0.002 C 
ENDROOT
BRANCH   1   2
ATOM      2  C   UNL A   1      44.298  23.509  29.673  1.00  0.00     0.021 C 
BRANCH   2   3
ATOM      3  C   UNL A   1      42.894  23.415  29.091  1.00  0.00     0.116 C 
BRANCH   3   4
ATOM      4  N   UNL A   1      42.514  24.589  28.338  1.00  0.00    -0.353 N 
ATOM      5  O   UNL A   1      40.311  24.028  27.948  1.00  0.00    -0.271 OA
ATOM      6  C   UNL A   1      41.219  24.853  27.949  1.00  0.00     0.257 C 
ATOM      7  H   UNL A   1      43.217  25.232  28.092  1.00  0.00     0.163 HD
BRANCH   6   8
ATOM      8  C   UNL A   1      41.014  26.298  27.494  1.00  0.00     0.329 C 
BRANCH   8   9
ATOM      9  O   UNL A   1      39.682  26.749  27.783  1.00  0.00    -0.482 OA
BRANCH   9  10
ATOM     10  C   UNL A   1      39.589  27.328  29.020  1.00  0.00     0.138 A 
ATOM     11  C   UNL A   1      38.869  26.626  29.985  1.00  0.00     0.048 A 
ATOM     12  C   UNL A   1      40.069  28.606  29.317  1.00  0.00     0.083 A 
ATOM     13  C   UNL A   1      38.667  27.185  31.252  1.00  0.00     0.012 A 
ATOM     14  C   UNL A   1      39.899  29.140  30.596  1.00  0.00     0.032 A 
ATOM     15  Cl  UNL A   1      40.824  29.623  28.153  1.00  0.00    -0.080 Cl
ATOM     16  C   UNL A   1      39.215  28.430  31.590  1.00  0.00    -0.023 A 
BRANCH  16  17
ATOM     17  C   UNL A   1      39.020  29.102  32.887  1.00  0.00     0.027 C 
ATOM     18  C   UNL A   1      38.079  29.988  33.262  1.00  0.00     0.103 C 
ATOM     19  C   UNL A   1      36.988  30.487  32.400  1.00  0.00     0.272 C 
ATOM     20  C   UNL A   1      38.139  30.647  34.558  1.00  0.00     0.228 C 
ATOM     21  O   UNL A   1      36.406  29.752  31.614  1.00  0.00    -0.268 OA
ATOM     22  N   UNL A   1      36.755  31.841  32.604  1.00  0.00    -0.224 N 
ATOM     23  N   UNL A   1      37.555  31.743  34.871  1.00  0.00    -0.156 NA
ATOM     24  C   UNL A   1      36.861  32.406  33.884  1.00  0.00     0.358 C 
ATOM     25  O   UNL A   1      36.279  33.460  34.170  1.00  0.00    -0.245 OA
BRANCH  20  26
ATOM     26  O   UNL A   1      38.846  30.018  35.502  1.00  0.00    -0.493 OA
ATOM     27  H   UNL A   1      39.288  29.217  35.301  1.00  0.00     0.295 HD
ENDBRANCH  20  26
BRANCH  22  28
ATOM     28  C   UNL A   1      36.234  32.636  31.528  1.00  0.00     0.073 A 
ATOM     29  C   UNL A   1      34.847  32.782  31.346  1.00  0.00     0.030 A 
ATOM     30  C   UNL A   1      37.091  33.216  30.565  1.00  0.00     0.066 A 
ATOM     31  C   UNL A   1      34.333  33.499  30.261  1.00  0.00     0.023 A 
ATOM     32  C   UNL A   1      36.574  33.945  29.488  1.00  0.00     0.043 A 
ATOM     33  Cl  UNL A   1      38.798  32.911  30.534  1.00  0.00    -0.082 Cl
ATOM     34  C   UNL A   1      35.199  34.082  29.342  1.00  0.00     0.042 A 
ATOM     35  Cl  UNL A   1      34.563  34.948  27.999  1.00  0.00    -0.084 Cl
ENDBRANCH  22  28
ENDBRANCH  16  17
ENDBRANCH   9  10
ENDBRANCH   8   9
ENDBRANCH   6   8
ENDBRANCH   3   4
ENDBRANCH   2   3
ENDBRANCH   1   2
BRANCH   1  36
ATOM     36  C   UNL A   1      46.348  24.428  28.348  1.00  0.00     0.002 C 
BRANCH  36  37
ATOM     37  C   UNL A   1      46.097  23.630  27.068  1.00  0.00     0.021 C 
BRANCH  37  38
ATOM     38  C   UNL A   1      45.195  24.293  26.031  1.00  0.00     0.116 C 
BRANCH  38  39
ATOM     39  N   UNL A   1      45.928  25.067  25.045  1.00  0.00    -0.352 N 
ATOM     40  C   UNL A   1      46.167  26.419  24.993  1.00  0.00     0.251 C 
ATOM     41  H   UNL A   1      46.309  24.545  24.303  1.00  0.00     0.163 HD
ATOM     42  O   UNL A   1      46.728  26.890  24.008  1.00  0.00    -0.269 OA
BRANCH  40  43
ATOM     43  C   UNL A   1      45.720  27.310  26.091  1.00  0.00     0.039 A 
ATOM     44  C   UNL A   1      44.358  27.613  26.188  1.00  0.00     0.014 A 
ATOM     45  C   UNL A   1      46.618  27.855  27.013  1.00  0.00     0.014 A 
ATOM     46  C   UNL A   1      43.891  28.402  27.242  1.00  0.00     0.010 A 
ATOM     47  C   UNL A   1      46.144  28.589  28.102  1.00  0.00     0.010 A 
ATOM     48  C   UNL A   1      44.774  28.868  28.230  1.00  0.00    -0.014 A 
BRANCH  48  49
ATOM     49  C   UNL A   1      44.267  29.623  29.405  1.00  0.00     0.031 A 
ATOM     50  C   UNL A   1      43.972  28.920  30.702  1.00  0.00     0.074 A 
ATOM     51  C   UNL A   1      44.031  30.946  29.288  1.00  0.00     0.049 A 
ATOM     52  N   UNL A   1      43.533  29.416  31.832  1.00  0.00    -0.248 NA
ATOM     53  C   UNL A   1      44.170  27.464  30.722  1.00  0.00     0.031 C 
ATOM     54  C   UNL A   1      44.223  31.730  28.066  1.00  0.00     0.029 A 
ATOM     55  N   UNL A   1      43.582  31.863  30.203  1.00  0.00    -0.354 N 
ATOM     56  C   UNL A   1      43.390  28.334  32.694  1.00  0.00     0.074 A 
ATOM     57  C   UNL A   1      43.735  27.150  31.933  1.00  0.00     0.031 C 
ATOM     58  C   UNL A   1      43.929  33.016  28.319  1.00  0.00     0.029 A 
ATOM     59  C   UNL A   1      43.497  33.142  29.707  1.00  0.00     0.049 A 
ATOM     60  H   UNL A   1      43.342  31.627  31.129  1.00  0.00     0.167 HD
ATOM     61  C   UNL A   1      43.027  28.330  34.002  1.00  0.00     0.034 A 
ATOM     62  C   UNL A   1      43.118  34.290  30.302  1.00  0.00     0.034 A 
ATOM     63  C   UNL A   1      42.696  29.521  34.748  1.00  0.00     0.049 A 
ATOM     64  C   UNL A   1      42.718  34.262  31.753  1.00  0.00     0.074 A 
ATOM     65  C   UNL A   1      42.395  29.642  36.096  1.00  0.00     0.029 A 
ATOM     66  N   UNL A   1      42.608  30.800  34.211  1.00  0.00    -0.354 N 
ATOM     67  N   UNL A   1      42.663  33.239  32.577  1.00  0.00    -0.248 NA
ATOM     68  C   UNL A   1      42.341  35.546  32.355  1.00  0.00     0.031 C 
ATOM     69  C   UNL A   1      42.059  30.976  36.355  1.00  0.00     0.029 A 
ATOM     70  C   UNL A   1      42.219  31.706  35.189  1.00  0.00     0.049 A 
ATOM     71  H   UNL A   1      42.793  31.030  33.272  1.00  0.00     0.167 HD
ATOM     72  C   UNL A   1      42.264  33.766  33.803  1.00  0.00     0.074 A 
ATOM     73  C   UNL A   1      42.119  35.195  33.613  1.00  0.00     0.031 C 
ATOM     74  C   UNL A   1      42.042  33.125  34.980  1.00  0.00     0.034 A 
BRANCH  61  75
ATOM     75  C   UNL A   1      42.941  26.987  34.692  1.00  0.00     0.023 A 
ATOM     76  C   UNL A   1      44.083  26.340  35.200  1.00  0.00     0.031 A 
ATOM     77  C   UNL A   1      41.707  26.325  34.810  1.00  0.00     0.131 A 
ATOM     78  C   UNL A   1      43.982  25.040  35.718  1.00  0.00     0.055 A 
ATOM     79  C   UNL A   1      41.600  25.065  35.404  1.00  0.00     0.041 A 
ATOM     80  F   UNL A   1      40.583  26.881  34.329  1.00  0.00    -0.206 F 
ATOM     81  C   UNL A   1      42.744  24.407  35.846  1.00  0.00     0.022 A 
BRANCH  78  82
ATOM     82  S   UNL A   1      45.509  24.128  36.074  1.00  0.00     0.124 S 
ATOM     83  O   UNL A   1      46.007  24.834  37.253  1.00  0.00    -0.237 OA
ATOM     84  O   UNL A   1      45.021  22.773  36.298  1.00  0.00    -0.237 OA
ATOM     85  O   UNL A   1      46.308  24.313  34.864  1.00  0.00    -0.744 OA
ENDBRANCH  78  82
ENDBRANCH  61  75
BRANCH  62  86
ATOM     86  C   UNL A   1      43.109  35.567  29.537  1.00  0.00     0.023 A 
ATOM     87  C   UNL A   1      44.213  36.433  29.569  1.00  0.00     0.031 A 
ATOM     88  C   UNL A   1      41.985  35.956  28.787  1.00  0.00     0.131 A 
ATOM     89  C   UNL A   1      44.156  37.663  28.896  1.00  0.00     0.055 A 
ATOM     90  C   UNL A   1      41.950  37.160  28.083  1.00  0.00     0.041 A 
ATOM     91  F   UNL A   1      40.907  35.158  28.718  1.00  0.00    -0.206 F 
ATOM     92  C   UNL A   1      43.037  38.028  28.145  1.00  0.00     0.022 A 
BRANCH  89  93
ATOM     93  S   UNL A   1      45.550  38.811  29.068  1.00  0.00     0.124 S 
ATOM     94  O   UNL A   1      46.126  38.394  30.342  1.00  0.00    -0.237 OA
ATOM     95  O   UNL A   1      46.339  38.511  27.878  1.00  0.00    -0.237 OA
ATOM     96  O   UNL A   1      44.909  40.125  29.072  1.00  0.00    -0.744 OA
ENDBRANCH  89  93
ENDBRANCH  62  86
BRANCH  74  97
ATOM     97  C   UNL A   1      41.637  33.988  36.151  1.00  0.00     0.023 A 
ATOM     98  C   UNL A   1      42.563  34.373  37.137  1.00  0.00     0.031 A 
ATOM     99  C   UNL A   1      40.298  34.388  36.310  1.00  0.00     0.131 A 
ATOM    100  C   UNL A   1      42.126  35.070  38.274  1.00  0.00     0.055 A 
ATOM    101  C   UNL A   1      39.881  35.137  37.412  1.00  0.00     0.041 A 
ATOM    102  F   UNL A   1      39.370  34.047  35.402  1.00  0.00    -0.206 F 
ATOM    103  C   UNL A   1      40.793  35.467  38.410  1.00  0.00     0.022 A 
BRANCH 100 104
ATOM    104  S   UNL A   1      43.299  35.343  39.630  1.00  0.00     0.124 S 
ATOM    105  O   UNL A   1      43.796  36.684  39.338  1.00  0.00    -0.237 OA
ATOM    106  O   UNL A   1      42.446  35.223  40.808  1.00  0.00    -0.237 OA
ATOM    107  O   UNL A   1      44.277  34.269  39.461  1.00  0.00    -0.744 OA
ENDBRANCH 100 104
ENDBRANCH  74  97
ENDBRANCH  48  49
ENDBRANCH  40  43
ENDBRANCH  38  39
ENDBRANCH  37  38
ENDBRANCH  36  37
ENDBRANCH   1  36
TORSDOF 21
ENDMDL
MODEL 2
REMARK VINA RESULT:      -8.8      3.506     10.873
REMARK SMILES O=C(COc1ccc(/C=C2\C(=O)N(c3ccc(Cl)cc3Cl)C(=O)N=C2O)cc1Cl)NCCCCCCNC(=O)c1ccc(-c2c3nc(c(-c4cc(S(=O)(=O)[O-])ccc4F)c4ccc([nH]4)c(-c4cc(S(=O)(=O)[O-])ccc4F)c4nc(c(-c5cc(S(=O)(=O)[O-])ccc5F)c5ccc2[nH]5)C=C4)C=C3)cc1
REMARK SMILES IDX 33 1 32 2 31 3 30 4 1 5 2 6 3 8 4 9 5 10 6 11 28 12 7 13
REMARK SMILES IDX 27 14 29 15 8 16 9 17 10 18 11 19 25 20 12 21 13 22 24 23
REMARK SMILES IDX 22 24 23 25 26 26 14 28 15 29 20 30 16 31 19 32 21 33 17 34
REMARK SMILES IDX 18 35 34 36 35 37 36 38 37 39 38 40 39 42 40 43 41 44 102 45
REMARK SMILES IDX 42 46 101 47 43 48 44 49 45 50 95 51 46 52 100 53 94 54
REMARK SMILES IDX 96 55 47 56 99 57 93 58 92 59 48 61 80 62 60 63 79 64 61 65
REMARK SMILES IDX 64 66 78 67 97 68 62 69 63 70 77 72 98 73 65 74 49 75 50 76
REMARK SMILES IDX 58 77 51 78 57 79 59 80 56 81 52 82 53 83 54 84 55 85 81 86
REMARK SMILES IDX 82 87 90 88 83 89 89 90 91 91 88 92 84 93 85 94 86 95 87 96
REMARK SMILES IDX 66 97 67 98 75 99 68 100 74 101 76 102 73 103 69 104 70 105
REMARK SMILES IDX 71 106 72 107
REMARK H PARENT 30 7 26 27 37 41 96 60 64 71
REMARK Flexibility Score: inf
ROOT
ATOM      1  C   UNL A   1      34.516  33.976  32.366  1.00  0.00     0.002 C 
ENDROOT
BRANCH   1   2
ATOM      2  C   UNL A   1      34.940  34.831  33.566  1.00  0.00     0.021 C 
BRANCH   2   3
ATOM      3  C   UNL A   1      35.696  34.093  34.662  1.00  0.00     0.116 C 
BRANCH   3   4
ATOM      4  N   UNL A   1      37.125  34.073  34.449  1.00  0.00    -0.353 N 
ATOM      5  O   UNL A   1      37.523  31.895  35.097  1.00  0.00    -0.271 OA
ATOM      6  C   UNL A   1      37.893  32.933  34.558  1.00  0.00     0.257 C 
ATOM      7  H   UNL A   1      37.574  34.917  34.214  1.00  0.00     0.163 HD
BRANCH   6   8
ATOM      8  C   UNL A   1      39.283  33.087  33.942  1.00  0.00     0.329 C 
BRANCH   8   9
ATOM      9  O   UNL A   1      39.520  34.440  33.526  1.00  0.00    -0.482 OA
BRANCH   9  10
ATOM     10  C   UNL A   1      40.158  34.504  32.316  1.00  0.00     0.138 A 
ATOM     11  C   UNL A   1      41.504  34.865  32.338  1.00  0.00     0.048 A 
ATOM     12  C   UNL A   1      39.512  34.343  31.088  1.00  0.00     0.083 A 
ATOM     13  C   UNL A   1      42.207  35.023  31.139  1.00  0.00     0.012 A 
ATOM     14  C   UNL A   1      40.229  34.462  29.896  1.00  0.00     0.032 A 
ATOM     15  Cl  UNL A   1      37.821  34.062  30.943  1.00  0.00    -0.080 Cl
ATOM     16  C   UNL A   1      41.592  34.782  29.903  1.00  0.00    -0.023 A 
BRANCH  16  17
ATOM     17  C   UNL A   1      42.250  34.960  28.596  1.00  0.00     0.027 C 
ATOM     18  C   UNL A   1      43.190  34.204  27.998  1.00  0.00     0.103 C 
ATOM     19  C   UNL A   1      43.778  32.972  28.562  1.00  0.00     0.272 C 
ATOM     20  C   UNL A   1      43.818  34.627  26.755  1.00  0.00     0.228 C 
ATOM     21  O   UNL A   1      43.100  32.165  29.182  1.00  0.00    -0.268 OA
ATOM     22  N   UNL A   1      45.140  32.893  28.304  1.00  0.00    -0.224 N 
ATOM     23  N   UNL A   1      44.944  34.216  26.305  1.00  0.00    -0.156 NA
ATOM     24  C   UNL A   1      45.672  33.350  27.088  1.00  0.00     0.358 C 
ATOM     25  O   UNL A   1      46.757  32.931  26.665  1.00  0.00    -0.245 OA
BRANCH  20  26
ATOM     26  O   UNL A   1      43.124  35.499  26.016  1.00  0.00    -0.493 OA
ATOM     27  H   UNL A   1      43.548  36.258  25.666  1.00  0.00     0.295 HD
ENDBRANCH  20  26
BRANCH  22  28
ATOM     28  C   UNL A   1      45.990  32.179  29.216  1.00  0.00     0.073 A 
ATOM     29  C   UNL A   1      46.771  32.868  30.162  1.00  0.00     0.030 A 
ATOM     30  C   UNL A   1      46.141  30.777  29.129  1.00  0.00     0.066 A 
ATOM     31  C   UNL A   1      47.650  32.183  31.006  1.00  0.00     0.023 A 
ATOM     32  C   UNL A   1      47.012  30.093  29.985  1.00  0.00     0.043 A 
ATOM     33  Cl  UNL A   1      45.426  29.839  27.856  1.00  0.00    -0.082 Cl
ATOM     34  C   UNL A   1      47.761  30.799  30.918  1.00  0.00     0.042 A 
ATOM     35  Cl  UNL A   1      48.858  29.963  31.946  1.00  0.00    -0.084 Cl
ENDBRANCH  22  28
ENDBRANCH  16  17
ENDBRANCH   9  10
ENDBRANCH   8   9
ENDBRANCH   6   8
ENDBRANCH   3   4
ENDBRANCH   2   3
ENDBRANCH   1   2
BRANCH   1  36
ATOM     36  C   UNL A   1      34.059  34.731  31.113  1.00  0.00     0.002 C 
BRANCH  36  37
ATOM     37  C   UNL A   1      34.455  34.119  29.769  1.00  0.00     0.021 C 
BRANCH  37  38
ATOM     38  C   UNL A   1      34.879  32.654  29.800  1.00  0.00     0.116 C 
BRANCH  38  39
ATOM     39  N   UNL A   1      34.226  31.846  28.785  1.00  0.00    -0.352 N 
ATOM     40  C   UNL A   1      34.682  30.730  28.126  1.00  0.00     0.251 C 
ATOM     41  H   UNL A   1      33.322  32.143  28.532  1.00  0.00     0.163 HD
ATOM     42  O   UNL A   1      34.005  30.253  27.219  1.00  0.00    -0.269 OA
BRANCH  40  43
ATOM     43  C   UNL A   1      35.993  30.129  28.470  1.00  0.00     0.039 A 
ATOM     44  C   UNL A   1      37.056  30.298  27.577  1.00  0.00     0.014 A 
ATOM     45  C   UNL A   1      36.185  29.399  29.647  1.00  0.00     0.014 A 
ATOM     46  C   UNL A   1      38.320  29.794  27.894  1.00  0.00     0.010 A 
ATOM     47  C   UNL A   1      37.462  28.953  29.993  1.00  0.00     0.010 A 
ATOM     48  C   UNL A   1      38.545  29.150  29.121  1.00  0.00    -0.014 A 
BRANCH  48  49
ATOM     49  C   UNL A   1      39.909  28.703  29.504  1.00  0.00     0.031 A 
ATOM     50  C   UNL A   1      40.659  29.385  30.616  1.00  0.00     0.074 A 
ATOM     51  C   UNL A   1      40.493  27.700  28.816  1.00  0.00     0.049 A 
ATOM     52  N   UNL A   1      41.851  29.127  31.092  1.00  0.00    -0.248 NA
ATOM     53  C   UNL A   1      39.990  30.526  31.257  1.00  0.00     0.031 C 
ATOM     54  C   UNL A   1      39.892  26.997  27.681  1.00  0.00     0.029 A 
ATOM     55  N   UNL A   1      41.716  27.099  28.968  1.00  0.00    -0.354 N 
ATOM     56  C   UNL A   1      42.082  30.079  32.079  1.00  0.00     0.074 A 
ATOM     57  C   UNL A   1      40.928  30.954  32.090  1.00  0.00     0.031 C 
ATOM     58  C   UNL A   1      40.732  26.036  27.264  1.00  0.00     0.029 A 
ATOM     59  C   UNL A   1      41.943  26.076  28.077  1.00  0.00     0.049 A 
ATOM     60  H   UNL A   1      42.370  27.374  29.650  1.00  0.00     0.167 HD
ATOM     61  C   UNL A   1      43.147  30.199  32.913  1.00  0.00     0.034 A 
ATOM     62  C   UNL A   1      43.004  25.259  27.932  1.00  0.00     0.034 A 
ATOM     63  C   UNL A   1      44.286  29.311  32.896  1.00  0.00     0.049 A 
ATOM     64  C   UNL A   1      44.174  25.411  28.868  1.00  0.00     0.074 A 
ATOM     65  C   UNL A   1      45.379  29.290  33.747  1.00  0.00     0.029 A 
ATOM     66  N   UNL A   1      44.490  28.293  31.971  1.00  0.00    -0.354 N 
ATOM     67  N   UNL A   1      44.344  26.269  29.849  1.00  0.00    -0.248 NA
ATOM     68  C   UNL A   1      45.290  24.476  28.681  1.00  0.00     0.031 C 
ATOM     69  C   UNL A   1      46.271  28.310  33.296  1.00  0.00     0.029 A 
ATOM     70  C   UNL A   1      45.706  27.666  32.207  1.00  0.00     0.049 A 
ATOM     71  H   UNL A   1      43.862  28.052  31.253  1.00  0.00     0.167 HD
ATOM     72  C   UNL A   1      45.581  25.958  30.410  1.00  0.00     0.074 A 
ATOM     73  C   UNL A   1      46.097  24.822  29.672  1.00  0.00     0.031 C 
ATOM     74  C   UNL A   1      46.228  26.556  31.443  1.00  0.00     0.034 A 
BRANCH  61  75
ATOM     75  C   UNL A   1      43.135  31.353  33.889  1.00  0.00     0.023 A 
ATOM     76  C   UNL A   1      42.505  31.256  35.144  1.00  0.00     0.031 A 
ATOM     77  C   UNL A   1      43.725  32.582  33.548  1.00  0.00     0.131 A 
ATOM     78  C   UNL A   1      42.403  32.387  35.969  1.00  0.00     0.055 A 
ATOM     79  C   UNL A   1      43.695  33.681  34.410  1.00  0.00     0.041 A 
ATOM     80  F   UNL A   1      44.326  32.745  32.358  1.00  0.00    -0.206 F 
ATOM     81  C   UNL A   1      43.014  33.593  35.621  1.00  0.00     0.022 A 
BRANCH  78  82
ATOM     82  S   UNL A   1      41.325  32.302  37.425  1.00  0.00     0.124 S 
ATOM     83  O   UNL A   1      41.085  33.718  37.698  1.00  0.00    -0.237 OA
ATOM     84  O   UNL A   1      40.183  31.544  36.928  1.00  0.00    -0.237 OA
ATOM     85  O   UNL A   1      42.146  31.616  38.421  1.00  0.00    -0.744 OA
ENDBRANCH  78  82
ENDBRANCH  61  75
BRANCH  62  86
ATOM     86  C   UNL A   1      43.011  24.214  26.872  1.00  0.00     0.023 A 
ATOM     87  C   UNL A   1      42.353  22.989  27.067  1.00  0.00     0.031 A 
ATOM     88  C   UNL A   1      43.699  24.412  25.662  1.00  0.00     0.131 A 
ATOM     89  C   UNL A   1      42.430  21.992  26.082  1.00  0.00     0.055 A 
ATOM     90  C   UNL A   1      43.734  23.434  24.668  1.00  0.00     0.041 A 
ATOM     91  F   UNL A   1      44.334  25.570  25.426  1.00  0.00    -0.206 F 
ATOM     92  C   UNL A   1      43.107  22.209  24.880  1.00  0.00     0.022 A 
BRANCH  89  93
ATOM     93  S   UNL A   1      41.680  20.376  26.424  1.00  0.00     0.124 S 
ATOM     94  O   UNL A   1      42.257  19.549  25.370  1.00  0.00    -0.237 OA
ATOM     95  O   UNL A   1      42.146  20.106  27.779  1.00  0.00    -0.237 OA
ATOM     96  O   UNL A   1      40.246  20.635  26.302  1.00  0.00    -0.744 OA
ENDBRANCH  89  93
ENDBRANCH  62  86
BRANCH  74  97
ATOM     97  C   UNL A   1      47.561  25.965  31.836  1.00  0.00     0.023 A 
ATOM     98  C   UNL A   1      47.676  25.055  32.902  1.00  0.00     0.031 A 
ATOM     99  C   UNL A   1      48.736  26.354  31.170  1.00  0.00     0.131 A 
ATOM    100  C   UNL A   1      48.944  24.622  33.319  1.00  0.00     0.055 A 
ATOM    101  C   UNL A   1      49.990  25.869  31.548  1.00  0.00     0.041 A 
ATOM    102  F   UNL A   1      48.687  27.223  30.147  1.00  0.00    -0.206 F 
ATOM    103  C   UNL A   1      50.100  25.012  32.638  1.00  0.00     0.022 A 
BRANCH 100 104
ATOM    104  S   UNL A   1      49.072  23.639  34.838  1.00  0.00     0.124 S 
ATOM    105  O   UNL A   1      47.758  23.839  35.442  1.00  0.00    -0.237 OA
ATOM    106  O   UNL A   1      49.336  22.300  34.321  1.00  0.00    -0.237 OA
ATOM    107  O   UNL A   1      50.185  24.257  35.556  1.00  0.00    -0.744 OA
ENDBRANCH 100 104
ENDBRANCH  74  97
ENDBRANCH  48  49
ENDBRANCH  40  43
ENDBRANCH  38  39
ENDBRANCH  37  38
ENDBRANCH  36  37
ENDBRANCH   1  36
TORSDOF 21
ENDMDL
MODEL 3
REMARK VINA RESULT:      -8.6      5.023      9.367
REMARK SMILES O=C(COc1ccc(/C=C2\C(=O)N(c3ccc(Cl)cc3Cl)C(=O)N=C2O)cc1Cl)NCCCCCCNC(=O)c1ccc(-c2c3nc(c(-c4cc(S(=O)(=O)[O-])ccc4F)c4ccc([nH]4)c(-c4cc(S(=O)(=O)[O-])ccc4F)c4nc(c(-c5cc(S(=O)(=O)[O-])ccc5F)c5ccc2[nH]5)C=C4)C=C3)cc1
REMARK SMILES IDX 33 1 32 2 31 3 30 4 1 5 2 6 3 8 4 9 5 10 6 11 28 12 7 13
REMARK SMILES IDX 27 14 29 15 8 16 9 17 10 18 11 19 25 20 12 21 13 22 24 23
REMARK SMILES IDX 22 24 23 25 26 26 14 28 15 29 20 30 16 31 19 32 21 33 17 34
REMARK SMILES IDX 18 35 34 36 35 37 36 38 37 39 38 40 39 42 40 43 41 44 102 45
REMARK SMILES IDX 42 46 101 47 43 48 44 49 45 50 95 51 46 52 100 53 94 54
REMARK SMILES IDX 96 55 47 56 99 57 93 58 92 59 48 61 80 62 60 63 79 64 61 65
REMARK SMILES IDX 64 66 78 67 97 68 62 69 63 70 77 72 98 73 65 74 49 75 50 76
REMARK SMILES IDX 58 77 51 78 57 79 59 80 56 81 52 82 53 83 54 84 55 85 81 86
REMARK SMILES IDX 82 87 90 88 83 89 89 90 91 91 88 92 84 93 85 94 86 95 87 96
REMARK SMILES IDX 66 97 67 98 75 99 68 100 74 101 76 102 73 103 69 104 70 105
REMARK SMILES IDX 71 106 72 107
REMARK H PARENT 30 7 26 27 37 41 96 60 64 71
REMARK Flexibility Score: inf
ROOT
ATOM      1  C   UNL A   1      37.709  30.138  29.151  1.00  0.00     0.002 C 
ENDROOT
BRANCH   1   2
ATOM      2  C   UNL A   1      38.650  29.520  28.110  1.00  0.00     0.021 C 
BRANCH   2   3
ATOM      3  C   UNL A   1      39.349  28.237  28.538  1.00  0.00     0.116 C 
BRANCH   3   4
ATOM      4  N   UNL A   1      39.705  27.389  27.423  1.00  0.00    -0.353 N 
ATOM      5  O   UNL A   1      41.799  26.752  28.152  1.00  0.00    -0.271 OA
ATOM      6  C   UNL A   1      40.845  26.614  27.394  1.00  0.00     0.257 C 
ATOM      7  H   UNL A   1      39.102  27.363  26.646  1.00  0.00     0.163 HD
BRANCH   6   8
ATOM      8  C   UNL A   1      40.817  25.551  26.296  1.00  0.00     0.329 C 
BRANCH   8   9
ATOM      9  O   UNL A   1      40.820  24.229  26.853  1.00  0.00    -0.482 OA
BRANCH   9  10
ATOM     10  C   UNL A   1      39.731  23.499  26.458  1.00  0.00     0.138 A 
ATOM     11  C   UNL A   1      38.496  24.142  26.510  1.00  0.00     0.048 A 
ATOM     12  C   UNL A   1      39.784  22.142  26.127  1.00  0.00     0.083 A 
ATOM     13  C   UNL A   1      37.327  23.442  26.192  1.00  0.00     0.012 A 
ATOM     14  C   UNL A   1      38.618  21.460  25.771  1.00  0.00     0.032 A 
ATOM     15  Cl  UNL A   1      41.229  21.211  26.193  1.00  0.00    -0.080 Cl
ATOM     16  C   UNL A   1      37.375  22.105  25.777  1.00  0.00    -0.023 A 
BRANCH  16  17
ATOM     17  C   UNL A   1      36.191  21.288  25.459  1.00  0.00     0.027 C 
ATOM     18  C   UNL A   1      35.197  21.521  24.582  1.00  0.00     0.103 C 
ATOM     19  C   UNL A   1      35.093  22.708  23.709  1.00  0.00     0.272 C 
ATOM     20  C   UNL A   1      34.033  20.650  24.512  1.00  0.00     0.228 C 
ATOM     21  O   UNL A   1      36.078  23.200  23.177  1.00  0.00    -0.268 OA
ATOM     22  N   UNL A   1      33.782  23.156  23.610  1.00  0.00    -0.224 N 
ATOM     23  N   UNL A   1      32.891  20.959  24.021  1.00  0.00    -0.156 NA
ATOM     24  C   UNL A   1      32.711  22.249  23.577  1.00  0.00     0.358 C 
ATOM     25  O   UNL A   1      31.619  22.563  23.086  1.00  0.00    -0.245 OA
BRANCH  20  26
ATOM     26  O   UNL A   1      34.202  19.409  24.981  1.00  0.00    -0.493 OA
ATOM     27  H   UNL A   1      34.390  18.707  24.390  1.00  0.00     0.295 HD
ENDBRANCH  20  26
BRANCH  22  28
ATOM     28  C   UNL A   1      33.529  24.548  23.364  1.00  0.00     0.073 A 
ATOM     29  C   UNL A   1      33.353  25.029  22.054  1.00  0.00     0.030 A 
ATOM     30  C   UNL A   1      33.543  25.490  24.418  1.00  0.00     0.066 A 
ATOM     31  C   UNL A   1      33.174  26.392  21.805  1.00  0.00     0.023 A 
ATOM     32  C   UNL A   1      33.350  26.854  24.166  1.00  0.00     0.043 A 
ATOM     33  Cl  UNL A   1      33.988  25.067  26.040  1.00  0.00    -0.082 Cl
ATOM     34  C   UNL A   1      33.166  27.297  22.862  1.00  0.00     0.042 A 
ATOM     35  Cl  UNL A   1      32.963  28.976  22.548  1.00  0.00    -0.084 Cl
ENDBRANCH  22  28
ENDBRANCH  16  17
ENDBRANCH   9  10
ENDBRANCH   8   9
ENDBRANCH   6   8
ENDBRANCH   3   4
ENDBRANCH   2   3
ENDBRANCH   1   2
BRANCH   1  36
ATOM     36  C   UNL A   1      36.217  29.829  28.995  1.00  0.00     0.002 C 
BRANCH  36  37
ATOM     37  C   UNL A   1      35.461  30.641  27.943  1.00  0.00     0.021 C 
BRANCH  37  38
ATOM     38  C   UNL A   1      35.730  32.143  27.936  1.00  0.00     0.116 C 
BRANCH  38  39
ATOM     39  N   UNL A   1      34.768  32.902  28.714  1.00  0.00    -0.352 N 
ATOM     40  C   UNL A   1      34.767  33.200  30.055  1.00  0.00     0.251 C 
ATOM     41  H   UNL A   1      34.003  33.254  28.205  1.00  0.00     0.163 HD
ATOM     42  O   UNL A   1      33.795  33.774  30.540  1.00  0.00    -0.269 OA
BRANCH  40  43
ATOM     43  C   UNL A   1      35.902  32.800  30.922  1.00  0.00     0.039 A 
ATOM     44  C   UNL A   1      37.109  33.495  30.797  1.00  0.00     0.014 A 
ATOM     45  C   UNL A   1      35.796  31.753  31.843  1.00  0.00     0.014 A 
ATOM     46  C   UNL A   1      38.183  33.185  31.636  1.00  0.00     0.010 A 
ATOM     47  C   UNL A   1      36.846  31.488  32.724  1.00  0.00     0.010 A 
ATOM     48  C   UNL A   1      38.050  32.204  32.632  1.00  0.00    -0.014 A 
BRANCH  48  49
ATOM     49  C   UNL A   1      39.155  31.942  33.591  1.00  0.00     0.031 A 
ATOM     50  C   UNL A   1      40.316  31.067  33.206  1.00  0.00     0.074 A 
ATOM     51  C   UNL A   1      39.089  32.464  34.832  1.00  0.00     0.049 A 
ATOM     52  N   UNL A   1      41.371  30.734  33.907  1.00  0.00    -0.248 NA
ATOM     53  C   UNL A   1      40.271  30.463  31.866  1.00  0.00     0.031 C 
ATOM     54  C   UNL A   1      37.987  33.281  35.344  1.00  0.00     0.029 A 
ATOM     55  N   UNL A   1      39.962  32.388  35.887  1.00  0.00    -0.354 N 
ATOM     56  C   UNL A   1      42.110  29.875  33.101  1.00  0.00     0.074 A 
ATOM     57  C   UNL A   1      41.349  29.693  31.882  1.00  0.00     0.031 C 
ATOM     58  C   UNL A   1      38.268  33.661  36.601  1.00  0.00     0.029 A 
ATOM     59  C   UNL A   1      39.551  33.089  36.996  1.00  0.00     0.049 A 
ATOM     60  H   UNL A   1      40.804  31.878  35.854  1.00  0.00     0.167 HD
ATOM     61  C   UNL A   1      43.319  29.307  33.345  1.00  0.00     0.034 A 
ATOM     62  C   UNL A   1      40.141  33.256  38.196  1.00  0.00     0.034 A 
ATOM     63  C   UNL A   1      44.070  29.507  34.562  1.00  0.00     0.049 A 
ATOM     64  C   UNL A   1      41.481  32.617  38.445  1.00  0.00     0.074 A 
ATOM     65  C   UNL A   1      45.338  29.048  34.882  1.00  0.00     0.029 A 
ATOM     66  N   UNL A   1      43.618  30.213  35.671  1.00  0.00    -0.354 N 
ATOM     67  N   UNL A   1      42.204  31.868  37.642  1.00  0.00    -0.248 NA
ATOM     68  C   UNL A   1      42.088  32.856  39.759  1.00  0.00     0.031 C 
ATOM     69  C   UNL A   1      45.621  29.417  36.202  1.00  0.00     0.029 A 
ATOM     70  C   UNL A   1      44.563  30.169  36.687  1.00  0.00     0.049 A 
ATOM     71  H   UNL A   1      42.751  30.677  35.728  1.00  0.00     0.167 HD
ATOM     72  C   UNL A   1      43.363  31.566  38.352  1.00  0.00     0.074 A 
ATOM     73  C   UNL A   1      43.250  32.234  39.633  1.00  0.00     0.031 C 
ATOM     74  C   UNL A   1      44.426  30.809  37.976  1.00  0.00     0.034 A 
BRANCH  61  75
ATOM     75  C   UNL A   1      43.882  28.392  32.281  1.00  0.00     0.023 A 
ATOM     76  C   UNL A   1      44.586  28.893  31.170  1.00  0.00     0.031 A 
ATOM     77  C   UNL A   1      43.679  27.003  32.355  1.00  0.00     0.131 A 
ATOM     78  C   UNL A   1      44.981  28.026  30.140  1.00  0.00     0.055 A 
ATOM     79  C   UNL A   1      44.149  26.135  31.367  1.00  0.00     0.041 A 
ATOM     80  F   UNL A   1      42.999  26.465  33.380  1.00  0.00    -0.206 F 
ATOM     81  C   UNL A   1      44.789  26.647  30.242  1.00  0.00     0.022 A 
BRANCH  78  82
ATOM     82  S   UNL A   1      45.605  28.744  28.595  1.00  0.00     0.124 S 
ATOM     83  O   UNL A   1      44.406  28.734  27.759  1.00  0.00    -0.237 OA
ATOM     84  O   UNL A   1      46.075  30.056  29.025  1.00  0.00    -0.237 OA
ATOM     85  O   UNL A   1      46.650  27.810  28.180  1.00  0.00    -0.744 OA
ENDBRANCH  78  82
ENDBRANCH  61  75
BRANCH  62  86
ATOM     86  C   UNL A   1      39.482  34.073  39.251  1.00  0.00     0.023 A 
ATOM     87  C   UNL A   1      39.601  35.472  39.258  1.00  0.00     0.031 A 
ATOM     88  C   UNL A   1      38.748  33.466  40.286  1.00  0.00     0.131 A 
ATOM     89  C   UNL A   1      39.029  36.217  40.301  1.00  0.00     0.055 A 
ATOM     90  C   UNL A   1      38.144  34.215  41.296  1.00  0.00     0.041 A 
ATOM     91  F   UNL A   1      38.598  32.133  40.318  1.00  0.00    -0.206 F 
ATOM     92  C   UNL A   1      38.293  35.600  41.314  1.00  0.00     0.022 A 
BRANCH  89  93
ATOM     93  S   UNL A   1      39.316  38.007  40.346  1.00  0.00     0.124 S 
ATOM     94  O   UNL A   1      39.284  38.279  41.778  1.00  0.00    -0.237 OA
ATOM     95  O   UNL A   1      40.618  38.123  39.699  1.00  0.00    -0.237 OA
ATOM     96  O   UNL A   1      38.194  38.550  39.581  1.00  0.00    -0.744 OA
ENDBRANCH  89  93
ENDBRANCH  62  86
BRANCH  74  97
ATOM     97  C   UNL A   1      45.554  30.688  38.972  1.00  0.00     0.023 A 
ATOM     98  C   UNL A   1      45.647  29.594  39.850  1.00  0.00     0.031 A 
ATOM     99  C   UNL A   1      46.519  31.705  39.080  1.00  0.00     0.131 A 
ATOM    100  C   UNL A   1      46.636  29.576  40.845  1.00  0.00     0.055 A 
ATOM    101  C   UNL A   1      47.541  31.650  40.031  1.00  0.00     0.041 A 
ATOM    102  F   UNL A   1      46.479  32.776  38.270  1.00  0.00    -0.206 F 
ATOM    103  C   UNL A   1      47.592  30.591  40.931  1.00  0.00     0.022 A 
BRANCH 100 104
ATOM    104  S   UNL A   1      46.581  28.270  42.103  1.00  0.00     0.124 S 
ATOM    105  O   UNL A   1      47.378  28.850  43.180  1.00  0.00    -0.237 OA
ATOM    106  O   UNL A   1      45.151  28.149  42.364  1.00  0.00    -0.237 OA
ATOM    107  O   UNL A   1      47.188  27.121  41.433  1.00  0.00    -0.744 OA
ENDBRANCH 100 104
ENDBRANCH  74  97
ENDBRANCH  48  49
ENDBRANCH  40  43
ENDBRANCH  38  39
ENDBRANCH  37  38
ENDBRANCH  36  37
ENDBRANCH   1  36
TORSDOF 21
ENDMDL
