MODEL 1
REMARK VINA RESULT:     -12.0      0.000      0.000
REMARK SMILES Cc1ccc(/C=C2/SC(=O)N(CC(=O)NCCCCCCNC(=O)c3ccc(-c4c5nc(c(-c6cc(S(=O)(=O)[O-])ccc6F)c6ccc([nH]6)c(-c6cc(S(=O)(=O)[O-])ccc6F)c6nc(c(-c7cc(S(=O)(=O)[O-])ccc7F)c7ccc4[nH]7)C=C6)C=C5)cc3)C2=O)cc1
REMARK SMILES IDX 19 1 18 2 17 3 16 4 15 5 13 6 14 7 12 9 11 10 6 11 7 12 8 13
REMARK SMILES IDX 88 14 9 15 89 16 10 17 5 18 1 19 2 20 3 21 91 22 4 23 90 24
REMARK SMILES IDX 20 25 21 26 22 27 23 28 24 30 25 31 26 32 87 33 27 34 86 35
REMARK SMILES IDX 28 36 29 37 30 38 80 39 31 40 85 41 79 42 81 43 32 44 84 45
REMARK SMILES IDX 78 46 77 47 33 49 65 50 45 51 64 52 46 53 49 54 63 55 82 56
REMARK SMILES IDX 47 57 48 58 62 60 83 61 50 62 34 63 35 64 43 65 36 66 42 67
REMARK SMILES IDX 44 68 41 69 37 70 38 71 39 72 40 73 66 74 67 75 75 76 68 77
REMARK SMILES IDX 74 78 76 79 73 80 69 81 70 82 71 83 72 84 51 85 52 86 60 87
REMARK SMILES IDX 53 88 59 89 61 90 58 91 54 92 55 93 56 94 57 95
REMARK H PARENT 15 8 22 29 81 48 49 59
REMARK Flexibility Score: inf
ROOT
ATOM      1  C   UNL A   1      41.211  19.403  26.131  1.00  0.00     0.002 C 
ENDROOT
BRANCH   1   2
ATOM      2  C   UNL A   1      40.595  20.528  26.978  1.00  0.00     0.002 C 
BRANCH   2   3
ATOM      3  C   UNL A   1      40.102  21.757  26.201  1.00  0.00     0.021 C 
BRANCH   3   4
ATOM      4  C   UNL A   1      38.586  21.846  26.064  1.00  0.00     0.116 C 
BRANCH   4   5
ATOM      5  N   UNL A   1      38.179  22.216  24.725  1.00  0.00    -0.355 N 
ATOM      6  C   UNL A   1      37.029  22.809  24.297  1.00  0.00     0.240 C 
ATOM      7  O   UNL A   1      37.026  23.318  23.173  1.00  0.00    -0.273 OA
ATOM      8  H   UNL A   1      38.832  22.009  24.017  1.00  0.00     0.163 HD
BRANCH   6   9
ATOM      9  C   UNL A   1      35.835  22.990  25.241  1.00  0.00     0.229 C 
BRANCH   9  10
ATOM     10  N   UNL A   1      34.571  22.625  24.631  1.00  0.00    -0.259 N 
ATOM     11  C   UNL A   1      32.153  20.061  23.742  1.00  0.00     0.029 C 
ATOM     12  C   UNL A   1      32.877  21.181  23.884  1.00  0.00     0.083 C 
ATOM     13  S   UNL A   1      32.323  22.742  23.399  1.00  0.00    -0.022 SA
ATOM     14  C   UNL A   1      34.245  21.302  24.471  1.00  0.00     0.268 C 
ATOM     15  C   UNL A   1      33.766  23.536  24.003  1.00  0.00     0.294 C 
ATOM     16  O   UNL A   1      35.001  20.375  24.721  1.00  0.00    -0.268 OA
ATOM     17  O   UNL A   1      33.989  24.719  23.837  1.00  0.00    -0.261 OA
BRANCH  11  18
ATOM     18  C   UNL A   1      32.630  18.746  24.171  1.00  0.00    -0.024 A 
ATOM     19  C   UNL A   1      33.455  14.700  25.375  1.00  0.00     0.044 C 
ATOM     20  C   UNL A   1      33.224  16.121  24.959  1.00  0.00    -0.051 A 
ATOM     21  C   UNL A   1      32.825  17.073  25.906  1.00  0.00     0.004 A 
ATOM     22  C   UNL A   1      33.376  16.508  23.623  1.00  0.00     0.004 A 
ATOM     23  C   UNL A   1      32.529  18.380  25.515  1.00  0.00     0.008 A 
ATOM     24  C   UNL A   1      33.089  17.817  23.231  1.00  0.00     0.008 A 
ENDBRANCH  11  18
ENDBRANCH   9  10
ENDBRANCH   6   9
ENDBRANCH   4   5
ENDBRANCH   3   4
ENDBRANCH   2   3
ENDBRANCH   1   2
BRANCH   1  25
ATOM     25  C   UNL A   1      42.709  19.180  26.315  1.00  0.00     0.021 C 
BRANCH  25  26
ATOM     26  C   UNL A   1      43.557  19.553  25.109  1.00  0.00     0.116 C 
BRANCH  26  27
ATOM     27  N   UNL A   1      44.844  20.162  25.435  1.00  0.00    -0.352 N 
ATOM     28  C   UNL A   1      45.179  21.501  25.579  1.00  0.00     0.251 C 
ATOM     29  H   UNL A   1      45.584  19.527  25.572  1.00  0.00     0.163 HD
ATOM     30  O   UNL A   1      46.342  21.872  25.714  1.00  0.00    -0.269 OA
BRANCH  28  31
ATOM     31  C   UNL A   1      44.092  22.489  25.790  1.00  0.00     0.039 A 
ATOM     32  C   UNL A   1      44.130  23.616  24.953  1.00  0.00     0.014 A 
ATOM     33  C   UNL A   1      43.410  22.528  26.995  1.00  0.00     0.014 A 
ATOM     34  C   UNL A   1      43.819  24.856  25.485  1.00  0.00     0.010 A 
ATOM     35  C   UNL A   1      43.255  23.755  27.581  1.00  0.00     0.010 A 
ATOM     36  C   UNL A   1      43.543  24.906  26.842  1.00  0.00    -0.014 A 
BRANCH  36  37
ATOM     37  C   UNL A   1      43.486  26.124  27.617  1.00  0.00     0.031 A 
ATOM     38  C   UNL A   1      42.263  26.918  27.484  1.00  0.00     0.074 A 
ATOM     39  C   UNL A   1      44.451  26.320  28.541  1.00  0.00     0.049 A 
ATOM     40  N   UNL A   1      42.133  28.136  27.853  1.00  0.00    -0.248 NA
ATOM     41  C   UNL A   1      41.064  26.386  26.833  1.00  0.00     0.031 C 
ATOM     42  C   UNL A   1      44.480  27.250  29.661  1.00  0.00     0.029 A 
ATOM     43  N   UNL A   1      45.752  25.817  28.481  1.00  0.00    -0.354 N 
ATOM     44  C   UNL A   1      40.784  28.419  27.832  1.00  0.00     0.074 A 
ATOM     45  C   UNL A   1      40.195  27.375  27.042  1.00  0.00     0.031 C 
ATOM     46  C   UNL A   1      45.765  27.478  30.001  1.00  0.00     0.029 A 
ATOM     47  C   UNL A   1      46.593  26.819  29.002  1.00  0.00     0.049 A 
ATOM     48  H   UNL A   1      46.028  24.935  28.142  1.00  0.00     0.167 HD
ATOM     49  C   UNL A   1      40.334  29.400  28.661  1.00  0.00     0.034 A 
ATOM     50  C   UNL A   1      47.444  27.468  28.149  1.00  0.00     0.034 A 
ATOM     51  C   UNL A   1      41.480  30.135  29.209  1.00  0.00     0.049 A 
ATOM     52  C   UNL A   1      47.038  28.914  27.955  1.00  0.00     0.074 A 
ATOM     53  C   UNL A   1      42.137  30.075  30.427  1.00  0.00     0.029 A 
ATOM     54  N   UNL A   1      42.351  30.773  28.327  1.00  0.00    -0.354 N 
ATOM     55  N   UNL A   1      45.822  29.371  28.125  1.00  0.00    -0.248 NA
ATOM     56  C   UNL A   1      47.996  29.966  27.640  1.00  0.00     0.031 C 
ATOM     57  C   UNL A   1      43.468  30.542  30.220  1.00  0.00     0.029 A 
ATOM     58  C   UNL A   1      43.601  30.933  28.896  1.00  0.00     0.049 A 
ATOM     59  H   UNL A   1      42.109  31.069  27.419  1.00  0.00     0.167 HD
ATOM     60  C   UNL A   1      45.822  30.735  27.984  1.00  0.00     0.074 A 
ATOM     61  C   UNL A   1      47.214  31.056  27.694  1.00  0.00     0.031 C 
ATOM     62  C   UNL A   1      44.700  31.510  28.128  1.00  0.00     0.034 A 
BRANCH  49  63
ATOM     63  C   UNL A   1      38.925  29.508  29.217  1.00  0.00     0.023 A 
ATOM     64  C   UNL A   1      38.148  30.617  28.818  1.00  0.00     0.031 A 
ATOM     65  C   UNL A   1      38.319  28.682  30.189  1.00  0.00     0.131 A 
ATOM     66  C   UNL A   1      36.893  30.891  29.397  1.00  0.00     0.055 A 
ATOM     67  C   UNL A   1      37.064  28.948  30.757  1.00  0.00     0.041 A 
ATOM     68  F   UNL A   1      38.891  27.575  30.665  1.00  0.00    -0.206 F 
ATOM     69  C   UNL A   1      36.346  30.063  30.370  1.00  0.00     0.022 A 
BRANCH  66  70
ATOM     70  S   UNL A   1      36.000  32.381  28.885  1.00  0.00     0.124 S 
ATOM     71  O   UNL A   1      35.115  32.612  30.020  1.00  0.00    -0.237 OA
ATOM     72  O   UNL A   1      37.083  33.341  28.698  1.00  0.00    -0.237 OA
ATOM     73  O   UNL A   1      35.328  31.965  27.654  1.00  0.00    -0.744 OA
ENDBRANCH  66  70
ENDBRANCH  49  63
BRANCH  50  74
ATOM     74  C   UNL A   1      48.008  26.541  27.110  1.00  0.00     0.023 A 
ATOM     75  C   UNL A   1      47.688  26.844  25.765  1.00  0.00     0.031 A 
ATOM     76  C   UNL A   1      49.154  25.771  27.346  1.00  0.00     0.131 A 
ATOM     77  C   UNL A   1      48.615  26.593  24.741  1.00  0.00     0.055 A 
ATOM     78  C   UNL A   1      50.034  25.444  26.302  1.00  0.00     0.041 A 
ATOM     79  F   UNL A   1      49.522  25.452  28.596  1.00  0.00    -0.206 F 
ATOM     80  C   UNL A   1      49.804  25.915  25.008  1.00  0.00     0.022 A 
BRANCH  77  81
ATOM     81  S   UNL A   1      48.400  27.429  23.139  1.00  0.00     0.124 S 
ATOM     82  O   UNL A   1      49.615  28.230  23.044  1.00  0.00    -0.237 OA
ATOM     83  O   UNL A   1      48.304  26.313  22.200  1.00  0.00    -0.237 OA
ATOM     84  O   UNL A   1      47.157  28.181  23.305  1.00  0.00    -0.744 OA
ENDBRANCH  77  81
ENDBRANCH  50  74
BRANCH  62  85
ATOM     85  C   UNL A   1      44.589  32.937  27.633  1.00  0.00     0.023 A 
ATOM     86  C   UNL A   1      44.706  34.037  28.491  1.00  0.00     0.031 A 
ATOM     87  C   UNL A   1      44.434  33.253  26.262  1.00  0.00     0.131 A 
ATOM     88  C   UNL A   1      44.504  35.346  28.032  1.00  0.00     0.055 A 
ATOM     89  C   UNL A   1      44.366  34.566  25.786  1.00  0.00     0.041 A 
ATOM     90  F   UNL A   1      44.353  32.305  25.317  1.00  0.00    -0.206 F 
ATOM     91  C   UNL A   1      44.363  35.626  26.679  1.00  0.00     0.022 A 
BRANCH  88  92
ATOM     92  S   UNL A   1      44.298  36.641  29.278  1.00  0.00     0.124 S 
ATOM     93  O   UNL A   1      44.453  37.851  28.473  1.00  0.00    -0.237 OA
ATOM     94  O   UNL A   1      42.951  36.386  29.779  1.00  0.00    -0.237 OA
ATOM     95  O   UNL A   1      45.378  36.382  30.226  1.00  0.00    -0.744 OA
ENDBRANCH  88  92
ENDBRANCH  62  85
ENDBRANCH  36  37
ENDBRANCH  28  31
ENDBRANCH  26  27
ENDBRANCH  25  26
ENDBRANCH   1  25
TORSDOF 18
ENDMDL
MODEL 2
REMARK VINA RESULT:     -11.6      2.061      4.154
REMARK SMILES Cc1ccc(/C=C2/SC(=O)N(CC(=O)NCCCCCCNC(=O)c3ccc(-c4c5nc(c(-c6cc(S(=O)(=O)[O-])ccc6F)c6ccc([nH]6)c(-c6cc(S(=O)(=O)[O-])ccc6F)c6nc(c(-c7cc(S(=O)(=O)[O-])ccc7F)c7ccc4[nH]7)C=C6)C=C5)cc3)C2=O)cc1
REMARK SMILES IDX 19 1 18 2 17 3 16 4 15 5 13 6 14 7 12 9 11 10 6 11 7 12 8 13
REMARK SMILES IDX 88 14 9 15 89 16 10 17 5 18 1 19 2 20 3 21 91 22 4 23 90 24
REMARK SMILES IDX 20 25 21 26 22 27 23 28 24 30 25 31 26 32 87 33 27 34 86 35
REMARK SMILES IDX 28 36 29 37 30 38 80 39 31 40 85 41 79 42 81 43 32 44 84 45
REMARK SMILES IDX 78 46 77 47 33 49 65 50 45 51 64 52 46 53 49 54 63 55 82 56
REMARK SMILES IDX 47 57 48 58 62 60 83 61 50 62 34 63 35 64 43 65 36 66 42 67
REMARK SMILES IDX 44 68 41 69 37 70 38 71 39 72 40 73 66 74 67 75 75 76 68 77
REMARK SMILES IDX 74 78 76 79 73 80 69 81 70 82 71 83 72 84 51 85 52 86 60 87
REMARK SMILES IDX 53 88 59 89 61 90 58 91 54 92 55 93 56 94 57 95
REMARK H PARENT 15 8 22 29 81 48 49 59
REMARK Flexibility Score: inf
ROOT
ATOM      1  C   UNL A   1      37.590  24.068  25.833  1.00  0.00     0.002 C 
ENDROOT
BRANCH   1   2
ATOM      2  C   UNL A   1      36.558  23.225  25.066  1.00  0.00     0.002 C 
BRANCH   2   3
ATOM      3  C   UNL A   1      36.643  21.708  25.280  1.00  0.00     0.021 C 
BRANCH   3   4
ATOM      4  C   UNL A   1      35.360  21.077  25.810  1.00  0.00     0.116 C 
BRANCH   4   5
ATOM      5  N   UNL A   1      34.807  21.820  26.923  1.00  0.00    -0.355 N 
ATOM      6  C   UNL A   1      33.526  22.227  27.148  1.00  0.00     0.240 C 
ATOM      7  O   UNL A   1      33.219  22.561  28.296  1.00  0.00    -0.273 OA
ATOM      8  H   UNL A   1      35.454  22.067  27.624  1.00  0.00     0.163 HD
BRANCH   6   9
ATOM      9  C   UNL A   1      32.457  22.111  26.055  1.00  0.00     0.229 C 
BRANCH   9  10
ATOM     10  N   UNL A   1      32.726  22.960  24.910  1.00  0.00    -0.259 N 
ATOM     11  C   UNL A   1      33.182  26.290  23.525  1.00  0.00     0.029 C 
ATOM     12  C   UNL A   1      33.002  24.979  23.742  1.00  0.00     0.083 C 
ATOM     13  S   UNL A   1      33.206  23.773  22.524  1.00  0.00    -0.022 SA
ATOM     14  C   UNL A   1      32.614  24.323  25.027  1.00  0.00     0.268 C 
ATOM     15  C   UNL A   1      32.883  22.464  23.645  1.00  0.00     0.294 C 
ATOM     16  O   UNL A   1      32.198  24.893  26.024  1.00  0.00    -0.268 OA
ATOM     17  O   UNL A   1      32.789  21.303  23.297  1.00  0.00    -0.261 OA
BRANCH  11  18
ATOM     18  C   UNL A   1      33.020  27.299  24.572  1.00  0.00    -0.024 A 
ATOM     19  C   UNL A   1      32.784  30.657  27.251  1.00  0.00     0.044 C 
ATOM     20  C   UNL A   1      32.839  29.455  26.357  1.00  0.00    -0.051 A 
ATOM     21  C   UNL A   1      34.006  28.681  26.294  1.00  0.00     0.004 A 
ATOM     22  C   UNL A   1      31.744  29.105  25.559  1.00  0.00     0.004 A 
ATOM     23  C   UNL A   1      34.097  27.608  25.406  1.00  0.00     0.008 A 
ATOM     24  C   UNL A   1      31.830  28.027  24.676  1.00  0.00     0.008 A 
ENDBRANCH  11  18
ENDBRANCH   9  10
ENDBRANCH   6   9
ENDBRANCH   4   5
ENDBRANCH   3   4
ENDBRANCH   2   3
ENDBRANCH   1   2
BRANCH   1  25
ATOM     25  C   UNL A   1      38.522  23.293  26.758  1.00  0.00     0.021 C 
BRANCH  25  26
ATOM     26  C   UNL A   1      39.991  23.345  26.365  1.00  0.00     0.116 C 
BRANCH  26  27
ATOM     27  N   UNL A   1      40.564  22.056  25.984  1.00  0.00    -0.352 N 
ATOM     28  C   UNL A   1      41.880  21.620  26.046  1.00  0.00     0.251 C 
ATOM     29  H   UNL A   1      39.921  21.400  25.631  1.00  0.00     0.163 HD
ATOM     30  O   UNL A   1      42.238  20.553  25.553  1.00  0.00    -0.269 OA
BRANCH  28  31
ATOM     31  C   UNL A   1      42.835  22.354  26.913  1.00  0.00     0.039 A 
ATOM     32  C   UNL A   1      42.562  22.304  28.290  1.00  0.00     0.014 A 
ATOM     33  C   UNL A   1      43.618  23.368  26.384  1.00  0.00     0.014 A 
ATOM     34  C   UNL A   1      42.749  23.445  29.051  1.00  0.00     0.010 A 
ATOM     35  C   UNL A   1      43.657  24.547  27.080  1.00  0.00     0.010 A 
ATOM     36  C   UNL A   1      43.143  24.592  28.379  1.00  0.00    -0.014 A 
BRANCH  36  37
ATOM     37  C   UNL A   1      43.106  25.921  28.943  1.00  0.00     0.031 A 
ATOM     38  C   UNL A   1      41.931  26.730  28.613  1.00  0.00     0.074 A 
ATOM     39  C   UNL A   1      44.031  26.227  29.877  1.00  0.00     0.049 A 
ATOM     40  N   UNL A   1      41.841  27.997  28.773  1.00  0.00    -0.248 NA
ATOM     41  C   UNL A   1      40.742  26.146  27.988  1.00  0.00     0.031 C 
ATOM     42  C   UNL A   1      44.049  27.327  30.833  1.00  0.00     0.029 A 
ATOM     43  N   UNL A   1      45.308  25.671  29.974  1.00  0.00    -0.354 N 
ATOM     44  C   UNL A   1      40.510  28.325  28.629  1.00  0.00     0.074 A 
ATOM     45  C   UNL A   1      39.912  27.189  27.985  1.00  0.00     0.031 C 
ATOM     46  C   UNL A   1      45.324  27.556  31.205  1.00  0.00     0.029 A 
ATOM     47  C   UNL A   1      46.169  26.711  30.375  1.00  0.00     0.049 A 
ATOM     48  H   UNL A   1      45.558  24.735  29.798  1.00  0.00     0.167 HD
ATOM     49  C   UNL A   1      40.066  29.445  29.261  1.00  0.00     0.034 A 
ATOM     50  C   UNL A   1      47.092  27.177  29.479  1.00  0.00     0.034 A 
ATOM     51  C   UNL A   1      41.218  30.214  29.749  1.00  0.00     0.049 A 
ATOM     52  C   UNL A   1      46.766  28.587  29.031  1.00  0.00     0.074 A 
ATOM     53  C   UNL A   1      41.808  30.328  30.997  1.00  0.00     0.029 A 
ATOM     54  N   UNL A   1      42.162  30.664  28.828  1.00  0.00    -0.354 N 
ATOM     55  N   UNL A   1      45.567  29.113  29.055  1.00  0.00    -0.248 NA
ATOM     56  C   UNL A   1      47.789  29.535  28.607  1.00  0.00     0.031 C 
ATOM     57  C   UNL A   1      43.169  30.702  30.795  1.00  0.00     0.029 A 
ATOM     58  C   UNL A   1      43.387  30.867  29.435  1.00  0.00     0.049 A 
ATOM     59  H   UNL A   1      41.980  30.818  27.872  1.00  0.00     0.167 HD
ATOM     60  C   UNL A   1      45.640  30.435  28.697  1.00  0.00     0.074 A 
ATOM     61  C   UNL A   1      47.058  30.649  28.440  1.00  0.00     0.031 C 
ATOM     62  C   UNL A   1      44.550  31.266  28.649  1.00  0.00     0.034 A 
BRANCH  49  63
ATOM     63  C   UNL A   1      38.638  29.698  29.711  1.00  0.00     0.023 A 
ATOM     64  C   UNL A   1      37.975  30.824  29.179  1.00  0.00     0.031 A 
ATOM     65  C   UNL A   1      37.911  28.997  30.698  1.00  0.00     0.131 A 
ATOM     66  C   UNL A   1      36.711  31.233  29.649  1.00  0.00     0.055 A 
ATOM     67  C   UNL A   1      36.647  29.396  31.157  1.00  0.00     0.041 A 
ATOM     68  F   UNL A   1      38.365  27.892  31.293  1.00  0.00    -0.206 F 
ATOM     69  C   UNL A   1      36.042  30.526  30.642  1.00  0.00     0.022 A 
BRANCH  66  70
ATOM     70  S   UNL A   1      35.970  32.738  28.968  1.00  0.00     0.124 S 
ATOM     71  O   UNL A   1      36.965  33.750  29.308  1.00  0.00    -0.237 OA
ATOM     72  O   UNL A   1      35.838  32.405  27.554  1.00  0.00    -0.237 OA
ATOM     73  O   UNL A   1      34.705  32.850  29.695  1.00  0.00    -0.744 OA
ENDBRANCH  66  70
ENDBRANCH  49  63
BRANCH  50  74
ATOM     74  C   UNL A   1      47.662  26.072  28.637  1.00  0.00     0.023 A 
ATOM     75  C   UNL A   1      47.164  25.974  27.316  1.00  0.00     0.031 A 
ATOM     76  C   UNL A   1      48.920  25.514  28.899  1.00  0.00     0.131 A 
ATOM     77  C   UNL A   1      48.002  25.557  26.270  1.00  0.00     0.055 A 
ATOM     78  C   UNL A   1      49.720  25.015  27.858  1.00  0.00     0.041 A 
ATOM     79  F   UNL A   1      49.458  25.576  30.125  1.00  0.00    -0.206 F 
ATOM     80  C   UNL A   1      49.293  25.100  26.532  1.00  0.00     0.022 A 
BRANCH  77  81
ATOM     81  S   UNL A   1      47.508  25.913  24.555  1.00  0.00     0.124 S 
ATOM     82  O   UNL A   1      47.252  24.579  24.024  1.00  0.00    -0.237 OA
ATOM     83  O   UNL A   1      46.331  26.763  24.727  1.00  0.00    -0.237 OA
ATOM     84  O   UNL A   1      48.669  26.606  23.998  1.00  0.00    -0.744 OA
ENDBRANCH  77  81
ENDBRANCH  50  74
BRANCH  62  85
ATOM     85  C   UNL A   1      44.533  32.597  27.925  1.00  0.00     0.023 A 
ATOM     86  C   UNL A   1      44.410  33.815  28.603  1.00  0.00     0.031 A 
ATOM     87  C   UNL A   1      44.715  32.698  26.525  1.00  0.00     0.131 A 
ATOM     88  C   UNL A   1      44.299  35.029  27.910  1.00  0.00     0.055 A 
ATOM     89  C   UNL A   1      44.737  33.922  25.847  1.00  0.00     0.041 A 
ATOM     90  F   UNL A   1      44.891  31.620  25.748  1.00  0.00    -0.206 F 
ATOM     91  C   UNL A   1      44.490  35.098  26.536  1.00  0.00     0.022 A 
BRANCH  88  92
ATOM     92  S   UNL A   1      43.763  36.477  28.851  1.00  0.00     0.124 S 
ATOM     93  O   UNL A   1      43.311  37.369  27.785  1.00  0.00    -0.237 OA
ATOM     94  O   UNL A   1      42.711  35.929  29.703  1.00  0.00    -0.237 OA
ATOM     95  O   UNL A   1      44.974  36.903  29.547  1.00  0.00    -0.744 OA
ENDBRANCH  88  92
ENDBRANCH  62  85
ENDBRANCH  36  37
ENDBRANCH  28  31
ENDBRANCH  26  27
ENDBRANCH  25  26
ENDBRANCH   1  25
TORSDOF 18
ENDMDL
MODEL 3
REMARK VINA RESULT:     -11.4      3.448      5.643
REMARK SMILES Cc1ccc(/C=C2/SC(=O)N(CC(=O)NCCCCCCNC(=O)c3ccc(-c4c5nc(c(-c6cc(S(=O)(=O)[O-])ccc6F)c6ccc([nH]6)c(-c6cc(S(=O)(=O)[O-])ccc6F)c6nc(c(-c7cc(S(=O)(=O)[O-])ccc7F)c7ccc4[nH]7)C=C6)C=C5)cc3)C2=O)cc1
REMARK SMILES IDX 19 1 18 2 17 3 16 4 15 5 13 6 14 7 12 9 11 10 6 11 7 12 8 13
REMARK SMILES IDX 88 14 9 15 89 16 10 17 5 18 1 19 2 20 3 21 91 22 4 23 90 24
REMARK SMILES IDX 20 25 21 26 22 27 23 28 24 30 25 31 26 32 87 33 27 34 86 35
REMARK SMILES IDX 28 36 29 37 30 38 80 39 31 40 85 41 79 42 81 43 32 44 84 45
REMARK SMILES IDX 78 46 77 47 33 49 65 50 45 51 64 52 46 53 49 54 63 55 82 56
REMARK SMILES IDX 47 57 48 58 62 60 83 61 50 62 34 63 35 64 43 65 36 66 42 67
REMARK SMILES IDX 44 68 41 69 37 70 38 71 39 72 40 73 66 74 67 75 75 76 68 77
REMARK SMILES IDX 74 78 76 79 73 80 69 81 70 82 71 83 72 84 51 85 52 86 60 87
REMARK SMILES IDX 53 88 59 89 61 90 58 91 54 92 55 93 56 94 57 95
REMARK H PARENT 15 8 22 29 81 48 49 59
REMARK Flexibility Score: inf
ROOT
ATOM      1  C   UNL A   1      36.757  22.691  24.530  1.00  0.00     0.002 C 
ENDROOT
BRANCH   1   2
ATOM      2  C   UNL A   1      35.599  22.898  25.520  1.00  0.00     0.002 C 
BRANCH   2   3
ATOM      3  C   UNL A   1      34.460  23.806  25.035  1.00  0.00     0.021 C 
BRANCH   3   4
ATOM      4  C   UNL A   1      33.997  23.523  23.610  1.00  0.00     0.116 C 
BRANCH   4   5
ATOM      5  N   UNL A   1      34.297  24.618  22.711  1.00  0.00    -0.355 N 
ATOM      6  C   UNL A   1      33.469  25.566  22.187  1.00  0.00     0.240 C 
ATOM      7  O   UNL A   1      33.983  26.580  21.707  1.00  0.00    -0.273 OA
ATOM      8  H   UNL A   1      35.240  24.690  22.439  1.00  0.00     0.163 HD
BRANCH   6   9
ATOM      9  C   UNL A   1      31.948  25.457  22.340  1.00  0.00     0.229 C 
BRANCH   9  10
ATOM     10  N   UNL A   1      31.518  25.444  23.725  1.00  0.00    -0.259 N 
ATOM     11  C   UNL A   1      31.473  27.021  27.000  1.00  0.00     0.029 C 
ATOM     12  C   UNL A   1      31.375  26.201  25.944  1.00  0.00     0.083 C 
ATOM     13  S   UNL A   1      30.450  24.743  25.951  1.00  0.00    -0.022 SA
ATOM     14  C   UNL A   1      32.011  26.377  24.603  1.00  0.00     0.268 C 
ATOM     15  C   UNL A   1      30.802  24.411  24.265  1.00  0.00     0.294 C 
ATOM     16  O   UNL A   1      32.885  27.184  24.326  1.00  0.00    -0.268 OA
ATOM     17  O   UNL A   1      30.464  23.385  23.709  1.00  0.00    -0.261 OA
BRANCH  11  18
ATOM     18  C   UNL A   1      32.249  28.261  26.974  1.00  0.00    -0.024 A 
ATOM     19  C   UNL A   1      34.379  31.963  27.485  1.00  0.00     0.044 C 
ATOM     20  C   UNL A   1      33.657  30.671  27.252  1.00  0.00    -0.051 A 
ATOM     21  C   UNL A   1      32.299  30.679  26.909  1.00  0.00     0.004 A 
ATOM     22  C   UNL A   1      34.317  29.446  27.400  1.00  0.00     0.004 A 
ATOM     23  C   UNL A   1      31.597  29.480  26.770  1.00  0.00     0.008 A 
ATOM     24  C   UNL A   1      33.619  28.246  27.253  1.00  0.00     0.008 A 
ENDBRANCH  11  18
ENDBRANCH   9  10
ENDBRANCH   6   9
ENDBRANCH   4   5
ENDBRANCH   3   4
ENDBRANCH   2   3
ENDBRANCH   1   2
BRANCH   1  25
ATOM     25  C   UNL A   1      38.145  23.048  25.051  1.00  0.00     0.021 C 
BRANCH  25  26
ATOM     26  C   UNL A   1      38.610  22.215  26.236  1.00  0.00     0.116 C 
BRANCH  26  27
ATOM     27  N   UNL A   1      40.014  22.402  26.598  1.00  0.00    -0.352 N 
ATOM     28  C   UNL A   1      40.735  23.575  26.769  1.00  0.00     0.251 C 
ATOM     29  H   UNL A   1      40.522  21.572  26.741  1.00  0.00     0.163 HD
ATOM     30  O   UNL A   1      41.952  23.574  26.934  1.00  0.00    -0.269 OA
BRANCH  28  31
ATOM     31  C   UNL A   1      39.994  24.845  26.972  1.00  0.00     0.039 A 
ATOM     32  C   UNL A   1      40.529  25.967  26.319  1.00  0.00     0.014 A 
ATOM     33  C   UNL A   1      39.159  24.997  28.068  1.00  0.00     0.014 A 
ATOM     34  C   UNL A   1      40.535  27.184  26.977  1.00  0.00     0.010 A 
ATOM     35  C   UNL A   1      39.298  26.146  28.798  1.00  0.00     0.010 A 
ATOM     36  C   UNL A   1      40.057  27.199  28.278  1.00  0.00    -0.014 A 
BRANCH  36  37
ATOM     37  C   UNL A   1      40.251  28.289  29.206  1.00  0.00     0.031 A 
ATOM     38  C   UNL A   1      39.293  29.392  29.116  1.00  0.00     0.074 A 
ATOM     39  C   UNL A   1      41.149  28.111  30.197  1.00  0.00     0.049 A 
ATOM     40  N   UNL A   1      39.452  30.550  29.638  1.00  0.00    -0.248 NA
ATOM     41  C   UNL A   1      38.058  29.280  28.336  1.00  0.00     0.031 C 
ATOM     42  C   UNL A   1      41.322  28.863  31.433  1.00  0.00     0.029 A 
ATOM     43  N   UNL A   1      42.276  27.287  30.139  1.00  0.00    -0.354 N 
ATOM     44  C   UNL A   1      38.229  31.185  29.584  1.00  0.00     0.074 A 
ATOM     45  C   UNL A   1      37.460  30.436  28.630  1.00  0.00     0.031 C 
ATOM     46  C   UNL A   1      42.587  28.697  31.868  1.00  0.00     0.029 A 
ATOM     47  C   UNL A   1      43.300  27.959  30.834  1.00  0.00     0.049 A 
ATOM     48  H   UNL A   1      42.342  26.409  29.700  1.00  0.00     0.167 HD
ATOM     49  C   UNL A   1      37.979  32.148  30.511  1.00  0.00     0.034 A 
ATOM     50  C   UNL A   1      44.360  28.450  30.122  1.00  0.00     0.034 A 
ATOM     51  C   UNL A   1      39.225  32.480  31.214  1.00  0.00     0.049 A 
ATOM     52  C   UNL A   1      44.362  29.964  30.103  1.00  0.00     0.074 A 
ATOM     53  C   UNL A   1      39.735  32.105  32.445  1.00  0.00     0.029 A 
ATOM     54  N   UNL A   1      40.305  32.957  30.473  1.00  0.00    -0.354 N 
ATOM     55  N   UNL A   1      43.297  30.708  30.269  1.00  0.00    -0.248 NA
ATOM     56  C   UNL A   1      45.584  30.749  29.984  1.00  0.00     0.031 C 
ATOM     57  C   UNL A   1      41.154  32.218  32.374  1.00  0.00     0.029 A 
ATOM     58  C   UNL A   1      41.499  32.710  31.123  1.00  0.00     0.049 A 
ATOM     59  H   UNL A   1      40.228  33.411  29.602  1.00  0.00     0.167 HD
ATOM     60  C   UNL A   1      43.663  32.029  30.313  1.00  0.00     0.074 A 
ATOM     61  C   UNL A   1      45.110  31.995  30.143  1.00  0.00     0.031 C 
ATOM     62  C   UNL A   1      42.772  33.055  30.499  1.00  0.00     0.034 A 
BRANCH  49  63
ATOM     63  C   UNL A   1      36.604  32.566  31.002  1.00  0.00     0.023 A 
ATOM     64  C   UNL A   1      35.857  33.441  30.185  1.00  0.00     0.031 A 
ATOM     65  C   UNL A   1      36.010  32.271  32.249  1.00  0.00     0.131 A 
ATOM     66  C   UNL A   1      34.643  34.009  30.621  1.00  0.00     0.055 A 
ATOM     67  C   UNL A   1      34.795  32.826  32.678  1.00  0.00     0.041 A 
ATOM     68  F   UNL A   1      36.556  31.441  33.139  1.00  0.00    -0.206 F 
ATOM     69  C   UNL A   1      34.108  33.709  31.868  1.00  0.00     0.022 A 
BRANCH  66  70
ATOM     70  S   UNL A   1      33.791  35.187  29.541  1.00  0.00     0.124 S 
ATOM     71  O   UNL A   1      33.625  36.341  30.418  1.00  0.00    -0.237 OA
ATOM     72  O   UNL A   1      34.738  35.337  28.441  1.00  0.00    -0.237 OA
ATOM     73  O   UNL A   1      32.551  34.492  29.196  1.00  0.00    -0.744 OA
ENDBRANCH  66  70
ENDBRANCH  49  63
BRANCH  50  74
ATOM     74  C   UNL A   1      44.752  27.533  29.000  1.00  0.00     0.023 A 
ATOM     75  C   UNL A   1      44.950  28.141  27.737  1.00  0.00     0.031 A 
ATOM     76  C   UNL A   1      45.381  26.303  29.232  1.00  0.00     0.131 A 
ATOM     77  C   UNL A   1      45.929  27.651  26.859  1.00  0.00     0.055 A 
ATOM     78  C   UNL A   1      46.295  25.771  28.307  1.00  0.00     0.041 A 
ATOM     79  F   UNL A   1      45.245  25.672  30.408  1.00  0.00    -0.206 F 
ATOM     80  C   UNL A   1      46.625  26.479  27.150  1.00  0.00     0.022 A 
BRANCH  77  81
ATOM     81  S   UNL A   1      46.502  28.720  25.502  1.00  0.00     0.124 S 
ATOM     82  O   UNL A   1      47.952  28.662  25.654  1.00  0.00    -0.237 OA
ATOM     83  O   UNL A   1      45.964  28.055  24.316  1.00  0.00    -0.237 OA
ATOM     84  O   UNL A   1      45.885  30.013  25.795  1.00  0.00    -0.744 OA
ENDBRANCH  77  81
ENDBRANCH  50  74
BRANCH  62  85
ATOM     85  C   UNL A   1      43.079  34.507  30.196  1.00  0.00     0.023 A 
ATOM     86  C   UNL A   1      42.775  35.093  28.962  1.00  0.00     0.031 A 
ATOM     87  C   UNL A   1      43.627  35.382  31.164  1.00  0.00     0.131 A 
ATOM     88  C   UNL A   1      43.154  36.409  28.665  1.00  0.00     0.055 A 
ATOM     89  C   UNL A   1      43.883  36.734  30.910  1.00  0.00     0.041 A 
ATOM     90  F   UNL A   1      43.928  34.975  32.405  1.00  0.00    -0.206 F 
ATOM     91  C   UNL A   1      43.682  37.248  29.639  1.00  0.00     0.022 A 
BRANCH  88  92
ATOM     92  S   UNL A   1      43.059  36.933  26.937  1.00  0.00     0.124 S 
ATOM     93  O   UNL A   1      41.923  37.851  26.969  1.00  0.00    -0.237 OA
ATOM     94  O   UNL A   1      44.364  37.552  26.722  1.00  0.00    -0.237 OA
ATOM     95  O   UNL A   1      42.831  35.686  26.212  1.00  0.00    -0.744 OA
ENDBRANCH  88  92
ENDBRANCH  62  85
ENDBRANCH  36  37
ENDBRANCH  28  31
ENDBRANCH  26  27
ENDBRANCH  25  26
ENDBRANCH   1  25
TORSDOF 18
ENDMDL
