MODEL 1
REMARK VINA RESULT:      -8.9      0.000      0.000
REMARK SMILES CCOc1cc2nccc(Nc3ccc(C(=O)NCCCCCCNC(=O)c4ccc(-c5c6nc(c(-c7cc(S(=O)(=O)[O-])ccc7F)c7ccc([nH]7)c(-c7cc(S(=O)(=O)[O-])ccc7F)c7nc(c(-c8cc(S(=O)(=O)[O-])ccc8F)c8ccc5[nH]8)C=C7)C=C6)cc4)cc3)c2cc1OCC
REMARK SMILES IDX 21 1 20 2 19 3 18 4 16 5 17 6 15 8 12 9 13 10 92 11 14 12
REMARK SMILES IDX 91 13 11 14 10 16 4 17 5 18 95 19 6 20 94 21 7 22 93 23 8 24
REMARK SMILES IDX 9 25 3 26 2 27 1 28 96 29 97 30 98 31 22 32 23 33 24 34
REMARK SMILES IDX 25 35 26 36 27 38 28 39 29 40 90 41 30 42 89 43 31 44 32 45
REMARK SMILES IDX 33 46 83 47 34 48 88 49 82 50 84 51 35 52 87 53 81 54 80 55
REMARK SMILES IDX 36 57 68 58 48 59 67 60 49 61 52 62 66 63 85 64 50 65 51 66
REMARK SMILES IDX 65 68 86 69 53 70 37 71 38 72 46 73 39 74 45 75 47 76 44 77
REMARK SMILES IDX 40 78 41 79 42 80 43 81 69 82 70 83 78 84 71 85 77 86 79 87
REMARK SMILES IDX 76 88 72 89 73 90 74 91 75 92 54 93 55 94 63 95 56 96 62 97
REMARK SMILES IDX 64 98 61 99 57 100 58 101 59 102 60 103
REMARK H PARENT 18 7 11 15 25 37 84 56 52 67
REMARK Flexibility Score: inf
ROOT
ATOM      1  C   UNL A   1      40.072  23.508  27.773  1.00  0.00     0.002 C 
ENDROOT
BRANCH   1   2
ATOM      2  C   UNL A   1      40.783  24.832  27.465  1.00  0.00     0.021 C 
BRANCH   2   3
ATOM      3  C   UNL A   1      39.857  25.843  26.788  1.00  0.00     0.116 C 
BRANCH   3   4
ATOM      4  N   UNL A   1      40.623  27.019  26.425  1.00  0.00    -0.352 N 
ATOM      5  C   UNL A   1      40.506  28.332  26.789  1.00  0.00     0.251 C 
ATOM      6  O   UNL A   1      41.253  29.152  26.254  1.00  0.00    -0.269 OA
ATOM      7  H   UNL A   1      41.364  26.839  25.802  1.00  0.00     0.163 HD
BRANCH   5   8
ATOM      8  C   UNL A   1      39.592  28.780  27.873  1.00  0.00     0.039 A 
ATOM      9  C   UNL A   1      37.817  29.285  29.995  1.00  0.00     0.038 A 
ATOM     10  C   UNL A   1      38.957  28.500  30.194  1.00  0.00     0.027 A 
ATOM     11  C   UNL A   1      37.603  29.863  28.745  1.00  0.00     0.027 A 
ATOM     12  C   UNL A   1      39.831  28.239  29.141  1.00  0.00     0.016 A 
ATOM     13  C   UNL A   1      38.519  29.660  27.707  1.00  0.00     0.016 A 
BRANCH   9  14
ATOM     14  N   UNL A   1      36.930  29.460  31.057  1.00  0.00    -0.355 N 
ATOM     15  H   UNL A   1      36.131  28.888  31.007  1.00  0.00     0.167 HD
BRANCH  14  16
ATOM     16  C   UNL A   1      36.959  30.303  32.193  1.00  0.00     0.050 A 
ATOM     17  C   UNL A   1      34.907  33.999  32.064  1.00  0.00     0.163 A 
ATOM     18  C   UNL A   1      35.699  33.654  33.171  1.00  0.00     0.079 A 
ATOM     19  C   UNL A   1      34.729  33.072  31.041  1.00  0.00     0.161 A 
ATOM     20  C   UNL A   1      36.354  32.418  33.253  1.00  0.00     0.076 A 
ATOM     21  C   UNL A   1      35.389  31.854  31.101  1.00  0.00     0.063 A 
ATOM     22  N   UNL A   1      37.111  32.121  34.324  1.00  0.00    -0.256 NA
ATOM     23  C   UNL A   1      36.228  31.517  32.174  1.00  0.00     0.028 A 
ATOM     24  C   UNL A   1      37.745  30.923  34.350  1.00  0.00     0.114 A 
ATOM     25  C   UNL A   1      37.696  29.991  33.329  1.00  0.00     0.047 A 
BRANCH  17  26
ATOM     26  O   UNL A   1      34.440  35.270  31.877  1.00  0.00    -0.490 OA
BRANCH  26  27
ATOM     27  C   UNL A   1      33.533  35.749  32.874  1.00  0.00     0.226 C 
ATOM     28  C   UNL A   1      32.156  35.838  32.223  1.00  0.00     0.049 C 
ENDBRANCH  26  27
ENDBRANCH  17  26
BRANCH  19  29
ATOM     29  O   UNL A   1      33.976  33.210  29.910  1.00  0.00    -0.490 OA
BRANCH  29  30
ATOM     30  C   UNL A   1      34.664  33.591  28.721  1.00  0.00     0.226 C 
ATOM     31  C   UNL A   1      34.534  35.063  28.347  1.00  0.00     0.049 C 
ENDBRANCH  29  30
ENDBRANCH  19  29
ENDBRANCH  14  16
ENDBRANCH   9  14
ENDBRANCH   5   8
ENDBRANCH   3   4
ENDBRANCH   2   3
ENDBRANCH   1   2
BRANCH   1  32
ATOM     32  C   UNL A   1      39.350  22.889  26.570  1.00  0.00     0.002 C 
BRANCH  32  33
ATOM     33  C   UNL A   1      39.752  21.445  26.265  1.00  0.00     0.021 C 
BRANCH  33  34
ATOM     34  C   UNL A   1      40.950  20.961  27.073  1.00  0.00     0.116 C 
BRANCH  34  35
ATOM     35  N   UNL A   1      41.887  20.229  26.234  1.00  0.00    -0.352 N 
ATOM     36  C   UNL A   1      43.014  20.691  25.600  1.00  0.00     0.251 C 
ATOM     37  H   UNL A   1      41.686  19.274  26.104  1.00  0.00     0.163 HD
ATOM     38  O   UNL A   1      43.539  20.028  24.716  1.00  0.00    -0.269 OA
BRANCH  36  39
ATOM     39  C   UNL A   1      43.570  22.004  25.992  1.00  0.00     0.039 A 
ATOM     40  C   UNL A   1      44.304  22.112  27.174  1.00  0.00     0.014 A 
ATOM     41  C   UNL A   1      43.367  23.123  25.179  1.00  0.00     0.014 A 
ATOM     42  C   UNL A   1      44.880  23.337  27.516  1.00  0.00     0.010 A 
ATOM     43  C   UNL A   1      44.007  24.319  25.480  1.00  0.00     0.010 A 
ATOM     44  C   UNL A   1      44.760  24.442  26.658  1.00  0.00    -0.014 A 
BRANCH  44  45
ATOM     45  C   UNL A   1      45.387  25.750  26.982  1.00  0.00     0.031 A 
ATOM     46  C   UNL A   1      46.755  26.072  26.443  1.00  0.00     0.074 A 
ATOM     47  C   UNL A   1      44.762  26.610  27.810  1.00  0.00     0.049 A 
ATOM     48  N   UNL A   1      47.527  27.096  26.698  1.00  0.00    -0.248 NA
ATOM     49  C   UNL A   1      47.345  25.091  25.518  1.00  0.00     0.031 C 
ATOM     50  C   UNL A   1      43.444  26.396  28.413  1.00  0.00     0.029 A 
ATOM     51  N   UNL A   1      45.154  27.831  28.298  1.00  0.00    -0.354 N 
ATOM     52  C   UNL A   1      48.698  26.876  25.980  1.00  0.00     0.074 A 
ATOM     53  C   UNL A   1      48.558  25.588  25.334  1.00  0.00     0.031 C 
ATOM     54  C   UNL A   1      43.131  27.458  29.171  1.00  0.00     0.029 A 
ATOM     55  C   UNL A   1      44.243  28.404  29.157  1.00  0.00     0.049 A 
ATOM     56  H   UNL A   1      46.008  28.258  28.057  1.00  0.00     0.167 HD
ATOM     57  C   UNL A   1      49.779  27.683  25.856  1.00  0.00     0.034 A 
ATOM     58  C   UNL A   1      44.307  29.548  29.867  1.00  0.00     0.034 A 
ATOM     59  C   UNL A   1      49.894  28.969  26.498  1.00  0.00     0.049 A 
ATOM     60  C   UNL A   1      45.540  30.411  29.745  1.00  0.00     0.074 A 
ATOM     61  C   UNL A   1      50.923  29.890  26.404  1.00  0.00     0.029 A 
ATOM     62  N   UNL A   1      48.951  29.515  27.361  1.00  0.00    -0.354 N 
ATOM     63  N   UNL A   1      46.624  30.207  29.034  1.00  0.00    -0.248 NA
ATOM     64  C   UNL A   1      45.553  31.664  30.512  1.00  0.00     0.031 C 
ATOM     65  C   UNL A   1      50.640  30.952  27.268  1.00  0.00     0.029 A 
ATOM     66  C   UNL A   1      49.390  30.742  27.830  1.00  0.00     0.049 A 
ATOM     67  H   UNL A   1      48.096  29.091  27.603  1.00  0.00     0.167 HD
ATOM     68  C   UNL A   1      47.428  31.326  29.235  1.00  0.00     0.074 A 
ATOM     69  C   UNL A   1      46.701  32.203  30.129  1.00  0.00     0.031 C 
ATOM     70  C   UNL A   1      48.652  31.609  28.720  1.00  0.00     0.034 A 
BRANCH  57  71
ATOM     71  C   UNL A   1      50.930  27.183  25.015  1.00  0.00     0.023 A 
ATOM     72  C   UNL A   1      51.979  26.427  25.569  1.00  0.00     0.031 A 
ATOM     73  C   UNL A   1      50.992  27.481  23.642  1.00  0.00     0.131 A 
ATOM     74  C   UNL A   1      53.077  26.064  24.778  1.00  0.00     0.055 A 
ATOM     75  C   UNL A   1      52.045  27.040  22.839  1.00  0.00     0.041 A 
ATOM     76  F   UNL A   1      50.034  28.219  23.059  1.00  0.00    -0.206 F 
ATOM     77  C   UNL A   1      53.105  26.341  23.408  1.00  0.00     0.022 A 
BRANCH  74  78
ATOM     78  S   UNL A   1      54.537  25.361  25.592  1.00  0.00     0.124 S 
ATOM     79  O   UNL A   1      55.589  25.663  24.623  1.00  0.00    -0.237 OA
ATOM     80  O   UNL A   1      54.589  26.104  26.844  1.00  0.00    -0.237 OA
ATOM     81  O   UNL A   1      54.207  23.943  25.720  1.00  0.00    -0.744 OA
ENDBRANCH  74  78
ENDBRANCH  57  71
BRANCH  58  82
ATOM     82  C   UNL A   1      43.187  29.945  30.770  1.00  0.00     0.023 A 
ATOM     83  C   UNL A   1      43.053  29.379  32.047  1.00  0.00     0.031 A 
ATOM     84  C   UNL A   1      42.203  30.858  30.349  1.00  0.00     0.131 A 
ATOM     85  C   UNL A   1      41.932  29.684  32.835  1.00  0.00     0.055 A 
ATOM     86  C   UNL A   1      41.123  31.208  31.162  1.00  0.00     0.041 A 
ATOM     87  F   UNL A   1      42.281  31.433  29.138  1.00  0.00    -0.206 F 
ATOM     88  C   UNL A   1      40.974  30.607  32.408  1.00  0.00     0.022 A 
BRANCH  85  89
ATOM     89  S   UNL A   1      41.686  28.774  34.385  1.00  0.00     0.124 S 
ATOM     90  O   UNL A   1      43.062  28.527  34.803  1.00  0.00    -0.237 OA
ATOM     91  O   UNL A   1      40.935  29.735  35.184  1.00  0.00    -0.237 OA
ATOM     92  O   UNL A   1      40.938  27.590  33.968  1.00  0.00    -0.744 OA
ENDBRANCH  85  89
ENDBRANCH  58  82
BRANCH  70  93
ATOM     93  C   UNL A   1      49.252  32.954  29.052  1.00  0.00     0.023 A 
ATOM     94  C   UNL A   1      50.030  33.161  30.204  1.00  0.00     0.031 A 
ATOM     95  C   UNL A   1      49.048  34.043  28.186  1.00  0.00     0.131 A 
ATOM     96  C   UNL A   1      50.536  34.441  30.482  1.00  0.00     0.055 A 
ATOM     97  C   UNL A   1      49.609  35.297  28.434  1.00  0.00     0.041 A 
ATOM     98  F   UNL A   1      48.309  33.903  27.072  1.00  0.00    -0.206 F 
ATOM     99  C   UNL A   1      50.348  35.504  29.594  1.00  0.00     0.022 A 
BRANCH  96 100
ATOM    100  S   UNL A   1      51.377  34.721  32.064  1.00  0.00     0.124 S 
ATOM    101  O   UNL A   1      51.234  33.425  32.719  1.00  0.00    -0.237 OA
ATOM    102  O   UNL A   1      52.728  35.076  31.643  1.00  0.00    -0.237 OA
ATOM    103  O   UNL A   1      50.612  35.810  32.671  1.00  0.00    -0.744 OA
ENDBRANCH  96 100
ENDBRANCH  70  93
ENDBRANCH  44  45
ENDBRANCH  36  39
ENDBRANCH  34  35
ENDBRANCH  33  34
ENDBRANCH  32  33
ENDBRANCH   1  32
TORSDOF 22
ENDMDL
MODEL 2
REMARK VINA RESULT:      -8.6      5.978     12.012
REMARK SMILES CCOc1cc2nccc(Nc3ccc(C(=O)NCCCCCCNC(=O)c4ccc(-c5c6nc(c(-c7cc(S(=O)(=O)[O-])ccc7F)c7ccc([nH]7)c(-c7cc(S(=O)(=O)[O-])ccc7F)c7nc(c(-c8cc(S(=O)(=O)[O-])ccc8F)c8ccc5[nH]8)C=C7)C=C6)cc4)cc3)c2cc1OCC
REMARK SMILES IDX 21 1 20 2 19 3 18 4 16 5 17 6 15 8 12 9 13 10 92 11 14 12
REMARK SMILES IDX 91 13 11 14 10 16 4 17 5 18 95 19 6 20 94 21 7 22 93 23 8 24
REMARK SMILES IDX 9 25 3 26 2 27 1 28 96 29 97 30 98 31 22 32 23 33 24 34
REMARK SMILES IDX 25 35 26 36 27 38 28 39 29 40 90 41 30 42 89 43 31 44 32 45
REMARK SMILES IDX 33 46 83 47 34 48 88 49 82 50 84 51 35 52 87 53 81 54 80 55
REMARK SMILES IDX 36 57 68 58 48 59 67 60 49 61 52 62 66 63 85 64 50 65 51 66
REMARK SMILES IDX 65 68 86 69 53 70 37 71 38 72 46 73 39 74 45 75 47 76 44 77
REMARK SMILES IDX 40 78 41 79 42 80 43 81 69 82 70 83 78 84 71 85 77 86 79 87
REMARK SMILES IDX 76 88 72 89 73 90 74 91 75 92 54 93 55 94 63 95 56 96 62 97
REMARK SMILES IDX 64 98 61 99 57 100 58 101 59 102 60 103
REMARK H PARENT 18 7 11 15 25 37 84 56 52 67
REMARK Flexibility Score: inf
ROOT
ATOM      1  C   UNL A   1      35.729  31.493  28.536  1.00  0.00     0.002 C 
ENDROOT
BRANCH   1   2
ATOM      2  C   UNL A   1      35.807  30.009  28.153  1.00  0.00     0.021 C 
BRANCH   2   3
ATOM      3  C   UNL A   1      34.592  29.555  27.343  1.00  0.00     0.116 C 
BRANCH   3   4
ATOM      4  N   UNL A   1      33.521  30.517  27.516  1.00  0.00    -0.352 N 
ATOM      5  C   UNL A   1      32.305  30.648  26.903  1.00  0.00     0.251 C 
ATOM      6  O   UNL A   1      31.613  31.626  27.189  1.00  0.00    -0.269 OA
ATOM      7  H   UNL A   1      33.703  31.202  28.199  1.00  0.00     0.163 HD
BRANCH   5   8
ATOM      8  C   UNL A   1      31.753  29.606  25.998  1.00  0.00     0.039 A 
ATOM      9  C   UNL A   1      31.002  27.455  24.350  1.00  0.00     0.038 A 
ATOM     10  C   UNL A   1      31.353  27.238  25.686  1.00  0.00     0.027 A 
ATOM     11  C   UNL A   1      30.972  28.760  23.861  1.00  0.00     0.027 A 
ATOM     12  C   UNL A   1      31.737  28.301  26.501  1.00  0.00     0.016 A 
ATOM     13  C   UNL A   1      31.287  29.834  24.700  1.00  0.00     0.016 A 
BRANCH   9  14
ATOM     14  N   UNL A   1      30.696  26.353  23.550  1.00  0.00    -0.355 N 
ATOM     15  H   UNL A   1      29.746  26.097  23.574  1.00  0.00     0.167 HD
BRANCH  14  16
ATOM     16  C   UNL A   1      31.488  25.534  22.714  1.00  0.00     0.050 A 
ATOM     17  C   UNL A   1      32.645  21.703  24.081  1.00  0.00     0.163 A 
ATOM     18  C   UNL A   1      33.126  22.207  22.863  1.00  0.00     0.079 A 
ATOM     19  C   UNL A   1      31.707  22.440  24.799  1.00  0.00     0.161 A 
ATOM     20  C   UNL A   1      32.724  23.456  22.370  1.00  0.00     0.076 A 
ATOM     21  C   UNL A   1      31.317  23.687  24.332  1.00  0.00     0.063 A 
ATOM     22  N   UNL A   1      33.210  23.914  21.203  1.00  0.00    -0.256 NA
ATOM     23  C   UNL A   1      31.832  24.229  23.144  1.00  0.00     0.028 A 
ATOM     24  C   UNL A   1      32.812  25.138  20.777  1.00  0.00     0.114 A 
ATOM     25  C   UNL A   1      31.961  25.970  21.481  1.00  0.00     0.047 A 
BRANCH  17  26
ATOM     26  O   UNL A   1      33.184  20.593  24.668  1.00  0.00    -0.490 OA
BRANCH  26  27
ATOM     27  C   UNL A   1      32.515  19.359  24.393  1.00  0.00     0.226 C 
ATOM     28  C   UNL A   1      32.833  18.410  25.545  1.00  0.00     0.049 C 
ENDBRANCH  26  27
ENDBRANCH  17  26
BRANCH  19  29
ATOM     29  O   UNL A   1      31.103  22.104  25.976  1.00  0.00    -0.490 OA
BRANCH  29  30
ATOM     30  C   UNL A   1      30.348  23.123  26.627  1.00  0.00     0.226 C 
ATOM     31  C   UNL A   1      29.140  22.625  27.412  1.00  0.00     0.049 C 
ENDBRANCH  29  30
ENDBRANCH  19  29
ENDBRANCH  14  16
ENDBRANCH   9  14
ENDBRANCH   5   8
ENDBRANCH   3   4
ENDBRANCH   2   3
ENDBRANCH   1   2
BRANCH   1  32
ATOM     32  C   UNL A   1      35.671  31.748  30.047  1.00  0.00     0.002 C 
BRANCH  32  33
ATOM     33  C   UNL A   1      34.646  32.802  30.472  1.00  0.00     0.021 C 
BRANCH  33  34
ATOM     34  C   UNL A   1      35.078  34.231  30.168  1.00  0.00     0.116 C 
BRANCH  34  35
ATOM     35  N   UNL A   1      35.084  35.045  31.375  1.00  0.00    -0.352 N 
ATOM     36  C   UNL A   1      35.803  34.860  32.531  1.00  0.00     0.251 C 
ATOM     37  H   UNL A   1      34.494  35.833  31.360  1.00  0.00     0.163 HD
ATOM     38  O   UNL A   1      35.496  35.466  33.549  1.00  0.00    -0.269 OA
BRANCH  36  39
ATOM     39  C   UNL A   1      36.936  33.912  32.527  1.00  0.00     0.039 A 
ATOM     40  C   UNL A   1      38.106  34.245  31.844  1.00  0.00     0.014 A 
ATOM     41  C   UNL A   1      36.837  32.696  33.210  1.00  0.00     0.014 A 
ATOM     42  C   UNL A   1      39.199  33.377  31.888  1.00  0.00     0.010 A 
ATOM     43  C   UNL A   1      37.951  31.872  33.320  1.00  0.00     0.010 A 
ATOM     44  C   UNL A   1      39.140  32.199  32.650  1.00  0.00    -0.014 A 
BRANCH  44  45
ATOM     45  C   UNL A   1      40.298  31.271  32.739  1.00  0.00     0.031 A 
ATOM     46  C   UNL A   1      41.267  31.401  33.883  1.00  0.00     0.074 A 
ATOM     47  C   UNL A   1      40.514  30.367  31.763  1.00  0.00     0.049 A 
ATOM     48  N   UNL A   1      42.398  30.777  34.086  1.00  0.00    -0.248 NA
ATOM     49  C   UNL A   1      40.932  32.389  34.920  1.00  0.00     0.031 C 
ATOM     50  C   UNL A   1      39.656  30.166  30.592  1.00  0.00     0.029 A 
ATOM     51  N   UNL A   1      41.526  29.457  31.591  1.00  0.00    -0.354 N 
ATOM     52  C   UNL A   1      42.917  31.309  35.262  1.00  0.00     0.074 A 
ATOM     53  C   UNL A   1      42.008  32.351  35.689  1.00  0.00     0.031 C 
ATOM     54  C   UNL A   1      40.167  29.181  29.837  1.00  0.00     0.029 A 
ATOM     55  C   UNL A   1      41.416  28.717  30.435  1.00  0.00     0.049 A 
ATOM     56  H   UNL A   1      42.262  29.343  32.234  1.00  0.00     0.167 HD
ATOM     57  C   UNL A   1      44.037  30.945  35.934  1.00  0.00     0.034 A 
ATOM     58  C   UNL A   1      42.239  27.788  29.908  1.00  0.00     0.034 A 
ATOM     59  C   UNL A   1      44.924  29.895  35.498  1.00  0.00     0.049 A 
ATOM     60  C   UNL A   1      43.502  27.429  30.652  1.00  0.00     0.074 A 
ATOM     61  C   UNL A   1      46.059  29.412  36.123  1.00  0.00     0.029 A 
ATOM     62  N   UNL A   1      44.780  29.168  34.322  1.00  0.00    -0.354 N 
ATOM     63  N   UNL A   1      43.961  27.914  31.783  1.00  0.00    -0.248 NA
ATOM     64  C   UNL A   1      44.352  26.390  30.057  1.00  0.00     0.031 C 
ATOM     65  C   UNL A   1      46.644  28.453  35.291  1.00  0.00     0.029 A 
ATOM     66  C   UNL A   1      45.823  28.266  34.189  1.00  0.00     0.049 A 
ATOM     67  H   UNL A   1      44.044  29.279  33.676  1.00  0.00     0.167 HD
ATOM     68  C   UNL A   1      45.130  27.208  32.053  1.00  0.00     0.074 A 
ATOM     69  C   UNL A   1      45.302  26.261  30.972  1.00  0.00     0.031 C 
ATOM     70  C   UNL A   1      45.980  27.324  33.106  1.00  0.00     0.034 A 
BRANCH  57  71
ATOM     71  C   UNL A   1      44.375  31.709  37.192  1.00  0.00     0.023 A 
ATOM     72  C   UNL A   1      43.748  31.430  38.419  1.00  0.00     0.031 A 
ATOM     73  C   UNL A   1      45.325  32.745  37.163  1.00  0.00     0.131 A 
ATOM     74  C   UNL A   1      44.017  32.225  39.542  1.00  0.00     0.055 A 
ATOM     75  C   UNL A   1      45.655  33.476  38.306  1.00  0.00     0.041 A 
ATOM     76  F   UNL A   1      45.941  33.076  36.017  1.00  0.00    -0.206 F 
ATOM     77  C   UNL A   1      44.989  33.228  39.502  1.00  0.00     0.022 A 
BRANCH  74  78
ATOM     78  S   UNL A   1      42.973  32.030  41.012  1.00  0.00     0.124 S 
ATOM     79  O   UNL A   1      43.544  30.829  41.621  1.00  0.00    -0.237 OA
ATOM     80  O   UNL A   1      43.198  33.278  41.728  1.00  0.00    -0.237 OA
ATOM     81  O   UNL A   1      41.631  31.860  40.459  1.00  0.00    -0.744 OA
ENDBRANCH  74  78
ENDBRANCH  57  71
BRANCH  58  82
ATOM     82  C   UNL A   1      41.914  27.139  28.604  1.00  0.00     0.023 A 
ATOM     83  C   UNL A   1      41.489  25.803  28.546  1.00  0.00     0.031 A 
ATOM     84  C   UNL A   1      42.076  27.830  27.388  1.00  0.00     0.131 A 
ATOM     85  C   UNL A   1      41.295  25.181  27.303  1.00  0.00     0.055 A 
ATOM     86  C   UNL A   1      41.820  27.227  26.155  1.00  0.00     0.041 A 
ATOM     87  F   UNL A   1      42.478  29.111  27.382  1.00  0.00    -0.206 F 
ATOM     88  C   UNL A   1      41.443  25.889  26.107  1.00  0.00     0.022 A 
BRANCH  85  89
ATOM     89  S   UNL A   1      40.953  23.400  27.267  1.00  0.00     0.124 S 
ATOM     90  O   UNL A   1      39.494  23.381  27.229  1.00  0.00    -0.237 OA
ATOM     91  O   UNL A   1      41.632  22.987  26.044  1.00  0.00    -0.237 OA
ATOM     92  O   UNL A   1      41.552  22.914  28.507  1.00  0.00    -0.744 OA
ENDBRANCH  85  89
ENDBRANCH  58  82
BRANCH  70  93
ATOM     93  C   UNL A   1      47.135  26.354  33.177  1.00  0.00     0.023 A 
ATOM     94  C   UNL A   1      47.097  25.204  33.984  1.00  0.00     0.031 A 
ATOM     95  C   UNL A   1      48.289  26.585  32.406  1.00  0.00     0.131 A 
ATOM     96  C   UNL A   1      48.212  24.353  34.037  1.00  0.00     0.055 A 
ATOM     97  C   UNL A   1      49.368  25.700  32.413  1.00  0.00     0.041 A 
ATOM     98  F   UNL A   1      48.381  27.669  31.619  1.00  0.00    -0.206 F 
ATOM     99  C   UNL A   1      49.339  24.583  33.242  1.00  0.00     0.022 A 
BRANCH  96 100
ATOM    100  S   UNL A   1      48.208  22.983  35.225  1.00  0.00     0.124 S 
ATOM    101  O   UNL A   1      49.607  22.932  35.636  1.00  0.00    -0.237 OA
ATOM    102  O   UNL A   1      47.263  23.448  36.236  1.00  0.00    -0.237 OA
ATOM    103  O   UNL A   1      47.752  21.842  34.432  1.00  0.00    -0.744 OA
ENDBRANCH  96 100
ENDBRANCH  70  93
ENDBRANCH  44  45
ENDBRANCH  36  39
ENDBRANCH  34  35
ENDBRANCH  33  34
ENDBRANCH  32  33
ENDBRANCH   1  32
TORSDOF 22
ENDMDL
MODEL 3
REMARK VINA RESULT:      -8.4      1.858      2.116
REMARK SMILES CCOc1cc2nccc(Nc3ccc(C(=O)NCCCCCCNC(=O)c4ccc(-c5c6nc(c(-c7cc(S(=O)(=O)[O-])ccc7F)c7ccc([nH]7)c(-c7cc(S(=O)(=O)[O-])ccc7F)c7nc(c(-c8cc(S(=O)(=O)[O-])ccc8F)c8ccc5[nH]8)C=C7)C=C6)cc4)cc3)c2cc1OCC
REMARK SMILES IDX 21 1 20 2 19 3 18 4 16 5 17 6 15 8 12 9 13 10 92 11 14 12
REMARK SMILES IDX 91 13 11 14 10 16 4 17 5 18 95 19 6 20 94 21 7 22 93 23 8 24
REMARK SMILES IDX 9 25 3 26 2 27 1 28 96 29 97 30 98 31 22 32 23 33 24 34
REMARK SMILES IDX 25 35 26 36 27 38 28 39 29 40 90 41 30 42 89 43 31 44 32 45
REMARK SMILES IDX 33 46 83 47 34 48 88 49 82 50 84 51 35 52 87 53 81 54 80 55
REMARK SMILES IDX 36 57 68 58 48 59 67 60 49 61 52 62 66 63 85 64 50 65 51 66
REMARK SMILES IDX 65 68 86 69 53 70 37 71 38 72 46 73 39 74 45 75 47 76 44 77
REMARK SMILES IDX 40 78 41 79 42 80 43 81 69 82 70 83 78 84 71 85 77 86 79 87
REMARK SMILES IDX 76 88 72 89 73 90 74 91 75 92 54 93 55 94 63 95 56 96 62 97
REMARK SMILES IDX 64 98 61 99 57 100 58 101 59 102 60 103
REMARK H PARENT 18 7 11 15 25 37 84 56 52 67
REMARK Flexibility Score: inf
ROOT
ATOM      1  C   UNL A   1      40.809  23.245  27.953  1.00  0.00     0.002 C 
ENDROOT
BRANCH   1   2
ATOM      2  C   UNL A   1      41.286  24.657  27.587  1.00  0.00     0.021 C 
BRANCH   2   3
ATOM      3  C   UNL A   1      40.128  25.575  27.196  1.00  0.00     0.116 C 
BRANCH   3   4
ATOM      4  N   UNL A   1      40.663  26.788  26.609  1.00  0.00    -0.352 N 
ATOM      5  C   UNL A   1      40.428  28.110  26.873  1.00  0.00     0.251 C 
ATOM      6  O   UNL A   1      40.965  28.951  26.151  1.00  0.00    -0.269 OA
ATOM      7  H   UNL A   1      41.314  26.632  25.888  1.00  0.00     0.163 HD
BRANCH   5   8
ATOM      8  C   UNL A   1      39.643  28.559  28.053  1.00  0.00     0.039 A 
ATOM      9  C   UNL A   1      37.995  29.099  30.267  1.00  0.00     0.038 A 
ATOM     10  C   UNL A   1      38.788  27.948  30.235  1.00  0.00     0.027 A 
ATOM     11  C   UNL A   1      38.077  30.007  29.212  1.00  0.00     0.027 A 
ATOM     12  C   UNL A   1      39.596  27.672  29.134  1.00  0.00     0.016 A 
ATOM     13  C   UNL A   1      38.943  29.766  28.140  1.00  0.00     0.016 A 
BRANCH   9  14
ATOM     14  N   UNL A   1      37.146  29.298  31.356  1.00  0.00    -0.355 N 
ATOM     15  H   UNL A   1      36.327  28.753  31.327  1.00  0.00     0.167 HD
BRANCH  14  16
ATOM     16  C   UNL A   1      37.235  30.134  32.493  1.00  0.00     0.050 A 
ATOM     17  C   UNL A   1      35.360  33.923  32.415  1.00  0.00     0.163 A 
ATOM     18  C   UNL A   1      36.154  33.536  33.506  1.00  0.00     0.079 A 
ATOM     19  C   UNL A   1      35.119  33.010  31.392  1.00  0.00     0.161 A 
ATOM     20  C   UNL A   1      36.751  32.270  33.572  1.00  0.00     0.076 A 
ATOM     21  C   UNL A   1      35.721  31.762  31.437  1.00  0.00     0.063 A 
ATOM     22  N   UNL A   1      37.513  31.933  34.628  1.00  0.00    -0.256 NA
ATOM     23  C   UNL A   1      36.563  31.381  32.493  1.00  0.00     0.028 A 
ATOM     24  C   UNL A   1      38.090  30.706  34.638  1.00  0.00     0.114 A 
ATOM     25  C   UNL A   1      37.978  29.782  33.615  1.00  0.00     0.047 A 
BRANCH  17  26
ATOM     26  O   UNL A   1      34.950  35.215  32.242  1.00  0.00    -0.490 OA
BRANCH  26  27
ATOM     27  C   UNL A   1      33.539  35.434  32.326  1.00  0.00     0.226 C 
ATOM     28  C   UNL A   1      33.320  36.573  33.318  1.00  0.00     0.049 C 
ENDBRANCH  26  27
ENDBRANCH  17  26
BRANCH  19  29
ATOM     29  O   UNL A   1      34.353  33.189  30.276  1.00  0.00    -0.490 OA
BRANCH  29  30
ATOM     30  C   UNL A   1      34.492  32.223  29.238  1.00  0.00     0.226 C 
ATOM     31  C   UNL A   1      34.064  32.700  27.855  1.00  0.00     0.049 C 
ENDBRANCH  29  30
ENDBRANCH  19  29
ENDBRANCH  14  16
ENDBRANCH   9  14
ENDBRANCH   5   8
ENDBRANCH   3   4
ENDBRANCH   2   3
ENDBRANCH   1   2
BRANCH   1  32
ATOM     32  C   UNL A   1      39.782  22.657  26.977  1.00  0.00     0.002 C 
BRANCH  32  33
ATOM     33  C   UNL A   1      40.224  21.358  26.301  1.00  0.00     0.021 C 
BRANCH  33  34
ATOM     34  C   UNL A   1      41.374  20.658  27.015  1.00  0.00     0.116 C 
BRANCH  34  35
ATOM     35  N   UNL A   1      42.266  20.012  26.065  1.00  0.00    -0.352 N 
ATOM     36  C   UNL A   1      43.315  20.556  25.365  1.00  0.00     0.251 C 
ATOM     37  H   UNL A   1      42.096  19.056  25.902  1.00  0.00     0.163 HD
ATOM     38  O   UNL A   1      43.790  19.962  24.407  1.00  0.00    -0.269 OA
BRANCH  36  39
ATOM     39  C   UNL A   1      43.845  21.873  25.777  1.00  0.00     0.039 A 
ATOM     40  C   UNL A   1      44.657  21.961  26.908  1.00  0.00     0.014 A 
ATOM     41  C   UNL A   1      43.541  23.017  25.033  1.00  0.00     0.014 A 
ATOM     42  C   UNL A   1      45.208  23.193  27.266  1.00  0.00     0.010 A 
ATOM     43  C   UNL A   1      44.154  24.225  25.343  1.00  0.00     0.010 A 
ATOM     44  C   UNL A   1      44.984  24.329  26.470  1.00  0.00    -0.014 A 
BRANCH  44  45
ATOM     45  C   UNL A   1      45.580  25.647  26.810  1.00  0.00     0.031 A 
ATOM     46  C   UNL A   1      46.921  26.024  26.239  1.00  0.00     0.074 A 
ATOM     47  C   UNL A   1      44.955  26.466  27.678  1.00  0.00     0.049 A 
ATOM     48  N   UNL A   1      47.669  27.065  26.498  1.00  0.00    -0.248 NA
ATOM     49  C   UNL A   1      47.512  25.086  25.273  1.00  0.00     0.031 C 
ATOM     50  C   UNL A   1      43.663  26.196  28.314  1.00  0.00     0.029 A 
ATOM     51  N   UNL A   1      45.325  27.686  28.186  1.00  0.00    -0.354 N 
ATOM     52  C   UNL A   1      48.824  26.899  25.741  1.00  0.00     0.074 A 
ATOM     53  C   UNL A   1      48.703  25.624  25.065  1.00  0.00     0.031 C 
ATOM     54  C   UNL A   1      43.341  27.229  29.109  1.00  0.00     0.029 A 
ATOM     55  C   UNL A   1      44.423  28.208  29.086  1.00  0.00     0.049 A 
ATOM     56  H   UNL A   1      46.157  28.145  27.931  1.00  0.00     0.167 HD
ATOM     57  C   UNL A   1      49.876  27.742  25.606  1.00  0.00     0.034 A 
ATOM     58  C   UNL A   1      44.474  29.335  29.823  1.00  0.00     0.034 A 
ATOM     59  C   UNL A   1      49.972  29.014  26.278  1.00  0.00     0.049 A 
ATOM     60  C   UNL A   1      45.676  30.239  29.688  1.00  0.00     0.074 A 
ATOM     61  C   UNL A   1      50.969  29.968  26.178  1.00  0.00     0.029 A 
ATOM     62  N   UNL A   1      49.039  29.509  27.182  1.00  0.00    -0.354 N 
ATOM     63  N   UNL A   1      46.744  30.086  28.940  1.00  0.00    -0.248 NA
ATOM     64  C   UNL A   1      45.675  31.472  30.487  1.00  0.00     0.031 C 
ATOM     65  C   UNL A   1      50.681  30.999  27.077  1.00  0.00     0.029 A 
ATOM     66  C   UNL A   1      49.455  30.737  27.671  1.00  0.00     0.049 A 
ATOM     67  H   UNL A   1      48.205  29.052  27.438  1.00  0.00     0.167 HD
ATOM     68  C   UNL A   1      47.520  31.224  29.147  1.00  0.00     0.074 A 
ATOM     69  C   UNL A   1      46.794  32.055  30.084  1.00  0.00     0.031 C 
ATOM     70  C   UNL A   1      48.718  31.558  28.603  1.00  0.00     0.034 A 
BRANCH  57  71
ATOM     71  C   UNL A   1      51.016  27.299  24.719  1.00  0.00     0.023 A 
ATOM     72  C   UNL A   1      51.022  27.555  23.336  1.00  0.00     0.031 A 
ATOM     73  C   UNL A   1      52.106  26.593  25.259  1.00  0.00     0.131 A 
ATOM     74  C   UNL A   1      52.050  27.043  22.532  1.00  0.00     0.055 A 
ATOM     75  C   UNL A   1      53.172  26.163  24.467  1.00  0.00     0.041 A 
ATOM     76  F   UNL A   1      52.147  26.297  26.568  1.00  0.00    -0.206 F 
ATOM     77  C   UNL A   1      53.141  26.373  23.092  1.00  0.00     0.022 A 
BRANCH  74  78
ATOM     78  S   UNL A   1      51.866  27.132  20.730  1.00  0.00     0.124 S 
ATOM     79  O   UNL A   1      52.880  26.179  20.283  1.00  0.00    -0.237 OA
ATOM     80  O   UNL A   1      50.479  26.729  20.534  1.00  0.00    -0.237 OA
ATOM     81  O   UNL A   1      52.160  28.531  20.425  1.00  0.00    -0.744 OA
ENDBRANCH  74  78
ENDBRANCH  57  71
BRANCH  58  82
ATOM     82  C   UNL A   1      43.371  29.675  30.769  1.00  0.00     0.023 A 
ATOM     83  C   UNL A   1      43.330  29.126  32.060  1.00  0.00     0.031 A 
ATOM     84  C   UNL A   1      42.309  30.511  30.378  1.00  0.00     0.131 A 
ATOM     85  C   UNL A   1      42.227  29.372  32.893  1.00  0.00     0.055 A 
ATOM     86  C   UNL A   1      41.245  30.805  31.232  1.00  0.00     0.041 A 
ATOM     87  F   UNL A   1      42.296  31.066  29.155  1.00  0.00    -0.206 F 
ATOM     88  C   UNL A   1      41.192  30.220  32.493  1.00  0.00     0.022 A 
BRANCH  85  89
ATOM     89  S   UNL A   1      42.112  28.478  34.467  1.00  0.00     0.124 S 
ATOM     90  O   UNL A   1      42.478  29.517  35.424  1.00  0.00    -0.237 OA
ATOM     91  O   UNL A   1      40.714  28.061  34.475  1.00  0.00    -0.237 OA
ATOM     92  O   UNL A   1      43.083  27.397  34.316  1.00  0.00    -0.744 OA
ENDBRANCH  85  89
ENDBRANCH  58  82
BRANCH  70  93
ATOM     93  C   UNL A   1      49.287  32.912  28.953  1.00  0.00     0.023 A 
ATOM     94  C   UNL A   1      48.910  34.081  28.271  1.00  0.00     0.031 A 
ATOM     95  C   UNL A   1      50.217  33.028  30.004  1.00  0.00     0.131 A 
ATOM     96  C   UNL A   1      49.496  35.309  28.616  1.00  0.00     0.055 A 
ATOM     97  C   UNL A   1      50.746  34.262  30.385  1.00  0.00     0.041 A 
ATOM     98  F   UNL A   1      50.616  31.943  30.688  1.00  0.00    -0.206 F 
ATOM     99  C   UNL A   1      50.395  35.410  29.682  1.00  0.00     0.022 A 
BRANCH  96 100
ATOM    100  S   UNL A   1      49.131  36.765  27.599  1.00  0.00     0.124 S 
ATOM    101  O   UNL A   1      50.325  37.580  27.796  1.00  0.00    -0.237 OA
ATOM    102  O   UNL A   1      48.968  36.186  26.270  1.00  0.00    -0.237 OA
ATOM    103  O   UNL A   1      47.908  37.303  28.194  1.00  0.00    -0.744 OA
ENDBRANCH  96 100
ENDBRANCH  70  93
ENDBRANCH  44  45
ENDBRANCH  36  39
ENDBRANCH  34  35
ENDBRANCH  33  34
ENDBRANCH  32  33
ENDBRANCH   1  32
TORSDOF 22
ENDMDL
