MODEL 1
REMARK VINA RESULT:     -11.8      0.000      0.000
REMARK SMILES Nc1ccc2[nH]cc(C(=O)NCCCCCCNC(=O)c3ccc(-c4c5nc(c(-c6cc(S(=O)(=O)[O-])ccc6F)c6ccc([nH]6)c(-c6cc(S(=O)(=O)[O-])ccc6F)c6nc(c(-c7cc(S(=O)(=O)[O-])ccc7F)c7ccc4[nH]7)C=C6)C=C5)cc3)c2c1
REMARK SMILES IDX 15 1 14 2 13 3 12 4 11 5 9 6 10 7 8 9 2 10 3 11 85 12 4 13
REMARK SMILES IDX 84 14 5 15 6 16 7 17 1 19 16 22 17 23 18 24 19 25 20 27
REMARK SMILES IDX 21 28 22 29 83 30 23 31 82 32 24 33 25 34 26 35 76 36 27 37
REMARK SMILES IDX 81 38 75 39 77 40 28 41 80 42 74 43 73 44 29 46 61 47 41 48
REMARK SMILES IDX 60 49 42 50 45 51 59 52 78 53 43 54 44 55 58 57 79 58 46 59
REMARK SMILES IDX 30 60 31 61 39 62 32 63 38 64 40 65 37 66 33 67 34 68 35 69
REMARK SMILES IDX 36 70 62 71 63 72 71 73 64 74 70 75 72 76 69 77 65 78 66 79
REMARK SMILES IDX 67 80 68 81 47 82 48 83 56 84 49 85 55 86 57 87 54 88 50 89
REMARK SMILES IDX 51 90 52 91 53 92
REMARK H PARENT 11 8 6 18 1 20 1 21 18 26 77 45 45 56
REMARK Flexibility Score: inf
ROOT
ATOM      1  C   UNL A   1      31.633  28.436  26.446  1.00  0.00     0.002 C 
ENDROOT
BRANCH   1   2
ATOM      2  C   UNL A   1      32.807  27.581  26.935  1.00  0.00     0.002 C 
BRANCH   2   3
ATOM      3  C   UNL A   1      33.707  26.955  25.872  1.00  0.00     0.021 C 
BRANCH   3   4
ATOM      4  C   UNL A   1      33.201  25.689  25.199  1.00  0.00     0.116 C 
BRANCH   4   5
ATOM      5  N   UNL A   1      33.595  25.510  23.825  1.00  0.00    -0.352 N 
ATOM      6  C   UNL A   1      33.286  26.256  22.710  1.00  0.00     0.253 C 
ATOM      7  O   UNL A   1      33.762  25.859  21.641  1.00  0.00    -0.269 OA
ATOM      8  H   UNL A   1      34.176  24.734  23.657  1.00  0.00     0.163 HD
BRANCH   6   9
ATOM      9  C   UNL A   1      32.357  27.398  22.736  1.00  0.00     0.065 A 
ATOM     10  C   UNL A   1      28.589  27.162  23.559  1.00  0.00     0.032 A 
ATOM     11  C   UNL A   1      28.282  28.453  23.148  1.00  0.00     0.027 A 
ATOM     12  C   UNL A   1      29.932  26.771  23.625  1.00  0.00     0.036 A 
ATOM     13  C   UNL A   1      29.283  29.349  22.760  1.00  0.00     0.029 A 
ATOM     14  C   UNL A   1      30.961  27.575  23.076  1.00  0.00     0.014 A 
ATOM     15  C   UNL A   1      30.600  28.877  22.715  1.00  0.00     0.046 A 
ATOM     16  N   UNL A   1      31.751  29.533  22.362  1.00  0.00    -0.360 N 
ATOM     17  C   UNL A   1      32.799  28.663  22.361  1.00  0.00     0.097 A 
ATOM     18  H   UNL A   1      31.810  30.491  22.142  1.00  0.00     0.166 HD
BRANCH  10  19
ATOM     19  N   UNL A   1      27.590  26.291  23.959  1.00  0.00    -0.399 N 
ATOM     20  H   UNL A   1      27.269  25.593  23.343  1.00  0.00     0.156 HD
ATOM     21  H   UNL A   1      27.198  26.370  24.859  1.00  0.00     0.156 HD
ENDBRANCH  10  19
ENDBRANCH   6   9
ENDBRANCH   4   5
ENDBRANCH   3   4
ENDBRANCH   2   3
ENDBRANCH   1   2
BRANCH   1  22
ATOM     22  C   UNL A   1      31.907  29.916  26.151  1.00  0.00     0.021 C 
BRANCH  22  23
ATOM     23  C   UNL A   1      33.336  30.405  26.390  1.00  0.00     0.116 C 
BRANCH  23  24
ATOM     24  N   UNL A   1      33.487  31.322  27.497  1.00  0.00    -0.352 N 
ATOM     25  C   UNL A   1      34.512  31.691  28.320  1.00  0.00     0.251 C 
ATOM     26  H   UNL A   1      32.650  31.796  27.707  1.00  0.00     0.163 HD
ATOM     27  O   UNL A   1      34.268  32.626  29.089  1.00  0.00    -0.269 OA
BRANCH  25  28
ATOM     28  C   UNL A   1      35.840  31.023  28.395  1.00  0.00     0.039 A 
ATOM     29  C   UNL A   1      36.115  29.712  28.006  1.00  0.00     0.014 A 
ATOM     30  C   UNL A   1      36.883  31.790  28.950  1.00  0.00     0.014 A 
ATOM     31  C   UNL A   1      37.363  29.149  28.259  1.00  0.00     0.010 A 
ATOM     32  C   UNL A   1      38.140  31.241  29.183  1.00  0.00     0.010 A 
ATOM     33  C   UNL A   1      38.362  29.901  28.883  1.00  0.00    -0.014 A 
BRANCH  33  34
ATOM     34  C   UNL A   1      39.641  29.245  29.145  1.00  0.00     0.031 A 
ATOM     35  C   UNL A   1      39.918  28.933  30.573  1.00  0.00     0.074 A 
ATOM     36  C   UNL A   1      40.490  28.858  28.172  1.00  0.00     0.049 A 
ATOM     37  N   UNL A   1      40.822  29.441  31.345  1.00  0.00    -0.248 NA
ATOM     38  C   UNL A   1      38.990  28.024  31.258  1.00  0.00     0.031 C 
ATOM     39  C   UNL A   1      40.223  28.790  26.732  1.00  0.00     0.029 A 
ATOM     40  N   UNL A   1      41.746  28.334  28.281  1.00  0.00    -0.354 N 
ATOM     41  C   UNL A   1      40.705  28.778  32.569  1.00  0.00     0.074 A 
ATOM     42  C   UNL A   1      39.470  28.038  32.503  1.00  0.00     0.031 C 
ATOM     43  C   UNL A   1      41.178  28.040  26.139  1.00  0.00     0.029 A 
ATOM     44  C   UNL A   1      42.200  27.725  27.121  1.00  0.00     0.049 A 
ATOM     45  H   UNL A   1      42.279  28.383  29.107  1.00  0.00     0.167 HD
ATOM     46  C   UNL A   1      41.736  28.722  33.460  1.00  0.00     0.034 A 
ATOM     47  C   UNL A   1      43.308  26.960  26.985  1.00  0.00     0.034 A 
ATOM     48  C   UNL A   1      42.792  29.621  33.086  1.00  0.00     0.049 A 
ATOM     49  C   UNL A   1      44.232  27.248  28.101  1.00  0.00     0.074 A 
ATOM     50  C   UNL A   1      43.035  30.971  33.158  1.00  0.00     0.029 A 
ATOM     51  N   UNL A   1      43.720  29.076  32.238  1.00  0.00    -0.354 N 
ATOM     52  N   UNL A   1      44.873  28.373  28.247  1.00  0.00    -0.248 NA
ATOM     53  C   UNL A   1      44.229  26.377  29.270  1.00  0.00     0.031 C 
ATOM     54  C   UNL A   1      43.987  31.248  32.136  1.00  0.00     0.029 A 
ATOM     55  C   UNL A   1      44.305  30.054  31.483  1.00  0.00     0.049 A 
ATOM     56  H   UNL A   1      43.937  28.118  32.182  1.00  0.00     0.167 HD
ATOM     57  C   UNL A   1      44.953  28.543  29.616  1.00  0.00     0.074 A 
ATOM     58  C   UNL A   1      44.729  27.219  30.178  1.00  0.00     0.031 C 
ATOM     59  C   UNL A   1      44.877  29.784  30.175  1.00  0.00     0.034 A 
BRANCH  46  60
ATOM     60  C   UNL A   1      42.011  27.580  34.420  1.00  0.00     0.023 A 
ATOM     61  C   UNL A   1      42.736  26.430  34.063  1.00  0.00     0.031 A 
ATOM     62  C   UNL A   1      41.778  27.747  35.806  1.00  0.00     0.131 A 
ATOM     63  C   UNL A   1      43.214  25.531  35.029  1.00  0.00     0.055 A 
ATOM     64  C   UNL A   1      42.305  26.883  36.774  1.00  0.00     0.041 A 
ATOM     65  F   UNL A   1      41.080  28.796  36.271  1.00  0.00    -0.206 F 
ATOM     66  C   UNL A   1      43.037  25.769  36.388  1.00  0.00     0.022 A 
BRANCH  63  67
ATOM     67  S   UNL A   1      44.111  24.039  34.522  1.00  0.00     0.124 S 
ATOM     68  O   UNL A   1      44.684  24.452  33.247  1.00  0.00    -0.237 OA
ATOM     69  O   UNL A   1      45.060  23.876  35.621  1.00  0.00    -0.237 OA
ATOM     70  O   UNL A   1      43.066  23.022  34.453  1.00  0.00    -0.744 OA
ENDBRANCH  63  67
ENDBRANCH  46  60
BRANCH  47  71
ATOM     71  C   UNL A   1      43.439  25.738  26.164  1.00  0.00     0.023 A 
ATOM     72  C   UNL A   1      42.624  24.627  26.452  1.00  0.00     0.031 A 
ATOM     73  C   UNL A   1      44.546  25.536  25.326  1.00  0.00     0.131 A 
ATOM     74  C   UNL A   1      42.957  23.360  25.960  1.00  0.00     0.055 A 
ATOM     75  C   UNL A   1      44.867  24.271  24.820  1.00  0.00     0.041 A 
ATOM     76  F   UNL A   1      45.377  26.550  25.038  1.00  0.00    -0.206 F 
ATOM     77  C   UNL A   1      44.079  23.172  25.151  1.00  0.00     0.022 A 
BRANCH  74  78
ATOM     78  S   UNL A   1      41.987  21.905  26.441  1.00  0.00     0.124 S 
ATOM     79  O   UNL A   1      40.630  22.307  26.080  1.00  0.00    -0.237 OA
ATOM     80  O   UNL A   1      42.578  20.865  25.606  1.00  0.00    -0.237 OA
ATOM     81  O   UNL A   1      42.235  21.787  27.875  1.00  0.00    -0.744 OA
ENDBRANCH  74  78
ENDBRANCH  47  71
BRANCH  59  82
ATOM     82  C   UNL A   1      45.195  30.980  29.320  1.00  0.00     0.023 A 
ATOM     83  C   UNL A   1      46.488  31.518  29.443  1.00  0.00     0.031 A 
ATOM     84  C   UNL A   1      44.256  31.698  28.560  1.00  0.00     0.131 A 
ATOM     85  C   UNL A   1      46.797  32.754  28.869  1.00  0.00     0.055 A 
ATOM     86  C   UNL A   1      44.592  32.894  27.920  1.00  0.00     0.041 A 
ATOM     87  F   UNL A   1      42.975  31.310  28.480  1.00  0.00    -0.206 F 
ATOM     88  C   UNL A   1      45.862  33.437  28.089  1.00  0.00     0.022 A 
BRANCH  85  89
ATOM     89  S   UNL A   1      48.361  33.572  29.271  1.00  0.00     0.124 S 
ATOM     90  O   UNL A   1      48.136  34.930  28.772  1.00  0.00    -0.237 OA
ATOM     91  O   UNL A   1      48.410  33.445  30.728  1.00  0.00    -0.237 OA
ATOM     92  O   UNL A   1      49.362  32.801  28.552  1.00  0.00    -0.744 OA
ENDBRANCH  85  89
ENDBRANCH  59  82
ENDBRANCH  33  34
ENDBRANCH  25  28
ENDBRANCH  23  24
ENDBRANCH  22  23
ENDBRANCH   1  22
TORSDOF 17
ENDMDL
MODEL 2
REMARK VINA RESULT:     -11.5      4.025      6.552
REMARK SMILES Nc1ccc2[nH]cc(C(=O)NCCCCCCNC(=O)c3ccc(-c4c5nc(c(-c6cc(S(=O)(=O)[O-])ccc6F)c6ccc([nH]6)c(-c6cc(S(=O)(=O)[O-])ccc6F)c6nc(c(-c7cc(S(=O)(=O)[O-])ccc7F)c7ccc4[nH]7)C=C6)C=C5)cc3)c2c1
REMARK SMILES IDX 15 1 14 2 13 3 12 4 11 5 9 6 10 7 8 9 2 10 3 11 85 12 4 13
REMARK SMILES IDX 84 14 5 15 6 16 7 17 1 19 16 22 17 23 18 24 19 25 20 27
REMARK SMILES IDX 21 28 22 29 83 30 23 31 82 32 24 33 25 34 26 35 76 36 27 37
REMARK SMILES IDX 81 38 75 39 77 40 28 41 80 42 74 43 73 44 29 46 61 47 41 48
REMARK SMILES IDX 60 49 42 50 45 51 59 52 78 53 43 54 44 55 58 57 79 58 46 59
REMARK SMILES IDX 30 60 31 61 39 62 32 63 38 64 40 65 37 66 33 67 34 68 35 69
REMARK SMILES IDX 36 70 62 71 63 72 71 73 64 74 70 75 72 76 69 77 65 78 66 79
REMARK SMILES IDX 67 80 68 81 47 82 48 83 56 84 49 85 55 86 57 87 54 88 50 89
REMARK SMILES IDX 51 90 52 91 53 92
REMARK H PARENT 11 8 6 18 1 20 1 21 18 26 77 45 45 56
REMARK Flexibility Score: inf
ROOT
ATOM      1  C   UNL A   1      36.441  31.548  32.871  1.00  0.00     0.002 C 
ENDROOT
BRANCH   1   2
ATOM      2  C   UNL A   1      37.723  30.708  32.895  1.00  0.00     0.002 C 
BRANCH   2   3
ATOM      3  C   UNL A   1      38.517  30.683  34.199  1.00  0.00     0.021 C 
BRANCH   3   4
ATOM      4  C   UNL A   1      39.810  31.483  34.235  1.00  0.00     0.116 C 
BRANCH   4   5
ATOM      5  N   UNL A   1      39.735  32.765  34.889  1.00  0.00    -0.352 N 
ATOM      6  C   UNL A   1      39.442  34.007  34.374  1.00  0.00     0.253 C 
ATOM      7  O   UNL A   1      39.459  34.946  35.176  1.00  0.00    -0.269 OA
ATOM      8  H   UNL A   1      39.921  32.750  35.855  1.00  0.00     0.163 HD
BRANCH   6   9
ATOM      9  C   UNL A   1      39.228  34.254  32.938  1.00  0.00     0.065 A 
ATOM     10  C   UNL A   1      41.974  34.052  30.227  1.00  0.00     0.032 A 
ATOM     11  C   UNL A   1      41.213  34.639  29.224  1.00  0.00     0.027 A 
ATOM     12  C   UNL A   1      41.359  33.724  31.442  1.00  0.00     0.036 A 
ATOM     13  C   UNL A   1      39.863  34.946  29.420  1.00  0.00     0.029 A 
ATOM     14  C   UNL A   1      40.052  34.173  31.750  1.00  0.00     0.014 A 
ATOM     15  C   UNL A   1      39.321  34.721  30.691  1.00  0.00     0.046 A 
ATOM     16  N   UNL A   1      38.048  34.942  31.149  1.00  0.00    -0.360 N 
ATOM     17  C   UNL A   1      37.982  34.679  32.484  1.00  0.00     0.097 A 
ATOM     18  H   UNL A   1      37.294  35.247  30.594  1.00  0.00     0.166 HD
BRANCH  10  19
ATOM     19  N   UNL A   1      43.305  33.738  30.013  1.00  0.00    -0.399 N 
ATOM     20  H   UNL A   1      43.814  34.203  29.310  1.00  0.00     0.156 HD
ATOM     21  H   UNL A   1      43.743  33.048  30.563  1.00  0.00     0.156 HD
ENDBRANCH  10  19
ENDBRANCH   6   9
ENDBRANCH   4   5
ENDBRANCH   3   4
ENDBRANCH   2   3
ENDBRANCH   1   2
BRANCH   1  22
ATOM     22  C   UNL A   1      35.570  31.477  31.611  1.00  0.00     0.021 C 
BRANCH  22  23
ATOM     23  C   UNL A   1      35.075  32.811  31.050  1.00  0.00     0.116 C 
BRANCH  23  24
ATOM     24  N   UNL A   1      34.883  32.833  29.617  1.00  0.00    -0.352 N 
ATOM     25  C   UNL A   1      35.460  32.204  28.550  1.00  0.00     0.251 C 
ATOM     26  H   UNL A   1      34.164  33.447  29.344  1.00  0.00     0.163 HD
ATOM     27  O   UNL A   1      34.917  32.401  27.459  1.00  0.00    -0.269 OA
BRANCH  25  28
ATOM     28  C   UNL A   1      36.694  31.375  28.603  1.00  0.00     0.039 A 
ATOM     29  C   UNL A   1      36.793  30.036  28.222  1.00  0.00     0.014 A 
ATOM     30  C   UNL A   1      37.839  32.009  29.125  1.00  0.00     0.014 A 
ATOM     31  C   UNL A   1      37.966  29.323  28.454  1.00  0.00     0.010 A 
ATOM     32  C   UNL A   1      39.022  31.307  29.336  1.00  0.00     0.010 A 
ATOM     33  C   UNL A   1      39.066  29.948  29.047  1.00  0.00    -0.014 A 
BRANCH  33  34
ATOM     34  C   UNL A   1      40.257  29.137  29.287  1.00  0.00     0.031 A 
ATOM     35  C   UNL A   1      40.482  28.737  30.703  1.00  0.00     0.074 A 
ATOM     36  C   UNL A   1      41.066  28.695  28.304  1.00  0.00     0.049 A 
ATOM     37  N   UNL A   1      41.432  29.105  31.500  1.00  0.00    -0.248 NA
ATOM     38  C   UNL A   1      39.449  27.914  31.344  1.00  0.00     0.031 C 
ATOM     39  C   UNL A   1      40.807  28.718  26.860  1.00  0.00     0.029 A 
ATOM     40  N   UNL A   1      42.252  28.025  28.397  1.00  0.00    -0.354 N 
ATOM     41  C   UNL A   1      41.226  28.409  32.694  1.00  0.00     0.074 A 
ATOM     42  C   UNL A   1      39.915  27.821  32.590  1.00  0.00     0.031 C 
ATOM     43  C   UNL A   1      41.675  27.887  26.241  1.00  0.00     0.029 A 
ATOM     44  C   UNL A   1      42.644  27.416  27.215  1.00  0.00     0.049 A 
ATOM     45  H   UNL A   1      42.778  27.977  29.226  1.00  0.00     0.167 HD
ATOM     46  C   UNL A   1      42.235  28.198  33.587  1.00  0.00     0.034 A 
ATOM     47  C   UNL A   1      43.657  26.534  27.053  1.00  0.00     0.034 A 
ATOM     48  C   UNL A   1      43.391  28.983  33.257  1.00  0.00     0.049 A 
ATOM     49  C   UNL A   1      44.597  26.667  28.184  1.00  0.00     0.074 A 
ATOM     50  C   UNL A   1      43.788  30.292  33.387  1.00  0.00     0.029 A 
ATOM     51  N   UNL A   1      44.259  28.370  32.392  1.00  0.00    -0.354 N 
ATOM     52  N   UNL A   1      45.363  27.703  28.381  1.00  0.00    -0.248 NA
ATOM     53  C   UNL A   1      44.482  25.754  29.316  1.00  0.00     0.031 C 
ATOM     54  C   UNL A   1      44.776  30.498  32.382  1.00  0.00     0.029 A 
ATOM     55  C   UNL A   1      44.961  29.304  31.681  1.00  0.00     0.049 A 
ATOM     56  H   UNL A   1      44.364  27.396  32.296  1.00  0.00     0.167 HD
ATOM     57  C   UNL A   1      45.448  27.806  29.756  1.00  0.00     0.074 A 
ATOM     58  C   UNL A   1      45.067  26.494  30.261  1.00  0.00     0.031 C 
ATOM     59  C   UNL A   1      45.511  29.023  30.366  1.00  0.00     0.034 A 
BRANCH  46  60
ATOM     60  C   UNL A   1      42.367  26.993  34.500  1.00  0.00     0.023 A 
ATOM     61  C   UNL A   1      43.104  25.845  34.160  1.00  0.00     0.031 A 
ATOM     62  C   UNL A   1      41.972  27.085  35.856  1.00  0.00     0.131 A 
ATOM     63  C   UNL A   1      43.441  24.877  35.118  1.00  0.00     0.055 A 
ATOM     64  C   UNL A   1      42.359  26.149  36.824  1.00  0.00     0.041 A 
ATOM     65  F   UNL A   1      41.246  28.124  36.299  1.00  0.00    -0.206 F 
ATOM     66  C   UNL A   1      43.107  25.039  36.459  1.00  0.00     0.022 A 
BRANCH  63  67
ATOM     67  S   UNL A   1      44.359  23.391  34.630  1.00  0.00     0.124 S 
ATOM     68  O   UNL A   1      43.442  22.770  33.681  1.00  0.00    -0.237 OA
ATOM     69  O   UNL A   1      45.572  23.968  34.055  1.00  0.00    -0.237 OA
ATOM     70  O   UNL A   1      44.550  22.681  35.891  1.00  0.00    -0.744 OA
ENDBRANCH  63  67
ENDBRANCH  46  60
BRANCH  47  71
ATOM     71  C   UNL A   1      43.654  25.340  26.181  1.00  0.00     0.023 A 
ATOM     72  C   UNL A   1      42.787  24.273  26.482  1.00  0.00     0.031 A 
ATOM     73  C   UNL A   1      44.690  25.100  25.265  1.00  0.00     0.131 A 
ATOM     74  C   UNL A   1      43.003  23.007  25.924  1.00  0.00     0.055 A 
ATOM     75  C   UNL A   1      44.893  23.839  24.695  1.00  0.00     0.041 A 
ATOM     76  F   UNL A   1      45.567  26.070  24.960  1.00  0.00    -0.206 F 
ATOM     77  C   UNL A   1      44.057  22.780  25.038  1.00  0.00     0.022 A 
BRANCH  74  78
ATOM     78  S   UNL A   1      41.970  21.599  26.416  1.00  0.00     0.124 S 
ATOM     79  O   UNL A   1      40.627  22.078  26.098  1.00  0.00    -0.237 OA
ATOM     80  O   UNL A   1      42.482  20.541  25.553  1.00  0.00    -0.237 OA
ATOM     81  O   UNL A   1      42.252  21.450  27.841  1.00  0.00    -0.744 OA
ENDBRANCH  74  78
ENDBRANCH  47  71
BRANCH  59  82
ATOM     82  C   UNL A   1      45.973  30.208  29.564  1.00  0.00     0.023 A 
ATOM     83  C   UNL A   1      45.040  30.772  28.676  1.00  0.00     0.031 A 
ATOM     84  C   UNL A   1      47.300  30.668  29.500  1.00  0.00     0.131 A 
ATOM     85  C   UNL A   1      45.446  31.717  27.730  1.00  0.00     0.055 A 
ATOM     86  C   UNL A   1      47.684  31.673  28.607  1.00  0.00     0.041 A 
ATOM     87  F   UNL A   1      48.271  30.111  30.236  1.00  0.00    -0.206 F 
ATOM     88  C   UNL A   1      46.760  32.188  27.703  1.00  0.00     0.022 A 
BRANCH  85  89
ATOM     89  S   UNL A   1      44.313  32.221  26.411  1.00  0.00     0.124 S 
ATOM     90  O   UNL A   1      45.224  32.430  25.285  1.00  0.00    -0.237 OA
ATOM     91  O   UNL A   1      43.437  31.054  26.295  1.00  0.00    -0.237 OA
ATOM     92  O   UNL A   1      43.674  33.420  26.929  1.00  0.00    -0.744 OA
ENDBRANCH  85  89
ENDBRANCH  59  82
ENDBRANCH  33  34
ENDBRANCH  25  28
ENDBRANCH  23  24
ENDBRANCH  22  23
ENDBRANCH   1  22
TORSDOF 17
ENDMDL
MODEL 3
REMARK VINA RESULT:     -11.4      3.483      8.678
REMARK SMILES Nc1ccc2[nH]cc(C(=O)NCCCCCCNC(=O)c3ccc(-c4c5nc(c(-c6cc(S(=O)(=O)[O-])ccc6F)c6ccc([nH]6)c(-c6cc(S(=O)(=O)[O-])ccc6F)c6nc(c(-c7cc(S(=O)(=O)[O-])ccc7F)c7ccc4[nH]7)C=C6)C=C5)cc3)c2c1
REMARK SMILES IDX 15 1 14 2 13 3 12 4 11 5 9 6 10 7 8 9 2 10 3 11 85 12 4 13
REMARK SMILES IDX 84 14 5 15 6 16 7 17 1 19 16 22 17 23 18 24 19 25 20 27
REMARK SMILES IDX 21 28 22 29 83 30 23 31 82 32 24 33 25 34 26 35 76 36 27 37
REMARK SMILES IDX 81 38 75 39 77 40 28 41 80 42 74 43 73 44 29 46 61 47 41 48
REMARK SMILES IDX 60 49 42 50 45 51 59 52 78 53 43 54 44 55 58 57 79 58 46 59
REMARK SMILES IDX 30 60 31 61 39 62 32 63 38 64 40 65 37 66 33 67 34 68 35 69
REMARK SMILES IDX 36 70 62 71 63 72 71 73 64 74 70 75 72 76 69 77 65 78 66 79
REMARK SMILES IDX 67 80 68 81 47 82 48 83 56 84 49 85 55 86 57 87 54 88 50 89
REMARK SMILES IDX 51 90 52 91 53 92
REMARK H PARENT 11 8 6 18 1 20 1 21 18 26 77 45 45 56
REMARK Flexibility Score: inf
ROOT
ATOM      1  C   UNL A   1      36.833  23.172  24.558  1.00  0.00     0.002 C 
ENDROOT
BRANCH   1   2
ATOM      2  C   UNL A   1      35.606  23.107  23.641  1.00  0.00     0.002 C 
BRANCH   2   3
ATOM      3  C   UNL A   1      34.233  23.185  24.304  1.00  0.00     0.021 C 
BRANCH   3   4
ATOM      4  C   UNL A   1      34.114  24.062  25.540  1.00  0.00     0.116 C 
BRANCH   4   5
ATOM      5  N   UNL A   1      32.978  23.799  26.387  1.00  0.00    -0.352 N 
ATOM      6  C   UNL A   1      31.783  24.471  26.500  1.00  0.00     0.253 C 
ATOM      7  O   UNL A   1      30.983  24.023  27.327  1.00  0.00    -0.269 OA
ATOM      8  H   UNL A   1      33.071  23.016  26.977  1.00  0.00     0.163 HD
BRANCH   6   9
ATOM      9  C   UNL A   1      31.488  25.719  25.775  1.00  0.00     0.065 A 
ATOM     10  C   UNL A   1      33.548  28.976  26.053  1.00  0.00     0.032 A 
ATOM     11  C   UNL A   1      32.624  29.774  25.391  1.00  0.00     0.027 A 
ATOM     12  C   UNL A   1      33.349  27.590  26.085  1.00  0.00     0.036 A 
ATOM     13  C   UNL A   1      31.483  29.226  24.796  1.00  0.00     0.029 A 
ATOM     14  C   UNL A   1      32.129  27.011  25.657  1.00  0.00     0.014 A 
ATOM     15  C   UNL A   1      31.255  27.854  24.963  1.00  0.00     0.046 A 
ATOM     16  N   UNL A   1      30.224  27.078  24.502  1.00  0.00    -0.360 N 
ATOM     17  C   UNL A   1      30.344  25.810  24.986  1.00  0.00     0.097 A 
ATOM     18  H   UNL A   1      29.503  27.391  23.910  1.00  0.00     0.166 HD
BRANCH  10  19
ATOM     19  N   UNL A   1      34.682  29.530  26.621  1.00  0.00    -0.399 N 
ATOM     20  H   UNL A   1      35.186  30.223  26.137  1.00  0.00     0.156 HD
ATOM     21  H   UNL A   1      34.985  29.231  27.509  1.00  0.00     0.156 HD
ENDBRANCH  10  19
ENDBRANCH   6   9
ENDBRANCH   4   5
ENDBRANCH   3   4
ENDBRANCH   2   3
ENDBRANCH   1   2
BRANCH   1  22
ATOM     22  C   UNL A   1      37.670  21.896  24.715  1.00  0.00     0.021 C 
BRANCH  22  23
ATOM     23  C   UNL A   1      38.474  21.766  26.010  1.00  0.00     0.116 C 
BRANCH  23  24
ATOM     24  N   UNL A   1      39.909  21.790  25.838  1.00  0.00    -0.352 N 
ATOM     25  C   UNL A   1      40.925  22.599  26.261  1.00  0.00     0.251 C 
ATOM     26  H   UNL A   1      40.233  21.043  25.284  1.00  0.00     0.163 HD
ATOM     27  O   UNL A   1      42.065  22.205  25.998  1.00  0.00    -0.269 OA
BRANCH  25  28
ATOM     28  C   UNL A   1      40.754  23.913  26.939  1.00  0.00     0.039 A 
ATOM     29  C   UNL A   1      39.769  24.858  26.649  1.00  0.00     0.014 A 
ATOM     30  C   UNL A   1      41.709  24.222  27.928  1.00  0.00     0.014 A 
ATOM     31  C   UNL A   1      39.799  26.113  27.250  1.00  0.00     0.010 A 
ATOM     32  C   UNL A   1      41.729  25.467  28.550  1.00  0.00     0.010 A 
ATOM     33  C   UNL A   1      40.801  26.431  28.171  1.00  0.00    -0.014 A 
BRANCH  33  34
ATOM     34  C   UNL A   1      40.792  27.773  28.746  1.00  0.00     0.031 A 
ATOM     35  C   UNL A   1      41.803  28.713  28.191  1.00  0.00     0.074 A 
ATOM     36  C   UNL A   1      39.885  28.187  29.654  1.00  0.00     0.049 A 
ATOM     37  N   UNL A   1      42.830  29.229  28.783  1.00  0.00    -0.248 NA
ATOM     38  C   UNL A   1      41.724  29.021  26.757  1.00  0.00     0.031 C 
ATOM     39  C   UNL A   1      38.647  27.506  30.049  1.00  0.00     0.029 A 
ATOM     40  N   UNL A   1      39.825  29.366  30.339  1.00  0.00    -0.354 N 
ATOM     41  C   UNL A   1      43.426  30.083  27.852  1.00  0.00     0.074 A 
ATOM     42  C   UNL A   1      42.798  29.794  26.588  1.00  0.00     0.031 C 
ATOM     43  C   UNL A   1      37.853  28.380  30.707  1.00  0.00     0.029 A 
ATOM     44  C   UNL A   1      38.592  29.611  30.923  1.00  0.00     0.049 A 
ATOM     45  H   UNL A   1      40.587  29.984  30.411  1.00  0.00     0.167 HD
ATOM     46  C   UNL A   1      44.242  31.109  28.234  1.00  0.00     0.034 A 
ATOM     47  C   UNL A   1      38.178  30.767  31.491  1.00  0.00     0.034 A 
ATOM     48  C   UNL A   1      44.582  31.008  29.625  1.00  0.00     0.049 A 
ATOM     49  C   UNL A   1      39.359  31.579  31.848  1.00  0.00     0.074 A 
ATOM     50  C   UNL A   1      45.445  30.268  30.398  1.00  0.00     0.029 A 
ATOM     51  N   UNL A   1      43.697  31.625  30.468  1.00  0.00    -0.354 N 
ATOM     52  N   UNL A   1      40.201  31.269  32.792  1.00  0.00    -0.248 NA
ATOM     53  C   UNL A   1      39.805  32.625  30.934  1.00  0.00     0.031 C 
ATOM     54  C   UNL A   1      44.892  30.274  31.709  1.00  0.00     0.029 A 
ATOM     55  C   UNL A   1      43.717  31.030  31.698  1.00  0.00     0.049 A 
ATOM     56  H   UNL A   1      43.127  32.391  30.223  1.00  0.00     0.167 HD
ATOM     57  C   UNL A   1      41.417  31.735  32.331  1.00  0.00     0.074 A 
ATOM     58  C   UNL A   1      41.085  32.716  31.307  1.00  0.00     0.031 C 
ATOM     59  C   UNL A   1      42.572  31.061  32.592  1.00  0.00     0.034 A 
BRANCH  46  60
ATOM     60  C   UNL A   1      44.397  32.430  27.504  1.00  0.00     0.023 A 
ATOM     61  C   UNL A   1      43.670  33.585  27.838  1.00  0.00     0.031 A 
ATOM     62  C   UNL A   1      45.487  32.628  26.622  1.00  0.00     0.131 A 
ATOM     63  C   UNL A   1      44.029  34.849  27.345  1.00  0.00     0.055 A 
ATOM     64  C   UNL A   1      45.881  33.897  26.177  1.00  0.00     0.041 A 
ATOM     65  F   UNL A   1      46.245  31.598  26.213  1.00  0.00    -0.206 F 
ATOM     66  C   UNL A   1      45.155  35.020  26.546  1.00  0.00     0.022 A 
BRANCH  63  67
ATOM     67  S   UNL A   1      43.040  36.309  27.769  1.00  0.00     0.124 S 
ATOM     68  O   UNL A   1      44.011  37.131  28.482  1.00  0.00    -0.237 OA
ATOM     69  O   UNL A   1      42.646  36.793  26.448  1.00  0.00    -0.237 OA
ATOM     70  O   UNL A   1      41.954  35.760  28.576  1.00  0.00    -0.744 OA
ENDBRANCH  63  67
ENDBRANCH  46  60
BRANCH  47  71
ATOM     71  C   UNL A   1      36.827  31.361  31.395  1.00  0.00     0.023 A 
ATOM     72  C   UNL A   1      36.308  31.686  30.128  1.00  0.00     0.031 A 
ATOM     73  C   UNL A   1      36.182  31.894  32.522  1.00  0.00     0.131 A 
ATOM     74  C   UNL A   1      35.224  32.563  30.013  1.00  0.00     0.055 A 
ATOM     75  C   UNL A   1      35.086  32.756  32.404  1.00  0.00     0.041 A 
ATOM     76  F   UNL A   1      36.647  31.644  33.755  1.00  0.00    -0.206 F 
ATOM     77  C   UNL A   1      34.613  33.108  31.143  1.00  0.00     0.022 A 
BRANCH  74  78
ATOM     78  S   UNL A   1      34.641  33.091  28.378  1.00  0.00     0.124 S 
ATOM     79  O   UNL A   1      34.019  34.380  28.675  1.00  0.00    -0.237 OA
ATOM     80  O   UNL A   1      35.888  33.153  27.624  1.00  0.00    -0.237 OA
ATOM     81  O   UNL A   1      33.713  32.034  27.989  1.00  0.00    -0.744 OA
ENDBRANCH  74  78
ENDBRANCH  47  71
BRANCH  59  82
ATOM     82  C   UNL A   1      42.604  30.113  33.759  1.00  0.00     0.023 A 
ATOM     83  C   UNL A   1      43.164  30.601  34.953  1.00  0.00     0.031 A 
ATOM     84  C   UNL A   1      42.292  28.744  33.692  1.00  0.00     0.131 A 
ATOM     85  C   UNL A   1      43.446  29.729  36.009  1.00  0.00     0.055 A 
ATOM     86  C   UNL A   1      42.501  27.891  34.780  1.00  0.00     0.041 A 
ATOM     87  F   UNL A   1      41.855  28.179  32.558  1.00  0.00    -0.206 F 
ATOM     88  C   UNL A   1      43.099  28.379  35.938  1.00  0.00     0.022 A 
BRANCH  85  89
ATOM     89  S   UNL A   1      44.424  30.304  37.420  1.00  0.00     0.124 S 
ATOM     90  O   UNL A   1      45.309  31.292  36.800  1.00  0.00    -0.237 OA
ATOM     91  O   UNL A   1      43.395  30.857  38.302  1.00  0.00    -0.237 OA
ATOM     92  O   UNL A   1      45.077  29.104  37.915  1.00  0.00    -0.744 OA
ENDBRANCH  85  89
ENDBRANCH  59  82
ENDBRANCH  33  34
ENDBRANCH  25  28
ENDBRANCH  23  24
ENDBRANCH  22  23
ENDBRANCH   1  22
TORSDOF 17
ENDMDL
