MODEL 1
REMARK VINA RESULT:     -12.6      0.000      0.000
REMARK SMILES O=C(NCCCCCCNC(=O)c1cccc2c(C(F)(F)F)cc(Br)nc12)c1ccc(-c2c3nc(c(-c4cc(S(=O)(=O)[O-])ccc4F)c4ccc([nH]4)c(-c4cc(S(=O)(=O)[O-])ccc4F)c4nc(c(-c5cc(S(=O)(=O)[O-])ccc5F)c5ccc2[nH]5)C=C4)C=C3)cc1
REMARK SMILES IDX 5 1 4 2 3 3 1 4 2 5 28 7 29 8 90 9 30 10 89 11 31 12 32 13
REMARK SMILES IDX 33 14 83 15 34 16 88 17 82 18 84 19 35 20 87 21 81 22 80 23
REMARK SMILES IDX 36 25 68 26 48 27 67 28 49 29 52 30 66 31 85 32 50 33 51 34
REMARK SMILES IDX 65 36 86 37 53 38 37 39 38 40 46 41 39 42 45 43 47 44 44 45
REMARK SMILES IDX 40 46 41 47 42 48 43 49 69 50 70 51 78 52 71 53 77 54 79 55
REMARK SMILES IDX 76 56 72 57 73 58 74 59 75 60 54 61 55 62 63 63 56 64 62 65
REMARK SMILES IDX 64 66 61 67 57 68 58 69 59 70 60 71 6 72 7 73 8 74 9 75
REMARK SMILES IDX 10 76 11 77 12 79 13 80 14 81 27 82 15 83 17 84 26 85 16 86
REMARK SMILES IDX 18 87 24 88 23 89 25 90 19 91 20 92 21 93 22 94
REMARK H PARENT 3 6 84 24 52 35 10 78
REMARK Flexibility Score: inf
ROOT
ATOM      1  C   UNL A   1      35.081  21.923  25.544  1.00  0.00     0.021 C 
ENDROOT
BRANCH   1   2
ATOM      2  C   UNL A   1      36.471  22.111  24.941  1.00  0.00     0.116 C 
BRANCH   2   3
ATOM      3  N   UNL A   1      37.350  20.991  25.225  1.00  0.00    -0.352 N 
ATOM      4  O   UNL A   1      39.259  19.925  25.730  1.00  0.00    -0.269 OA
ATOM      5  C   UNL A   1      38.623  20.979  25.736  1.00  0.00     0.251 C 
ATOM      6  H   UNL A   1      36.975  20.105  25.019  1.00  0.00     0.163 HD
BRANCH   5   7
ATOM      7  C   UNL A   1      39.240  22.204  26.295  1.00  0.00     0.039 A 
ATOM      8  C   UNL A   1      38.720  23.448  25.914  1.00  0.00     0.014 A 
ATOM      9  C   UNL A   1      40.380  22.149  27.103  1.00  0.00     0.014 A 
ATOM     10  C   UNL A   1      39.333  24.630  26.344  1.00  0.00     0.010 A 
ATOM     11  C   UNL A   1      40.960  23.327  27.574  1.00  0.00     0.010 A 
ATOM     12  C   UNL A   1      40.462  24.577  27.173  1.00  0.00    -0.014 A 
BRANCH  12  13
ATOM     13  C   UNL A   1      41.208  25.806  27.549  1.00  0.00     0.031 A 
ATOM     14  C   UNL A   1      40.518  26.852  28.383  1.00  0.00     0.074 A 
ATOM     15  C   UNL A   1      42.463  26.010  27.108  1.00  0.00     0.049 A 
ATOM     16  N   UNL A   1      40.921  28.053  28.701  1.00  0.00    -0.248 NA
ATOM     17  C   UNL A   1      39.187  26.506  28.913  1.00  0.00     0.031 C 
ATOM     18  C   UNL A   1      43.232  25.068  26.297  1.00  0.00     0.029 A 
ATOM     19  N   UNL A   1      43.306  27.084  27.264  1.00  0.00    -0.354 N 
ATOM     20  C   UNL A   1      39.887  28.615  29.442  1.00  0.00     0.074 A 
ATOM     21  C   UNL A   1      38.824  27.638  29.498  1.00  0.00     0.031 C 
ATOM     22  C   UNL A   1      44.432  25.606  26.023  1.00  0.00     0.029 A 
ATOM     23  C   UNL A   1      44.504  26.949  26.598  1.00  0.00     0.049 A 
ATOM     24  H   UNL A   1      43.076  27.876  27.801  1.00  0.00     0.167 HD
ATOM     25  C   UNL A   1      39.839  29.830  30.036  1.00  0.00     0.034 A 
ATOM     26  C   UNL A   1      45.530  27.814  26.449  1.00  0.00     0.034 A 
ATOM     27  C   UNL A   1      40.924  30.773  30.013  1.00  0.00     0.049 A 
ATOM     28  C   UNL A   1      45.455  29.162  27.124  1.00  0.00     0.074 A 
ATOM     29  C   UNL A   1      40.986  32.015  30.620  1.00  0.00     0.029 A 
ATOM     30  N   UNL A   1      42.137  30.579  29.369  1.00  0.00    -0.354 N 
ATOM     31  N   UNL A   1      44.490  29.660  27.862  1.00  0.00    -0.248 NA
ATOM     32  C   UNL A   1      46.602  30.068  26.959  1.00  0.00     0.031 C 
ATOM     33  C   UNL A   1      42.217  32.588  30.310  1.00  0.00     0.029 A 
ATOM     34  C   UNL A   1      42.949  31.683  29.557  1.00  0.00     0.049 A 
ATOM     35  H   UNL A   1      42.383  29.776  28.856  1.00  0.00     0.167 HD
ATOM     36  C   UNL A   1      44.927  30.917  28.273  1.00  0.00     0.074 A 
ATOM     37  C   UNL A   1      46.248  31.101  27.715  1.00  0.00     0.031 C 
ATOM     38  C   UNL A   1      44.286  31.835  29.038  1.00  0.00     0.034 A 
BRANCH  25  39
ATOM     39  C   UNL A   1      38.597  30.221  30.792  1.00  0.00     0.023 A 
ATOM     40  C   UNL A   1      37.594  30.975  30.153  1.00  0.00     0.031 A 
ATOM     41  C   UNL A   1      38.473  29.976  32.170  1.00  0.00     0.131 A 
ATOM     42  C   UNL A   1      36.531  31.492  30.902  1.00  0.00     0.055 A 
ATOM     43  C   UNL A   1      37.391  30.461  32.905  1.00  0.00     0.041 A 
ATOM     44  F   UNL A   1      39.405  29.261  32.821  1.00  0.00    -0.206 F 
ATOM     45  C   UNL A   1      36.420  31.233  32.273  1.00  0.00     0.022 A 
BRANCH  42  46
ATOM     46  S   UNL A   1      35.280  32.561  30.140  1.00  0.00     0.124 S 
ATOM     47  O   UNL A   1      34.828  31.743  29.017  1.00  0.00    -0.237 OA
ATOM     48  O   UNL A   1      34.316  32.721  31.224  1.00  0.00    -0.237 OA
ATOM     49  O   UNL A   1      36.023  33.760  29.770  1.00  0.00    -0.744 OA
ENDBRANCH  42  46
ENDBRANCH  25  39
BRANCH  26  50
ATOM     50  C   UNL A   1      46.726  27.401  25.656  1.00  0.00     0.023 A 
ATOM     51  C   UNL A   1      46.928  27.873  24.346  1.00  0.00     0.031 A 
ATOM     52  C   UNL A   1      47.639  26.462  26.165  1.00  0.00     0.131 A 
ATOM     53  C   UNL A   1      47.981  27.366  23.574  1.00  0.00     0.055 A 
ATOM     54  C   UNL A   1      48.725  26.007  25.415  1.00  0.00     0.041 A 
ATOM     55  F   UNL A   1      47.484  25.972  27.405  1.00  0.00    -0.206 F 
ATOM     56  C   UNL A   1      48.891  26.447  24.106  1.00  0.00     0.022 A 
BRANCH  53  57
ATOM     57  S   UNL A   1      48.128  27.781  21.812  1.00  0.00     0.124 S 
ATOM     58  O   UNL A   1      46.838  28.404  21.539  1.00  0.00    -0.237 OA
ATOM     59  O   UNL A   1      49.278  28.682  21.809  1.00  0.00    -0.237 OA
ATOM     60  O   UNL A   1      48.356  26.490  21.173  1.00  0.00    -0.744 OA
ENDBRANCH  53  57
ENDBRANCH  26  50
BRANCH  38  61
ATOM     61  C   UNL A   1      44.981  33.132  29.371  1.00  0.00     0.023 A 
ATOM     62  C   UNL A   1      44.932  34.202  28.457  1.00  0.00     0.031 A 
ATOM     63  C   UNL A   1      45.853  33.228  30.468  1.00  0.00     0.131 A 
ATOM     64  C   UNL A   1      45.787  35.298  28.623  1.00  0.00     0.055 A 
ATOM     65  C   UNL A   1      46.670  34.344  30.654  1.00  0.00     0.041 A 
ATOM     66  F   UNL A   1      45.942  32.225  31.357  1.00  0.00    -0.206 F 
ATOM     67  C   UNL A   1      46.652  35.377  29.719  1.00  0.00     0.022 A 
BRANCH  64  68
ATOM     68  S   UNL A   1      45.878  36.610  27.374  1.00  0.00     0.124 S 
ATOM     69  O   UNL A   1      44.475  37.003  27.244  1.00  0.00    -0.237 OA
ATOM     70  O   UNL A   1      46.741  37.592  28.023  1.00  0.00    -0.237 OA
ATOM     71  O   UNL A   1      46.445  35.947  26.205  1.00  0.00    -0.744 OA
ENDBRANCH  64  68
ENDBRANCH  38  61
ENDBRANCH  12  13
ENDBRANCH   5   7
ENDBRANCH   2   3
ENDBRANCH   1   2
BRANCH   1  72
ATOM     72  C   UNL A   1      34.232  20.810  24.922  1.00  0.00     0.002 C 
BRANCH  72  73
ATOM     73  C   UNL A   1      32.828  21.214  24.464  1.00  0.00     0.002 C 
BRANCH  73  74
ATOM     74  C   UNL A   1      32.724  21.807  23.054  1.00  0.00     0.021 C 
BRANCH  74  75
ATOM     75  C   UNL A   1      31.925  23.104  22.938  1.00  0.00     0.116 C 
BRANCH  75  76
ATOM     76  N   UNL A   1      32.494  24.028  21.976  1.00  0.00    -0.352 N 
ATOM     77  C   UNL A   1      33.073  25.255  22.190  1.00  0.00     0.253 C 
ATOM     78  H   UNL A   1      32.462  23.734  21.036  1.00  0.00     0.163 HD
ATOM     79  O   UNL A   1      33.547  25.889  21.249  1.00  0.00    -0.269 OA
BRANCH  77  80
ATOM     80  C   UNL A   1      33.207  25.768  23.567  1.00  0.00     0.066 A 
ATOM     81  C   UNL A   1      34.132  25.130  24.406  1.00  0.00     0.016 A 
ATOM     82  C   UNL A   1      32.479  26.898  23.961  1.00  0.00     0.085 A 
ATOM     83  C   UNL A   1      34.329  25.608  25.691  1.00  0.00     0.002 A 
ATOM     84  C   UNL A   1      32.711  27.406  25.265  1.00  0.00     0.013 A 
ATOM     85  N   UNL A   1      31.581  27.479  23.135  1.00  0.00    -0.240 NA
ATOM     86  C   UNL A   1      33.629  26.735  26.113  1.00  0.00     0.011 A 
ATOM     87  C   UNL A   1      32.007  28.575  25.658  1.00  0.00     0.068 A 
ATOM     88  C   UNL A   1      30.920  28.577  23.532  1.00  0.00     0.107 A 
ATOM     89  C   UNL A   1      31.100  29.160  24.767  1.00  0.00     0.049 A 
ATOM     90  Br  UNL A   1      29.691  29.357  22.318  1.00  0.00    -0.029 Br
BRANCH  87  91
ATOM     91  C   UNL A   1      32.219  29.219  27.003  1.00  0.00     0.417 C 
ATOM     92  F   UNL A   1      33.519  29.547  27.234  1.00  0.00    -0.166 F 
ATOM     93  F   UNL A   1      31.506  30.371  27.153  1.00  0.00    -0.166 F 
ATOM     94  F   UNL A   1      31.849  28.426  28.049  1.00  0.00    -0.166 F 
ENDBRANCH  87  91
ENDBRANCH  77  80
ENDBRANCH  75  76
ENDBRANCH  74  75
ENDBRANCH  73  74
ENDBRANCH  72  73
ENDBRANCH   1  72
TORSDOF 17
ENDMDL
MODEL 2
REMARK VINA RESULT:     -12.5      5.310     10.114
REMARK SMILES O=C(NCCCCCCNC(=O)c1cccc2c(C(F)(F)F)cc(Br)nc12)c1ccc(-c2c3nc(c(-c4cc(S(=O)(=O)[O-])ccc4F)c4ccc([nH]4)c(-c4cc(S(=O)(=O)[O-])ccc4F)c4nc(c(-c5cc(S(=O)(=O)[O-])ccc5F)c5ccc2[nH]5)C=C4)C=C3)cc1
REMARK SMILES IDX 5 1 4 2 3 3 1 4 2 5 28 7 29 8 90 9 30 10 89 11 31 12 32 13
REMARK SMILES IDX 33 14 83 15 34 16 88 17 82 18 84 19 35 20 87 21 81 22 80 23
REMARK SMILES IDX 36 25 68 26 48 27 67 28 49 29 52 30 66 31 85 32 50 33 51 34
REMARK SMILES IDX 65 36 86 37 53 38 37 39 38 40 46 41 39 42 45 43 47 44 44 45
REMARK SMILES IDX 40 46 41 47 42 48 43 49 69 50 70 51 78 52 71 53 77 54 79 55
REMARK SMILES IDX 76 56 72 57 73 58 74 59 75 60 54 61 55 62 63 63 56 64 62 65
REMARK SMILES IDX 64 66 61 67 57 68 58 69 59 70 60 71 6 72 7 73 8 74 9 75
REMARK SMILES IDX 10 76 11 77 12 79 13 80 14 81 27 82 15 83 17 84 26 85 16 86
REMARK SMILES IDX 18 87 24 88 23 89 25 90 19 91 20 92 21 93 22 94
REMARK H PARENT 3 6 84 24 52 35 10 78
REMARK Flexibility Score: inf
ROOT
ATOM      1  C   UNL A   1      31.420  28.395  25.862  1.00  0.00     0.021 C 
ENDROOT
BRANCH   1   2
ATOM      2  C   UNL A   1      32.680  29.244  26.018  1.00  0.00     0.116 C 
BRANCH   2   3
ATOM      3  N   UNL A   1      32.375  30.631  26.315  1.00  0.00    -0.352 N 
ATOM      4  O   UNL A   1      32.519  32.611  27.361  1.00  0.00    -0.269 OA
ATOM      5  C   UNL A   1      33.049  31.533  27.099  1.00  0.00     0.251 C 
ATOM      6  H   UNL A   1      31.559  30.979  25.889  1.00  0.00     0.163 HD
BRANCH   5   7
ATOM      7  C   UNL A   1      34.399  31.232  27.630  1.00  0.00     0.039 A 
ATOM      8  C   UNL A   1      34.669  29.930  28.071  1.00  0.00     0.014 A 
ATOM      9  C   UNL A   1      35.364  32.231  27.792  1.00  0.00     0.014 A 
ATOM     10  C   UNL A   1      35.899  29.629  28.667  1.00  0.00     0.010 A 
ATOM     11  C   UNL A   1      36.609  31.919  28.338  1.00  0.00     0.010 A 
ATOM     12  C   UNL A   1      36.876  30.624  28.809  1.00  0.00    -0.014 A 
BRANCH  12  13
ATOM     13  C   UNL A   1      38.143  30.369  29.542  1.00  0.00     0.031 A 
ATOM     14  C   UNL A   1      39.172  29.456  28.928  1.00  0.00     0.074 A 
ATOM     15  C   UNL A   1      38.351  30.901  30.761  1.00  0.00     0.049 A 
ATOM     16  N   UNL A   1      40.271  28.981  29.450  1.00  0.00    -0.248 NA
ATOM     17  C   UNL A   1      38.916  29.002  27.550  1.00  0.00     0.031 C 
ATOM     18  C   UNL A   1      37.429  31.799  31.454  1.00  0.00     0.029 A 
ATOM     19  N   UNL A   1      39.395  30.748  31.642  1.00  0.00    -0.354 N 
ATOM     20  C   UNL A   1      40.823  28.154  28.479  1.00  0.00     0.074 A 
ATOM     21  C   UNL A   1      39.922  28.163  27.349  1.00  0.00     0.031 C 
ATOM     22  C   UNL A   1      37.945  32.115  32.653  1.00  0.00     0.029 A 
ATOM     23  C   UNL A   1      39.212  31.408  32.837  1.00  0.00     0.049 A 
ATOM     24  H   UNL A   1      40.197  30.216  31.439  1.00  0.00     0.167 HD
ATOM     25  C   UNL A   1      41.986  27.464  28.520  1.00  0.00     0.034 A 
ATOM     26  C   UNL A   1      39.965  31.423  33.957  1.00  0.00     0.034 A 
ATOM     27  C   UNL A   1      42.897  27.502  29.632  1.00  0.00     0.049 A 
ATOM     28  C   UNL A   1      41.261  30.648  33.979  1.00  0.00     0.074 A 
ATOM     29  C   UNL A   1      44.122  26.869  29.752  1.00  0.00     0.029 A 
ATOM     30  N   UNL A   1      42.699  28.220  30.802  1.00  0.00    -0.354 N 
ATOM     31  N   UNL A   1      41.794  29.909  33.034  1.00  0.00    -0.248 NA
ATOM     32  C   UNL A   1      42.066  30.708  35.209  1.00  0.00     0.031 C 
ATOM     33  C   UNL A   1      44.644  27.169  31.008  1.00  0.00     0.029 A 
ATOM     34  C   UNL A   1      43.774  28.036  31.652  1.00  0.00     0.049 A 
ATOM     35  H   UNL A   1      41.912  28.777  30.998  1.00  0.00     0.167 HD
ATOM     36  C   UNL A   1      43.005  29.446  33.541  1.00  0.00     0.074 A 
ATOM     37  C   UNL A   1      43.137  29.997  34.872  1.00  0.00     0.031 C 
ATOM     38  C   UNL A   1      43.919  28.633  32.958  1.00  0.00     0.034 A 
BRANCH  25  39
ATOM     39  C   UNL A   1      42.378  26.625  27.333  1.00  0.00     0.023 A 
ATOM     40  C   UNL A   1      42.041  25.259  27.296  1.00  0.00     0.031 A 
ATOM     41  C   UNL A   1      43.201  27.138  26.316  1.00  0.00     0.131 A 
ATOM     42  C   UNL A   1      42.560  24.443  26.284  1.00  0.00     0.055 A 
ATOM     43  C   UNL A   1      43.684  26.329  25.288  1.00  0.00     0.041 A 
ATOM     44  F   UNL A   1      43.547  28.436  26.310  1.00  0.00    -0.206 F 
ATOM     45  C   UNL A   1      43.374  24.972  25.276  1.00  0.00     0.022 A 
BRANCH  42  46
ATOM     46  S   UNL A   1      42.243  22.658  26.265  1.00  0.00     0.124 S 
ATOM     47  O   UNL A   1      40.784  22.610  26.303  1.00  0.00    -0.237 OA
ATOM     48  O   UNL A   1      42.849  22.255  25.000  1.00  0.00    -0.237 OA
ATOM     49  O   UNL A   1      42.908  22.171  27.469  1.00  0.00    -0.744 OA
ENDBRANCH  42  46
ENDBRANCH  25  39
BRANCH  26  50
ATOM     50  C   UNL A   1      39.519  32.235  35.128  1.00  0.00     0.023 A 
ATOM     51  C   UNL A   1      38.867  31.636  36.222  1.00  0.00     0.031 A 
ATOM     52  C   UNL A   1      39.662  33.634  35.132  1.00  0.00     0.131 A 
ATOM     53  C   UNL A   1      38.337  32.435  37.243  1.00  0.00     0.055 A 
ATOM     54  C   UNL A   1      39.188  34.421  36.183  1.00  0.00     0.041 A 
ATOM     55  F   UNL A   1      40.265  34.253  34.106  1.00  0.00    -0.206 F 
ATOM     56  C   UNL A   1      38.507  33.824  37.238  1.00  0.00     0.022 A 
BRANCH  53  57
ATOM     57  S   UNL A   1      37.294  31.714  38.543  1.00  0.00     0.124 S 
ATOM     58  O   UNL A   1      38.141  31.851  39.722  1.00  0.00    -0.237 OA
ATOM     59  O   UNL A   1      36.119  32.581  38.504  1.00  0.00    -0.237 OA
ATOM     60  O   UNL A   1      37.067  30.348  38.082  1.00  0.00    -0.744 OA
ENDBRANCH  53  57
ENDBRANCH  26  50
BRANCH  38  61
ATOM     61  C   UNL A   1      45.181  28.285  33.707  1.00  0.00     0.023 A 
ATOM     62  C   UNL A   1      45.173  27.216  34.624  1.00  0.00     0.031 A 
ATOM     63  C   UNL A   1      46.303  29.130  33.673  1.00  0.00     0.131 A 
ATOM     64  C   UNL A   1      46.241  27.058  35.516  1.00  0.00     0.055 A 
ATOM     65  C   UNL A   1      47.385  28.939  34.534  1.00  0.00     0.041 A 
ATOM     66  F   UNL A   1      46.348  30.169  32.824  1.00  0.00    -0.206 F 
ATOM     67  C   UNL A   1      47.349  27.910  35.472  1.00  0.00     0.022 A 
BRANCH  64  68
ATOM     68  S   UNL A   1      46.186  25.803  36.826  1.00  0.00     0.124 S 
ATOM     69  O   UNL A   1      44.769  25.807  37.190  1.00  0.00    -0.237 OA
ATOM     70  O   UNL A   1      46.645  24.608  36.125  1.00  0.00    -0.237 OA
ATOM     71  O   UNL A   1      47.088  26.321  37.849  1.00  0.00    -0.744 OA
ENDBRANCH  64  68
ENDBRANCH  38  61
ENDBRANCH  12  13
ENDBRANCH   5   7
ENDBRANCH   2   3
ENDBRANCH   1   2
BRANCH   1  72
ATOM     72  C   UNL A   1      31.427  27.407  24.691  1.00  0.00     0.002 C 
BRANCH  72  73
ATOM     73  C   UNL A   1      30.288  26.383  24.671  1.00  0.00     0.002 C 
BRANCH  73  74
ATOM     74  C   UNL A   1      30.317  25.366  23.526  1.00  0.00     0.021 C 
BRANCH  74  75
ATOM     75  C   UNL A   1      30.680  23.935  23.920  1.00  0.00     0.116 C 
BRANCH  75  76
ATOM     76  N   UNL A   1      30.503  23.683  25.337  1.00  0.00    -0.352 N 
ATOM     77  C   UNL A   1      31.455  23.469  26.305  1.00  0.00     0.253 C 
ATOM     78  H   UNL A   1      29.569  23.662  25.650  1.00  0.00     0.163 HD
ATOM     79  O   UNL A   1      31.121  23.314  27.477  1.00  0.00    -0.269 OA
BRANCH  77  80
ATOM     80  C   UNL A   1      32.885  23.521  25.945  1.00  0.00     0.066 A 
ATOM     81  C   UNL A   1      33.531  24.761  26.043  1.00  0.00     0.016 A 
ATOM     82  C   UNL A   1      33.557  22.341  25.599  1.00  0.00     0.085 A 
ATOM     83  C   UNL A   1      34.884  24.848  25.764  1.00  0.00     0.002 A 
ATOM     84  C   UNL A   1      34.950  22.429  25.350  1.00  0.00     0.013 A 
ATOM     85  N   UNL A   1      32.902  21.164  25.494  1.00  0.00    -0.240 NA
ATOM     86  C   UNL A   1      35.586  23.695  25.426  1.00  0.00     0.011 A 
ATOM     87  C   UNL A   1      35.646  21.231  25.038  1.00  0.00     0.068 A 
ATOM     88  C   UNL A   1      33.579  20.046  25.188  1.00  0.00     0.107 A 
ATOM     89  C   UNL A   1      34.936  20.027  24.959  1.00  0.00     0.049 A 
ATOM     90  Br  UNL A   1      32.605  18.424  25.080  1.00  0.00    -0.029 Br
BRANCH  87  91
ATOM     91  C   UNL A   1      37.135  21.211  24.804  1.00  0.00     0.417 C 
ATOM     92  F   UNL A   1      37.842  21.704  25.857  1.00  0.00    -0.166 F 
ATOM     93  F   UNL A   1      37.615  19.956  24.580  1.00  0.00    -0.166 F 
ATOM     94  F   UNL A   1      37.524  21.946  23.723  1.00  0.00    -0.166 F 
ENDBRANCH  87  91
ENDBRANCH  77  80
ENDBRANCH  75  76
ENDBRANCH  74  75
ENDBRANCH  73  74
ENDBRANCH  72  73
ENDBRANCH   1  72
TORSDOF 17
ENDMDL
MODEL 3
REMARK VINA RESULT:     -12.4      5.241      9.990
REMARK SMILES O=C(NCCCCCCNC(=O)c1cccc2c(C(F)(F)F)cc(Br)nc12)c1ccc(-c2c3nc(c(-c4cc(S(=O)(=O)[O-])ccc4F)c4ccc([nH]4)c(-c4cc(S(=O)(=O)[O-])ccc4F)c4nc(c(-c5cc(S(=O)(=O)[O-])ccc5F)c5ccc2[nH]5)C=C4)C=C3)cc1
REMARK SMILES IDX 5 1 4 2 3 3 1 4 2 5 28 7 29 8 90 9 30 10 89 11 31 12 32 13
REMARK SMILES IDX 33 14 83 15 34 16 88 17 82 18 84 19 35 20 87 21 81 22 80 23
REMARK SMILES IDX 36 25 68 26 48 27 67 28 49 29 52 30 66 31 85 32 50 33 51 34
REMARK SMILES IDX 65 36 86 37 53 38 37 39 38 40 46 41 39 42 45 43 47 44 44 45
REMARK SMILES IDX 40 46 41 47 42 48 43 49 69 50 70 51 78 52 71 53 77 54 79 55
REMARK SMILES IDX 76 56 72 57 73 58 74 59 75 60 54 61 55 62 63 63 56 64 62 65
REMARK SMILES IDX 64 66 61 67 57 68 58 69 59 70 60 71 6 72 7 73 8 74 9 75
REMARK SMILES IDX 10 76 11 77 12 79 13 80 14 81 27 82 15 83 17 84 26 85 16 86
REMARK SMILES IDX 18 87 24 88 23 89 25 90 19 91 20 92 21 93 22 94
REMARK H PARENT 3 6 84 24 52 35 10 78
REMARK Flexibility Score: inf
ROOT
ATOM      1  C   UNL A   1      32.268  29.299  24.768  1.00  0.00     0.021 C 
ENDROOT
BRANCH   1   2
ATOM      2  C   UNL A   1      32.331  29.678  26.246  1.00  0.00     0.116 C 
BRANCH   2   3
ATOM      3  N   UNL A   1      32.097  31.093  26.462  1.00  0.00    -0.352 N 
ATOM      4  O   UNL A   1      32.350  33.124  27.383  1.00  0.00    -0.269 OA
ATOM      5  C   UNL A   1      32.825  32.007  27.181  1.00  0.00     0.251 C 
ATOM      6  H   UNL A   1      31.291  31.454  26.026  1.00  0.00     0.163 HD
BRANCH   5   7
ATOM      7  C   UNL A   1      34.168  31.674  27.711  1.00  0.00     0.039 A 
ATOM      8  C   UNL A   1      34.455  30.338  28.015  1.00  0.00     0.014 A 
ATOM      9  C   UNL A   1      35.107  32.668  28.006  1.00  0.00     0.014 A 
ATOM     10  C   UNL A   1      35.676  29.995  28.606  1.00  0.00     0.010 A 
ATOM     11  C   UNL A   1      36.345  32.320  28.547  1.00  0.00     0.010 A 
ATOM     12  C   UNL A   1      36.628  30.986  28.881  1.00  0.00    -0.014 A 
BRANCH  12  13
ATOM     13  C   UNL A   1      37.882  30.676  29.616  1.00  0.00     0.031 A 
ATOM     14  C   UNL A   1      38.898  29.767  28.975  1.00  0.00     0.074 A 
ATOM     15  C   UNL A   1      38.088  31.153  30.857  1.00  0.00     0.049 A 
ATOM     16  N   UNL A   1      39.982  29.249  29.487  1.00  0.00    -0.248 NA
ATOM     17  C   UNL A   1      38.647  29.375  27.577  1.00  0.00     0.031 C 
ATOM     18  C   UNL A   1      37.177  32.042  31.577  1.00  0.00     0.029 A 
ATOM     19  N   UNL A   1      39.119  30.944  31.741  1.00  0.00    -0.354 N 
ATOM     20  C   UNL A   1      40.527  28.450  28.488  1.00  0.00     0.074 A 
ATOM     21  C   UNL A   1      39.637  28.524  27.352  1.00  0.00     0.031 C 
ATOM     22  C   UNL A   1      37.687  32.299  32.792  1.00  0.00     0.029 A 
ATOM     23  C   UNL A   1      38.937  31.558  32.960  1.00  0.00     0.049 A 
ATOM     24  H   UNL A   1      39.913  30.404  31.524  1.00  0.00     0.167 HD
ATOM     25  C   UNL A   1      41.675  27.735  28.513  1.00  0.00     0.034 A 
ATOM     26  C   UNL A   1      39.680  31.513  34.086  1.00  0.00     0.034 A 
ATOM     27  C   UNL A   1      42.575  27.709  29.634  1.00  0.00     0.049 A 
ATOM     28  C   UNL A   1      40.960  30.711  34.089  1.00  0.00     0.074 A 
ATOM     29  C   UNL A   1      43.785  27.047  29.740  1.00  0.00     0.029 A 
ATOM     30  N   UNL A   1      42.379  28.383  30.830  1.00  0.00    -0.354 N 
ATOM     31  N   UNL A   1      41.486  30.000  33.120  1.00  0.00    -0.248 NA
ATOM     32  C   UNL A   1      41.753  30.705  35.328  1.00  0.00     0.031 C 
ATOM     33  C   UNL A   1      44.301  27.285  31.012  1.00  0.00     0.029 A 
ATOM     34  C   UNL A   1      43.442  28.143  31.683  1.00  0.00     0.049 A 
ATOM     35  H   UNL A   1      41.602  28.948  31.041  1.00  0.00     0.167 HD
ATOM     36  C   UNL A   1      42.683  29.491  33.619  1.00  0.00     0.074 A 
ATOM     37  C   UNL A   1      42.812  29.986  34.972  1.00  0.00     0.031 C 
ATOM     38  C   UNL A   1      43.586  28.684  33.012  1.00  0.00     0.034 A 
BRANCH  25  39
ATOM     39  C   UNL A   1      42.061  26.936  27.296  1.00  0.00     0.023 A 
ATOM     40  C   UNL A   1      41.862  25.543  27.278  1.00  0.00     0.031 A 
ATOM     41  C   UNL A   1      42.754  27.527  26.225  1.00  0.00     0.131 A 
ATOM     42  C   UNL A   1      42.385  24.781  26.227  1.00  0.00     0.055 A 
ATOM     43  C   UNL A   1      43.240  26.768  25.161  1.00  0.00     0.041 A 
ATOM     44  F   UNL A   1      42.967  28.853  26.200  1.00  0.00    -0.206 F 
ATOM     45  C   UNL A   1      43.066  25.386  25.165  1.00  0.00     0.022 A 
BRANCH  42  46
ATOM     46  S   UNL A   1      42.248  22.973  26.223  1.00  0.00     0.124 S 
ATOM     47  O   UNL A   1      43.204  22.595  27.261  1.00  0.00    -0.237 OA
ATOM     48  O   UNL A   1      40.843  22.774  26.565  1.00  0.00    -0.237 OA
ATOM     49  O   UNL A   1      42.629  22.596  24.866  1.00  0.00    -0.744 OA
ENDBRANCH  42  46
ENDBRANCH  25  39
BRANCH  26  50
ATOM     50  C   UNL A   1      39.238  32.286  35.285  1.00  0.00     0.023 A 
ATOM     51  C   UNL A   1      39.653  33.616  35.486  1.00  0.00     0.031 A 
ATOM     52  C   UNL A   1      38.464  31.679  36.289  1.00  0.00     0.131 A 
ATOM     53  C   UNL A   1      39.339  34.273  36.683  1.00  0.00     0.055 A 
ATOM     54  C   UNL A   1      38.099  32.359  37.452  1.00  0.00     0.041 A 
ATOM     55  F   UNL A   1      38.054  30.409  36.149  1.00  0.00    -0.206 F 
ATOM     56  C   UNL A   1      38.550  33.657  37.661  1.00  0.00     0.022 A 
BRANCH  53  57
ATOM     57  S   UNL A   1      40.052  35.897  37.068  1.00  0.00     0.124 S 
ATOM     58  O   UNL A   1      39.741  36.659  35.864  1.00  0.00    -0.237 OA
ATOM     59  O   UNL A   1      39.309  36.277  38.267  1.00  0.00    -0.237 OA
ATOM     60  O   UNL A   1      41.466  35.608  37.286  1.00  0.00    -0.744 OA
ENDBRANCH  53  57
ENDBRANCH  26  50
BRANCH  38  61
ATOM     61  C   UNL A   1      44.833  28.279  33.758  1.00  0.00     0.023 A 
ATOM     62  C   UNL A   1      44.780  27.210  34.673  1.00  0.00     0.031 A 
ATOM     63  C   UNL A   1      45.990  29.075  33.725  1.00  0.00     0.131 A 
ATOM     64  C   UNL A   1      45.841  27.003  35.563  1.00  0.00     0.055 A 
ATOM     65  C   UNL A   1      47.064  28.835  34.583  1.00  0.00     0.041 A 
ATOM     66  F   UNL A   1      46.078  30.113  32.878  1.00  0.00    -0.206 F 
ATOM     67  C   UNL A   1      46.985  27.807  35.519  1.00  0.00     0.022 A 
BRANCH  64  68
ATOM     68  S   UNL A   1      45.734  25.749  36.870  1.00  0.00     0.124 S 
ATOM     69  O   UNL A   1      45.672  26.574  38.076  1.00  0.00    -0.237 OA
ATOM     70  O   UNL A   1      44.497  25.055  36.527  1.00  0.00    -0.237 OA
ATOM     71  O   UNL A   1      46.958  24.971  36.715  1.00  0.00    -0.744 OA
ENDBRANCH  64  68
ENDBRANCH  38  61
ENDBRANCH  12  13
ENDBRANCH   5   7
ENDBRANCH   2   3
ENDBRANCH   1   2
BRANCH   1  72
ATOM     72  C   UNL A   1      30.916  28.774  24.274  1.00  0.00     0.002 C 
BRANCH  72  73
ATOM     73  C   UNL A   1      30.962  27.511  23.410  1.00  0.00     0.002 C 
BRANCH  73  74
ATOM     74  C   UNL A   1      29.810  26.520  23.605  1.00  0.00     0.021 C 
BRANCH  74  75
ATOM     75  C   UNL A   1      30.215  25.055  23.762  1.00  0.00     0.116 C 
BRANCH  75  76
ATOM     76  N   UNL A   1      30.041  24.569  25.117  1.00  0.00    -0.352 N 
ATOM     77  C   UNL A   1      30.995  24.248  26.053  1.00  0.00     0.253 C 
ATOM     78  H   UNL A   1      29.107  24.451  25.408  1.00  0.00     0.163 HD
ATOM     79  O   UNL A   1      30.661  23.888  27.179  1.00  0.00    -0.269 OA
BRANCH  77  80
ATOM     80  C   UNL A   1      32.423  24.428  25.729  1.00  0.00     0.066 A 
ATOM     81  C   UNL A   1      32.977  25.699  25.937  1.00  0.00     0.016 A 
ATOM     82  C   UNL A   1      33.183  23.330  25.306  1.00  0.00     0.085 A 
ATOM     83  C   UNL A   1      34.325  25.903  25.696  1.00  0.00     0.002 A 
ATOM     84  C   UNL A   1      34.570  23.535  25.095  1.00  0.00     0.013 A 
ATOM     85  N   UNL A   1      32.616  22.122  25.096  1.00  0.00    -0.240 NA
ATOM     86  C   UNL A   1      35.113  24.832  25.283  1.00  0.00     0.011 A 
ATOM     87  C   UNL A   1      35.355  22.417  24.704  1.00  0.00     0.068 A 
ATOM     88  C   UNL A   1      33.375  21.082  24.717  1.00  0.00     0.107 A 
ATOM     89  C   UNL A   1      34.734  21.176  24.516  1.00  0.00     0.049 A 
ATOM     90  Br  UNL A   1      32.522  19.409  24.462  1.00  0.00    -0.029 Br
BRANCH  87  91
ATOM     91  C   UNL A   1      36.845  22.520  24.502  1.00  0.00     0.417 C 
ATOM     92  F   UNL A   1      37.509  22.881  25.633  1.00  0.00    -0.166 F 
ATOM     93  F   UNL A   1      37.403  21.346  24.094  1.00  0.00    -0.166 F 
ATOM     94  F   UNL A   1      37.202  23.437  23.558  1.00  0.00    -0.166 F 
ENDBRANCH  87  91
ENDBRANCH  77  80
ENDBRANCH  75  76
ENDBRANCH  74  75
ENDBRANCH  73  74
ENDBRANCH  72  73
ENDBRANCH   1  72
TORSDOF 17
ENDMDL
