MODEL 1
REMARK VINA RESULT:     -11.4      0.000      0.000
REMARK SMILES O=C(NCCCCCCNC(=O)c1cc2ncc(Cl)cn2n1)c1ccc(-c2c3nc(c(-c4cc(S(=O)(=O)[O-])ccc4F)c4ccc([nH]4)c(-c4cc(S(=O)(=O)[O-])ccc4F)c4nc(c(-c5cc(S(=O)(=O)[O-])ccc5F)c5ccc2[nH]5)C=C4)C=C3)cc1
REMARK SMILES IDX 5 1 4 2 3 3 1 4 2 5 23 7 24 8 85 9 25 10 84 11 26 12 27 13
REMARK SMILES IDX 28 14 78 15 29 16 83 17 77 18 79 19 30 20 82 21 76 22 75 23
REMARK SMILES IDX 31 25 63 26 43 27 62 28 44 29 47 30 61 31 80 32 45 33 46 34
REMARK SMILES IDX 60 36 81 37 48 38 32 39 33 40 41 41 34 42 40 43 42 44 39 45
REMARK SMILES IDX 35 46 36 47 37 48 38 49 64 50 65 51 73 52 66 53 72 54 74 55
REMARK SMILES IDX 71 56 67 57 68 58 69 59 70 60 49 61 50 62 58 63 51 64 57 65
REMARK SMILES IDX 59 66 56 67 52 68 53 69 54 70 55 71 6 72 7 73 8 74 9 75
REMARK SMILES IDX 10 76 11 77 12 79 13 80 14 81 22 82 15 83 21 84 16 85 20 86
REMARK SMILES IDX 17 87 18 88 19 89
REMARK H PARENT 3 6 79 24 47 35 10 78
REMARK Flexibility Score: inf
ROOT
ATOM      1  C   UNL A   1      34.249  34.566  29.853  1.00  0.00     0.021 C 
ENDROOT
BRANCH   1   2
ATOM      2  C   UNL A   1      34.894  34.097  28.548  1.00  0.00     0.116 C 
BRANCH   2   3
ATOM      3  N   UNL A   1      34.270  32.931  27.958  1.00  0.00    -0.352 N 
ATOM      4  O   UNL A   1      33.767  30.881  27.320  1.00  0.00    -0.269 OA
ATOM      5  C   UNL A   1      34.627  31.618  27.812  1.00  0.00     0.251 C 
ATOM      6  H   UNL A   1      33.384  33.128  27.576  1.00  0.00     0.163 HD
BRANCH   5   7
ATOM      7  C   UNL A   1      35.954  31.036  28.171  1.00  0.00     0.039 A 
ATOM      8  C   UNL A   1      37.011  31.726  28.765  1.00  0.00     0.014 A 
ATOM      9  C   UNL A   1      36.139  29.670  27.876  1.00  0.00     0.014 A 
ATOM     10  C   UNL A   1      38.228  31.091  29.012  1.00  0.00     0.010 A 
ATOM     11  C   UNL A   1      37.349  29.025  28.142  1.00  0.00     0.010 A 
ATOM     12  C   UNL A   1      38.406  29.743  28.697  1.00  0.00    -0.014 A 
BRANCH  12  13
ATOM     13  C   UNL A   1      39.692  29.133  29.038  1.00  0.00     0.031 A 
ATOM     14  C   UNL A   1      40.014  28.993  30.489  1.00  0.00     0.074 A 
ATOM     15  C   UNL A   1      40.547  28.590  28.152  1.00  0.00     0.049 A 
ATOM     16  N   UNL A   1      41.001  29.510  31.147  1.00  0.00    -0.248 NA
ATOM     17  C   UNL A   1      39.103  28.193  31.317  1.00  0.00     0.031 C 
ATOM     18  C   UNL A   1      40.329  28.325  26.731  1.00  0.00     0.029 A 
ATOM     19  N   UNL A   1      41.790  28.070  28.385  1.00  0.00    -0.354 N 
ATOM     20  C   UNL A   1      40.946  28.974  32.434  1.00  0.00     0.074 A 
ATOM     21  C   UNL A   1      39.705  28.245  32.507  1.00  0.00     0.031 C 
ATOM     22  C   UNL A   1      41.310  27.512  26.279  1.00  0.00     0.029 A 
ATOM     23  C   UNL A   1      42.290  27.317  27.336  1.00  0.00     0.049 A 
ATOM     24  H   UNL A   1      42.284  28.218  29.224  1.00  0.00     0.167 HD
ATOM     25  C   UNL A   1      41.993  29.054  33.305  1.00  0.00     0.034 A 
ATOM     26  C   UNL A   1      43.404  26.544  27.348  1.00  0.00     0.034 A 
ATOM     27  C   UNL A   1      42.944  30.063  32.909  1.00  0.00     0.049 A 
ATOM     28  C   UNL A   1      44.303  27.070  28.404  1.00  0.00     0.074 A 
ATOM     29  C   UNL A   1      42.894  31.427  32.700  1.00  0.00     0.029 A 
ATOM     30  N   UNL A   1      44.146  29.658  32.380  1.00  0.00    -0.354 N 
ATOM     31  N   UNL A   1      44.864  28.246  28.365  1.00  0.00    -0.248 NA
ATOM     32  C   UNL A   1      44.327  26.415  29.703  1.00  0.00     0.031 C 
ATOM     33  C   UNL A   1      43.819  31.678  31.644  1.00  0.00     0.029 A 
ATOM     34  C   UNL A   1      44.381  30.450  31.287  1.00  0.00     0.049 A 
ATOM     35  H   UNL A   1      44.726  28.939  32.722  1.00  0.00     0.167 HD
ATOM     36  C   UNL A   1      44.952  28.647  29.688  1.00  0.00     0.074 A 
ATOM     37  C   UNL A   1      44.736  27.433  30.465  1.00  0.00     0.031 C 
ATOM     38  C   UNL A   1      44.918  29.968  30.031  1.00  0.00     0.034 A 
BRANCH  25  39
ATOM     39  C   UNL A   1      42.313  28.066  34.406  1.00  0.00     0.023 A 
ATOM     40  C   UNL A   1      43.060  26.915  34.069  1.00  0.00     0.031 A 
ATOM     41  C   UNL A   1      41.706  28.049  35.680  1.00  0.00     0.131 A 
ATOM     42  C   UNL A   1      43.123  25.807  34.933  1.00  0.00     0.055 A 
ATOM     43  C   UNL A   1      41.833  26.974  36.567  1.00  0.00     0.041 A 
ATOM     44  F   UNL A   1      40.887  29.023  36.093  1.00  0.00    -0.206 F 
ATOM     45  C   UNL A   1      42.521  25.833  36.187  1.00  0.00     0.022 A 
BRANCH  42  46
ATOM     46  S   UNL A   1      43.846  24.263  34.312  1.00  0.00     0.124 S 
ATOM     47  O   UNL A   1      42.751  23.319  34.507  1.00  0.00    -0.237 OA
ATOM     48  O   UNL A   1      44.160  24.611  32.931  1.00  0.00    -0.237 OA
ATOM     49  O   UNL A   1      45.004  24.058  35.181  1.00  0.00    -0.744 OA
ENDBRANCH  42  46
ENDBRANCH  25  39
BRANCH  26  50
ATOM     50  C   UNL A   1      43.621  25.251  26.651  1.00  0.00     0.023 A 
ATOM     51  C   UNL A   1      42.882  24.099  26.981  1.00  0.00     0.031 A 
ATOM     52  C   UNL A   1      44.401  25.190  25.474  1.00  0.00     0.131 A 
ATOM     53  C   UNL A   1      42.941  22.955  26.156  1.00  0.00     0.055 A 
ATOM     54  C   UNL A   1      44.475  24.049  24.673  1.00  0.00     0.041 A 
ATOM     55  F   UNL A   1      45.052  26.268  25.010  1.00  0.00    -0.206 F 
ATOM     56  C   UNL A   1      43.735  22.927  25.006  1.00  0.00     0.022 A 
BRANCH  53  57
ATOM     57  S   UNL A   1      41.866  21.526  26.489  1.00  0.00     0.124 S 
ATOM     58  O   UNL A   1      42.327  20.562  25.495  1.00  0.00    -0.237 OA
ATOM     59  O   UNL A   1      42.166  21.213  27.881  1.00  0.00    -0.237 OA
ATOM     60  O   UNL A   1      40.523  22.058  26.259  1.00  0.00    -0.744 OA
ENDBRANCH  53  57
ENDBRANCH  26  50
BRANCH  38  61
ATOM     61  C   UNL A   1      45.164  31.001  28.959  1.00  0.00     0.023 A 
ATOM     62  C   UNL A   1      46.446  31.444  28.570  1.00  0.00     0.031 A 
ATOM     63  C   UNL A   1      44.061  31.433  28.204  1.00  0.00     0.131 A 
ATOM     64  C   UNL A   1      46.586  32.302  27.464  1.00  0.00     0.055 A 
ATOM     65  C   UNL A   1      44.204  32.273  27.100  1.00  0.00     0.041 A 
ATOM     66  F   UNL A   1      42.821  31.006  28.502  1.00  0.00    -0.206 F 
ATOM     67  C   UNL A   1      45.469  32.712  26.727  1.00  0.00     0.022 A 
BRANCH  64  68
ATOM     68  S   UNL A   1      48.239  32.856  26.941  1.00  0.00     0.124 S 
ATOM     69  O   UNL A   1      48.752  33.536  28.125  1.00  0.00    -0.237 OA
ATOM     70  O   UNL A   1      48.900  31.605  26.581  1.00  0.00    -0.237 OA
ATOM     71  O   UNL A   1      47.961  33.738  25.807  1.00  0.00    -0.744 OA
ENDBRANCH  64  68
ENDBRANCH  38  61
ENDBRANCH  12  13
ENDBRANCH   5   7
ENDBRANCH   2   3
ENDBRANCH   1   2
BRANCH   1  72
ATOM     72  C   UNL A   1      33.360  35.808  29.729  1.00  0.00     0.002 C 
BRANCH  72  73
ATOM     73  C   UNL A   1      32.765  36.336  31.038  1.00  0.00     0.002 C 
BRANCH  73  74
ATOM     74  C   UNL A   1      33.746  37.067  31.961  1.00  0.00     0.021 C 
BRANCH  74  75
ATOM     75  C   UNL A   1      34.323  36.215  33.093  1.00  0.00     0.116 C 
BRANCH  75  76
ATOM     76  N   UNL A   1      33.504  35.038  33.332  1.00  0.00    -0.351 N 
ATOM     77  C   UNL A   1      33.879  33.717  33.415  1.00  0.00     0.271 C 
ATOM     78  H   UNL A   1      32.543  35.210  33.452  1.00  0.00     0.163 HD
ATOM     79  O   UNL A   1      33.000  32.851  33.352  1.00  0.00    -0.267 OA
BRANCH  77  80
ATOM     80  C   UNL A   1      35.298  33.354  33.540  1.00  0.00     0.152 A 
ATOM     81  C   UNL A   1      36.129  32.896  32.486  1.00  0.00     0.085 A 
ATOM     82  N   UNL A   1      35.962  33.352  34.709  1.00  0.00    -0.161 NA
ATOM     83  C   UNL A   1      37.363  32.677  33.047  1.00  0.00     0.155 A 
ATOM     84  N   UNL A   1      37.215  32.949  34.410  1.00  0.00    -0.220 N 
ATOM     85  N   UNL A   1      38.557  32.278  32.505  1.00  0.00    -0.235 NA
ATOM     86  C   UNL A   1      38.284  32.808  35.285  1.00  0.00     0.137 A 
ATOM     87  C   UNL A   1      39.542  32.164  33.348  1.00  0.00     0.135 A 
ATOM     88  C   UNL A   1      39.472  32.419  34.815  1.00  0.00     0.077 A 
ATOM     89  Cl  UNL A   1      40.869  32.214  35.770  1.00  0.00    -0.081 Cl
ENDBRANCH  77  80
ENDBRANCH  75  76
ENDBRANCH  74  75
ENDBRANCH  73  74
ENDBRANCH  72  73
ENDBRANCH   1  72
TORSDOF 16
ENDMDL
MODEL 2
REMARK VINA RESULT:     -11.2      3.966      6.435
REMARK SMILES O=C(NCCCCCCNC(=O)c1cc2ncc(Cl)cn2n1)c1ccc(-c2c3nc(c(-c4cc(S(=O)(=O)[O-])ccc4F)c4ccc([nH]4)c(-c4cc(S(=O)(=O)[O-])ccc4F)c4nc(c(-c5cc(S(=O)(=O)[O-])ccc5F)c5ccc2[nH]5)C=C4)C=C3)cc1
REMARK SMILES IDX 5 1 4 2 3 3 1 4 2 5 23 7 24 8 85 9 25 10 84 11 26 12 27 13
REMARK SMILES IDX 28 14 78 15 29 16 83 17 77 18 79 19 30 20 82 21 76 22 75 23
REMARK SMILES IDX 31 25 63 26 43 27 62 28 44 29 47 30 61 31 80 32 45 33 46 34
REMARK SMILES IDX 60 36 81 37 48 38 32 39 33 40 41 41 34 42 40 43 42 44 39 45
REMARK SMILES IDX 35 46 36 47 37 48 38 49 64 50 65 51 73 52 66 53 72 54 74 55
REMARK SMILES IDX 71 56 67 57 68 58 69 59 70 60 49 61 50 62 58 63 51 64 57 65
REMARK SMILES IDX 59 66 56 67 52 68 53 69 54 70 55 71 6 72 7 73 8 74 9 75
REMARK SMILES IDX 10 76 11 77 12 79 13 80 14 81 22 82 15 83 21 84 16 85 20 86
REMARK SMILES IDX 17 87 18 88 19 89
REMARK H PARENT 3 6 79 24 47 35 10 78
REMARK Flexibility Score: inf
ROOT
ATOM      1  C   UNL A   1      32.001  29.626  26.765  1.00  0.00     0.021 C 
ENDROOT
BRANCH   1   2
ATOM      2  C   UNL A   1      33.331  30.354  26.567  1.00  0.00     0.116 C 
BRANCH   2   3
ATOM      3  N   UNL A   1      33.541  31.469  27.467  1.00  0.00    -0.352 N 
ATOM      4  O   UNL A   1      34.406  32.955  28.849  1.00  0.00    -0.269 OA
ATOM      5  C   UNL A   1      34.562  31.865  28.288  1.00  0.00     0.251 C 
ATOM      6  H   UNL A   1      32.772  32.085  27.493  1.00  0.00     0.163 HD
BRANCH   5   7
ATOM      7  C   UNL A   1      35.804  31.083  28.564  1.00  0.00     0.039 A 
ATOM      8  C   UNL A   1      35.911  29.693  28.543  1.00  0.00     0.014 A 
ATOM      9  C   UNL A   1      36.958  31.831  28.873  1.00  0.00     0.014 A 
ATOM     10  C   UNL A   1      37.114  29.066  28.867  1.00  0.00     0.010 A 
ATOM     11  C   UNL A   1      38.170  31.208  29.176  1.00  0.00     0.010 A 
ATOM     12  C   UNL A   1      38.246  29.817  29.191  1.00  0.00    -0.014 A 
BRANCH  12  13
ATOM     13  C   UNL A   1      39.486  29.088  29.463  1.00  0.00     0.031 A 
ATOM     14  C   UNL A   1      39.885  28.937  30.894  1.00  0.00     0.074 A 
ATOM     15  C   UNL A   1      40.225  28.452  28.536  1.00  0.00     0.049 A 
ATOM     16  N   UNL A   1      40.959  29.364  31.478  1.00  0.00    -0.248 NA
ATOM     17  C   UNL A   1      38.956  28.242  31.793  1.00  0.00     0.031 C 
ATOM     18  C   UNL A   1      39.892  28.191  27.137  1.00  0.00     0.029 A 
ATOM     19  N   UNL A   1      41.424  27.816  28.701  1.00  0.00    -0.354 N 
ATOM     20  C   UNL A   1      40.934  28.854  32.776  1.00  0.00     0.074 A 
ATOM     21  C   UNL A   1      39.636  28.251  32.941  1.00  0.00     0.031 C 
ATOM     22  C   UNL A   1      40.758  27.280  26.641  1.00  0.00     0.029 A 
ATOM     23  C   UNL A   1      41.781  27.003  27.638  1.00  0.00     0.049 A 
ATOM     24  H   UNL A   1      41.983  27.926  29.504  1.00  0.00     0.167 HD
ATOM     25  C   UNL A   1      42.038  28.842  33.578  1.00  0.00     0.034 A 
ATOM     26  C   UNL A   1      42.813  26.125  27.596  1.00  0.00     0.034 A 
ATOM     27  C   UNL A   1      43.054  29.747  33.103  1.00  0.00     0.049 A 
ATOM     28  C   UNL A   1      43.824  26.575  28.582  1.00  0.00     0.074 A 
ATOM     29  C   UNL A   1      43.124  31.107  32.871  1.00  0.00     0.029 A 
ATOM     30  N   UNL A   1      44.176  29.219  32.509  1.00  0.00    -0.354 N 
ATOM     31  N   UNL A   1      44.493  27.689  28.486  1.00  0.00    -0.248 NA
ATOM     32  C   UNL A   1      43.868  25.938  29.890  1.00  0.00     0.031 C 
ATOM     33  C   UNL A   1      43.999  31.251  31.755  1.00  0.00     0.029 A 
ATOM     34  C   UNL A   1      44.415  29.969  31.387  1.00  0.00     0.049 A 
ATOM     35  H   UNL A   1      44.704  28.451  32.828  1.00  0.00     0.167 HD
ATOM     36  C   UNL A   1      44.705  28.098  29.791  1.00  0.00     0.074 A 
ATOM     37  C   UNL A   1      44.422  26.921  30.604  1.00  0.00     0.031 C 
ATOM     38  C   UNL A   1      44.822  29.420  30.111  1.00  0.00     0.034 A 
BRANCH  25  39
ATOM     39  C   UNL A   1      42.330  27.842  34.676  1.00  0.00     0.023 A 
ATOM     40  C   UNL A   1      43.069  26.686  34.342  1.00  0.00     0.031 A 
ATOM     41  C   UNL A   1      41.704  27.823  35.941  1.00  0.00     0.131 A 
ATOM     42  C   UNL A   1      43.107  25.571  35.198  1.00  0.00     0.055 A 
ATOM     43  C   UNL A   1      41.806  26.740  36.822  1.00  0.00     0.041 A 
ATOM     44  F   UNL A   1      40.889  28.803  36.349  1.00  0.00    -0.206 F 
ATOM     45  C   UNL A   1      42.487  25.594  36.443  1.00  0.00     0.022 A 
BRANCH  42  46
ATOM     46  S   UNL A   1      43.823  24.024  34.577  1.00  0.00     0.124 S 
ATOM     47  O   UNL A   1      42.638  23.187  34.419  1.00  0.00    -0.237 OA
ATOM     48  O   UNL A   1      44.471  24.464  33.346  1.00  0.00    -0.237 OA
ATOM     49  O   UNL A   1      44.731  23.617  35.648  1.00  0.00    -0.744 OA
ENDBRANCH  42  46
ENDBRANCH  25  39
BRANCH  26  50
ATOM     50  C   UNL A   1      42.857  24.808  26.912  1.00  0.00     0.023 A 
ATOM     51  C   UNL A   1      43.827  24.513  25.933  1.00  0.00     0.031 A 
ATOM     52  C   UNL A   1      42.085  23.724  27.387  1.00  0.00     0.131 A 
ATOM     53  C   UNL A   1      43.991  23.190  25.471  1.00  0.00     0.055 A 
ATOM     54  C   UNL A   1      42.236  22.421  26.910  1.00  0.00     0.041 A 
ATOM     55  F   UNL A   1      41.215  23.875  28.397  1.00  0.00    -0.206 F 
ATOM     56  C   UNL A   1      43.199  22.146  25.955  1.00  0.00     0.022 A 
BRANCH  53  57
ATOM     57  S   UNL A   1      45.346  22.778  24.329  1.00  0.00     0.124 S 
ATOM     58  O   UNL A   1      46.010  24.067  24.169  1.00  0.00    -0.237 OA
ATOM     59  O   UNL A   1      46.085  21.756  25.061  1.00  0.00    -0.237 OA
ATOM     60  O   UNL A   1      44.645  22.291  23.141  1.00  0.00    -0.744 OA
ENDBRANCH  53  57
ENDBRANCH  26  50
BRANCH  38  61
ATOM     61  C   UNL A   1      45.097  30.409  29.005  1.00  0.00     0.023 A 
ATOM     62  C   UNL A   1      46.389  30.834  28.631  1.00  0.00     0.031 A 
ATOM     63  C   UNL A   1      44.014  30.813  28.205  1.00  0.00     0.131 A 
ATOM     64  C   UNL A   1      46.560  31.648  27.496  1.00  0.00     0.055 A 
ATOM     65  C   UNL A   1      44.188  31.607  27.073  1.00  0.00     0.041 A 
ATOM     66  F   UNL A   1      42.767  30.399  28.488  1.00  0.00    -0.206 F 
ATOM     67  C   UNL A   1      45.463  32.030  26.715  1.00  0.00     0.022 A 
BRANCH  64  68
ATOM     68  S   UNL A   1      48.227  32.178  26.995  1.00  0.00     0.124 S 
ATOM     69  O   UNL A   1      48.859  30.934  26.572  1.00  0.00    -0.237 OA
ATOM     70  O   UNL A   1      47.953  33.152  25.940  1.00  0.00    -0.237 OA
ATOM     71  O   UNL A   1      48.784  32.757  28.218  1.00  0.00    -0.744 OA
ENDBRANCH  64  68
ENDBRANCH  38  61
ENDBRANCH  12  13
ENDBRANCH   5   7
ENDBRANCH   2   3
ENDBRANCH   1   2
BRANCH   1  72
ATOM     72  C   UNL A   1      32.100  28.273  27.478  1.00  0.00     0.002 C 
BRANCH  72  73
ATOM     73  C   UNL A   1      32.082  27.038  26.572  1.00  0.00     0.002 C 
BRANCH  73  74
ATOM     74  C   UNL A   1      33.425  26.669  25.932  1.00  0.00     0.021 C 
BRANCH  74  75
ATOM     75  C   UNL A   1      33.441  25.329  25.194  1.00  0.00     0.116 C 
BRANCH  75  76
ATOM     76  N   UNL A   1      33.939  25.484  23.837  1.00  0.00    -0.351 N 
ATOM     77  C   UNL A   1      33.299  25.976  22.724  1.00  0.00     0.271 C 
ATOM     78  H   UNL A   1      34.869  25.194  23.693  1.00  0.00     0.163 HD
ATOM     79  O   UNL A   1      33.804  25.770  21.615  1.00  0.00    -0.267 OA
BRANCH  77  80
ATOM     80  C   UNL A   1      32.026  26.698  22.858  1.00  0.00     0.152 A 
ATOM     81  C   UNL A   1      30.760  26.104  23.094  1.00  0.00     0.085 A 
ATOM     82  N   UNL A   1      31.908  28.029  22.701  1.00  0.00    -0.161 NA
ATOM     83  C   UNL A   1      29.861  27.140  23.146  1.00  0.00     0.155 A 
ATOM     84  N   UNL A   1      30.599  28.298  22.882  1.00  0.00    -0.220 N 
ATOM     85  N   UNL A   1      28.513  27.170  23.390  1.00  0.00    -0.235 NA
ATOM     86  C   UNL A   1      29.982  29.541  22.842  1.00  0.00     0.137 A 
ATOM     87  C   UNL A   1      27.965  28.351  23.354  1.00  0.00     0.135 A 
ATOM     88  C   UNL A   1      28.669  29.633  23.070  1.00  0.00     0.077 A 
ATOM     89  Cl  UNL A   1      27.786  31.091  23.060  1.00  0.00    -0.081 Cl
ENDBRANCH  77  80
ENDBRANCH  75  76
ENDBRANCH  74  75
ENDBRANCH  73  74
ENDBRANCH  72  73
ENDBRANCH   1  72
TORSDOF 16
ENDMDL
MODEL 3
REMARK VINA RESULT:     -11.2      3.952      6.017
REMARK SMILES O=C(NCCCCCCNC(=O)c1cc2ncc(Cl)cn2n1)c1ccc(-c2c3nc(c(-c4cc(S(=O)(=O)[O-])ccc4F)c4ccc([nH]4)c(-c4cc(S(=O)(=O)[O-])ccc4F)c4nc(c(-c5cc(S(=O)(=O)[O-])ccc5F)c5ccc2[nH]5)C=C4)C=C3)cc1
REMARK SMILES IDX 5 1 4 2 3 3 1 4 2 5 23 7 24 8 85 9 25 10 84 11 26 12 27 13
REMARK SMILES IDX 28 14 78 15 29 16 83 17 77 18 79 19 30 20 82 21 76 22 75 23
REMARK SMILES IDX 31 25 63 26 43 27 62 28 44 29 47 30 61 31 80 32 45 33 46 34
REMARK SMILES IDX 60 36 81 37 48 38 32 39 33 40 41 41 34 42 40 43 42 44 39 45
REMARK SMILES IDX 35 46 36 47 37 48 38 49 64 50 65 51 73 52 66 53 72 54 74 55
REMARK SMILES IDX 71 56 67 57 68 58 69 59 70 60 49 61 50 62 58 63 51 64 57 65
REMARK SMILES IDX 59 66 56 67 52 68 53 69 54 70 55 71 6 72 7 73 8 74 9 75
REMARK SMILES IDX 10 76 11 77 12 79 13 80 14 81 22 82 15 83 21 84 16 85 20 86
REMARK SMILES IDX 17 87 18 88 19 89
REMARK H PARENT 3 6 79 24 47 35 10 78
REMARK Flexibility Score: inf
ROOT
ATOM      1  C   UNL A   1      32.153  29.907  25.729  1.00  0.00     0.021 C 
ENDROOT
BRANCH   1   2
ATOM      2  C   UNL A   1      33.130  29.904  26.905  1.00  0.00     0.116 C 
BRANCH   2   3
ATOM      3  N   UNL A   1      33.481  31.221  27.394  1.00  0.00    -0.352 N 
ATOM      4  O   UNL A   1      34.556  33.001  28.128  1.00  0.00    -0.269 OA
ATOM      5  C   UNL A   1      34.621  31.790  27.894  1.00  0.00     0.251 C 
ATOM      6  H   UNL A   1      32.726  31.852  27.357  1.00  0.00     0.163 HD
BRANCH   5   7
ATOM      7  C   UNL A   1      35.891  31.065  28.192  1.00  0.00     0.039 A 
ATOM      8  C   UNL A   1      36.102  29.695  28.038  1.00  0.00     0.014 A 
ATOM      9  C   UNL A   1      36.960  31.848  28.673  1.00  0.00     0.014 A 
ATOM     10  C   UNL A   1      37.319  29.116  28.396  1.00  0.00     0.010 A 
ATOM     11  C   UNL A   1      38.188  31.276  29.012  1.00  0.00     0.010 A 
ATOM     12  C   UNL A   1      38.364  29.899  28.890  1.00  0.00    -0.014 A 
BRANCH  12  13
ATOM     13  C   UNL A   1      39.630  29.227  29.189  1.00  0.00     0.031 A 
ATOM     14  C   UNL A   1      39.988  29.063  30.629  1.00  0.00     0.074 A 
ATOM     15  C   UNL A   1      40.432  28.651  28.275  1.00  0.00     0.049 A 
ATOM     16  N   UNL A   1      41.018  29.529  31.260  1.00  0.00    -0.248 NA
ATOM     17  C   UNL A   1      39.065  28.301  31.480  1.00  0.00     0.031 C 
ATOM     18  C   UNL A   1      40.159  28.406  26.859  1.00  0.00     0.029 A 
ATOM     19  N   UNL A   1      41.655  28.072  28.468  1.00  0.00    -0.354 N 
ATOM     20  C   UNL A   1      40.976  28.987  32.545  1.00  0.00     0.074 A 
ATOM     21  C   UNL A   1      39.704  28.317  32.651  1.00  0.00     0.031 C 
ATOM     22  C   UNL A   1      41.087  27.551  26.375  1.00  0.00     0.029 A 
ATOM     23  C   UNL A   1      42.088  27.303  27.401  1.00  0.00     0.049 A 
ATOM     24  H   UNL A   1      42.180  28.191  29.292  1.00  0.00     0.167 HD
ATOM     25  C   UNL A   1      42.050  29.012  33.385  1.00  0.00     0.034 A 
ATOM     26  C   UNL A   1      43.164  26.479  27.375  1.00  0.00     0.034 A 
ATOM     27  C   UNL A   1      43.035  29.978  32.966  1.00  0.00     0.049 A 
ATOM     28  C   UNL A   1      44.117  26.955  28.406  1.00  0.00     0.074 A 
ATOM     29  C   UNL A   1      43.043  31.345  32.765  1.00  0.00     0.029 A 
ATOM     30  N   UNL A   1      44.201  29.521  32.399  1.00  0.00    -0.354 N 
ATOM     31  N   UNL A   1      44.732  28.104  28.357  1.00  0.00    -0.248 NA
ATOM     32  C   UNL A   1      44.150  26.291  29.700  1.00  0.00     0.031 C 
ATOM     33  C   UNL A   1      43.947  31.558  31.684  1.00  0.00     0.029 A 
ATOM     34  C   UNL A   1      44.440  30.308  31.303  1.00  0.00     0.049 A 
ATOM     35  H   UNL A   1      44.757  28.773  32.719  1.00  0.00     0.167 HD
ATOM     36  C   UNL A   1      44.878  28.491  29.678  1.00  0.00     0.074 A 
ATOM     37  C   UNL A   1      44.628  27.284  30.455  1.00  0.00     0.031 C 
ATOM     38  C   UNL A   1      44.917  29.810  30.030  1.00  0.00     0.034 A 
BRANCH  25  39
ATOM     39  C   UNL A   1      42.356  28.002  34.470  1.00  0.00     0.023 A 
ATOM     40  C   UNL A   1      43.087  26.847  34.116  1.00  0.00     0.031 A 
ATOM     41  C   UNL A   1      41.748  27.974  35.744  1.00  0.00     0.131 A 
ATOM     42  C   UNL A   1      43.134  25.725  34.962  1.00  0.00     0.055 A 
ATOM     43  C   UNL A   1      41.859  26.884  36.614  1.00  0.00     0.041 A 
ATOM     44  F   UNL A   1      40.942  28.953  36.172  1.00  0.00    -0.206 F 
ATOM     45  C   UNL A   1      42.532  25.740  36.216  1.00  0.00     0.022 A 
BRANCH  42  46
ATOM     46  S   UNL A   1      43.837  24.181  34.318  1.00  0.00     0.124 S 
ATOM     47  O   UNL A   1      45.013  24.012  35.165  1.00  0.00    -0.237 OA
ATOM     48  O   UNL A   1      42.745  23.239  34.535  1.00  0.00    -0.237 OA
ATOM     49  O   UNL A   1      44.121  24.495  32.919  1.00  0.00    -0.744 OA
ENDBRANCH  42  46
ENDBRANCH  25  39
BRANCH  26  50
ATOM     50  C   UNL A   1      43.299  25.182  26.665  1.00  0.00     0.023 A 
ATOM     51  C   UNL A   1      42.501  24.070  26.996  1.00  0.00     0.031 A 
ATOM     52  C   UNL A   1      44.059  25.088  25.476  1.00  0.00     0.131 A 
ATOM     53  C   UNL A   1      42.486  22.931  26.161  1.00  0.00     0.055 A 
ATOM     54  C   UNL A   1      44.057  23.951  24.666  1.00  0.00     0.041 A 
ATOM     55  F   UNL A   1      44.762  26.132  25.012  1.00  0.00    -0.206 F 
ATOM     56  C   UNL A   1      43.261  22.870  25.000  1.00  0.00     0.022 A 
BRANCH  53  57
ATOM     57  S   UNL A   1      41.338  21.561  26.498  1.00  0.00     0.124 S 
ATOM     58  O   UNL A   1      41.934  20.471  25.734  1.00  0.00    -0.237 OA
ATOM     59  O   UNL A   1      41.395  21.442  27.950  1.00  0.00    -0.237 OA
ATOM     60  O   UNL A   1      40.064  22.059  25.977  1.00  0.00    -0.744 OA
ENDBRANCH  53  57
ENDBRANCH  26  50
BRANCH  38  61
ATOM     61  C   UNL A   1      45.179  30.837  28.956  1.00  0.00     0.023 A 
ATOM     62  C   UNL A   1      46.467  31.272  28.579  1.00  0.00     0.031 A 
ATOM     63  C   UNL A   1      44.086  31.273  28.189  1.00  0.00     0.131 A 
ATOM     64  C   UNL A   1      46.623  32.126  27.471  1.00  0.00     0.055 A 
ATOM     65  C   UNL A   1      44.245  32.107  27.083  1.00  0.00     0.041 A 
ATOM     66  F   UNL A   1      42.841  30.853  28.475  1.00  0.00    -0.206 F 
ATOM     67  C   UNL A   1      45.516  32.539  26.721  1.00  0.00     0.022 A 
BRANCH  64  68
ATOM     68  S   UNL A   1      48.284  32.669  26.963  1.00  0.00     0.124 S 
ATOM     69  O   UNL A   1      48.012  33.594  25.869  1.00  0.00    -0.237 OA
ATOM     70  O   UNL A   1      48.820  33.259  28.187  1.00  0.00    -0.237 OA
ATOM     71  O   UNL A   1      48.941  31.425  26.557  1.00  0.00    -0.744 OA
ENDBRANCH  64  68
ENDBRANCH  38  61
ENDBRANCH  12  13
ENDBRANCH   5   7
ENDBRANCH   2   3
ENDBRANCH   1   2
BRANCH   1  72
ATOM     72  C   UNL A   1      32.198  28.659  24.841  1.00  0.00     0.002 C 
BRANCH  72  73
ATOM     73  C   UNL A   1      31.481  27.422  25.391  1.00  0.00     0.002 C 
BRANCH  73  74
ATOM     74  C   UNL A   1      30.496  26.748  24.429  1.00  0.00     0.021 C 
BRANCH  74  75
ATOM     75  C   UNL A   1      30.528  25.219  24.440  1.00  0.00     0.116 C 
BRANCH  75  76
ATOM     76  N   UNL A   1      30.084  24.694  25.721  1.00  0.00    -0.351 N 
ATOM     77  C   UNL A   1      30.675  23.752  26.530  1.00  0.00     0.271 C 
ATOM     78  H   UNL A   1      29.238  25.066  26.059  1.00  0.00     0.163 HD
ATOM     79  O   UNL A   1      30.003  23.250  27.437  1.00  0.00    -0.267 OA
BRANCH  77  80
ATOM     80  C   UNL A   1      32.062  23.332  26.289  1.00  0.00     0.152 A 
ATOM     81  C   UNL A   1      33.204  24.168  26.369  1.00  0.00     0.085 A 
ATOM     82  N   UNL A   1      32.404  22.092  25.893  1.00  0.00    -0.161 NA
ATOM     83  C   UNL A   1      34.280  23.368  26.069  1.00  0.00     0.155 A 
ATOM     84  N   UNL A   1      33.746  22.112  25.766  1.00  0.00    -0.220 N 
ATOM     85  N   UNL A   1      35.626  23.620  26.036  1.00  0.00    -0.235 NA
ATOM     86  C   UNL A   1      34.572  21.058  25.399  1.00  0.00     0.137 A 
ATOM     87  C   UNL A   1      36.375  22.610  25.697  1.00  0.00     0.135 A 
ATOM     88  C   UNL A   1      35.894  21.244  25.346  1.00  0.00     0.077 A 
ATOM     89  Cl  UNL A   1      37.023  20.041  24.920  1.00  0.00    -0.081 Cl
ENDBRANCH  77  80
ENDBRANCH  75  76
ENDBRANCH  74  75
ENDBRANCH  73  74
ENDBRANCH  72  73
ENDBRANCH   1  72
TORSDOF 16
ENDMDL
