MODEL 1
REMARK VINA RESULT:     -12.1      0.000      0.000
REMARK SMILES O=C(NCCCCCCNC(=O)c1ccc(N2C(=O)/C(=C/C3=c4ccccc4=NC3)SC2=S)cc1O)c1ccc(-c2c3nc(c(-c4cc(S(=O)(=O)[O-])ccc4F)c4ccc([nH]4)c(-c4cc(S(=O)(=O)[O-])ccc4F)c4nc(c(-c5cc(S(=O)(=O)[O-])ccc5F)c5ccc2[nH]5)C=C4)C=C3)cc1
REMARK SMILES IDX 6 1 5 2 4 3 3 4 1 5 2 6 37 8 38 9 99 10 39 11 98 12 40 13
REMARK SMILES IDX 41 14 42 15 92 16 43 17 97 18 91 19 93 20 44 21 96 22 90 23
REMARK SMILES IDX 89 24 45 26 77 27 57 28 76 29 58 30 61 31 75 32 94 33 59 34
REMARK SMILES IDX 60 35 74 37 95 38 62 39 46 40 47 41 55 42 48 43 54 44 56 45
REMARK SMILES IDX 53 46 49 47 50 48 51 49 52 50 78 51 79 52 87 53 80 54 86 55
REMARK SMILES IDX 88 56 85 57 81 58 82 59 83 60 84 61 63 62 64 63 72 64 65 65
REMARK SMILES IDX 71 66 73 67 70 68 66 69 67 70 68 71 69 72 7 73 8 74 9 75
REMARK SMILES IDX 10 76 11 77 12 79 13 80 14 81 35 82 15 83 34 84 16 85 36 86
REMARK SMILES IDX 17 88 18 89 32 90 19 91 20 92 31 93 33 94 21 95 22 96 23 97
REMARK SMILES IDX 30 98 24 99 28 100 29 101 25 102 27 103 26 104
REMARK H PARENT 3 7 93 25 61 36 10 78 36 87
REMARK Flexibility Score: inf
ROOT
ATOM      1  C   UNL A   1      37.369  21.093  24.597  1.00  0.00     0.002 C 
ENDROOT
BRANCH   1   2
ATOM      2  C   UNL A   1      38.235  19.890  24.976  1.00  0.00     0.021 C 
BRANCH   2   3
ATOM      3  C   UNL A   1      39.223  20.142  26.109  1.00  0.00     0.116 C 
BRANCH   3   4
ATOM      4  N   UNL A   1      40.389  19.281  26.013  1.00  0.00    -0.352 N 
ATOM      5  O   UNL A   1      42.555  18.763  25.716  1.00  0.00    -0.269 OA
ATOM      6  C   UNL A   1      41.720  19.612  26.015  1.00  0.00     0.251 C 
ATOM      7  H   UNL A   1      40.195  18.319  25.935  1.00  0.00     0.163 HD
BRANCH   6   8
ATOM      8  C   UNL A   1      42.152  20.981  26.377  1.00  0.00     0.039 A 
ATOM      9  C   UNL A   1      42.365  21.283  27.725  1.00  0.00     0.014 A 
ATOM     10  C   UNL A   1      42.282  21.981  25.408  1.00  0.00     0.014 A 
ATOM     11  C   UNL A   1      42.710  22.583  28.098  1.00  0.00     0.010 A 
ATOM     12  C   UNL A   1      42.706  23.255  25.774  1.00  0.00     0.010 A 
ATOM     13  C   UNL A   1      42.883  23.581  27.126  1.00  0.00    -0.014 A 
BRANCH  13  14
ATOM     14  C   UNL A   1      43.164  24.989  27.510  1.00  0.00     0.031 A 
ATOM     15  C   UNL A   1      44.553  25.544  27.330  1.00  0.00     0.074 A 
ATOM     16  C   UNL A   1      42.192  25.755  28.037  1.00  0.00     0.049 A 
ATOM     17  N   UNL A   1      45.014  26.727  27.642  1.00  0.00    -0.248 NA
ATOM     18  C   UNL A   1      45.563  24.644  26.747  1.00  0.00     0.031 C 
ATOM     19  C   UNL A   1      40.818  25.317  28.277  1.00  0.00     0.029 A 
ATOM     20  N   UNL A   1      42.205  27.061  28.463  1.00  0.00    -0.354 N 
ATOM     21  C   UNL A   1      46.363  26.708  27.303  1.00  0.00     0.074 A 
ATOM     22  C   UNL A   1      46.663  25.377  26.831  1.00  0.00     0.031 C 
ATOM     23  C   UNL A   1      40.114  26.342  28.780  1.00  0.00     0.029 A 
ATOM     24  C   UNL A   1      40.994  27.498  28.946  1.00  0.00     0.049 A 
ATOM     25  H   UNL A   1      43.008  27.630  28.429  1.00  0.00     0.167 HD
ATOM     26  C   UNL A   1      47.260  27.720  27.349  1.00  0.00     0.034 A 
ATOM     27  C   UNL A   1      40.631  28.691  29.464  1.00  0.00     0.034 A 
ATOM     28  C   UNL A   1      46.936  29.052  27.788  1.00  0.00     0.049 A 
ATOM     29  C   UNL A   1      41.652  29.801  29.519  1.00  0.00     0.074 A 
ATOM     30  C   UNL A   1      47.761  30.162  27.821  1.00  0.00     0.029 A 
ATOM     31  N   UNL A   1      45.696  29.460  28.261  1.00  0.00    -0.354 N 
ATOM     32  N   UNL A   1      42.904  29.791  29.124  1.00  0.00    -0.248 NA
ATOM     33  C   UNL A   1      41.216  31.090  30.077  1.00  0.00     0.031 C 
ATOM     34  C   UNL A   1      47.045  31.219  28.381  1.00  0.00     0.029 A 
ATOM     35  C   UNL A   1      45.745  30.797  28.616  1.00  0.00     0.049 A 
ATOM     36  H   UNL A   1      44.901  28.884  28.331  1.00  0.00     0.167 HD
ATOM     37  C   UNL A   1      43.394  31.073  29.357  1.00  0.00     0.074 A 
ATOM     38  C   UNL A   1      42.296  31.841  29.906  1.00  0.00     0.031 C 
ATOM     39  C   UNL A   1      44.640  31.566  29.139  1.00  0.00     0.034 A 
BRANCH  26  40
ATOM     40  C   UNL A   1      48.674  27.459  26.889  1.00  0.00     0.023 A 
ATOM     41  C   UNL A   1      49.047  27.751  25.563  1.00  0.00     0.031 A 
ATOM     42  C   UNL A   1      49.607  26.800  27.710  1.00  0.00     0.131 A 
ATOM     43  C   UNL A   1      50.301  27.346  25.087  1.00  0.00     0.055 A 
ATOM     44  C   UNL A   1      50.874  26.447  27.247  1.00  0.00     0.041 A 
ATOM     45  F   UNL A   1      49.300  26.496  28.982  1.00  0.00    -0.206 F 
ATOM     46  C   UNL A   1      51.219  26.705  25.924  1.00  0.00     0.022 A 
BRANCH  43  47
ATOM     47  S   UNL A   1      50.755  27.563  23.345  1.00  0.00     0.124 S 
ATOM     48  O   UNL A   1      51.974  26.762  23.251  1.00  0.00    -0.237 OA
ATOM     49  O   UNL A   1      49.592  27.011  22.657  1.00  0.00    -0.237 OA
ATOM     50  O   UNL A   1      50.948  29.003  23.209  1.00  0.00    -0.744 OA
ENDBRANCH  43  47
ENDBRANCH  26  40
BRANCH  27  51
ATOM     51  C   UNL A   1      39.218  28.894  29.901  1.00  0.00     0.023 A 
ATOM     52  C   UNL A   1      38.288  29.546  29.069  1.00  0.00     0.031 A 
ATOM     53  C   UNL A   1      38.807  28.544  31.199  1.00  0.00     0.131 A 
ATOM     54  C   UNL A   1      37.026  29.892  29.568  1.00  0.00     0.055 A 
ATOM     55  C   UNL A   1      37.520  28.822  31.665  1.00  0.00     0.041 A 
ATOM     56  F   UNL A   1      39.658  27.933  32.036  1.00  0.00    -0.206 F 
ATOM     57  C   UNL A   1      36.629  29.517  30.855  1.00  0.00     0.022 A 
BRANCH  54  58
ATOM     58  S   UNL A   1      35.914  30.964  28.615  1.00  0.00     0.124 S 
ATOM     59  O   UNL A   1      35.136  31.612  29.667  1.00  0.00    -0.237 OA
ATOM     60  O   UNL A   1      36.862  31.824  27.910  1.00  0.00    -0.237 OA
ATOM     61  O   UNL A   1      35.176  30.033  27.768  1.00  0.00    -0.744 OA
ENDBRANCH  54  58
ENDBRANCH  27  51
BRANCH  39  62
ATOM     62  C   UNL A   1      44.925  33.013  29.472  1.00  0.00     0.023 A 
ATOM     63  C   UNL A   1      44.990  33.969  28.438  1.00  0.00     0.031 A 
ATOM     64  C   UNL A   1      45.310  33.407  30.765  1.00  0.00     0.131 A 
ATOM     65  C   UNL A   1      45.485  35.251  28.704  1.00  0.00     0.055 A 
ATOM     66  C   UNL A   1      45.747  34.704  31.036  1.00  0.00     0.041 A 
ATOM     67  F   UNL A   1      45.281  32.530  31.782  1.00  0.00    -0.206 F 
ATOM     68  C   UNL A   1      45.855  35.627  29.999  1.00  0.00     0.022 A 
BRANCH  65  69
ATOM     69  S   UNL A   1      45.776  36.439  27.363  1.00  0.00     0.124 S 
ATOM     70  O   UNL A   1      47.179  36.790  27.570  1.00  0.00    -0.237 OA
ATOM     71  O   UNL A   1      45.502  35.633  26.175  1.00  0.00    -0.237 OA
ATOM     72  O   UNL A   1      44.822  37.511  27.628  1.00  0.00    -0.744 OA
ENDBRANCH  65  69
ENDBRANCH  39  62
ENDBRANCH  13  14
ENDBRANCH   6   8
ENDBRANCH   3   4
ENDBRANCH   2   3
ENDBRANCH   1   2
BRANCH   1  73
ATOM     73  C   UNL A   1      35.919  21.038  25.086  1.00  0.00     0.002 C 
BRANCH  73  74
ATOM     74  C   UNL A   1      35.607  21.916  26.301  1.00  0.00     0.021 C 
BRANCH  74  75
ATOM     75  C   UNL A   1      34.446  21.426  27.159  1.00  0.00     0.116 C 
BRANCH  75  76
ATOM     76  N   UNL A   1      33.557  20.548  26.420  1.00  0.00    -0.352 N 
ATOM     77  C   UNL A   1      32.511  20.895  25.605  1.00  0.00     0.255 C 
ATOM     78  H   UNL A   1      33.728  19.583  26.515  1.00  0.00     0.163 HD
ATOM     79  O   UNL A   1      31.779  20.036  25.119  1.00  0.00    -0.269 OA
BRANCH  77  80
ATOM     80  C   UNL A   1      32.216  22.321  25.370  1.00  0.00     0.081 A 
ATOM     81  C   UNL A   1      32.604  22.868  24.144  1.00  0.00     0.020 A 
ATOM     82  C   UNL A   1      31.566  23.117  26.317  1.00  0.00     0.130 A 
ATOM     83  C   UNL A   1      32.319  24.205  23.856  1.00  0.00     0.028 A 
ATOM     84  C   UNL A   1      31.290  24.454  26.030  1.00  0.00     0.073 A 
ATOM     85  C   UNL A   1      31.677  25.018  24.803  1.00  0.00     0.054 A 
BRANCH  82  86
ATOM     86  O   UNL A   1      31.183  22.592  27.519  1.00  0.00    -0.507 OA
ATOM     87  H   UNL A   1      31.703  22.745  28.283  1.00  0.00     0.293 HD
ENDBRANCH  82  86
BRANCH  85  88
ATOM     88  N   UNL A   1      31.405  26.391  24.521  1.00  0.00    -0.261 N 
ATOM     89  C   UNL A   1      30.193  26.751  23.930  1.00  0.00     0.270 C 
ATOM     90  C   UNL A   1      32.291  27.428  24.789  1.00  0.00     0.152 C 
ATOM     91  O   UNL A   1      29.286  26.018  23.572  1.00  0.00    -0.268 OA
ATOM     92  C   UNL A   1      30.113  28.234  23.798  1.00  0.00     0.081 C 
ATOM     93  S   UNL A   1      31.532  28.970  24.416  1.00  0.00    -0.054 SA
ATOM     94  S   UNL A   1      33.894  27.378  25.270  1.00  0.00    -0.051 S 
ATOM     95  C   UNL A   1      29.037  28.852  23.291  1.00  0.00     0.027 C 
BRANCH  95  96
ATOM     96  C   UNL A   1      28.886  30.275  23.117  1.00  0.00    -0.016 C 
ATOM     97  C   UNL A   1      28.478  30.906  22.019  1.00  0.00     0.005 A 
ATOM     98  C   UNL A   1      29.186  31.261  24.210  1.00  0.00     0.179 C 
ATOM     99  C   UNL A   1      28.070  30.513  20.707  1.00  0.00     0.011 A 
ATOM    100  C   UNL A   1      28.494  32.320  22.433  1.00  0.00     0.065 A 
ATOM    101  N   UNL A   1      28.891  32.599  23.638  1.00  0.00    -0.280 NA
ATOM    102  C   UNL A   1      27.685  31.464  19.840  1.00  0.00     0.001 A 
ATOM    103  C   UNL A   1      28.047  33.305  21.426  1.00  0.00     0.028 A 
ATOM    104  C   UNL A   1      27.670  32.870  20.212  1.00  0.00     0.002 A 
ENDBRANCH  95  96
ENDBRANCH  85  88
ENDBRANCH  77  80
ENDBRANCH  75  76
ENDBRANCH  74  75
ENDBRANCH  73  74
ENDBRANCH   1  73
TORSDOF 19
ENDMDL
MODEL 2
REMARK VINA RESULT:     -12.0      1.566      7.314
REMARK SMILES O=C(NCCCCCCNC(=O)c1ccc(N2C(=O)/C(=C/C3=c4ccccc4=NC3)SC2=S)cc1O)c1ccc(-c2c3nc(c(-c4cc(S(=O)(=O)[O-])ccc4F)c4ccc([nH]4)c(-c4cc(S(=O)(=O)[O-])ccc4F)c4nc(c(-c5cc(S(=O)(=O)[O-])ccc5F)c5ccc2[nH]5)C=C4)C=C3)cc1
REMARK SMILES IDX 6 1 5 2 4 3 3 4 1 5 2 6 37 8 38 9 99 10 39 11 98 12 40 13
REMARK SMILES IDX 41 14 42 15 92 16 43 17 97 18 91 19 93 20 44 21 96 22 90 23
REMARK SMILES IDX 89 24 45 26 77 27 57 28 76 29 58 30 61 31 75 32 94 33 59 34
REMARK SMILES IDX 60 35 74 37 95 38 62 39 46 40 47 41 55 42 48 43 54 44 56 45
REMARK SMILES IDX 53 46 49 47 50 48 51 49 52 50 78 51 79 52 87 53 80 54 86 55
REMARK SMILES IDX 88 56 85 57 81 58 82 59 83 60 84 61 63 62 64 63 72 64 65 65
REMARK SMILES IDX 71 66 73 67 70 68 66 69 67 70 68 71 69 72 7 73 8 74 9 75
REMARK SMILES IDX 10 76 11 77 12 79 13 80 14 81 35 82 15 83 34 84 16 85 36 86
REMARK SMILES IDX 17 88 18 89 32 90 19 91 20 92 31 93 33 94 21 95 22 96 23 97
REMARK SMILES IDX 30 98 24 99 28 100 29 101 25 102 27 103 26 104
REMARK H PARENT 3 7 93 25 61 36 10 78 36 87
REMARK Flexibility Score: inf
ROOT
ATOM      1  C   UNL A   1      37.321  21.409  24.736  1.00  0.00     0.002 C 
ENDROOT
BRANCH   1   2
ATOM      2  C   UNL A   1      38.281  20.254  25.028  1.00  0.00     0.021 C 
BRANCH   2   3
ATOM      3  C   UNL A   1      39.377  20.570  26.039  1.00  0.00     0.116 C 
BRANCH   3   4
ATOM      4  N   UNL A   1      40.392  19.532  26.082  1.00  0.00    -0.352 N 
ATOM      5  O   UNL A   1      42.453  18.652  25.925  1.00  0.00    -0.269 OA
ATOM      6  C   UNL A   1      41.758  19.650  26.099  1.00  0.00     0.251 C 
ATOM      7  H   UNL A   1      40.049  18.609  26.100  1.00  0.00     0.163 HD
BRANCH   6   8
ATOM      8  C   UNL A   1      42.395  20.966  26.328  1.00  0.00     0.039 A 
ATOM      9  C   UNL A   1      42.692  21.349  27.639  1.00  0.00     0.014 A 
ATOM     10  C   UNL A   1      42.639  21.848  25.271  1.00  0.00     0.014 A 
ATOM     11  C   UNL A   1      43.233  22.612  27.887  1.00  0.00     0.010 A 
ATOM     12  C   UNL A   1      43.254  23.073  25.512  1.00  0.00     0.010 A 
ATOM     13  C   UNL A   1      43.519  23.485  26.826  1.00  0.00    -0.014 A 
BRANCH  13  14
ATOM     14  C   UNL A   1      44.013  24.864  27.076  1.00  0.00     0.031 A 
ATOM     15  C   UNL A   1      43.072  25.900  27.632  1.00  0.00     0.074 A 
ATOM     16  C   UNL A   1      45.287  25.191  26.788  1.00  0.00     0.049 A 
ATOM     17  N   UNL A   1      43.291  27.165  27.881  1.00  0.00    -0.248 NA
ATOM     18  C   UNL A   1      41.695  25.465  27.923  1.00  0.00     0.031 C 
ATOM     19  C   UNL A   1      46.280  24.277  26.227  1.00  0.00     0.029 A 
ATOM     20  N   UNL A   1      45.965  26.377  26.928  1.00  0.00    -0.354 N 
ATOM     21  C   UNL A   1      42.084  27.674  28.345  1.00  0.00     0.074 A 
ATOM     22  C   UNL A   1      41.117  26.604  28.276  1.00  0.00     0.031 C 
ATOM     23  C   UNL A   1      47.447  24.926  26.096  1.00  0.00     0.029 A 
ATOM     24  C   UNL A   1      47.277  26.316  26.518  1.00  0.00     0.049 A 
ATOM     25  H   UNL A   1      45.551  27.196  27.285  1.00  0.00     0.167 HD
ATOM     26  C   UNL A   1      41.815  28.913  28.820  1.00  0.00     0.034 A 
ATOM     27  C   UNL A   1      48.234  27.268  26.483  1.00  0.00     0.034 A 
ATOM     28  C   UNL A   1      42.800  29.958  28.917  1.00  0.00     0.049 A 
ATOM     29  C   UNL A   1      47.908  28.647  27.003  1.00  0.00     0.074 A 
ATOM     30  C   UNL A   1      42.641  31.232  29.433  1.00  0.00     0.029 A 
ATOM     31  N   UNL A   1      44.120  29.856  28.501  1.00  0.00    -0.354 N 
ATOM     32  N   UNL A   1      46.782  29.093  27.510  1.00  0.00    -0.248 NA
ATOM     33  C   UNL A   1      48.980  29.653  26.962  1.00  0.00     0.031 C 
ATOM     34  C   UNL A   1      43.840  31.922  29.263  1.00  0.00     0.029 A 
ATOM     35  C   UNL A   1      44.777  31.055  28.721  1.00  0.00     0.049 A 
ATOM     36  H   UNL A   1      44.528  29.051  28.109  1.00  0.00     0.167 HD
ATOM     37  C   UNL A   1      47.019  30.415  27.875  1.00  0.00     0.074 A 
ATOM     38  C   UNL A   1      48.402  30.691  27.551  1.00  0.00     0.031 C 
ATOM     39  C   UNL A   1      46.165  31.318  28.421  1.00  0.00     0.034 A 
BRANCH  26  40
ATOM     40  C   UNL A   1      40.418  29.219  29.304  1.00  0.00     0.023 A 
ATOM     41  C   UNL A   1      40.146  29.258  30.685  1.00  0.00     0.031 A 
ATOM     42  C   UNL A   1      39.337  29.333  28.412  1.00  0.00     0.131 A 
ATOM     43  C   UNL A   1      38.823  29.364  31.132  1.00  0.00     0.055 A 
ATOM     44  C   UNL A   1      38.026  29.492  28.862  1.00  0.00     0.041 A 
ATOM     45  F   UNL A   1      39.541  29.299  27.085  1.00  0.00    -0.206 F 
ATOM     46  C   UNL A   1      37.763  29.491  30.228  1.00  0.00     0.022 A 
BRANCH  43  47
ATOM     47  S   UNL A   1      38.420  29.260  32.896  1.00  0.00     0.124 S 
ATOM     48  O   UNL A   1      37.439  28.177  32.916  1.00  0.00    -0.237 OA
ATOM     49  O   UNL A   1      39.716  28.938  33.486  1.00  0.00    -0.237 OA
ATOM     50  O   UNL A   1      37.890  30.581  33.214  1.00  0.00    -0.744 OA
ENDBRANCH  43  47
ENDBRANCH  26  40
BRANCH  27  51
ATOM     51  C   UNL A   1      49.599  26.909  25.996  1.00  0.00     0.023 A 
ATOM     52  C   UNL A   1      50.045  27.317  24.725  1.00  0.00     0.031 A 
ATOM     53  C   UNL A   1      50.431  26.058  26.744  1.00  0.00     0.131 A 
ATOM     54  C   UNL A   1      51.249  26.815  24.213  1.00  0.00     0.055 A 
ATOM     55  C   UNL A   1      51.667  25.624  26.261  1.00  0.00     0.041 A 
ATOM     56  F   UNL A   1      50.046  25.630  27.955  1.00  0.00    -0.206 F 
ATOM     57  C   UNL A   1      52.073  25.986  24.981  1.00  0.00     0.022 A 
BRANCH  54  58
ATOM     58  S   UNL A   1      51.714  27.107  22.483  1.00  0.00     0.124 S 
ATOM     59  O   UNL A   1      52.119  28.509  22.507  1.00  0.00    -0.237 OA
ATOM     60  O   UNL A   1      52.795  26.141  22.299  1.00  0.00    -0.237 OA
ATOM     61  O   UNL A   1      50.492  26.817  21.741  1.00  0.00    -0.744 OA
ENDBRANCH  54  58
ENDBRANCH  27  51
BRANCH  39  62
ATOM     62  C   UNL A   1      46.669  32.708  28.735  1.00  0.00     0.023 A 
ATOM     63  C   UNL A   1      46.705  33.686  27.720  1.00  0.00     0.031 A 
ATOM     64  C   UNL A   1      47.278  33.008  29.966  1.00  0.00     0.131 A 
ATOM     65  C   UNL A   1      47.386  34.890  27.934  1.00  0.00     0.055 A 
ATOM     66  C   UNL A   1      47.905  34.234  30.194  1.00  0.00     0.041 A 
ATOM     67  F   UNL A   1      47.286  32.106  30.960  1.00  0.00    -0.206 F 
ATOM     68  C   UNL A   1      47.978  35.173  29.169  1.00  0.00     0.022 A 
BRANCH  65  69
ATOM     69  S   UNL A   1      47.628  36.081  26.587  1.00  0.00     0.124 S 
ATOM     70  O   UNL A   1      46.375  35.957  25.846  1.00  0.00    -0.237 OA
ATOM     71  O   UNL A   1      47.800  37.336  27.314  1.00  0.00    -0.237 OA
ATOM     72  O   UNL A   1      48.812  35.590  25.890  1.00  0.00    -0.744 OA
ENDBRANCH  65  69
ENDBRANCH  39  62
ENDBRANCH  13  14
ENDBRANCH   6   8
ENDBRANCH   3   4
ENDBRANCH   2   3
ENDBRANCH   1   2
BRANCH   1  73
ATOM     73  C   UNL A   1      35.879  21.198  25.208  1.00  0.00     0.002 C 
BRANCH  73  74
ATOM     74  C   UNL A   1      35.428  22.107  26.353  1.00  0.00     0.021 C 
BRANCH  74  75
ATOM     75  C   UNL A   1      34.306  21.538  27.214  1.00  0.00     0.116 C 
BRANCH  75  76
ATOM     76  N   UNL A   1      33.452  20.634  26.464  1.00  0.00    -0.352 N 
ATOM     77  C   UNL A   1      32.438  20.952  25.599  1.00  0.00     0.255 C 
ATOM     78  H   UNL A   1      33.623  19.673  26.594  1.00  0.00     0.163 HD
ATOM     79  O   UNL A   1      31.731  20.076  25.108  1.00  0.00    -0.269 OA
BRANCH  77  80
ATOM     80  C   UNL A   1      32.146  22.369  25.312  1.00  0.00     0.081 A 
ATOM     81  C   UNL A   1      32.579  22.884  24.087  1.00  0.00     0.020 A 
ATOM     82  C   UNL A   1      31.457  23.189  26.210  1.00  0.00     0.130 A 
ATOM     83  C   UNL A   1      32.299  24.211  23.750  1.00  0.00     0.028 A 
ATOM     84  C   UNL A   1      31.186  24.516  25.875  1.00  0.00     0.073 A 
ATOM     85  C   UNL A   1      31.618  25.046  24.648  1.00  0.00     0.054 A 
BRANCH  82  86
ATOM     86  O   UNL A   1      31.031  22.696  27.411  1.00  0.00    -0.507 OA
ATOM     87  H   UNL A   1      30.703  23.280  28.067  1.00  0.00     0.293 HD
ENDBRANCH  82  86
BRANCH  85  88
ATOM     88  N   UNL A   1      31.351  26.410  24.317  1.00  0.00    -0.261 N 
ATOM     89  C   UNL A   1      30.063  26.792  23.937  1.00  0.00     0.270 C 
ATOM     90  C   UNL A   1      32.312  27.414  24.334  1.00  0.00     0.152 C 
ATOM     91  O   UNL A   1      29.077  26.085  23.812  1.00  0.00    -0.268 OA
ATOM     92  C   UNL A   1      30.018  28.265  23.709  1.00  0.00     0.081 C 
ATOM     93  S   UNL A   1      31.556  28.965  23.992  1.00  0.00    -0.054 SA
ATOM     94  S   UNL A   1      33.973  27.312  24.509  1.00  0.00    -0.051 S 
ATOM     95  C   UNL A   1      28.891  28.903  23.366  1.00  0.00     0.027 C 
BRANCH  95  96
ATOM     96  C   UNL A   1      28.765  30.317  23.113  1.00  0.00    -0.016 C 
ATOM     97  C   UNL A   1      28.401  30.895  21.971  1.00  0.00     0.005 A 
ATOM     98  C   UNL A   1      29.043  31.355  24.164  1.00  0.00     0.179 C 
ATOM     99  C   UNL A   1      28.031  30.439  20.669  1.00  0.00     0.011 A 
ATOM    100  C   UNL A   1      28.424  32.328  22.313  1.00  0.00     0.065 A 
ATOM    101  N   UNL A   1      28.785  32.664  23.514  1.00  0.00    -0.280 NA
ATOM    102  C   UNL A   1      27.687  31.349  19.742  1.00  0.00     0.001 A 
ATOM    103  C   UNL A   1      28.023  33.266  21.242  1.00  0.00     0.028 A 
ATOM    104  C   UNL A   1      27.679  32.772  20.040  1.00  0.00     0.002 A 
ENDBRANCH  95  96
ENDBRANCH  85  88
ENDBRANCH  77  80
ENDBRANCH  75  76
ENDBRANCH  74  75
ENDBRANCH  73  74
ENDBRANCH   1  73
TORSDOF 19
ENDMDL
MODEL 3
REMARK VINA RESULT:     -11.8      6.657     15.764
REMARK SMILES O=C(NCCCCCCNC(=O)c1ccc(N2C(=O)/C(=C/C3=c4ccccc4=NC3)SC2=S)cc1O)c1ccc(-c2c3nc(c(-c4cc(S(=O)(=O)[O-])ccc4F)c4ccc([nH]4)c(-c4cc(S(=O)(=O)[O-])ccc4F)c4nc(c(-c5cc(S(=O)(=O)[O-])ccc5F)c5ccc2[nH]5)C=C4)C=C3)cc1
REMARK SMILES IDX 6 1 5 2 4 3 3 4 1 5 2 6 37 8 38 9 99 10 39 11 98 12 40 13
REMARK SMILES IDX 41 14 42 15 92 16 43 17 97 18 91 19 93 20 44 21 96 22 90 23
REMARK SMILES IDX 89 24 45 26 77 27 57 28 76 29 58 30 61 31 75 32 94 33 59 34
REMARK SMILES IDX 60 35 74 37 95 38 62 39 46 40 47 41 55 42 48 43 54 44 56 45
REMARK SMILES IDX 53 46 49 47 50 48 51 49 52 50 78 51 79 52 87 53 80 54 86 55
REMARK SMILES IDX 88 56 85 57 81 58 82 59 83 60 84 61 63 62 64 63 72 64 65 65
REMARK SMILES IDX 71 66 73 67 70 68 66 69 67 70 68 71 69 72 7 73 8 74 9 75
REMARK SMILES IDX 10 76 11 77 12 79 13 80 14 81 35 82 15 83 34 84 16 85 36 86
REMARK SMILES IDX 17 88 18 89 32 90 19 91 20 92 31 93 33 94 21 95 22 96 23 97
REMARK SMILES IDX 30 98 24 99 28 100 29 101 25 102 27 103 26 104
REMARK H PARENT 3 7 93 25 61 36 10 78 36 87
REMARK Flexibility Score: inf
ROOT
ATOM      1  C   UNL A   1      44.445  40.161  31.551  1.00  0.00     0.002 C 
ENDROOT
BRANCH   1   2
ATOM      2  C   UNL A   1      43.681  38.855  31.777  1.00  0.00     0.021 C 
BRANCH   2   3
ATOM      3  C   UNL A   1      44.139  37.685  30.913  1.00  0.00     0.116 C 
BRANCH   3   4
ATOM      4  N   UNL A   1      45.430  37.937  30.299  1.00  0.00    -0.352 N 
ATOM      5  O   UNL A   1      47.429  37.425  29.410  1.00  0.00    -0.269 OA
ATOM      6  C   UNL A   1      46.289  37.062  29.684  1.00  0.00     0.251 C 
ATOM      7  H   UNL A   1      45.735  38.873  30.328  1.00  0.00     0.163 HD
BRANCH   6   8
ATOM      8  C   UNL A   1      45.847  35.689  29.349  1.00  0.00     0.039 A 
ATOM      9  C   UNL A   1      45.062  35.496  28.210  1.00  0.00     0.014 A 
ATOM     10  C   UNL A   1      46.145  34.607  30.184  1.00  0.00     0.014 A 
ATOM     11  C   UNL A   1      44.579  34.221  27.908  1.00  0.00     0.010 A 
ATOM     12  C   UNL A   1      45.732  33.324  29.836  1.00  0.00     0.010 A 
ATOM     13  C   UNL A   1      44.910  33.123  28.719  1.00  0.00    -0.014 A 
BRANCH  13  14
ATOM     14  C   UNL A   1      44.335  31.777  28.462  1.00  0.00     0.031 A 
ATOM     15  C   UNL A   1      42.999  31.416  29.056  1.00  0.00     0.074 A 
ATOM     16  C   UNL A   1      45.013  30.879  27.724  1.00  0.00     0.049 A 
ATOM     17  N   UNL A   1      42.346  30.285  28.989  1.00  0.00    -0.248 NA
ATOM     18  C   UNL A   1      42.318  32.452  29.851  1.00  0.00     0.031 C 
ATOM     19  C   UNL A   1      46.324  31.111  27.119  1.00  0.00     0.029 A 
ATOM     20  N   UNL A   1      44.698  29.594  27.355  1.00  0.00    -0.354 N 
ATOM     21  C   UNL A   1      41.189  30.472  29.738  1.00  0.00     0.074 A 
ATOM     22  C   UNL A   1      41.262  31.796  30.309  1.00  0.00     0.031 C 
ATOM     23  C   UNL A   1      46.687  30.018  26.431  1.00  0.00     0.029 A 
ATOM     24  C   UNL A   1      45.661  28.988  26.584  1.00  0.00     0.049 A 
ATOM     25  H   UNL A   1      43.862  29.148  27.621  1.00  0.00     0.167 HD
ATOM     26  C   UNL A   1      40.144  29.628  29.904  1.00  0.00     0.034 A 
ATOM     27  C   UNL A   1      45.716  27.744  26.060  1.00  0.00     0.034 A 
ATOM     28  C   UNL A   1      40.070  28.324  29.297  1.00  0.00     0.049 A 
ATOM     29  C   UNL A   1      44.546  26.814  26.270  1.00  0.00     0.074 A 
ATOM     30  C   UNL A   1      39.031  27.414  29.361  1.00  0.00     0.029 A 
ATOM     31  N   UNL A   1      41.061  27.748  28.515  1.00  0.00    -0.354 N 
ATOM     32  N   UNL A   1      43.425  27.032  26.917  1.00  0.00    -0.248 NA
ATOM     33  C   UNL A   1      44.636  25.473  25.673  1.00  0.00     0.031 C 
ATOM     34  C   UNL A   1      39.421  26.261  28.681  1.00  0.00     0.029 A 
ATOM     35  C   UNL A   1      40.668  26.481  28.116  1.00  0.00     0.049 A 
ATOM     36  H   UNL A   1      41.915  28.176  28.278  1.00  0.00     0.167 HD
ATOM     37  C   UNL A   1      42.667  25.872  26.779  1.00  0.00     0.074 A 
ATOM     38  C   UNL A   1      43.447  24.963  25.967  1.00  0.00     0.031 C 
ATOM     39  C   UNL A   1      41.439  25.587  27.284  1.00  0.00     0.034 A 
BRANCH  26  40
ATOM     40  C   UNL A   1      38.973  30.077  30.744  1.00  0.00     0.023 A 
ATOM     41  C   UNL A   1      37.955  30.860  30.169  1.00  0.00     0.031 A 
ATOM     42  C   UNL A   1      38.933  29.851  32.132  1.00  0.00     0.131 A 
ATOM     43  C   UNL A   1      36.965  31.424  30.984  1.00  0.00     0.055 A 
ATOM     44  C   UNL A   1      37.915  30.371  32.932  1.00  0.00     0.041 A 
ATOM     45  F   UNL A   1      39.882  29.114  32.731  1.00  0.00    -0.206 F 
ATOM     46  C   UNL A   1      36.934  31.176  32.360  1.00  0.00     0.022 A 
BRANCH  43  47
ATOM     47  S   UNL A   1      35.730  32.564  30.304  1.00  0.00     0.124 S 
ATOM     48  O   UNL A   1      34.589  32.331  31.186  1.00  0.00    -0.237 OA
ATOM     49  O   UNL A   1      36.389  33.857  30.467  1.00  0.00    -0.237 OA
ATOM     50  O   UNL A   1      35.554  32.112  28.929  1.00  0.00    -0.744 OA
ENDBRANCH  43  47
ENDBRANCH  26  40
BRANCH  27  51
ATOM     51  C   UNL A   1      46.898  27.354  25.235  1.00  0.00     0.023 A 
ATOM     52  C   UNL A   1      47.051  27.828  23.918  1.00  0.00     0.031 A 
ATOM     53  C   UNL A   1      47.828  26.414  25.708  1.00  0.00     0.131 A 
ATOM     54  C   UNL A   1      48.061  27.306  23.100  1.00  0.00     0.055 A 
ATOM     55  C   UNL A   1      48.881  25.954  24.913  1.00  0.00     0.041 A 
ATOM     56  F   UNL A   1      47.720  25.920  26.950  1.00  0.00    -0.206 F 
ATOM     57  C   UNL A   1      48.989  26.385  23.595  1.00  0.00     0.022 A 
BRANCH  54  58
ATOM     58  S   UNL A   1      48.114  27.696  21.329  1.00  0.00     0.124 S 
ATOM     59  O   UNL A   1      49.191  28.679  21.263  1.00  0.00    -0.237 OA
ATOM     60  O   UNL A   1      48.415  26.390  20.746  1.00  0.00    -0.237 OA
ATOM     61  O   UNL A   1      46.777  28.206  21.045  1.00  0.00    -0.744 OA
ENDBRANCH  54  58
ENDBRANCH  27  51
BRANCH  39  62
ATOM     62  C   UNL A   1      40.817  24.243  26.983  1.00  0.00     0.023 A 
ATOM     63  C   UNL A   1      39.611  24.177  26.254  1.00  0.00     0.031 A 
ATOM     64  C   UNL A   1      41.304  23.061  27.567  1.00  0.00     0.131 A 
ATOM     65  C   UNL A   1      38.907  22.970  26.178  1.00  0.00     0.055 A 
ATOM     66  C   UNL A   1      40.628  21.847  27.438  1.00  0.00     0.041 A 
ATOM     67  F   UNL A   1      42.439  23.073  28.284  1.00  0.00    -0.206 F 
ATOM     68  C   UNL A   1      39.414  21.802  26.758  1.00  0.00     0.022 A 
BRANCH  65  69
ATOM     69  S   UNL A   1      37.258  22.894  25.425  1.00  0.00     0.124 S 
ATOM     70  O   UNL A   1      37.049  21.453  25.302  1.00  0.00    -0.237 OA
ATOM     71  O   UNL A   1      36.432  23.560  26.429  1.00  0.00    -0.237 OA
ATOM     72  O   UNL A   1      37.413  23.609  24.163  1.00  0.00    -0.744 OA
ENDBRANCH  65  69
ENDBRANCH  39  62
ENDBRANCH  13  14
ENDBRANCH   6   8
ENDBRANCH   3   4
ENDBRANCH   2   3
ENDBRANCH   1   2
BRANCH   1  73
ATOM     73  C   UNL A   1      43.745  41.183  30.649  1.00  0.00     0.002 C 
BRANCH  73  74
ATOM     74  C   UNL A   1      42.218  41.083  30.614  1.00  0.00     0.021 C 
BRANCH  74  75
ATOM     75  C   UNL A   1      41.625  40.875  29.226  1.00  0.00     0.116 C 
BRANCH  75  76
ATOM     76  N   UNL A   1      41.847  39.526  28.738  1.00  0.00    -0.352 N 
ATOM     77  C   UNL A   1      42.306  39.138  27.506  1.00  0.00     0.255 C 
ATOM     78  H   UNL A   1      41.642  38.800  29.370  1.00  0.00     0.163 HD
ATOM     79  O   UNL A   1      42.350  37.950  27.196  1.00  0.00    -0.269 OA
BRANCH  77  80
ATOM     80  C   UNL A   1      42.681  40.164  26.515  1.00  0.00     0.081 A 
ATOM     81  C   UNL A   1      44.042  40.346  26.256  1.00  0.00     0.020 A 
ATOM     82  C   UNL A   1      41.731  40.932  25.837  1.00  0.00     0.130 A 
ATOM     83  C   UNL A   1      44.451  41.281  25.301  1.00  0.00     0.028 A 
ATOM     84  C   UNL A   1      42.142  41.871  24.890  1.00  0.00     0.073 A 
ATOM     85  C   UNL A   1      43.507  42.067  24.623  1.00  0.00     0.054 A 
BRANCH  82  86
ATOM     86  O   UNL A   1      40.397  40.762  26.083  1.00  0.00    -0.507 OA
ATOM     87  H   UNL A   1      39.956  40.000  25.763  1.00  0.00     0.293 HD
ENDBRANCH  82  86
BRANCH  85  88
ATOM     88  N   UNL A   1      43.923  43.040  23.664  1.00  0.00    -0.261 N 
ATOM     89  C   UNL A   1      43.662  42.833  22.308  1.00  0.00     0.270 C 
ATOM     90  C   UNL A   1      44.600  44.209  23.988  1.00  0.00     0.152 C 
ATOM     91  O   UNL A   1      43.120  41.872  21.786  1.00  0.00    -0.268 OA
ATOM     92  C   UNL A   1      44.126  44.009  21.516  1.00  0.00     0.081 C 
ATOM     93  S   UNL A   1      44.814  45.193  22.546  1.00  0.00    -0.054 SA
ATOM     94  S   UNL A   1      45.280  44.692  25.440  1.00  0.00    -0.051 S 
ATOM     95  C   UNL A   1      43.967  44.087  20.188  1.00  0.00     0.027 C 
BRANCH  95  96
ATOM     96  C   UNL A   1      44.399  45.177  19.349  1.00  0.00    -0.016 C 
ATOM     97  C   UNL A   1      43.660  45.848  18.469  1.00  0.00     0.005 A 
ATOM     98  C   UNL A   1      45.804  45.710  19.374  1.00  0.00     0.179 C 
ATOM     99  C   UNL A   1      42.305  45.793  18.021  1.00  0.00     0.011 A 
ATOM    100  C   UNL A   1      44.610  46.844  17.943  1.00  0.00     0.065 A 
ATOM    101  N   UNL A   1      45.829  46.822  18.390  1.00  0.00    -0.280 NA
ATOM    102  C   UNL A   1      41.894  46.683  17.102  1.00  0.00     0.001 A 
ATOM    103  C   UNL A   1      44.079  47.795  16.943  1.00  0.00     0.028 A 
ATOM    104  C   UNL A   1      42.793  47.695  16.569  1.00  0.00     0.002 A 
ENDBRANCH  95  96
ENDBRANCH  85  88
ENDBRANCH  77  80
ENDBRANCH  75  76
ENDBRANCH  74  75
ENDBRANCH  73  74
ENDBRANCH   1  73
TORSDOF 19
ENDMDL
