MODEL 1
REMARK VINA RESULT:     -12.9      0.000      0.000
REMARK SMILES CCN1C[C@]2(C(=O)NCCCCCCNC(=O)c3ccc(-c4c5nc(c(-c6cc(S(=O)(=O)[O-])ccc6F)c6ccc([nH]6)c(-c6cc(S(=O)(=O)[O-])ccc6F)c6nc(c(-c7cc(S(=O)(=O)[O-])ccc7F)c7ccc4[nH]7)C=C6)C=C5)cc3)CN(c3ccc(-c4ccccc4)nn3)C[C@H]2C1=O
REMARK SMILES IDX 12 1 11 2 10 3 9 4 8 5 6 6 7 7 5 9 3 10 4 11 97 12 96 13
REMARK SMILES IDX 98 14 81 15 95 16 82 17 2 18 1 19 83 20 84 21 94 22 85 23
REMARK SMILES IDX 93 24 86 25 87 26 88 27 92 28 89 29 91 30 90 31 13 32 14 33
REMARK SMILES IDX 15 34 16 35 17 37 18 38 19 39 80 40 20 41 79 42 21 43 22 44
REMARK SMILES IDX 23 45 73 46 24 47 78 48 72 49 74 50 25 51 77 52 71 53 70 54
REMARK SMILES IDX 26 56 58 57 38 58 57 59 39 60 42 61 56 62 75 63 40 64 41 65
REMARK SMILES IDX 55 67 76 68 43 69 27 70 28 71 36 72 29 73 35 74 37 75 34 76
REMARK SMILES IDX 30 77 31 78 32 79 33 80 59 81 60 82 68 83 61 84 67 85 69 86
REMARK SMILES IDX 66 87 62 88 63 89 64 90 65 91 44 92 45 93 53 94 46 95 52 96
REMARK SMILES IDX 54 97 51 98 47 99 48 100 49 101 50 102
REMARK H PARENT 8 8 15 36 74 55 42 66
REMARK Flexibility Score: inf
ROOT
ATOM      1  C   UNL A   1      35.642  23.339  23.516  1.00  0.00     0.002 C 
ENDROOT
BRANCH   1   2
ATOM      2  C   UNL A   1      34.761  24.493  24.002  1.00  0.00     0.002 C 
BRANCH   2   3
ATOM      3  C   UNL A   1      34.088  25.279  22.872  1.00  0.00     0.021 C 
BRANCH   3   4
ATOM      4  C   UNL A   1      34.000  26.781  23.152  1.00  0.00     0.116 C 
BRANCH   4   5
ATOM      5  N   UNL A   1      32.841  27.323  22.474  1.00  0.00    -0.355 N 
ATOM      6  C   UNL A   1      31.536  27.073  22.811  1.00  0.00     0.230 C 
ATOM      7  O   UNL A   1      30.671  27.157  21.938  1.00  0.00    -0.274 OA
ATOM      8  H   UNL A   1      33.003  27.922  21.709  1.00  0.00     0.163 HD
BRANCH   6   9
ATOM      9  C   UNL A   1      31.267  26.772  24.292  1.00  0.00     0.097 C 
ATOM     10  N   UNL A   1      31.367  28.664  25.815  1.00  0.00    -0.341 N 
ATOM     11  C   UNL A   1      30.992  28.347  24.452  1.00  0.00     0.139 C 
ATOM     12  C   UNL A   1      31.193  27.563  26.614  1.00  0.00     0.228 C 
ATOM     13  C   UNL A   1      30.594  26.564  25.685  1.00  0.00     0.117 C 
ATOM     14  O   UNL A   1      31.406  27.444  27.801  1.00  0.00    -0.274 OA
ATOM     15  C   UNL A   1      30.422  25.482  23.789  1.00  0.00     0.137 C 
ATOM     16  C   UNL A   1      30.877  25.145  26.105  1.00  0.00     0.133 C 
ATOM     17  N   UNL A   1      30.698  24.482  24.838  1.00  0.00    -0.353 N 
BRANCH  10  18
ATOM     18  C   UNL A   1      31.939  29.928  26.236  1.00  0.00     0.116 C 
ATOM     19  C   UNL A   1      33.452  29.843  26.370  1.00  0.00     0.027 C 
ENDBRANCH  10  18
BRANCH  17  20
ATOM     20  C   UNL A   1      31.231  23.255  24.538  1.00  0.00     0.151 A 
ATOM     21  C   UNL A   1      31.638  22.914  23.254  1.00  0.00     0.051 A 
ATOM     22  N   UNL A   1      31.322  22.319  25.496  1.00  0.00    -0.132 NA
ATOM     23  C   UNL A   1      32.152  21.642  22.974  1.00  0.00     0.035 A 
ATOM     24  N   UNL A   1      31.880  21.064  25.236  1.00  0.00    -0.148 NA
ATOM     25  C   UNL A   1      32.302  20.723  23.999  1.00  0.00     0.093 A 
BRANCH  25  26
ATOM     26  C   UNL A   1      32.892  19.375  23.837  1.00  0.00     0.002 A 
ATOM     27  C   UNL A   1      33.991  18.973  24.623  1.00  0.00     0.010 A 
ATOM     28  C   UNL A   1      32.418  18.446  22.888  1.00  0.00     0.010 A 
ATOM     29  C   UNL A   1      34.585  17.716  24.470  1.00  0.00     0.001 A 
ATOM     30  C   UNL A   1      33.012  17.187  22.733  1.00  0.00     0.001 A 
ATOM     31  C   UNL A   1      34.096  16.823  23.524  1.00  0.00     0.000 A 
ENDBRANCH  25  26
ENDBRANCH  17  20
ENDBRANCH   6   9
ENDBRANCH   4   5
ENDBRANCH   3   4
ENDBRANCH   2   3
ENDBRANCH   1   2
BRANCH   1  32
ATOM     32  C   UNL A   1      35.710  22.148  24.477  1.00  0.00     0.021 C 
BRANCH  32  33
ATOM     33  C   UNL A   1      36.544  22.408  25.727  1.00  0.00     0.116 C 
BRANCH  33  34
ATOM     34  N   UNL A   1      37.544  21.371  25.908  1.00  0.00    -0.352 N 
ATOM     35  C   UNL A   1      38.890  21.506  26.129  1.00  0.00     0.251 C 
ATOM     36  H   UNL A   1      37.211  20.446  25.866  1.00  0.00     0.163 HD
ATOM     37  O   UNL A   1      39.638  20.552  25.936  1.00  0.00    -0.269 OA
BRANCH  35  38
ATOM     38  C   UNL A   1      39.425  22.803  26.594  1.00  0.00     0.039 A 
ATOM     39  C   UNL A   1      38.956  23.980  26.009  1.00  0.00     0.014 A 
ATOM     40  C   UNL A   1      40.414  22.852  27.581  1.00  0.00     0.014 A 
ATOM     41  C   UNL A   1      39.463  25.210  26.434  1.00  0.00     0.010 A 
ATOM     42  C   UNL A   1      40.855  24.080  28.062  1.00  0.00     0.010 A 
ATOM     43  C   UNL A   1      40.405  25.271  27.475  1.00  0.00    -0.014 A 
BRANCH  43  44
ATOM     44  C   UNL A   1      40.980  26.568  27.915  1.00  0.00     0.031 A 
ATOM     45  C   UNL A   1      42.432  26.867  27.642  1.00  0.00     0.074 A 
ATOM     46  C   UNL A   1      40.214  27.460  28.573  1.00  0.00     0.049 A 
ATOM     47  N   UNL A   1      43.144  27.906  27.996  1.00  0.00    -0.248 NA
ATOM     48  C   UNL A   1      43.190  25.847  26.899  1.00  0.00     0.031 C 
ATOM     49  C   UNL A   1      38.800  27.275  28.908  1.00  0.00     0.029 A 
ATOM     50  N   UNL A   1      40.513  28.701  29.076  1.00  0.00    -0.354 N 
ATOM     51  C   UNL A   1      44.427  27.667  27.514  1.00  0.00     0.074 A 
ATOM     52  C   UNL A   1      44.415  26.347  26.922  1.00  0.00     0.031 C 
ATOM     53  C   UNL A   1      38.348  28.377  29.526  1.00  0.00     0.029 A 
ATOM     54  C   UNL A   1      39.446  29.326  29.681  1.00  0.00     0.049 A 
ATOM     55  H   UNL A   1      41.407  29.107  29.009  1.00  0.00     0.167 HD
ATOM     56  C   UNL A   1      45.508  28.486  27.531  1.00  0.00     0.034 A 
ATOM     57  C   UNL A   1      39.368  30.523  30.297  1.00  0.00     0.034 A 
ATOM     58  C   UNL A   1      45.504  29.803  28.119  1.00  0.00     0.049 A 
ATOM     59  C   UNL A   1      40.606  31.388  30.359  1.00  0.00     0.074 A 
ATOM     60  C   UNL A   1      46.540  30.719  28.188  1.00  0.00     0.029 A 
ATOM     61  N   UNL A   1      44.410  30.395  28.736  1.00  0.00    -0.354 N 
ATOM     62  N   UNL A   1      41.807  31.153  29.882  1.00  0.00    -0.248 NA
ATOM     63  C   UNL A   1      40.468  32.690  31.025  1.00  0.00     0.031 C 
ATOM     64  C   UNL A   1      46.094  31.833  28.906  1.00  0.00     0.029 A 
ATOM     65  C   UNL A   1      44.753  31.653  29.206  1.00  0.00     0.049 A 
ATOM     66  H   UNL A   1      43.522  29.981  28.828  1.00  0.00     0.167 HD
ATOM     67  C   UNL A   1      42.550  32.303  30.144  1.00  0.00     0.074 A 
ATOM     68  C   UNL A   1      41.657  33.229  30.808  1.00  0.00     0.031 C 
ATOM     69  C   UNL A   1      43.849  32.573  29.856  1.00  0.00     0.034 A 
BRANCH  56  70
ATOM     70  C   UNL A   1      46.782  27.968  26.904  1.00  0.00     0.023 A 
ATOM     71  C   UNL A   1      47.034  28.112  25.528  1.00  0.00     0.031 A 
ATOM     72  C   UNL A   1      47.745  27.307  27.683  1.00  0.00     0.131 A 
ATOM     73  C   UNL A   1      48.183  27.539  24.963  1.00  0.00     0.055 A 
ATOM     74  C   UNL A   1      48.930  26.816  27.129  1.00  0.00     0.041 A 
ATOM     75  F   UNL A   1      47.549  27.115  28.998  1.00  0.00    -0.206 F 
ATOM     76  C   UNL A   1      49.147  26.918  25.758  1.00  0.00     0.022 A 
BRANCH  73  77
ATOM     77  S   UNL A   1      48.324  27.489  23.156  1.00  0.00     0.124 S 
ATOM     78  O   UNL A   1      47.128  28.223  22.747  1.00  0.00    -0.237 OA
ATOM     79  O   UNL A   1      49.597  28.160  22.920  1.00  0.00    -0.237 OA
ATOM     80  O   UNL A   1      48.305  26.061  22.849  1.00  0.00    -0.744 OA
ENDBRANCH  73  77
ENDBRANCH  56  70
BRANCH  57  81
ATOM     81  C   UNL A   1      38.089  30.989  30.910  1.00  0.00     0.023 A 
ATOM     82  C   UNL A   1      37.114  31.637  30.135  1.00  0.00     0.031 A 
ATOM     83  C   UNL A   1      37.860  30.877  32.293  1.00  0.00     0.131 A 
ATOM     84  C   UNL A   1      35.996  32.216  30.755  1.00  0.00     0.055 A 
ATOM     85  C   UNL A   1      36.710  31.392  32.895  1.00  0.00     0.041 A 
ATOM     86  F   UNL A   1      38.756  30.266  33.085  1.00  0.00    -0.206 F 
ATOM     87  C   UNL A   1      35.780  32.085  32.128  1.00  0.00     0.022 A 
BRANCH  84  88
ATOM     88  S   UNL A   1      34.902  33.266  29.758  1.00  0.00     0.124 S 
ATOM     89  O   UNL A   1      35.853  34.197  29.162  1.00  0.00    -0.237 OA
ATOM     90  O   UNL A   1      34.298  32.295  28.851  1.00  0.00    -0.237 OA
ATOM     91  O   UNL A   1      33.994  33.843  30.747  1.00  0.00    -0.744 OA
ENDBRANCH  84  88
ENDBRANCH  57  81
BRANCH  69  92
ATOM     92  C   UNL A   1      44.353  33.959  30.181  1.00  0.00     0.023 A 
ATOM     93  C   UNL A   1      44.949  34.269  31.416  1.00  0.00     0.031 A 
ATOM     94  C   UNL A   1      44.211  34.995  29.240  1.00  0.00     0.131 A 
ATOM     95  C   UNL A   1      45.309  35.594  31.704  1.00  0.00     0.055 A 
ATOM     96  C   UNL A   1      44.642  36.296  29.504  1.00  0.00     0.041 A 
ATOM     97  F   UNL A   1      43.647  34.760  28.043  1.00  0.00    -0.206 F 
ATOM     98  C   UNL A   1      45.179  36.605  30.750  1.00  0.00     0.022 A 
BRANCH  95  99
ATOM     99  S   UNL A   1      45.838  36.002  33.392  1.00  0.00     0.124 S 
ATOM    100  O   UNL A   1      46.735  34.896  33.704  1.00  0.00    -0.237 OA
ATOM    101  O   UNL A   1      46.472  37.305  33.213  1.00  0.00    -0.237 OA
ATOM    102  O   UNL A   1      44.587  36.020  34.148  1.00  0.00    -0.744 OA
ENDBRANCH  95  99
ENDBRANCH  69  92
ENDBRANCH  43  44
ENDBRANCH  35  38
ENDBRANCH  33  34
ENDBRANCH  32  33
ENDBRANCH   1  32
TORSDOF 19
ENDMDL
MODEL 2
REMARK VINA RESULT:     -12.9      1.412      7.284
REMARK SMILES CCN1C[C@]2(C(=O)NCCCCCCNC(=O)c3ccc(-c4c5nc(c(-c6cc(S(=O)(=O)[O-])ccc6F)c6ccc([nH]6)c(-c6cc(S(=O)(=O)[O-])ccc6F)c6nc(c(-c7cc(S(=O)(=O)[O-])ccc7F)c7ccc4[nH]7)C=C6)C=C5)cc3)CN(c3ccc(-c4ccccc4)nn3)C[C@H]2C1=O
REMARK SMILES IDX 12 1 11 2 10 3 9 4 8 5 6 6 7 7 5 9 3 10 4 11 97 12 96 13
REMARK SMILES IDX 98 14 81 15 95 16 82 17 2 18 1 19 83 20 84 21 94 22 85 23
REMARK SMILES IDX 93 24 86 25 87 26 88 27 92 28 89 29 91 30 90 31 13 32 14 33
REMARK SMILES IDX 15 34 16 35 17 37 18 38 19 39 80 40 20 41 79 42 21 43 22 44
REMARK SMILES IDX 23 45 73 46 24 47 78 48 72 49 74 50 25 51 77 52 71 53 70 54
REMARK SMILES IDX 26 56 58 57 38 58 57 59 39 60 42 61 56 62 75 63 40 64 41 65
REMARK SMILES IDX 55 67 76 68 43 69 27 70 28 71 36 72 29 73 35 74 37 75 34 76
REMARK SMILES IDX 30 77 31 78 32 79 33 80 59 81 60 82 68 83 61 84 67 85 69 86
REMARK SMILES IDX 66 87 62 88 63 89 64 90 65 91 44 92 45 93 53 94 46 95 52 96
REMARK SMILES IDX 54 97 51 98 47 99 48 100 49 101 50 102
REMARK H PARENT 8 8 15 36 74 55 42 66
REMARK Flexibility Score: inf
ROOT
ATOM      1  C   UNL A   1      35.297  23.768  24.117  1.00  0.00     0.002 C 
ENDROOT
BRANCH   1   2
ATOM      2  C   UNL A   1      34.530  24.786  24.965  1.00  0.00     0.002 C 
BRANCH   2   3
ATOM      3  C   UNL A   1      34.023  25.998  24.175  1.00  0.00     0.021 C 
BRANCH   3   4
ATOM      4  C   UNL A   1      33.574  25.646  22.756  1.00  0.00     0.116 C 
BRANCH   4   5
ATOM      5  N   UNL A   1      32.697  26.689  22.264  1.00  0.00    -0.355 N 
ATOM      6  C   UNL A   1      31.459  26.988  22.770  1.00  0.00     0.230 C 
ATOM      7  O   UNL A   1      30.624  27.511  22.030  1.00  0.00    -0.274 OA
ATOM      8  H   UNL A   1      33.016  27.228  21.504  1.00  0.00     0.163 HD
BRANCH   6   9
ATOM      9  C   UNL A   1      31.252  26.698  24.264  1.00  0.00     0.097 C 
ATOM     10  N   UNL A   1      31.374  28.608  25.762  1.00  0.00    -0.341 N 
ATOM     11  C   UNL A   1      30.953  28.269  24.419  1.00  0.00     0.139 C 
ATOM     12  C   UNL A   1      31.252  27.513  26.578  1.00  0.00     0.228 C 
ATOM     13  C   UNL A   1      30.637  26.492  25.684  1.00  0.00     0.117 C 
ATOM     14  O   UNL A   1      31.513  27.411  27.758  1.00  0.00    -0.274 OA
ATOM     15  C   UNL A   1      30.413  25.387  23.807  1.00  0.00     0.137 C 
ATOM     16  C   UNL A   1      30.964  25.084  26.107  1.00  0.00     0.133 C 
ATOM     17  N   UNL A   1      30.749  24.404  24.855  1.00  0.00    -0.353 N 
BRANCH  10  18
ATOM     18  C   UNL A   1      31.938  29.888  26.149  1.00  0.00     0.116 C 
ATOM     19  C   UNL A   1      33.446  29.806  26.326  1.00  0.00     0.027 C 
ENDBRANCH  10  18
BRANCH  17  20
ATOM     20  C   UNL A   1      31.293  23.184  24.547  1.00  0.00     0.151 A 
ATOM     21  C   UNL A   1      31.700  22.854  23.260  1.00  0.00     0.051 A 
ATOM     22  N   UNL A   1      31.396  22.244  25.500  1.00  0.00    -0.132 NA
ATOM     23  C   UNL A   1      32.226  21.588  22.972  1.00  0.00     0.035 A 
ATOM     24  N   UNL A   1      31.966  20.996  25.231  1.00  0.00    -0.148 NA
ATOM     25  C   UNL A   1      32.388  20.666  23.992  1.00  0.00     0.093 A 
BRANCH  25  26
ATOM     26  C   UNL A   1      32.992  19.325  23.821  1.00  0.00     0.002 A 
ATOM     27  C   UNL A   1      32.472  18.418  22.877  1.00  0.00     0.010 A 
ATOM     28  C   UNL A   1      34.082  18.878  24.596  1.00  0.00     0.010 A 
ATOM     29  C   UNL A   1      33.006  17.135  22.715  1.00  0.00     0.001 A 
ATOM     30  C   UNL A   1      34.618  17.593  24.437  1.00  0.00     0.001 A 
ATOM     31  C   UNL A   1      34.080  16.723  23.496  1.00  0.00     0.000 A 
ENDBRANCH  25  26
ENDBRANCH  17  20
ENDBRANCH   6   9
ENDBRANCH   4   5
ENDBRANCH   3   4
ENDBRANCH   2   3
ENDBRANCH   1   2
BRANCH   1  32
ATOM     32  C   UNL A   1      35.403  22.374  24.745  1.00  0.00     0.021 C 
BRANCH  32  33
ATOM     33  C   UNL A   1      36.222  22.336  26.031  1.00  0.00     0.116 C 
BRANCH  33  34
ATOM     34  N   UNL A   1      37.150  21.219  26.020  1.00  0.00    -0.352 N 
ATOM     35  C   UNL A   1      38.520  21.242  26.021  1.00  0.00     0.251 C 
ATOM     36  H   UNL A   1      36.740  20.325  26.011  1.00  0.00     0.163 HD
ATOM     37  O   UNL A   1      39.147  20.242  25.685  1.00  0.00    -0.269 OA
BRANCH  35  38
ATOM     38  C   UNL A   1      39.228  22.476  26.422  1.00  0.00     0.039 A 
ATOM     39  C   UNL A   1      38.835  23.695  25.868  1.00  0.00     0.014 A 
ATOM     40  C   UNL A   1      40.300  22.422  27.318  1.00  0.00     0.014 A 
ATOM     41  C   UNL A   1      39.504  24.865  26.233  1.00  0.00     0.010 A 
ATOM     42  C   UNL A   1      40.908  23.598  27.744  1.00  0.00     0.010 A 
ATOM     43  C   UNL A   1      40.536  24.829  27.186  1.00  0.00    -0.014 A 
BRANCH  43  44
ATOM     44  C   UNL A   1      41.281  26.058  27.559  1.00  0.00     0.031 A 
ATOM     45  C   UNL A   1      40.593  27.127  28.369  1.00  0.00     0.074 A 
ATOM     46  C   UNL A   1      42.555  26.226  27.154  1.00  0.00     0.049 A 
ATOM     47  N   UNL A   1      41.040  28.298  28.744  1.00  0.00    -0.248 NA
ATOM     48  C   UNL A   1      39.209  26.852  28.787  1.00  0.00     0.031 C 
ATOM     49  C   UNL A   1      43.320  25.267  26.353  1.00  0.00     0.029 A 
ATOM     50  N   UNL A   1      43.435  27.258  27.363  1.00  0.00    -0.354 N 
ATOM     51  C   UNL A   1      39.997  28.894  29.445  1.00  0.00     0.074 A 
ATOM     52  C   UNL A   1      38.868  27.993  29.365  1.00  0.00     0.031 C 
ATOM     53  C   UNL A   1      44.563  25.741  26.170  1.00  0.00     0.029 A 
ATOM     54  C   UNL A   1      44.672  27.057  26.794  1.00  0.00     0.049 A 
ATOM     55  H   UNL A   1      43.202  28.067  27.874  1.00  0.00     0.167 HD
ATOM     56  C   UNL A   1      39.989  30.069  30.123  1.00  0.00     0.034 A 
ATOM     57  C   UNL A   1      45.763  27.848  26.771  1.00  0.00     0.034 A 
ATOM     58  C   UNL A   1      41.125  30.955  30.199  1.00  0.00     0.049 A 
ATOM     59  C   UNL A   1      45.707  29.181  27.480  1.00  0.00     0.074 A 
ATOM     60  C   UNL A   1      41.231  32.166  30.860  1.00  0.00     0.029 A 
ATOM     61  N   UNL A   1      42.355  30.725  29.596  1.00  0.00    -0.354 N 
ATOM     62  N   UNL A   1      44.716  29.722  28.152  1.00  0.00    -0.248 NA
ATOM     63  C   UNL A   1      46.924  30.001  27.442  1.00  0.00     0.031 C 
ATOM     64  C   UNL A   1      42.497  32.700  30.602  1.00  0.00     0.029 A 
ATOM     65  C   UNL A   1      43.216  31.780  29.854  1.00  0.00     0.049 A 
ATOM     66  H   UNL A   1      42.582  29.929  29.063  1.00  0.00     0.167 HD
ATOM     67  C   UNL A   1      45.214  30.919  28.663  1.00  0.00     0.074 A 
ATOM     68  C   UNL A   1      46.592  31.012  28.229  1.00  0.00     0.031 C 
ATOM     69  C   UNL A   1      44.593  31.854  29.426  1.00  0.00     0.034 A 
BRANCH  56  70
ATOM     70  C   UNL A   1      38.708  30.460  30.821  1.00  0.00     0.023 A 
ATOM     71  C   UNL A   1      37.690  31.159  30.150  1.00  0.00     0.031 A 
ATOM     72  C   UNL A   1      38.509  30.149  32.177  1.00  0.00     0.131 A 
ATOM     73  C   UNL A   1      36.554  31.588  30.852  1.00  0.00     0.055 A 
ATOM     74  C   UNL A   1      37.335  30.502  32.848  1.00  0.00     0.041 A 
ATOM     75  F   UNL A   1      39.456  29.506  32.879  1.00  0.00    -0.206 F 
ATOM     76  C   UNL A   1      36.355  31.239  32.189  1.00  0.00     0.022 A 
BRANCH  73  77
ATOM     77  S   UNL A   1      35.412  32.733  30.032  1.00  0.00     0.124 S 
ATOM     78  O   UNL A   1      34.323  32.809  31.005  1.00  0.00    -0.237 OA
ATOM     79  O   UNL A   1      36.222  33.936  29.885  1.00  0.00    -0.237 OA
ATOM     80  O   UNL A   1      35.077  32.050  28.785  1.00  0.00    -0.744 OA
ENDBRANCH  73  77
ENDBRANCH  56  70
BRANCH  57  81
ATOM     81  C   UNL A   1      47.006  27.423  26.061  1.00  0.00     0.023 A 
ATOM     82  C   UNL A   1      47.263  27.843  24.746  1.00  0.00     0.031 A 
ATOM     83  C   UNL A   1      47.910  26.521  26.649  1.00  0.00     0.131 A 
ATOM     84  C   UNL A   1      48.346  27.303  24.036  1.00  0.00     0.055 A 
ATOM     85  C   UNL A   1      49.028  26.043  25.963  1.00  0.00     0.041 A 
ATOM     86  F   UNL A   1      47.718  26.086  27.905  1.00  0.00    -0.206 F 
ATOM     87  C   UNL A   1      49.239  26.417  24.641  1.00  0.00     0.022 A 
BRANCH  84  88
ATOM     88  S   UNL A   1      48.487  27.669  22.265  1.00  0.00     0.124 S 
ATOM     89  O   UNL A   1      49.675  28.515  22.234  1.00  0.00    -0.237 OA
ATOM     90  O   UNL A   1      48.634  26.335  21.692  1.00  0.00    -0.237 OA
ATOM     91  O   UNL A   1      47.229  28.345  21.957  1.00  0.00    -0.744 OA
ENDBRANCH  84  88
ENDBRANCH  57  81
BRANCH  69  92
ATOM     92  C   UNL A   1      45.430  33.014  29.913  1.00  0.00     0.023 A 
ATOM     93  C   UNL A   1      45.549  34.210  29.184  1.00  0.00     0.031 A 
ATOM     94  C   UNL A   1      46.141  32.907  31.122  1.00  0.00     0.131 A 
ATOM     95  C   UNL A   1      46.417  35.217  29.631  1.00  0.00     0.055 A 
ATOM     96  C   UNL A   1      46.944  33.943  31.601  1.00  0.00     0.041 A 
ATOM     97  F   UNL A   1      46.068  31.787  31.862  1.00  0.00    -0.206 F 
ATOM     98  C   UNL A   1      47.099  35.100  30.843  1.00  0.00     0.022 A 
BRANCH  95  99
ATOM     99  S   UNL A   1      46.739  36.632  28.541  1.00  0.00     0.124 S 
ATOM    100  O   UNL A   1      48.096  36.359  28.082  1.00  0.00    -0.237 OA
ATOM    101  O   UNL A   1      45.687  36.499  27.538  1.00  0.00    -0.237 OA
ATOM    102  O   UNL A   1      46.604  37.786  29.430  1.00  0.00    -0.744 OA
ENDBRANCH  95  99
ENDBRANCH  69  92
ENDBRANCH  43  44
ENDBRANCH  35  38
ENDBRANCH  33  34
ENDBRANCH  32  33
ENDBRANCH   1  32
TORSDOF 19
ENDMDL
MODEL 3
REMARK VINA RESULT:     -12.9      1.780      2.165
REMARK SMILES CCN1C[C@]2(C(=O)NCCCCCCNC(=O)c3ccc(-c4c5nc(c(-c6cc(S(=O)(=O)[O-])ccc6F)c6ccc([nH]6)c(-c6cc(S(=O)(=O)[O-])ccc6F)c6nc(c(-c7cc(S(=O)(=O)[O-])ccc7F)c7ccc4[nH]7)C=C6)C=C5)cc3)CN(c3ccc(-c4ccccc4)nn3)C[C@H]2C1=O
REMARK SMILES IDX 12 1 11 2 10 3 9 4 8 5 6 6 7 7 5 9 3 10 4 11 97 12 96 13
REMARK SMILES IDX 98 14 81 15 95 16 82 17 2 18 1 19 83 20 84 21 94 22 85 23
REMARK SMILES IDX 93 24 86 25 87 26 88 27 92 28 89 29 91 30 90 31 13 32 14 33
REMARK SMILES IDX 15 34 16 35 17 37 18 38 19 39 80 40 20 41 79 42 21 43 22 44
REMARK SMILES IDX 23 45 73 46 24 47 78 48 72 49 74 50 25 51 77 52 71 53 70 54
REMARK SMILES IDX 26 56 58 57 38 58 57 59 39 60 42 61 56 62 75 63 40 64 41 65
REMARK SMILES IDX 55 67 76 68 43 69 27 70 28 71 36 72 29 73 35 74 37 75 34 76
REMARK SMILES IDX 30 77 31 78 32 79 33 80 59 81 60 82 68 83 61 84 67 85 69 86
REMARK SMILES IDX 66 87 62 88 63 89 64 90 65 91 44 92 45 93 53 94 46 95 52 96
REMARK SMILES IDX 54 97 51 98 47 99 48 100 49 101 50 102
REMARK H PARENT 8 8 15 36 74 55 42 66
REMARK Flexibility Score: inf
ROOT
ATOM      1  C   UNL A   1      34.972  23.395  23.778  1.00  0.00     0.002 C 
ENDROOT
BRANCH   1   2
ATOM      2  C   UNL A   1      34.535  24.837  24.049  1.00  0.00     0.002 C 
BRANCH   2   3
ATOM      3  C   UNL A   1      33.935  25.546  22.830  1.00  0.00     0.021 C 
BRANCH   3   4
ATOM      4  C   UNL A   1      33.930  27.070  22.960  1.00  0.00     0.116 C 
BRANCH   4   5
ATOM      5  N   UNL A   1      32.720  27.593  22.361  1.00  0.00    -0.355 N 
ATOM      6  C   UNL A   1      31.445  27.342  22.800  1.00  0.00     0.230 C 
ATOM      7  O   UNL A   1      30.516  27.405  21.993  1.00  0.00    -0.274 OA
ATOM      8  H   UNL A   1      32.819  28.178  21.576  1.00  0.00     0.163 HD
BRANCH   6   9
ATOM      9  C   UNL A   1      31.290  27.068  24.303  1.00  0.00     0.097 C 
ATOM     10  N   UNL A   1      31.534  28.982  25.781  1.00  0.00    -0.341 N 
ATOM     11  C   UNL A   1      31.048  28.649  24.458  1.00  0.00     0.139 C 
ATOM     12  C   UNL A   1      31.410  27.896  26.609  1.00  0.00     0.228 C 
ATOM     13  C   UNL A   1      30.727  26.891  25.748  1.00  0.00     0.117 C 
ATOM     14  O   UNL A   1      31.715  27.792  27.778  1.00  0.00    -0.274 OA
ATOM     15  C   UNL A   1      30.391  25.782  23.889  1.00  0.00     0.137 C 
ATOM     16  C   UNL A   1      31.025  25.475  26.167  1.00  0.00     0.133 C 
ATOM     17  N   UNL A   1      30.737  24.795  24.930  1.00  0.00    -0.353 N 
BRANCH  10  18
ATOM     18  C   UNL A   1      32.154  30.245  26.135  1.00  0.00     0.116 C 
ATOM     19  C   UNL A   1      31.152  31.388  26.111  1.00  0.00     0.027 C 
ENDBRANCH  10  18
BRANCH  17  20
ATOM     20  C   UNL A   1      31.229  23.556  24.609  1.00  0.00     0.151 A 
ATOM     21  C   UNL A   1      31.325  23.110  23.296  1.00  0.00     0.051 A 
ATOM     22  N   UNL A   1      31.587  22.710  25.588  1.00  0.00    -0.132 NA
ATOM     23  C   UNL A   1      31.806  21.828  23.003  1.00  0.00     0.035 A 
ATOM     24  N   UNL A   1      32.114  21.448  25.302  1.00  0.00    -0.148 NA
ATOM     25  C   UNL A   1      32.236  21.006  24.031  1.00  0.00     0.093 A 
BRANCH  25  26
ATOM     26  C   UNL A   1      32.822  19.661  23.839  1.00  0.00     0.002 A 
ATOM     27  C   UNL A   1      33.933  19.246  24.599  1.00  0.00     0.010 A 
ATOM     28  C   UNL A   1      32.330  18.746  22.885  1.00  0.00     0.010 A 
ATOM     29  C   UNL A   1      34.524  17.991  24.418  1.00  0.00     0.001 A 
ATOM     30  C   UNL A   1      32.920  17.489  22.701  1.00  0.00     0.001 A 
ATOM     31  C   UNL A   1      34.017  17.112  23.468  1.00  0.00     0.000 A 
ENDBRANCH  25  26
ENDBRANCH  17  20
ENDBRANCH   6   9
ENDBRANCH   4   5
ENDBRANCH   3   4
ENDBRANCH   2   3
ENDBRANCH   1   2
BRANCH   1  32
ATOM     32  C   UNL A   1      35.553  22.671  24.996  1.00  0.00     0.021 C 
BRANCH  32  33
ATOM     33  C   UNL A   1      36.776  23.355  25.598  1.00  0.00     0.116 C 
BRANCH  33  34
ATOM     34  N   UNL A   1      37.801  22.383  25.931  1.00  0.00    -0.352 N 
ATOM     35  C   UNL A   1      39.095  22.602  26.329  1.00  0.00     0.251 C 
ATOM     36  H   UNL A   1      37.532  21.439  25.863  1.00  0.00     0.163 HD
ATOM     37  O   UNL A   1      39.917  21.694  26.256  1.00  0.00    -0.269 OA
BRANCH  35  38
ATOM     38  C   UNL A   1      39.485  23.935  26.835  1.00  0.00     0.039 A 
ATOM     39  C   UNL A   1      40.073  24.849  25.960  1.00  0.00     0.014 A 
ATOM     40  C   UNL A   1      39.299  24.267  28.181  1.00  0.00     0.014 A 
ATOM     41  C   UNL A   1      40.455  26.107  26.432  1.00  0.00     0.010 A 
ATOM     42  C   UNL A   1      39.600  25.549  28.628  1.00  0.00     0.010 A 
ATOM     43  C   UNL A   1      40.207  26.473  27.766  1.00  0.00    -0.014 A 
BRANCH  43  44
ATOM     44  C   UNL A   1      40.637  27.793  28.293  1.00  0.00     0.031 A 
ATOM     45  C   UNL A   1      42.108  28.105  28.403  1.00  0.00     0.074 A 
ATOM     46  C   UNL A   1      39.719  28.695  28.691  1.00  0.00     0.049 A 
ATOM     47  N   UNL A   1      42.694  29.167  28.893  1.00  0.00    -0.248 NA
ATOM     48  C   UNL A   1      43.041  27.072  27.925  1.00  0.00     0.031 C 
ATOM     49  C   UNL A   1      38.268  28.500  28.646  1.00  0.00     0.029 A 
ATOM     50  N   UNL A   1      39.867  29.958  29.207  1.00  0.00    -0.354 N 
ATOM     51  C   UNL A   1      44.061  28.932  28.777  1.00  0.00     0.074 A 
ATOM     52  C   UNL A   1      44.214  27.592  28.252  1.00  0.00     0.031 C 
ATOM     53  C   UNL A   1      37.661  29.616  29.081  1.00  0.00     0.029 A 
ATOM     54  C   UNL A   1      38.674  30.586  29.485  1.00  0.00     0.049 A 
ATOM     55  H   UNL A   1      40.744  30.375  29.364  1.00  0.00     0.167 HD
ATOM     56  C   UNL A   1      45.094  29.767  29.047  1.00  0.00     0.034 A 
ATOM     57  C   UNL A   1      38.429  31.803  30.013  1.00  0.00     0.034 A 
ATOM     58  C   UNL A   1      44.927  31.104  29.563  1.00  0.00     0.049 A 
ATOM     59  C   UNL A   1      39.600  32.689  30.366  1.00  0.00     0.074 A 
ATOM     60  C   UNL A   1      45.901  32.038  29.870  1.00  0.00     0.029 A 
ATOM     61  N   UNL A   1      43.705  31.699  29.847  1.00  0.00    -0.354 N 
ATOM     62  N   UNL A   1      40.886  32.456  30.234  1.00  0.00    -0.248 NA
ATOM     63  C   UNL A   1      39.284  34.011  30.923  1.00  0.00     0.031 C 
ATOM     64  C   UNL A   1      45.275  33.169  30.401  1.00  0.00     0.029 A 
ATOM     65  C   UNL A   1      43.903  32.979  30.342  1.00  0.00     0.049 A 
ATOM     66  H   UNL A   1      42.826  31.275  29.716  1.00  0.00     0.167 HD
ATOM     67  C   UNL A   1      41.527  33.626  30.639  1.00  0.00     0.074 A 
ATOM     68  C   UNL A   1      40.484  34.561  31.008  1.00  0.00     0.031 C 
ATOM     69  C   UNL A   1      42.854  33.906  30.695  1.00  0.00     0.034 A 
BRANCH  56  70
ATOM     70  C   UNL A   1      46.491  29.248  28.800  1.00  0.00     0.023 A 
ATOM     71  C   UNL A   1      46.983  29.057  27.497  1.00  0.00     0.031 A 
ATOM     72  C   UNL A   1      47.334  28.922  29.875  1.00  0.00     0.131 A 
ATOM     73  C   UNL A   1      48.250  28.487  27.302  1.00  0.00     0.055 A 
ATOM     74  C   UNL A   1      48.629  28.437  29.675  1.00  0.00     0.041 A 
ATOM     75  F   UNL A   1      46.912  29.058  31.143  1.00  0.00    -0.206 F 
ATOM     76  C   UNL A   1      49.088  28.203  28.382  1.00  0.00     0.022 A 
BRANCH  73  77
ATOM     77  S   UNL A   1      48.725  27.985  25.626  1.00  0.00     0.124 S 
ATOM     78  O   UNL A   1      49.976  28.719  25.443  1.00  0.00    -0.237 OA
ATOM     79  O   UNL A   1      48.845  26.538  25.751  1.00  0.00    -0.237 OA
ATOM     80  O   UNL A   1      47.612  28.450  24.800  1.00  0.00    -0.744 OA
ENDBRANCH  73  77
ENDBRANCH  56  70
BRANCH  57  81
ATOM     81  C   UNL A   1      37.031  32.271  30.247  1.00  0.00     0.023 A 
ATOM     82  C   UNL A   1      36.294  32.881  29.220  1.00  0.00     0.031 A 
ATOM     83  C   UNL A   1      36.441  32.197  31.522  1.00  0.00     0.131 A 
ATOM     84  C   UNL A   1      35.048  33.464  29.501  1.00  0.00     0.055 A 
ATOM     85  C   UNL A   1      35.170  32.714  31.779  1.00  0.00     0.041 A 
ATOM     86  F   UNL A   1      37.097  31.622  32.543  1.00  0.00    -0.206 F 
ATOM     87  C   UNL A   1      34.475  33.371  30.770  1.00  0.00     0.022 A 
BRANCH  84  88
ATOM     88  S   UNL A   1      34.254  34.469  28.215  1.00  0.00     0.124 S 
ATOM     89  O   UNL A   1      35.250  34.423  27.151  1.00  0.00    -0.237 OA
ATOM     90  O   UNL A   1      33.021  33.727  27.973  1.00  0.00    -0.237 OA
ATOM     91  O   UNL A   1      34.084  35.769  28.858  1.00  0.00    -0.744 OA
ENDBRANCH  84  88
ENDBRANCH  57  81
BRANCH  69  92
ATOM     92  C   UNL A   1      43.247  35.311  31.089  1.00  0.00     0.023 A 
ATOM     93  C   UNL A   1      43.422  36.333  30.140  1.00  0.00     0.031 A 
ATOM     94  C   UNL A   1      43.473  35.622  32.442  1.00  0.00     0.131 A 
ATOM     95  C   UNL A   1      43.884  37.593  30.549  1.00  0.00     0.055 A 
ATOM     96  C   UNL A   1      43.858  36.900  32.851  1.00  0.00     0.041 A 
ATOM     97  F   UNL A   1      43.323  34.686  33.394  1.00  0.00    -0.206 F 
ATOM     98  C   UNL A   1      44.083  37.889  31.899  1.00  0.00     0.022 A 
BRANCH  95  99
ATOM     99  S   UNL A   1      44.339  38.806  29.278  1.00  0.00     0.124 S 
ATOM    100  O   UNL A   1      44.745  37.947  28.171  1.00  0.00    -0.237 OA
ATOM    101  O   UNL A   1      43.094  39.542  29.089  1.00  0.00    -0.237 OA
ATOM    102  O   UNL A   1      45.421  39.566  29.901  1.00  0.00    -0.744 OA
ENDBRANCH  95  99
ENDBRANCH  69  92
ENDBRANCH  43  44
ENDBRANCH  35  38
ENDBRANCH  33  34
ENDBRANCH  32  33
ENDBRANCH   1  32
TORSDOF 19
ENDMDL
