MODEL 1
REMARK VINA RESULT:     -10.7      0.000      0.000
REMARK SMILES C=C(C)CN(CC)c1ccc(F)cc1C(=O)NCCCCCCNC(=O)c1ccc(-c2c3nc(c(-c4cc(S(=O)(=O)[O-])ccc4F)c4ccc([nH]4)c(-c4cc(S(=O)(=O)[O-])ccc4F)c4nc(c(-c5cc(S(=O)(=O)[O-])ccc5F)c5ccc2[nH]5)C=C4)C=C3)cc1
REMARK SMILES IDX 20 1 19 2 18 3 17 4 15 5 16 6 14 8 8 9 9 10 10 11 13 12
REMARK SMILES IDX 11 13 12 14 5 15 4 16 2 17 1 18 3 19 6 20 7 21 21 22 22 23
REMARK SMILES IDX 23 24 24 25 25 26 26 28 27 29 28 30 89 31 29 32 88 33 30 34
REMARK SMILES IDX 31 35 32 36 82 37 33 38 87 39 81 40 83 41 34 42 86 43 80 44
REMARK SMILES IDX 79 45 35 47 67 48 47 49 66 50 48 51 51 52 65 53 84 54 49 55
REMARK SMILES IDX 50 56 64 58 85 59 52 60 36 61 37 62 45 63 38 64 44 65 46 66
REMARK SMILES IDX 43 67 39 68 40 69 41 70 42 71 68 72 69 73 77 74 70 75 76 76
REMARK SMILES IDX 78 77 75 78 71 79 72 80 73 81 74 82 53 83 54 84 62 85 55 86
REMARK SMILES IDX 61 87 63 88 60 89 56 90 57 91 58 92 59 93
REMARK H PARENT 17 7 24 27 83 46 51 57
REMARK Flexibility Score: inf
ROOT
ATOM      1  C   UNL A   1      33.383  29.223  27.202  1.00  0.00     0.002 C 
ENDROOT
BRANCH   1   2
ATOM      2  C   UNL A   1      33.911  28.338  26.066  1.00  0.00     0.021 C 
BRANCH   2   3
ATOM      3  C   UNL A   1      33.686  28.866  24.658  1.00  0.00     0.116 C 
BRANCH   3   4
ATOM      4  N   UNL A   1      34.025  27.991  23.573  1.00  0.00    -0.352 N 
ATOM      5  C   UNL A   1      33.181  27.179  22.846  1.00  0.00     0.253 C 
ATOM      6  O   UNL A   1      33.669  26.582  21.882  1.00  0.00    -0.269 OA
ATOM      7  H   UNL A   1      34.975  27.965  23.318  1.00  0.00     0.163 HD
BRANCH   5   8
ATOM      8  C   UNL A   1      31.747  26.901  23.206  1.00  0.00     0.066 A 
ATOM      9  C   UNL A   1      31.200  25.795  23.913  1.00  0.00     0.050 A 
ATOM     10  C   UNL A   1      29.798  25.792  24.122  1.00  0.00     0.030 A 
ATOM     11  C   UNL A   1      28.964  26.819  23.683  1.00  0.00     0.041 A 
ATOM     12  C   UNL A   1      30.890  27.956  22.810  1.00  0.00     0.055 A 
ATOM     13  C   UNL A   1      29.525  27.905  23.046  1.00  0.00     0.124 A 
ATOM     14  F   UNL A   1      28.742  28.922  22.661  1.00  0.00    -0.207 F 
BRANCH   9  15
ATOM     15  N   UNL A   1      31.929  24.749  24.476  1.00  0.00    -0.367 N 
BRANCH  15  16
ATOM     16  C   UNL A   1      31.915  23.414  23.843  1.00  0.00     0.146 C 
BRANCH  16  17
ATOM     17  C   UNL A   1      33.247  22.737  23.667  1.00  0.00    -0.061 C 
ATOM     18  C   UNL A   1      34.312  23.319  23.090  1.00  0.00     0.009 C 
ATOM     19  C   UNL A   1      33.276  21.291  24.088  1.00  0.00     0.041 C 
ENDBRANCH  16  17
ENDBRANCH  15  16
BRANCH  15  20
ATOM     20  C   UNL A   1      32.378  24.853  25.873  1.00  0.00     0.113 C 
ATOM     21  C   UNL A   1      31.800  23.792  26.801  1.00  0.00     0.027 C 
ENDBRANCH  15  20
ENDBRANCH   9  15
ENDBRANCH   5   8
ENDBRANCH   3   4
ENDBRANCH   2   3
ENDBRANCH   1   2
BRANCH   1  22
ATOM     22  C   UNL A   1      31.956  29.776  27.087  1.00  0.00     0.002 C 
BRANCH  22  23
ATOM     23  C   UNL A   1      31.784  31.270  26.808  1.00  0.00     0.021 C 
BRANCH  23  24
ATOM     24  C   UNL A   1      32.986  32.165  27.086  1.00  0.00     0.116 C 
BRANCH  24  25
ATOM     25  N   UNL A   1      32.623  33.513  27.474  1.00  0.00    -0.352 N 
ATOM     26  C   UNL A   1      33.146  34.320  28.457  1.00  0.00     0.251 C 
ATOM     27  H   UNL A   1      31.888  33.913  26.955  1.00  0.00     0.163 HD
ATOM     28  O   UNL A   1      32.620  35.403  28.687  1.00  0.00    -0.269 OA
BRANCH  26  29
ATOM     29  C   UNL A   1      34.310  33.873  29.263  1.00  0.00     0.039 A 
ATOM     30  C   UNL A   1      34.085  32.992  30.325  1.00  0.00     0.014 A 
ATOM     31  C   UNL A   1      35.608  34.318  28.993  1.00  0.00     0.014 A 
ATOM     32  C   UNL A   1      35.165  32.507  31.069  1.00  0.00     0.010 A 
ATOM     33  C   UNL A   1      36.689  33.774  29.687  1.00  0.00     0.010 A 
ATOM     34  C   UNL A   1      36.481  32.862  30.732  1.00  0.00    -0.014 A 
BRANCH  34  35
ATOM     35  C   UNL A   1      37.644  32.285  31.457  1.00  0.00     0.031 A 
ATOM     36  C   UNL A   1      38.444  31.167  30.845  1.00  0.00     0.074 A 
ATOM     37  C   UNL A   1      37.953  32.736  32.690  1.00  0.00     0.049 A 
ATOM     38  N   UNL A   1      39.444  30.493  31.354  1.00  0.00    -0.248 NA
ATOM     39  C   UNL A   1      38.053  30.733  29.496  1.00  0.00     0.031 C 
ATOM     40  C   UNL A   1      37.237  33.797  33.403  1.00  0.00     0.029 A 
ATOM     41  N   UNL A   1      38.944  32.362  33.563  1.00  0.00    -0.354 N 
ATOM     42  C   UNL A   1      39.793  29.549  30.394  1.00  0.00     0.074 A 
ATOM     43  C   UNL A   1      38.864  29.703  29.296  1.00  0.00     0.031 C 
ATOM     44  C   UNL A   1      37.834  34.013  34.585  1.00  0.00     0.029 A 
ATOM     45  C   UNL A   1      38.942  33.074  34.741  1.00  0.00     0.049 A 
ATOM     46  H   UNL A   1      39.597  31.653  33.365  1.00  0.00     0.167 HD
ATOM     47  C   UNL A   1      40.809  28.653  30.418  1.00  0.00     0.034 A 
ATOM     48  C   UNL A   1      39.729  32.977  35.831  1.00  0.00     0.034 A 
ATOM     49  C   UNL A   1      41.743  28.525  31.509  1.00  0.00     0.049 A 
ATOM     50  C   UNL A   1      40.830  31.951  35.853  1.00  0.00     0.074 A 
ATOM     51  C   UNL A   1      42.842  27.690  31.603  1.00  0.00     0.029 A 
ATOM     52  N   UNL A   1      41.685  29.242  32.697  1.00  0.00    -0.354 N 
ATOM     53  N   UNL A   1      41.158  31.081  34.928  1.00  0.00    -0.248 NA
ATOM     54  C   UNL A   1      41.663  31.892  37.060  1.00  0.00     0.031 C 
ATOM     55  C   UNL A   1      43.405  27.848  32.873  1.00  0.00     0.029 A 
ATOM     56  C   UNL A   1      42.706  28.839  33.544  1.00  0.00     0.049 A 
ATOM     57  H   UNL A   1      41.018  29.935  32.907  1.00  0.00     0.167 HD
ATOM     58  C   UNL A   1      42.249  30.381  35.434  1.00  0.00     0.074 A 
ATOM     59  C   UNL A   1      42.525  30.934  36.745  1.00  0.00     0.031 C 
ATOM     60  C   UNL A   1      42.960  29.379  34.859  1.00  0.00     0.034 A 
BRANCH  47  61
ATOM     61  C   UNL A   1      40.954  27.723  29.240  1.00  0.00     0.023 A 
ATOM     62  C   UNL A   1      41.954  27.908  28.270  1.00  0.00     0.031 A 
ATOM     63  C   UNL A   1      40.087  26.625  29.094  1.00  0.00     0.131 A 
ATOM     64  C   UNL A   1      42.033  27.038  27.172  1.00  0.00     0.055 A 
ATOM     65  C   UNL A   1      40.215  25.722  28.036  1.00  0.00     0.041 A 
ATOM     66  F   UNL A   1      39.101  26.411  29.979  1.00  0.00    -0.206 F 
ATOM     67  C   UNL A   1      41.186  25.932  27.062  1.00  0.00     0.022 A 
BRANCH  64  68
ATOM     68  S   UNL A   1      43.196  27.428  25.837  1.00  0.00     0.124 S 
ATOM     69  O   UNL A   1      44.388  26.699  26.264  1.00  0.00    -0.237 OA
ATOM     70  O   UNL A   1      42.515  26.902  24.659  1.00  0.00    -0.237 OA
ATOM     71  O   UNL A   1      43.308  28.883  25.895  1.00  0.00    -0.744 OA
ENDBRANCH  64  68
ENDBRANCH  47  61
BRANCH  48  72
ATOM     72  C   UNL A   1      39.487  33.876  36.993  1.00  0.00     0.023 A 
ATOM     73  C   UNL A   1      38.828  33.412  38.143  1.00  0.00     0.031 A 
ATOM     74  C   UNL A   1      39.955  35.203  36.986  1.00  0.00     0.131 A 
ATOM     75  C   UNL A   1      38.649  34.273  39.237  1.00  0.00     0.055 A 
ATOM     76  C   UNL A   1      39.804  36.042  38.089  1.00  0.00     0.041 A 
ATOM     77  F   UNL A   1      40.601  35.687  35.913  1.00  0.00    -0.206 F 
ATOM     78  C   UNL A   1      39.147  35.579  39.224  1.00  0.00     0.022 A 
BRANCH  75  79
ATOM     79  S   UNL A   1      37.752  33.663  40.691  1.00  0.00     0.124 S 
ATOM     80  O   UNL A   1      38.740  32.781  41.301  1.00  0.00    -0.237 OA
ATOM     81  O   UNL A   1      37.460  34.897  41.412  1.00  0.00    -0.237 OA
ATOM     82  O   UNL A   1      36.587  32.994  40.115  1.00  0.00    -0.744 OA
ENDBRANCH  75  79
ENDBRANCH  48  72
BRANCH  60  83
ATOM     83  C   UNL A   1      44.126  28.818  35.630  1.00  0.00     0.023 A 
ATOM     84  C   UNL A   1      43.967  27.759  36.539  1.00  0.00     0.031 A 
ATOM     85  C   UNL A   1      45.425  29.310  35.403  1.00  0.00     0.131 A 
ATOM     86  C   UNL A   1      45.086  27.240  37.206  1.00  0.00     0.055 A 
ATOM     87  C   UNL A   1      46.540  28.757  36.033  1.00  0.00     0.041 A 
ATOM     88  F   UNL A   1      45.631  30.320  34.543  1.00  0.00    -0.206 F 
ATOM     89  C   UNL A   1      46.373  27.717  36.945  1.00  0.00     0.022 A 
BRANCH  86  90
ATOM     90  S   UNL A   1      44.837  25.944  38.452  1.00  0.00     0.124 S 
ATOM     91  O   UNL A   1      46.169  25.831  39.039  1.00  0.00    -0.237 OA
ATOM     92  O   UNL A   1      43.809  26.524  39.310  1.00  0.00    -0.237 OA
ATOM     93  O   UNL A   1      44.407  24.790  37.664  1.00  0.00    -0.744 OA
ENDBRANCH  86  90
ENDBRANCH  60  83
ENDBRANCH  34  35
ENDBRANCH  26  29
ENDBRANCH  24  25
ENDBRANCH  23  24
ENDBRANCH  22  23
ENDBRANCH   1  22
TORSDOF 20
ENDMDL
MODEL 2
REMARK VINA RESULT:     -10.6      5.292      8.417
REMARK SMILES C=C(C)CN(CC)c1ccc(F)cc1C(=O)NCCCCCCNC(=O)c1ccc(-c2c3nc(c(-c4cc(S(=O)(=O)[O-])ccc4F)c4ccc([nH]4)c(-c4cc(S(=O)(=O)[O-])ccc4F)c4nc(c(-c5cc(S(=O)(=O)[O-])ccc5F)c5ccc2[nH]5)C=C4)C=C3)cc1
REMARK SMILES IDX 20 1 19 2 18 3 17 4 15 5 16 6 14 8 8 9 9 10 10 11 13 12
REMARK SMILES IDX 11 13 12 14 5 15 4 16 2 17 1 18 3 19 6 20 7 21 21 22 22 23
REMARK SMILES IDX 23 24 24 25 25 26 26 28 27 29 28 30 89 31 29 32 88 33 30 34
REMARK SMILES IDX 31 35 32 36 82 37 33 38 87 39 81 40 83 41 34 42 86 43 80 44
REMARK SMILES IDX 79 45 35 47 67 48 47 49 66 50 48 51 51 52 65 53 84 54 49 55
REMARK SMILES IDX 50 56 64 58 85 59 52 60 36 61 37 62 45 63 38 64 44 65 46 66
REMARK SMILES IDX 43 67 39 68 40 69 41 70 42 71 68 72 69 73 77 74 70 75 76 76
REMARK SMILES IDX 78 77 75 78 71 79 72 80 73 81 74 82 53 83 54 84 62 85 55 86
REMARK SMILES IDX 61 87 63 88 60 89 56 90 57 91 58 92 59 93
REMARK H PARENT 17 7 24 27 83 46 51 57
REMARK Flexibility Score: inf
ROOT
ATOM      1  C   UNL A   1      33.695  22.208  23.963  1.00  0.00     0.002 C 
ENDROOT
BRANCH   1   2
ATOM      2  C   UNL A   1      32.428  22.483  23.145  1.00  0.00     0.021 C 
BRANCH   2   3
ATOM      3  C   UNL A   1      31.652  23.733  23.529  1.00  0.00     0.116 C 
BRANCH   3   4
ATOM      4  N   UNL A   1      31.266  23.862  24.905  1.00  0.00    -0.352 N 
ATOM      5  C   UNL A   1      30.642  24.931  25.511  1.00  0.00     0.253 C 
ATOM      6  O   UNL A   1      30.306  24.789  26.690  1.00  0.00    -0.269 OA
ATOM      7  H   UNL A   1      31.474  23.096  25.486  1.00  0.00     0.163 HD
BRANCH   5   8
ATOM      8  C   UNL A   1      30.434  26.274  24.867  1.00  0.00     0.066 A 
ATOM      9  C   UNL A   1      31.343  27.362  24.750  1.00  0.00     0.050 A 
ATOM     10  C   UNL A   1      30.881  28.520  24.077  1.00  0.00     0.030 A 
ATOM     11  C   UNL A   1      29.604  28.620  23.527  1.00  0.00     0.041 A 
ATOM     12  C   UNL A   1      29.158  26.377  24.261  1.00  0.00     0.055 A 
ATOM     13  C   UNL A   1      28.758  27.533  23.608  1.00  0.00     0.124 A 
ATOM     14  F   UNL A   1      27.546  27.596  23.043  1.00  0.00    -0.207 F 
BRANCH   9  15
ATOM     15  N   UNL A   1      32.669  27.361  25.179  1.00  0.00    -0.367 N 
BRANCH  15  16
ATOM     16  C   UNL A   1      33.718  26.752  24.335  1.00  0.00     0.146 C 
BRANCH  16  17
ATOM     17  C   UNL A   1      33.724  27.138  22.881  1.00  0.00    -0.061 C 
ATOM     18  C   UNL A   1      33.407  26.296  21.882  1.00  0.00     0.009 C 
ATOM     19  C   UNL A   1      34.227  28.530  22.603  1.00  0.00     0.041 C 
ENDBRANCH  16  17
ENDBRANCH  15  16
BRANCH  15  20
ATOM     20  C   UNL A   1      32.968  27.598  26.600  1.00  0.00     0.113 C 
ATOM     21  C   UNL A   1      34.155  28.520  26.848  1.00  0.00     0.027 C 
ENDBRANCH  15  20
ENDBRANCH   9  15
ENDBRANCH   5   8
ENDBRANCH   3   4
ENDBRANCH   2   3
ENDBRANCH   1   2
BRANCH   1  22
ATOM     22  C   UNL A   1      34.858  23.204  23.856  1.00  0.00     0.002 C 
BRANCH  22  23
ATOM     23  C   UNL A   1      36.273  22.689  24.126  1.00  0.00     0.021 C 
BRANCH  23  24
ATOM     24  C   UNL A   1      36.913  23.097  25.447  1.00  0.00     0.116 C 
BRANCH  24  25
ATOM     25  N   UNL A   1      37.988  22.217  25.862  1.00  0.00    -0.352 N 
ATOM     26  C   UNL A   1      39.190  22.514  26.460  1.00  0.00     0.251 C 
ATOM     27  H   UNL A   1      37.835  21.260  25.688  1.00  0.00     0.163 HD
ATOM     28  O   UNL A   1      40.008  21.618  26.639  1.00  0.00    -0.269 OA
BRANCH  26  29
ATOM     29  C   UNL A   1      39.518  23.907  26.851  1.00  0.00     0.039 A 
ATOM     30  C   UNL A   1      39.296  24.297  28.175  1.00  0.00     0.014 A 
ATOM     31  C   UNL A   1      40.028  24.830  25.933  1.00  0.00     0.014 A 
ATOM     32  C   UNL A   1      39.646  25.585  28.591  1.00  0.00     0.010 A 
ATOM     33  C   UNL A   1      40.447  26.088  26.368  1.00  0.00     0.010 A 
ATOM     34  C   UNL A   1      40.261  26.480  27.702  1.00  0.00    -0.014 A 
BRANCH  34  35
ATOM     35  C   UNL A   1      40.720  27.820  28.152  1.00  0.00     0.031 A 
ATOM     36  C   UNL A   1      42.186  28.164  28.151  1.00  0.00     0.074 A 
ATOM     37  C   UNL A   1      39.821  28.716  28.608  1.00  0.00     0.049 A 
ATOM     38  N   UNL A   1      42.780  29.251  28.572  1.00  0.00    -0.248 NA
ATOM     39  C   UNL A   1      43.107  27.140  27.634  1.00  0.00     0.031 C 
ATOM     40  C   UNL A   1      38.375  28.493  28.685  1.00  0.00     0.029 A 
ATOM     41  N   UNL A   1      39.985  29.989  29.094  1.00  0.00    -0.354 N 
ATOM     42  C   UNL A   1      44.141  29.039  28.381  1.00  0.00     0.074 A 
ATOM     43  C   UNL A   1      44.288  27.699  27.857  1.00  0.00     0.031 C 
ATOM     44  C   UNL A   1      37.783  29.603  29.151  1.00  0.00     0.029 A 
ATOM     45  C   UNL A   1      38.806  30.600  29.457  1.00  0.00     0.049 A 
ATOM     46  H   UNL A   1      40.863  30.427  29.173  1.00  0.00     0.167 HD
ATOM     47  C   UNL A   1      45.170  29.893  28.603  1.00  0.00     0.034 A 
ATOM     48  C   UNL A   1      38.571  31.815  29.991  1.00  0.00     0.034 A 
ATOM     49  C   UNL A   1      45.008  31.235  29.104  1.00  0.00     0.049 A 
ATOM     50  C   UNL A   1      39.730  32.735  30.262  1.00  0.00     0.074 A 
ATOM     51  C   UNL A   1      45.980  32.198  29.304  1.00  0.00     0.029 A 
ATOM     52  N   UNL A   1      43.800  31.802  29.491  1.00  0.00    -0.354 N 
ATOM     53  N   UNL A   1      41.009  32.526  30.056  1.00  0.00    -0.248 NA
ATOM     54  C   UNL A   1      39.419  34.050  30.836  1.00  0.00     0.031 C 
ATOM     55  C   UNL A   1      45.375  33.319  29.881  1.00  0.00     0.029 A 
ATOM     56  C   UNL A   1      44.012  33.087  29.967  1.00  0.00     0.049 A 
ATOM     57  H   UNL A   1      42.924  31.357  29.435  1.00  0.00     0.167 HD
ATOM     58  C   UNL A   1      41.655  33.690  30.459  1.00  0.00     0.074 A 
ATOM     59  C   UNL A   1      40.623  34.600  30.916  1.00  0.00     0.031 C 
ATOM     60  C   UNL A   1      42.980  33.980  30.442  1.00  0.00     0.034 A 
BRANCH  47  61
ATOM     61  C   UNL A   1      46.566  29.396  28.325  1.00  0.00     0.023 A 
ATOM     62  C   UNL A   1      47.332  28.752  29.311  1.00  0.00     0.031 A 
ATOM     63  C   UNL A   1      47.133  29.555  27.048  1.00  0.00     0.131 A 
ATOM     64  C   UNL A   1      48.640  28.334  29.019  1.00  0.00     0.055 A 
ATOM     65  C   UNL A   1      48.408  29.075  26.743  1.00  0.00     0.041 A 
ATOM     66  F   UNL A   1      46.454  30.180  26.072  1.00  0.00    -0.206 F 
ATOM     67  C   UNL A   1      49.173  28.469  27.735  1.00  0.00     0.022 A 
BRANCH  64  68
ATOM     68  S   UNL A   1      49.670  27.699  30.368  1.00  0.00     0.124 S 
ATOM     69  O   UNL A   1      49.166  26.334  30.505  1.00  0.00    -0.237 OA
ATOM     70  O   UNL A   1      51.018  27.830  29.827  1.00  0.00    -0.237 OA
ATOM     71  O   UNL A   1      49.357  28.587  31.486  1.00  0.00    -0.744 OA
ENDBRANCH  64  68
ENDBRANCH  47  61
BRANCH  48  72
ATOM     72  C   UNL A   1      37.173  32.217  30.311  1.00  0.00     0.023 A 
ATOM     73  C   UNL A   1      36.304  32.675  29.309  1.00  0.00     0.031 A 
ATOM     74  C   UNL A   1      36.675  32.103  31.622  1.00  0.00     0.131 A 
ATOM     75  C   UNL A   1      34.980  33.010  29.636  1.00  0.00     0.055 A 
ATOM     76  C   UNL A   1      35.349  32.405  31.934  1.00  0.00     0.041 A 
ATOM     77  F   UNL A   1      37.467  31.658  32.611  1.00  0.00    -0.206 F 
ATOM     78  C   UNL A   1      34.494  32.863  30.938  1.00  0.00     0.022 A 
BRANCH  75  79
ATOM     79  S   UNL A   1      33.892  33.646  28.331  1.00  0.00     0.124 S 
ATOM     80  O   UNL A   1      34.823  34.425  27.522  1.00  0.00    -0.237 OA
ATOM     81  O   UNL A   1      33.388  32.418  27.727  1.00  0.00    -0.237 OA
ATOM     82  O   UNL A   1      32.899  34.426  29.067  1.00  0.00    -0.744 OA
ENDBRANCH  75  79
ENDBRANCH  48  72
BRANCH  60  83
ATOM     83  C   UNL A   1      43.404  35.346  30.913  1.00  0.00     0.023 A 
ATOM     84  C   UNL A   1      43.511  36.430  30.026  1.00  0.00     0.031 A 
ATOM     85  C   UNL A   1      43.643  35.579  32.280  1.00  0.00     0.131 A 
ATOM     86  C   UNL A   1      43.871  37.695  30.513  1.00  0.00     0.055 A 
ATOM     87  C   UNL A   1      43.952  36.850  32.764  1.00  0.00     0.041 A 
ATOM     88  F   UNL A   1      43.553  34.577  33.169  1.00  0.00    -0.206 F 
ATOM     89  C   UNL A   1      44.072  37.917  31.878  1.00  0.00     0.022 A 
BRANCH  86  90
ATOM     90  S   UNL A   1      44.104  39.052  29.331  1.00  0.00     0.124 S 
ATOM     91  O   UNL A   1      45.230  39.772  29.918  1.00  0.00    -0.237 OA
ATOM     92  O   UNL A   1      44.380  38.343  28.086  1.00  0.00    -0.237 OA
ATOM     93  O   UNL A   1      42.826  39.762  29.368  1.00  0.00    -0.744 OA
ENDBRANCH  86  90
ENDBRANCH  60  83
ENDBRANCH  34  35
ENDBRANCH  26  29
ENDBRANCH  24  25
ENDBRANCH  23  24
ENDBRANCH  22  23
ENDBRANCH   1  22
TORSDOF 20
ENDMDL
MODEL 3
REMARK VINA RESULT:     -10.6      2.743      3.936
REMARK SMILES C=C(C)CN(CC)c1ccc(F)cc1C(=O)NCCCCCCNC(=O)c1ccc(-c2c3nc(c(-c4cc(S(=O)(=O)[O-])ccc4F)c4ccc([nH]4)c(-c4cc(S(=O)(=O)[O-])ccc4F)c4nc(c(-c5cc(S(=O)(=O)[O-])ccc5F)c5ccc2[nH]5)C=C4)C=C3)cc1
REMARK SMILES IDX 20 1 19 2 18 3 17 4 15 5 16 6 14 8 8 9 9 10 10 11 13 12
REMARK SMILES IDX 11 13 12 14 5 15 4 16 2 17 1 18 3 19 6 20 7 21 21 22 22 23
REMARK SMILES IDX 23 24 24 25 25 26 26 28 27 29 28 30 89 31 29 32 88 33 30 34
REMARK SMILES IDX 31 35 32 36 82 37 33 38 87 39 81 40 83 41 34 42 86 43 80 44
REMARK SMILES IDX 79 45 35 47 67 48 47 49 66 50 48 51 51 52 65 53 84 54 49 55
REMARK SMILES IDX 50 56 64 58 85 59 52 60 36 61 37 62 45 63 38 64 44 65 46 66
REMARK SMILES IDX 43 67 39 68 40 69 41 70 42 71 68 72 69 73 77 74 70 75 76 76
REMARK SMILES IDX 78 77 75 78 71 79 72 80 73 81 74 82 53 83 54 84 62 85 55 86
REMARK SMILES IDX 61 87 63 88 60 89 56 90 57 91 58 92 59 93
REMARK H PARENT 17 7 24 27 83 46 51 57
REMARK Flexibility Score: inf
ROOT
ATOM      1  C   UNL A   1      31.046  27.125  24.511  1.00  0.00     0.002 C 
ENDROOT
BRANCH   1   2
ATOM      2  C   UNL A   1      30.024  26.098  24.007  1.00  0.00     0.021 C 
BRANCH   2   3
ATOM      3  C   UNL A   1      30.596  24.760  23.566  1.00  0.00     0.116 C 
BRANCH   3   4
ATOM      4  N   UNL A   1      31.617  24.790  22.557  1.00  0.00    -0.352 N 
ATOM      5  C   UNL A   1      32.541  23.811  22.262  1.00  0.00     0.253 C 
ATOM      6  O   UNL A   1      33.267  24.003  21.281  1.00  0.00    -0.269 OA
ATOM      7  H   UNL A   1      31.664  25.608  22.013  1.00  0.00     0.163 HD
BRANCH   5   8
ATOM      8  C   UNL A   1      32.787  22.588  23.103  1.00  0.00     0.066 A 
ATOM      9  C   UNL A   1      33.420  22.487  24.372  1.00  0.00     0.050 A 
ATOM     10  C   UNL A   1      33.509  21.195  24.948  1.00  0.00     0.030 A 
ATOM     11  C   UNL A   1      32.995  20.054  24.334  1.00  0.00     0.041 A 
ATOM     12  C   UNL A   1      32.231  21.425  22.517  1.00  0.00     0.055 A 
ATOM     13  C   UNL A   1      32.341  20.185  23.127  1.00  0.00     0.124 A 
ATOM     14  F   UNL A   1      31.800  19.106  22.548  1.00  0.00    -0.207 F 
BRANCH   9  15
ATOM     15  N   UNL A   1      33.898  23.555  25.129  1.00  0.00    -0.367 N 
BRANCH  15  16
ATOM     16  C   UNL A   1      35.052  24.342  24.649  1.00  0.00     0.146 C 
BRANCH  16  17
ATOM     17  C   UNL A   1      36.410  23.708  24.795  1.00  0.00    -0.061 C 
ATOM     18  C   UNL A   1      36.956  22.892  23.880  1.00  0.00     0.009 C 
ATOM     19  C   UNL A   1      37.083  23.968  26.118  1.00  0.00     0.041 C 
ENDBRANCH  16  17
ENDBRANCH  15  16
BRANCH  15  20
ATOM     20  C   UNL A   1      33.530  23.655  26.551  1.00  0.00     0.113 C 
ATOM     21  C   UNL A   1      32.128  24.194  26.801  1.00  0.00     0.027 C 
ENDBRANCH  15  20
ENDBRANCH   9  15
ENDBRANCH   5   8
ENDBRANCH   3   4
ENDBRANCH   2   3
ENDBRANCH   1   2
BRANCH   1  22
ATOM     22  C   UNL A   1      31.335  28.352  23.636  1.00  0.00     0.002 C 
BRANCH  22  23
ATOM     23  C   UNL A   1      32.693  29.039  23.787  1.00  0.00     0.021 C 
BRANCH  23  24
ATOM     24  C   UNL A   1      33.197  29.262  25.208  1.00  0.00     0.116 C 
BRANCH  24  25
ATOM     25  N   UNL A   1      32.689  30.475  25.815  1.00  0.00    -0.352 N 
ATOM     26  C   UNL A   1      33.182  31.209  26.868  1.00  0.00     0.251 C 
ATOM     27  H   UNL A   1      31.862  30.829  25.413  1.00  0.00     0.163 HD
ATOM     28  O   UNL A   1      32.535  32.161  27.291  1.00  0.00    -0.269 OA
BRANCH  26  29
ATOM     29  C   UNL A   1      34.464  30.835  27.517  1.00  0.00     0.039 A 
ATOM     30  C   UNL A   1      35.454  31.813  27.649  1.00  0.00     0.014 A 
ATOM     31  C   UNL A   1      34.703  29.539  27.984  1.00  0.00     0.014 A 
ATOM     32  C   UNL A   1      36.650  31.511  28.305  1.00  0.00     0.010 A 
ATOM     33  C   UNL A   1      35.864  29.261  28.705  1.00  0.00     0.010 A 
ATOM     34  C   UNL A   1      36.851  30.243  28.875  1.00  0.00    -0.014 A 
BRANCH  34  35
ATOM     35  C   UNL A   1      38.081  29.934  29.652  1.00  0.00     0.031 A 
ATOM     36  C   UNL A   1      39.114  28.990  29.099  1.00  0.00     0.074 A 
ATOM     37  C   UNL A   1      38.246  30.467  30.879  1.00  0.00     0.049 A 
ATOM     38  N   UNL A   1      40.212  28.548  29.657  1.00  0.00    -0.248 NA
ATOM     39  C   UNL A   1      38.870  28.454  27.751  1.00  0.00     0.031 C 
ATOM     40  C   UNL A   1      37.303  31.375  31.539  1.00  0.00     0.029 A 
ATOM     41  N   UNL A   1      39.261  30.325  31.794  1.00  0.00    -0.354 N 
ATOM     42  C   UNL A   1      40.781  27.674  28.737  1.00  0.00     0.074 A 
ATOM     43  C   UNL A   1      39.880  27.609  27.607  1.00  0.00     0.031 C 
ATOM     44  C   UNL A   1      37.801  31.736  32.731  1.00  0.00     0.029 A 
ATOM     45  C   UNL A   1      39.070  31.048  32.949  1.00  0.00     0.049 A 
ATOM     46  H   UNL A   1      40.051  29.760  31.637  1.00  0.00     0.167 HD
ATOM     47  C   UNL A   1      41.957  27.006  28.820  1.00  0.00     0.034 A 
ATOM     48  C   UNL A   1      39.821  31.140  34.065  1.00  0.00     0.034 A 
ATOM     49  C   UNL A   1      42.857  27.098  29.942  1.00  0.00     0.049 A 
ATOM     50  C   UNL A   1      41.106  30.363  34.151  1.00  0.00     0.074 A 
ATOM     51  C   UNL A   1      44.100  26.509  30.095  1.00  0.00     0.029 A 
ATOM     52  N   UNL A   1      42.612  27.815  31.106  1.00  0.00    -0.354 N 
ATOM     53  N   UNL A   1      41.639  29.558  33.263  1.00  0.00    -0.248 NA
ATOM     54  C   UNL A   1      41.890  30.504  35.385  1.00  0.00     0.031 C 
ATOM     55  C   UNL A   1      44.572  26.808  31.376  1.00  0.00     0.029 A 
ATOM     56  C   UNL A   1      43.662  27.650  31.995  1.00  0.00     0.049 A 
ATOM     57  H   UNL A   1      41.810  28.361  31.274  1.00  0.00     0.167 HD
ATOM     58  C   UNL A   1      42.831  29.108  33.824  1.00  0.00     0.074 A 
ATOM     59  C   UNL A   1      42.940  29.736  35.125  1.00  0.00     0.031 C 
ATOM     60  C   UNL A   1      43.752  28.261  33.301  1.00  0.00     0.034 A 
BRANCH  47  61
ATOM     61  C   UNL A   1      42.332  26.100  27.674  1.00  0.00     0.023 A 
ATOM     62  C   UNL A   1      41.856  24.780  27.589  1.00  0.00     0.031 A 
ATOM     63  C   UNL A   1      43.164  26.569  26.642  1.00  0.00     0.131 A 
ATOM     64  C   UNL A   1      42.255  23.960  26.523  1.00  0.00     0.055 A 
ATOM     65  C   UNL A   1      43.500  25.771  25.547  1.00  0.00     0.041 A 
ATOM     66  F   UNL A   1      43.663  27.815  26.681  1.00  0.00    -0.206 F 
ATOM     67  C   UNL A   1      43.053  24.455  25.489  1.00  0.00     0.022 A 
BRANCH  64  68
ATOM     68  S   UNL A   1      41.795  22.207  26.555  1.00  0.00     0.124 S 
ATOM     69  O   UNL A   1      42.560  21.681  25.427  1.00  0.00    -0.237 OA
ATOM     70  O   UNL A   1      42.239  21.787  27.879  1.00  0.00    -0.237 OA
ATOM     71  O   UNL A   1      40.347  22.230  26.361  1.00  0.00    -0.744 OA
ENDBRANCH  64  68
ENDBRANCH  47  61
BRANCH  48  72
ATOM     72  C   UNL A   1      39.358  31.996  35.192  1.00  0.00     0.023 A 
ATOM     73  C   UNL A   1      39.875  33.287  35.380  1.00  0.00     0.031 A 
ATOM     74  C   UNL A   1      38.354  31.548  36.070  1.00  0.00     0.131 A 
ATOM     75  C   UNL A   1      39.390  34.085  36.429  1.00  0.00     0.055 A 
ATOM     76  C   UNL A   1      37.853  32.359  37.089  1.00  0.00     0.041 A 
ATOM     77  F   UNL A   1      37.821  30.325  35.921  1.00  0.00    -0.206 F 
ATOM     78  C   UNL A   1      38.373  33.635  37.274  1.00  0.00     0.022 A 
BRANCH  75  79
ATOM     79  S   UNL A   1      40.111  35.731  36.679  1.00  0.00     0.124 S 
ATOM     80  O   UNL A   1      41.537  35.428  36.719  1.00  0.00    -0.237 OA
ATOM     81  O   UNL A   1      39.640  36.454  35.503  1.00  0.00    -0.237 OA
ATOM     82  O   UNL A   1      39.528  36.168  37.946  1.00  0.00    -0.744 OA
ENDBRANCH  75  79
ENDBRANCH  48  72
BRANCH  60  83
ATOM     83  C   UNL A   1      44.980  27.969  34.123  1.00  0.00     0.023 A 
ATOM     84  C   UNL A   1      45.042  26.862  34.987  1.00  0.00     0.031 A 
ATOM     85  C   UNL A   1      46.125  28.775  33.993  1.00  0.00     0.131 A 
ATOM     86  C   UNL A   1      46.219  26.605  35.705  1.00  0.00     0.055 A 
ATOM     87  C   UNL A   1      47.309  28.485  34.671  1.00  0.00     0.041 A 
ATOM     88  F   UNL A   1      46.119  29.844  33.179  1.00  0.00    -0.206 F 
ATOM     89  C   UNL A   1      47.359  27.396  35.538  1.00  0.00     0.022 A 
BRANCH  86  90
ATOM     90  S   UNL A   1      46.236  25.232  36.890  1.00  0.00     0.124 S 
ATOM     91  O   UNL A   1      47.361  24.434  36.412  1.00  0.00    -0.237 OA
ATOM     92  O   UNL A   1      46.434  25.915  38.164  1.00  0.00    -0.237 OA
ATOM     93  O   UNL A   1      44.922  24.614  36.719  1.00  0.00    -0.744 OA
ENDBRANCH  86  90
ENDBRANCH  60  83
ENDBRANCH  34  35
ENDBRANCH  26  29
ENDBRANCH  24  25
ENDBRANCH  23  24
ENDBRANCH  22  23
ENDBRANCH   1  22
TORSDOF 20
ENDMDL
