MODEL 1
REMARK VINA RESULT:     -12.4      0.000      0.000
REMARK SMILES O=C(CCn1c(SCc2ccccn2)nc2ccccc2c1=O)NCCCCCCNC(=O)c1ccc(-c2c3nc(c(-c4cc(S(=O)(=O)[O-])ccc4F)c4ccc([nH]4)c(-c4cc(S(=O)(=O)[O-])ccc4F)c4nc(c(-c5cc(S(=O)(=O)[O-])ccc5F)c5ccc2[nH]5)C=C4)C=C3)cc1
REMARK SMILES IDX 26 1 25 2 24 3 1 4 2 5 3 7 4 8 5 9 6 10 22 11 15 12 21 13
REMARK SMILES IDX 23 14 16 15 20 16 17 17 19 18 18 19 7 20 8 21 9 22 10 23
REMARK SMILES IDX 14 24 11 25 13 26 12 27 27 28 28 29 29 30 30 31 31 32 32 33
REMARK SMILES IDX 33 35 34 36 35 37 96 38 36 39 95 40 37 41 38 42 39 43 89 44
REMARK SMILES IDX 40 45 94 46 88 47 90 48 41 49 93 50 87 51 86 52 42 54 74 55
REMARK SMILES IDX 54 56 73 57 55 58 58 59 72 60 91 61 56 62 57 63 71 65 92 66
REMARK SMILES IDX 59 67 43 68 44 69 52 70 45 71 51 72 53 73 50 74 46 75 47 76
REMARK SMILES IDX 48 77 49 78 75 79 76 80 84 81 77 82 83 83 85 84 82 85 78 86
REMARK SMILES IDX 79 87 80 88 81 89 60 90 61 91 69 92 62 93 68 94 70 95 67 96
REMARK SMILES IDX 63 97 64 98 65 99 66 100
REMARK H PARENT 24 6 31 34 90 53 58 64
REMARK Flexibility Score: inf
ROOT
ATOM      1  C   UNL A   1      33.847  28.152  24.193  1.00  0.00     0.021 C 
ENDROOT
BRANCH   1   2
ATOM      2  C   UNL A   1      33.378  27.496  22.896  1.00  0.00     0.116 C 
BRANCH   2   3
ATOM      3  N   UNL A   1      32.844  26.169  23.101  1.00  0.00    -0.356 N 
ATOM      4  O   UNL A   1      33.277  25.382  20.989  1.00  0.00    -0.275 OA
ATOM      5  C   UNL A   1      32.895  25.196  22.140  1.00  0.00     0.221 C 
ATOM      6  H   UNL A   1      32.428  25.957  23.968  1.00  0.00     0.163 HD
BRANCH   5   7
ATOM      7  C   UNL A   1      32.530  23.818  22.639  1.00  0.00     0.122 C 
BRANCH   7   8
ATOM      8  C   UNL A   1      32.519  23.842  24.165  1.00  0.00     0.138 C 
BRANCH   8   9
ATOM      9  N   UNL A   1      33.604  23.205  24.945  1.00  0.00    -0.287 N 
ATOM     10  C   UNL A   1      33.595  21.831  25.186  1.00  0.00     0.171 A 
ATOM     11  C   UNL A   1      34.713  23.940  25.347  1.00  0.00     0.262 A 
ATOM     12  N   UNL A   1      34.642  21.139  25.508  1.00  0.00    -0.224 NA
ATOM     13  C   UNL A   1      35.945  23.188  25.641  1.00  0.00     0.066 A 
ATOM     14  O   UNL A   1      34.765  25.165  25.427  1.00  0.00    -0.269 OA
ATOM     15  C   UNL A   1      35.870  21.804  25.608  1.00  0.00     0.079 A 
ATOM     16  C   UNL A   1      37.173  23.848  25.795  1.00  0.00     0.016 A 
ATOM     17  C   UNL A   1      37.063  21.075  25.630  1.00  0.00     0.029 A 
ATOM     18  C   UNL A   1      38.357  23.114  25.810  1.00  0.00     0.001 A 
ATOM     19  C   UNL A   1      38.302  21.726  25.704  1.00  0.00     0.002 A 
BRANCH  10  20
ATOM     20  S   UNL A   1      32.124  20.923  24.898  1.00  0.00    -0.081 SA
BRANCH  20  21
ATOM     21  C   UNL A   1      32.598  19.635  23.715  1.00  0.00     0.134 C 
BRANCH  21  22
ATOM     22  C   UNL A   1      32.947  18.244  24.203  1.00  0.00     0.051 A 
ATOM     23  C   UNL A   1      34.122  17.619  23.780  1.00  0.00     0.025 A 
ATOM     24  N   UNL A   1      32.148  17.679  25.139  1.00  0.00    -0.260 NA
ATOM     25  C   UNL A   1      34.468  16.376  24.314  1.00  0.00     0.003 A 
ATOM     26  C   UNL A   1      32.489  16.462  25.621  1.00  0.00     0.111 A 
ATOM     27  C   UNL A   1      33.631  15.779  25.246  1.00  0.00     0.020 A 
ENDBRANCH  21  22
ENDBRANCH  20  21
ENDBRANCH  10  20
ENDBRANCH   8   9
ENDBRANCH   7   8
ENDBRANCH   5   7
ENDBRANCH   2   3
ENDBRANCH   1   2
BRANCH   1  28
ATOM     28  C   UNL A   1      32.749  28.419  25.230  1.00  0.00     0.002 C 
BRANCH  28  29
ATOM     29  C   UNL A   1      31.503  29.136  24.707  1.00  0.00     0.002 C 
BRANCH  29  30
ATOM     30  C   UNL A   1      31.191  30.470  25.375  1.00  0.00     0.021 C 
BRANCH  30  31
ATOM     31  C   UNL A   1      32.175  30.876  26.467  1.00  0.00     0.116 C 
BRANCH  31  32
ATOM     32  N   UNL A   1      32.011  32.247  26.938  1.00  0.00    -0.352 N 
ATOM     33  C   UNL A   1      32.932  33.028  27.607  1.00  0.00     0.251 C 
ATOM     34  H   UNL A   1      31.139  32.666  26.757  1.00  0.00     0.163 HD
ATOM     35  O   UNL A   1      32.633  34.150  28.010  1.00  0.00    -0.269 OA
BRANCH  33  36
ATOM     36  C   UNL A   1      34.267  32.454  27.873  1.00  0.00     0.039 A 
ATOM     37  C   UNL A   1      34.378  31.100  28.183  1.00  0.00     0.014 A 
ATOM     38  C   UNL A   1      35.372  33.302  27.977  1.00  0.00     0.014 A 
ATOM     39  C   UNL A   1      35.527  30.643  28.814  1.00  0.00     0.010 A 
ATOM     40  C   UNL A   1      36.566  32.809  28.514  1.00  0.00     0.010 A 
ATOM     41  C   UNL A   1      36.630  31.495  29.004  1.00  0.00    -0.014 A 
BRANCH  41  42
ATOM     42  C   UNL A   1      37.819  30.987  29.741  1.00  0.00     0.031 A 
ATOM     43  C   UNL A   1      38.080  31.391  31.169  1.00  0.00     0.074 A 
ATOM     44  C   UNL A   1      38.621  30.087  29.138  1.00  0.00     0.049 A 
ATOM     45  N   UNL A   1      39.058  31.026  31.960  1.00  0.00    -0.248 NA
ATOM     46  C   UNL A   1      37.130  32.325  31.793  1.00  0.00     0.031 C 
ATOM     47  C   UNL A   1      38.448  29.609  27.767  1.00  0.00     0.029 A 
ATOM     48  N   UNL A   1      39.708  29.389  29.599  1.00  0.00    -0.354 N 
ATOM     49  C   UNL A   1      38.857  31.700  33.160  1.00  0.00     0.074 A 
ATOM     50  C   UNL A   1      37.678  32.520  32.986  1.00  0.00     0.031 C 
ATOM     51  C   UNL A   1      39.344  28.646  27.522  1.00  0.00     0.029 A 
ATOM     52  C   UNL A   1      40.221  28.502  28.681  1.00  0.00     0.049 A 
ATOM     53  H   UNL A   1      40.085  29.510  30.501  1.00  0.00     0.167 HD
ATOM     54  C   UNL A   1      39.582  31.630  34.302  1.00  0.00     0.034 A 
ATOM     55  C   UNL A   1      41.287  27.678  28.747  1.00  0.00     0.034 A 
ATOM     56  C   UNL A   1      40.736  30.782  34.468  1.00  0.00     0.049 A 
ATOM     57  C   UNL A   1      42.092  27.640  30.017  1.00  0.00     0.074 A 
ATOM     58  C   UNL A   1      41.528  30.629  35.593  1.00  0.00     0.029 A 
ATOM     59  N   UNL A   1      41.256  29.939  33.497  1.00  0.00    -0.354 N 
ATOM     60  N   UNL A   1      41.883  28.282  31.142  1.00  0.00    -0.248 NA
ATOM     61  C   UNL A   1      43.281  26.779  30.030  1.00  0.00     0.031 C 
ATOM     62  C   UNL A   1      42.555  29.735  35.287  1.00  0.00     0.029 A 
ATOM     63  C   UNL A   1      42.372  29.280  33.990  1.00  0.00     0.049 A 
ATOM     64  H   UNL A   1      40.887  29.824  32.591  1.00  0.00     0.167 HD
ATOM     65  C   UNL A   1      42.913  27.905  31.996  1.00  0.00     0.074 A 
ATOM     66  C   UNL A   1      43.723  26.948  31.270  1.00  0.00     0.031 C 
ATOM     67  C   UNL A   1      43.172  28.327  33.259  1.00  0.00     0.034 A 
BRANCH  54  68
ATOM     68  C   UNL A   1      39.164  32.472  35.483  1.00  0.00     0.023 A 
ATOM     69  C   UNL A   1      39.666  33.781  35.628  1.00  0.00     0.031 A 
ATOM     70  C   UNL A   1      38.385  31.940  36.524  1.00  0.00     0.131 A 
ATOM     71  C   UNL A   1      39.410  34.498  36.804  1.00  0.00     0.055 A 
ATOM     72  C   UNL A   1      38.104  32.673  37.679  1.00  0.00     0.041 A 
ATOM     73  F   UNL A   1      37.883  30.698  36.433  1.00  0.00    -0.206 F 
ATOM     74  C   UNL A   1      38.628  33.954  37.828  1.00  0.00     0.022 A 
BRANCH  71  75
ATOM     75  S   UNL A   1      40.133  36.140  37.080  1.00  0.00     0.124 S 
ATOM     76  O   UNL A   1      39.867  36.802  35.805  1.00  0.00    -0.237 OA
ATOM     77  O   UNL A   1      39.352  36.631  38.212  1.00  0.00    -0.237 OA
ATOM     78  O   UNL A   1      41.539  35.863  37.354  1.00  0.00    -0.744 OA
ENDBRANCH  71  75
ENDBRANCH  54  68
BRANCH  55  79
ATOM     79  C   UNL A   1      41.609  26.825  27.567  1.00  0.00     0.023 A 
ATOM     80  C   UNL A   1      41.482  25.425  27.637  1.00  0.00     0.031 A 
ATOM     81  C   UNL A   1      42.181  27.378  26.410  1.00  0.00     0.131 A 
ATOM     82  C   UNL A   1      42.013  24.623  26.620  1.00  0.00     0.055 A 
ATOM     83  C   UNL A   1      42.634  26.578  25.359  1.00  0.00     0.041 A 
ATOM     84  F   UNL A   1      42.332  28.707  26.299  1.00  0.00    -0.206 F 
ATOM     85  C   UNL A   1      42.573  25.191  25.472  1.00  0.00     0.022 A 
BRANCH  82  86
ATOM     86  S   UNL A   1      42.154  22.826  26.838  1.00  0.00     0.124 S 
ATOM     87  O   UNL A   1      41.093  22.554  27.802  1.00  0.00    -0.237 OA
ATOM     88  O   UNL A   1      41.915  22.340  25.481  1.00  0.00    -0.237 OA
ATOM     89  O   UNL A   1      43.516  22.645  27.327  1.00  0.00    -0.744 OA
ENDBRANCH  82  86
ENDBRANCH  55  79
BRANCH  67  90
ATOM     90  C   UNL A   1      44.394  27.785  33.957  1.00  0.00     0.023 A 
ATOM     91  C   UNL A   1      44.298  26.636  34.765  1.00  0.00     0.031 A 
ATOM     92  C   UNL A   1      45.610  28.490  33.940  1.00  0.00     0.131 A 
ATOM     93  C   UNL A   1      45.387  26.250  35.556  1.00  0.00     0.055 A 
ATOM     94  C   UNL A   1      46.706  28.076  34.697  1.00  0.00     0.041 A 
ATOM     95  F   UNL A   1      45.745  29.597  33.191  1.00  0.00    -0.206 F 
ATOM     96  C   UNL A   1      46.592  26.959  35.521  1.00  0.00     0.022 A 
BRANCH  93  97
ATOM     97  S   UNL A   1      45.256  24.864  36.718  1.00  0.00     0.124 S 
ATOM     98  O   UNL A   1      46.599  24.822  37.290  1.00  0.00    -0.237 OA
ATOM     99  O   UNL A   1      44.206  25.321  37.625  1.00  0.00    -0.237 OA
ATOM    100  O   UNL A   1      44.905  23.727  35.873  1.00  0.00    -0.744 OA
ENDBRANCH  93  97
ENDBRANCH  67  90
ENDBRANCH  41  42
ENDBRANCH  33  36
ENDBRANCH  31  32
ENDBRANCH  30  31
ENDBRANCH  29  30
ENDBRANCH  28  29
ENDBRANCH   1  28
TORSDOF 21
ENDMDL
MODEL 2
REMARK VINA RESULT:     -11.3      5.543      9.040
REMARK SMILES O=C(CCn1c(SCc2ccccn2)nc2ccccc2c1=O)NCCCCCCNC(=O)c1ccc(-c2c3nc(c(-c4cc(S(=O)(=O)[O-])ccc4F)c4ccc([nH]4)c(-c4cc(S(=O)(=O)[O-])ccc4F)c4nc(c(-c5cc(S(=O)(=O)[O-])ccc5F)c5ccc2[nH]5)C=C4)C=C3)cc1
REMARK SMILES IDX 26 1 25 2 24 3 1 4 2 5 3 7 4 8 5 9 6 10 22 11 15 12 21 13
REMARK SMILES IDX 23 14 16 15 20 16 17 17 19 18 18 19 7 20 8 21 9 22 10 23
REMARK SMILES IDX 14 24 11 25 13 26 12 27 27 28 28 29 29 30 30 31 31 32 32 33
REMARK SMILES IDX 33 35 34 36 35 37 96 38 36 39 95 40 37 41 38 42 39 43 89 44
REMARK SMILES IDX 40 45 94 46 88 47 90 48 41 49 93 50 87 51 86 52 42 54 74 55
REMARK SMILES IDX 54 56 73 57 55 58 58 59 72 60 91 61 56 62 57 63 71 65 92 66
REMARK SMILES IDX 59 67 43 68 44 69 52 70 45 71 51 72 53 73 50 74 46 75 47 76
REMARK SMILES IDX 48 77 49 78 75 79 76 80 84 81 77 82 83 83 85 84 82 85 78 86
REMARK SMILES IDX 79 87 80 88 81 89 60 90 61 91 69 92 62 93 68 94 70 95 67 96
REMARK SMILES IDX 63 97 64 98 65 99 66 100
REMARK H PARENT 24 6 31 34 90 53 58 64
REMARK Flexibility Score: inf
ROOT
ATOM      1  C   UNL A   1      35.869  23.307  23.893  1.00  0.00     0.021 C 
ENDROOT
BRANCH   1   2
ATOM      2  C   UNL A   1      35.036  24.571  24.101  1.00  0.00     0.116 C 
BRANCH   2   3
ATOM      3  N   UNL A   1      33.668  24.418  23.660  1.00  0.00    -0.356 N 
ATOM      4  O   UNL A   1      33.394  26.568  22.906  1.00  0.00    -0.275 OA
ATOM      5  C   UNL A   1      32.976  25.422  23.038  1.00  0.00     0.221 C 
ATOM      6  H   UNL A   1      33.217  23.556  23.812  1.00  0.00     0.163 HD
BRANCH   5   7
ATOM      7  C   UNL A   1      31.669  24.980  22.423  1.00  0.00     0.122 C 
BRANCH   7   8
ATOM      8  C   UNL A   1      30.606  24.945  23.516  1.00  0.00     0.138 C 
BRANCH   8   9
ATOM      9  N   UNL A   1      30.609  25.939  24.613  1.00  0.00    -0.287 N 
ATOM     10  C   UNL A   1      30.738  25.533  25.941  1.00  0.00     0.171 A 
ATOM     11  C   UNL A   1      30.607  27.301  24.336  1.00  0.00     0.262 A 
ATOM     12  N   UNL A   1      31.126  26.304  26.908  1.00  0.00    -0.224 NA
ATOM     13  C   UNL A   1      31.119  28.200  25.384  1.00  0.00     0.066 A 
ATOM     14  O   UNL A   1      30.262  27.811  23.272  1.00  0.00    -0.269 OA
ATOM     15  C   UNL A   1      31.453  27.631  26.604  1.00  0.00     0.079 A 
ATOM     16  C   UNL A   1      31.401  29.545  25.105  1.00  0.00     0.016 A 
ATOM     17  C   UNL A   1      32.172  28.405  27.521  1.00  0.00     0.029 A 
ATOM     18  C   UNL A   1      32.124  30.305  26.022  1.00  0.00     0.001 A 
ATOM     19  C   UNL A   1      32.530  29.726  27.222  1.00  0.00     0.002 A 
BRANCH  10  20
ATOM     20  S   UNL A   1      30.516  23.841  26.342  1.00  0.00    -0.081 SA
BRANCH  20  21
ATOM     21  C   UNL A   1      32.194  23.195  26.570  1.00  0.00     0.134 C 
BRANCH  21  22
ATOM     22  C   UNL A   1      32.636  21.946  25.835  1.00  0.00     0.051 A 
ATOM     23  C   UNL A   1      31.926  21.491  24.721  1.00  0.00     0.025 A 
ATOM     24  N   UNL A   1      33.791  21.356  26.221  1.00  0.00    -0.260 NA
ATOM     25  C   UNL A   1      32.403  20.392  24.006  1.00  0.00     0.003 A 
ATOM     26  C   UNL A   1      34.220  20.275  25.529  1.00  0.00     0.111 A 
ATOM     27  C   UNL A   1      33.569  19.763  24.422  1.00  0.00     0.020 A 
ENDBRANCH  21  22
ENDBRANCH  20  21
ENDBRANCH  10  20
ENDBRANCH   8   9
ENDBRANCH   7   8
ENDBRANCH   5   7
ENDBRANCH   2   3
ENDBRANCH   1   2
BRANCH   1  28
ATOM     28  C   UNL A   1      37.152  23.219  24.729  1.00  0.00     0.002 C 
BRANCH  28  29
ATOM     29  C   UNL A   1      37.240  22.027  25.684  1.00  0.00     0.002 C 
BRANCH  29  30
ATOM     30  C   UNL A   1      38.244  20.951  25.290  1.00  0.00     0.021 C 
BRANCH  30  31
ATOM     31  C   UNL A   1      39.535  20.960  26.102  1.00  0.00     0.116 C 
BRANCH  31  32
ATOM     32  N   UNL A   1      40.260  19.694  26.086  1.00  0.00    -0.352 N 
ATOM     33  C   UNL A   1      41.618  19.494  26.231  1.00  0.00     0.251 C 
ATOM     34  H   UNL A   1      39.714  18.885  25.956  1.00  0.00     0.163 HD
ATOM     35  O   UNL A   1      42.105  18.371  26.125  1.00  0.00    -0.269 OA
BRANCH  33  36
ATOM     36  C   UNL A   1      42.474  20.676  26.460  1.00  0.00     0.039 A 
ATOM     37  C   UNL A   1      42.620  21.173  27.755  1.00  0.00     0.014 A 
ATOM     38  C   UNL A   1      42.983  21.379  25.367  1.00  0.00     0.014 A 
ATOM     39  C   UNL A   1      43.069  22.473  27.933  1.00  0.00     0.010 A 
ATOM     40  C   UNL A   1      43.537  22.647  25.564  1.00  0.00     0.010 A 
ATOM     41  C   UNL A   1      43.518  23.235  26.839  1.00  0.00    -0.014 A 
BRANCH  41  42
ATOM     42  C   UNL A   1      43.932  24.648  27.061  1.00  0.00     0.031 A 
ATOM     43  C   UNL A   1      42.954  25.675  27.568  1.00  0.00     0.074 A 
ATOM     44  C   UNL A   1      45.226  24.981  26.882  1.00  0.00     0.049 A 
ATOM     45  N   UNL A   1      43.156  26.942  27.832  1.00  0.00    -0.248 NA
ATOM     46  C   UNL A   1      41.571  25.233  27.809  1.00  0.00     0.031 C 
ATOM     47  C   UNL A   1      46.262  24.060  26.415  1.00  0.00     0.029 A 
ATOM     48  N   UNL A   1      45.899  26.156  27.100  1.00  0.00    -0.354 N 
ATOM     49  C   UNL A   1      41.929  27.452  28.243  1.00  0.00     0.074 A 
ATOM     50  C   UNL A   1      40.979  26.364  28.168  1.00  0.00     0.031 C 
ATOM     51  C   UNL A   1      47.448  24.679  26.453  1.00  0.00     0.029 A 
ATOM     52  C   UNL A   1      47.249  26.069  26.852  1.00  0.00     0.049 A 
ATOM     53  H   UNL A   1      45.458  26.982  27.406  1.00  0.00     0.167 HD
ATOM     54  C   UNL A   1      41.629  28.706  28.656  1.00  0.00     0.034 A 
ATOM     55  C   UNL A   1      48.221  27.003  26.915  1.00  0.00     0.034 A 
ATOM     56  C   UNL A   1      42.597  29.771  28.755  1.00  0.00     0.049 A 
ATOM     57  C   UNL A   1      47.857  28.396  27.350  1.00  0.00     0.074 A 
ATOM     58  C   UNL A   1      42.395  31.073  29.179  1.00  0.00     0.029 A 
ATOM     59  N   UNL A   1      43.945  29.659  28.444  1.00  0.00    -0.354 N 
ATOM     60  N   UNL A   1      46.691  28.857  27.739  1.00  0.00    -0.248 NA
ATOM     61  C   UNL A   1      48.928  29.400  27.347  1.00  0.00     0.031 C 
ATOM     62  C   UNL A   1      43.604  31.760  29.074  1.00  0.00     0.029 A 
ATOM     63  C   UNL A   1      44.580  30.874  28.644  1.00  0.00     0.049 A 
ATOM     64  H   UNL A   1      44.385  28.836  28.128  1.00  0.00     0.167 HD
ATOM     65  C   UNL A   1      46.888  30.203  28.024  1.00  0.00     0.074 A 
ATOM     66  C   UNL A   1      48.294  30.473  27.802  1.00  0.00     0.031 C 
ATOM     67  C   UNL A   1      45.982  31.133  28.419  1.00  0.00     0.034 A 
BRANCH  54  68
ATOM     68  C   UNL A   1      40.208  29.023  29.051  1.00  0.00     0.023 A 
ATOM     69  C   UNL A   1      39.828  28.987  30.407  1.00  0.00     0.031 A 
ATOM     70  C   UNL A   1      39.206  29.226  28.087  1.00  0.00     0.131 A 
ATOM     71  C   UNL A   1      38.478  29.117  30.757  1.00  0.00     0.055 A 
ATOM     72  C   UNL A   1      37.866  29.391  28.443  1.00  0.00     0.041 A 
ATOM     73  F   UNL A   1      39.516  29.270  26.781  1.00  0.00    -0.206 F 
ATOM     74  C   UNL A   1      37.496  29.324  29.783  1.00  0.00     0.022 A 
BRANCH  71  75
ATOM     75  S   UNL A   1      37.933  28.961  32.481  1.00  0.00     0.124 S 
ATOM     76  O   UNL A   1      38.881  29.831  33.174  1.00  0.00    -0.237 OA
ATOM     77  O   UNL A   1      36.562  29.460  32.414  1.00  0.00    -0.237 OA
ATOM     78  O   UNL A   1      38.074  27.537  32.766  1.00  0.00    -0.744 OA
ENDBRANCH  71  75
ENDBRANCH  54  68
BRANCH  55  79
ATOM     79  C   UNL A   1      49.618  26.609  26.573  1.00  0.00     0.023 A 
ATOM     80  C   UNL A   1      50.608  26.533  27.572  1.00  0.00     0.031 A 
ATOM     81  C   UNL A   1      50.016  26.445  25.237  1.00  0.00     0.131 A 
ATOM     82  C   UNL A   1      51.954  26.402  27.212  1.00  0.00     0.055 A 
ATOM     83  C   UNL A   1      51.351  26.231  24.887  1.00  0.00     0.041 A 
ATOM     84  F   UNL A   1      49.111  26.518  24.248  1.00  0.00    -0.206 F 
ATOM     85  C   UNL A   1      52.331  26.234  25.876  1.00  0.00     0.022 A 
BRANCH  82  86
ATOM     86  S   UNL A   1      53.267  26.628  28.446  1.00  0.00     0.124 S 
ATOM     87  O   UNL A   1      52.618  26.159  29.666  1.00  0.00    -0.237 OA
ATOM     88  O   UNL A   1      54.323  25.767  27.921  1.00  0.00    -0.237 OA
ATOM     89  O   UNL A   1      53.550  28.058  28.389  1.00  0.00    -0.744 OA
ENDBRANCH  82  86
ENDBRANCH  55  79
BRANCH  67  90
ATOM     90  C   UNL A   1      46.455  32.551  28.623  1.00  0.00     0.023 A 
ATOM     91  C   UNL A   1      46.698  33.384  27.515  1.00  0.00     0.031 A 
ATOM     92  C   UNL A   1      46.805  33.020  29.901  1.00  0.00     0.131 A 
ATOM     93  C   UNL A   1      47.312  34.628  27.703  1.00  0.00     0.055 A 
ATOM     94  C   UNL A   1      47.378  34.278  30.087  1.00  0.00     0.041 A 
ATOM     95  F   UNL A   1      46.600  32.256  30.987  1.00  0.00    -0.206 F 
ATOM     96  C   UNL A   1      47.647  35.082  28.982  1.00  0.00     0.022 A 
BRANCH  93  97
ATOM     97  S   UNL A   1      47.774  35.667  26.289  1.00  0.00     0.124 S 
ATOM     98  O   UNL A   1      46.814  36.763  26.395  1.00  0.00    -0.237 OA
ATOM     99  O   UNL A   1      49.157  36.016  26.602  1.00  0.00    -0.237 OA
ATOM    100  O   UNL A   1      47.592  34.793  25.135  1.00  0.00    -0.744 OA
ENDBRANCH  93  97
ENDBRANCH  67  90
ENDBRANCH  41  42
ENDBRANCH  33  36
ENDBRANCH  31  32
ENDBRANCH  30  31
ENDBRANCH  29  30
ENDBRANCH  28  29
ENDBRANCH   1  28
TORSDOF 21
ENDMDL
MODEL 3
REMARK VINA RESULT:     -11.3      2.231      7.852
REMARK SMILES O=C(CCn1c(SCc2ccccn2)nc2ccccc2c1=O)NCCCCCCNC(=O)c1ccc(-c2c3nc(c(-c4cc(S(=O)(=O)[O-])ccc4F)c4ccc([nH]4)c(-c4cc(S(=O)(=O)[O-])ccc4F)c4nc(c(-c5cc(S(=O)(=O)[O-])ccc5F)c5ccc2[nH]5)C=C4)C=C3)cc1
REMARK SMILES IDX 26 1 25 2 24 3 1 4 2 5 3 7 4 8 5 9 6 10 22 11 15 12 21 13
REMARK SMILES IDX 23 14 16 15 20 16 17 17 19 18 18 19 7 20 8 21 9 22 10 23
REMARK SMILES IDX 14 24 11 25 13 26 12 27 27 28 28 29 29 30 30 31 31 32 32 33
REMARK SMILES IDX 33 35 34 36 35 37 96 38 36 39 95 40 37 41 38 42 39 43 89 44
REMARK SMILES IDX 40 45 94 46 88 47 90 48 41 49 93 50 87 51 86 52 42 54 74 55
REMARK SMILES IDX 54 56 73 57 55 58 58 59 72 60 91 61 56 62 57 63 71 65 92 66
REMARK SMILES IDX 59 67 43 68 44 69 52 70 45 71 51 72 53 73 50 74 46 75 47 76
REMARK SMILES IDX 48 77 49 78 75 79 76 80 84 81 77 82 83 83 85 84 82 85 78 86
REMARK SMILES IDX 79 87 80 88 81 89 60 90 61 91 69 92 62 93 68 94 70 95 67 96
REMARK SMILES IDX 63 97 64 98 65 99 66 100
REMARK H PARENT 24 6 31 34 90 53 58 64
REMARK Flexibility Score: inf
ROOT
ATOM      1  C   UNL A   1      33.505  28.562  24.539  1.00  0.00     0.021 C 
ENDROOT
BRANCH   1   2
ATOM      2  C   UNL A   1      32.532  28.213  23.413  1.00  0.00     0.116 C 
BRANCH   2   3
ATOM      3  N   UNL A   1      32.421  26.789  23.192  1.00  0.00    -0.356 N 
ATOM      4  O   UNL A   1      33.825  26.697  21.379  1.00  0.00    -0.275 OA
ATOM      5  C   UNL A   1      33.132  26.136  22.221  1.00  0.00     0.221 C 
ATOM      6  H   UNL A   1      31.810  26.269  23.762  1.00  0.00     0.163 HD
BRANCH   5   7
ATOM      7  C   UNL A   1      33.078  24.630  22.327  1.00  0.00     0.122 C 
BRANCH   7   8
ATOM      8  C   UNL A   1      32.818  24.255  23.784  1.00  0.00     0.138 C 
BRANCH   8   9
ATOM      9  N   UNL A   1      33.818  23.492  24.563  1.00  0.00    -0.287 N 
ATOM     10  C   UNL A   1      33.874  22.101  24.481  1.00  0.00     0.171 A 
ATOM     11  C   UNL A   1      34.799  24.151  25.297  1.00  0.00     0.262 A 
ATOM     12  N   UNL A   1      34.909  21.390  24.802  1.00  0.00    -0.224 NA
ATOM     13  C   UNL A   1      36.025  23.395  25.608  1.00  0.00     0.066 A 
ATOM     14  O   UNL A   1      34.749  25.323  25.661  1.00  0.00    -0.269 OA
ATOM     15  C   UNL A   1      36.056  22.056  25.248  1.00  0.00     0.079 A 
ATOM     16  C   UNL A   1      37.164  24.044  26.105  1.00  0.00     0.016 A 
ATOM     17  C   UNL A   1      37.283  21.386  25.298  1.00  0.00     0.029 A 
ATOM     18  C   UNL A   1      38.383  23.370  26.144  1.00  0.00     0.001 A 
ATOM     19  C   UNL A   1      38.446  22.045  25.717  1.00  0.00     0.002 A 
BRANCH  10  20
ATOM     20  S   UNL A   1      32.532  21.234  23.759  1.00  0.00    -0.081 SA
BRANCH  20  21
ATOM     21  C   UNL A   1      32.147  19.913  24.937  1.00  0.00     0.134 C 
BRANCH  21  22
ATOM     22  C   UNL A   1      32.672  18.510  24.707  1.00  0.00     0.051 A 
ATOM     23  C   UNL A   1      33.121  18.120  23.443  1.00  0.00     0.025 A 
ATOM     24  N   UNL A   1      32.796  17.693  25.780  1.00  0.00    -0.260 NA
ATOM     25  C   UNL A   1      33.686  16.855  23.276  1.00  0.00     0.003 A 
ATOM     26  C   UNL A   1      33.321  16.461  25.588  1.00  0.00     0.111 A 
ATOM     27  C   UNL A   1      33.779  16.002  24.367  1.00  0.00     0.020 A 
ENDBRANCH  21  22
ENDBRANCH  20  21
ENDBRANCH  10  20
ENDBRANCH   8   9
ENDBRANCH   7   8
ENDBRANCH   5   7
ENDBRANCH   2   3
ENDBRANCH   1   2
BRANCH   1  28
ATOM     28  C   UNL A   1      33.163  27.970  25.912  1.00  0.00     0.002 C 
BRANCH  28  29
ATOM     29  C   UNL A   1      32.208  28.799  26.772  1.00  0.00     0.002 C 
BRANCH  29  30
ATOM     30  C   UNL A   1      32.545  30.282  26.875  1.00  0.00     0.021 C 
BRANCH  30  31
ATOM     31  C   UNL A   1      33.940  30.578  27.416  1.00  0.00     0.116 C 
BRANCH  31  32
ATOM     32  N   UNL A   1      33.983  31.658  28.396  1.00  0.00    -0.352 N 
ATOM     33  C   UNL A   1      34.972  31.920  29.323  1.00  0.00     0.251 C 
ATOM     34  H   UNL A   1      33.215  32.273  28.396  1.00  0.00     0.163 HD
ATOM     35  O   UNL A   1      34.843  32.828  30.141  1.00  0.00    -0.269 OA
BRANCH  33  36
ATOM     36  C   UNL A   1      36.160  31.043  29.339  1.00  0.00     0.039 A 
ATOM     37  C   UNL A   1      36.105  29.832  30.028  1.00  0.00     0.014 A 
ATOM     38  C   UNL A   1      37.367  31.509  28.815  1.00  0.00     0.014 A 
ATOM     39  C   UNL A   1      37.290  29.205  30.388  1.00  0.00     0.010 A 
ATOM     40  C   UNL A   1      38.549  30.814  29.089  1.00  0.00     0.010 A 
ATOM     41  C   UNL A   1      38.529  29.696  29.939  1.00  0.00    -0.014 A 
BRANCH  41  42
ATOM     42  C   UNL A   1      39.780  29.035  30.399  1.00  0.00     0.031 A 
ATOM     43  C   UNL A   1      40.400  27.909  29.612  1.00  0.00     0.074 A 
ATOM     44  C   UNL A   1      40.404  29.515  31.493  1.00  0.00     0.049 A 
ATOM     45  N   UNL A   1      41.496  27.237  29.864  1.00  0.00    -0.248 NA
ATOM     46  C   UNL A   1      39.705  27.474  28.390  1.00  0.00     0.031 C 
ATOM     47  C   UNL A   1      39.904  30.615  32.317  1.00  0.00     0.029 A 
ATOM     48  N   UNL A   1      41.596  29.175  32.080  1.00  0.00    -0.354 N 
ATOM     49  C   UNL A   1      41.609  26.290  28.851  1.00  0.00     0.074 A 
ATOM     50  C   UNL A   1      40.455  26.454  27.995  1.00  0.00     0.031 C 
ATOM     51  C   UNL A   1      40.814  30.910  33.254  1.00  0.00     0.029 A 
ATOM     52  C   UNL A   1      41.918  29.959  33.163  1.00  0.00     0.049 A 
ATOM     53  H   UNL A   1      42.168  28.441  31.756  1.00  0.00     0.167 HD
ATOM     54  C   UNL A   1      42.591  25.380  28.651  1.00  0.00     0.034 A 
ATOM     55  C   UNL A   1      42.970  29.913  34.007  1.00  0.00     0.034 A 
ATOM     56  C   UNL A   1      43.752  25.252  29.497  1.00  0.00     0.049 A 
ATOM     57  C   UNL A   1      44.034  28.874  33.779  1.00  0.00     0.074 A 
ATOM     58  C   UNL A   1      44.811  24.370  29.367  1.00  0.00     0.029 A 
ATOM     59  N   UNL A   1      44.015  26.029  30.616  1.00  0.00    -0.354 N 
ATOM     60  N   UNL A   1      44.125  27.990  32.813  1.00  0.00    -0.248 NA
ATOM     61  C   UNL A   1      45.130  28.812  34.753  1.00  0.00     0.031 C 
ATOM     62  C   UNL A   1      45.687  24.578  30.434  1.00  0.00     0.029 A 
ATOM     63  C   UNL A   1      45.209  25.631  31.198  1.00  0.00     0.049 A 
ATOM     64  H   UNL A   1      43.440  26.756  30.948  1.00  0.00     0.167 HD
ATOM     65  C   UNL A   1      45.285  27.267  33.064  1.00  0.00     0.074 A 
ATOM     66  C   UNL A   1      45.884  27.843  34.250  1.00  0.00     0.031 C 
ATOM     67  C   UNL A   1      45.798  26.212  32.382  1.00  0.00     0.034 A 
BRANCH  54  68
ATOM     68  C   UNL A   1      42.488  24.444  27.471  1.00  0.00     0.023 A 
ATOM     69  C   UNL A   1      42.030  23.125  27.655  1.00  0.00     0.031 A 
ATOM     70  C   UNL A   1      42.964  24.810  26.200  1.00  0.00     0.131 A 
ATOM     71  C   UNL A   1      42.091  22.211  26.595  1.00  0.00     0.055 A 
ATOM     72  C   UNL A   1      42.990  23.906  25.137  1.00  0.00     0.041 A 
ATOM     73  F   UNL A   1      43.410  26.056  25.973  1.00  0.00    -0.206 F 
ATOM     74  C   UNL A   1      42.564  22.595  25.336  1.00  0.00     0.022 A 
BRANCH  71  75
ATOM     75  S   UNL A   1      41.620  20.473  26.821  1.00  0.00     0.124 S 
ATOM     76  O   UNL A   1      40.976  20.169  25.546  1.00  0.00    -0.237 OA
ATOM     77  O   UNL A   1      42.914  19.832  27.036  1.00  0.00    -0.237 OA
ATOM     78  O   UNL A   1      40.729  20.500  27.976  1.00  0.00    -0.744 OA
ENDBRANCH  71  75
ENDBRANCH  54  68
BRANCH  55  79
ATOM     79  C   UNL A   1      43.045  30.907  35.116  1.00  0.00     0.023 A 
ATOM     80  C   UNL A   1      43.627  32.171  34.910  1.00  0.00     0.031 A 
ATOM     81  C   UNL A   1      42.671  30.559  36.424  1.00  0.00     0.131 A 
ATOM     82  C   UNL A   1      43.912  32.997  36.004  1.00  0.00     0.055 A 
ATOM     83  C   UNL A   1      42.879  31.421  37.503  1.00  0.00     0.041 A 
ATOM     84  F   UNL A   1      42.119  29.361  36.674  1.00  0.00    -0.206 F 
ATOM     85  C   UNL A   1      43.526  32.637  37.298  1.00  0.00     0.022 A 
BRANCH  82  86
ATOM     86  S   UNL A   1      44.948  34.474  35.802  1.00  0.00     0.124 S 
ATOM     87  O   UNL A   1      45.509  34.634  37.139  1.00  0.00    -0.237 OA
ATOM     88  O   UNL A   1      45.888  34.042  34.770  1.00  0.00    -0.237 OA
ATOM     89  O   UNL A   1      44.003  35.503  35.384  1.00  0.00    -0.744 OA
ENDBRANCH  82  86
ENDBRANCH  55  79
BRANCH  67  90
ATOM     90  C   UNL A   1      47.065  25.576  32.895  1.00  0.00     0.023 A 
ATOM     91  C   UNL A   1      47.007  24.597  33.906  1.00  0.00     0.031 A 
ATOM     92  C   UNL A   1      48.326  26.046  32.491  1.00  0.00     0.131 A 
ATOM     93  C   UNL A   1      48.190  24.150  34.507  1.00  0.00     0.055 A 
ATOM     94  C   UNL A   1      49.504  25.565  33.064  1.00  0.00     0.041 A 
ATOM     95  F   UNL A   1      48.429  26.985  31.537  1.00  0.00    -0.206 F 
ATOM     96  C   UNL A   1      49.437  24.622  34.087  1.00  0.00     0.022 A 
BRANCH  93  97
ATOM     97  S   UNL A   1      48.151  23.000  35.909  1.00  0.00     0.124 S 
ATOM     98  O   UNL A   1      47.228  23.670  36.823  1.00  0.00    -0.237 OA
ATOM     99  O   UNL A   1      47.641  21.779  35.292  1.00  0.00    -0.237 OA
ATOM    100  O   UNL A   1      49.538  22.944  36.359  1.00  0.00    -0.744 OA
ENDBRANCH  93  97
ENDBRANCH  67  90
ENDBRANCH  41  42
ENDBRANCH  33  36
ENDBRANCH  31  32
ENDBRANCH  30  31
ENDBRANCH  29  30
ENDBRANCH  28  29
ENDBRANCH   1  28
TORSDOF 21
ENDMDL
