MODEL 1
REMARK VINA RESULT:     -12.6      0.000      0.000
REMARK SMILES CC(=O)NS(=O)(=O)c1ccc(-c2ccn(C(F)F)c(=O)c2)cc1C(=O)NCCCCCCNC(=O)c1ccc(-c2c3nc(c(-c4cc(S(=O)(=O)[O-])ccc4F)c4ccc([nH]4)c(-c4cc(S(=O)(=O)[O-])ccc4F)c4nc(c(-c5cc(S(=O)(=O)[O-])ccc5F)c5ccc2[nH]5)C=C4)C=C3)cc1
REMARK SMILES IDX 30 1 29 2 28 3 27 4 26 5 24 6 25 7 23 9 8 10 9 11 10 12
REMARK SMILES IDX 22 13 11 14 5 15 6 16 7 17 4 18 1 19 2 20 3 21 12 23 13 24
REMARK SMILES IDX 21 25 14 26 19 27 15 28 20 29 16 30 17 31 18 32 31 33 32 34
REMARK SMILES IDX 33 35 34 36 35 38 36 39 37 40 98 41 38 42 97 43 39 44 40 45
REMARK SMILES IDX 41 46 91 47 42 48 96 49 90 50 92 51 43 52 95 53 89 54 88 55
REMARK SMILES IDX 44 57 76 58 56 59 75 60 57 61 60 62 74 63 93 64 58 65 59 66
REMARK SMILES IDX 73 68 94 69 61 70 45 71 46 72 54 73 47 74 53 75 55 76 52 77
REMARK SMILES IDX 48 78 49 79 50 80 51 81 77 82 78 83 86 84 79 85 85 86 87 87
REMARK SMILES IDX 84 88 80 89 81 90 82 91 83 92 62 93 63 94 71 95 64 96 70 97
REMARK SMILES IDX 72 98 69 99 65 100 66 101 67 102 68 103
REMARK H PARENT 26 8 4 22 33 37 92 56 60 67
REMARK Flexibility Score: inf
ROOT
ATOM      1  C   UNL A   1      31.507  30.438  26.155  1.00  0.00     0.002 C 
ENDROOT
BRANCH   1   2
ATOM      2  C   UNL A   1      32.276  29.488  27.077  1.00  0.00     0.002 C 
BRANCH   2   3
ATOM      3  C   UNL A   1      31.575  28.150  27.299  1.00  0.00     0.021 C 
BRANCH   3   4
ATOM      4  C   UNL A   1      32.266  26.964  26.617  1.00  0.00     0.116 C 
BRANCH   4   5
ATOM      5  N   UNL A   1      31.431  25.791  26.706  1.00  0.00    -0.352 N 
ATOM      6  C   UNL A   1      31.087  24.720  25.945  1.00  0.00     0.252 C 
ATOM      7  O   UNL A   1      30.134  24.085  26.424  1.00  0.00    -0.269 OA
ATOM      8  H   UNL A   1      30.975  25.757  27.578  1.00  0.00     0.163 HD
BRANCH   6   9
ATOM      9  C   UNL A   1      31.732  24.114  24.732  1.00  0.00     0.060 A 
ATOM     10  C   UNL A   1      32.012  24.569  23.433  1.00  0.00     0.100 A 
ATOM     11  C   UNL A   1      32.382  23.640  22.421  1.00  0.00     0.024 A 
ATOM     12  C   UNL A   1      32.552  22.290  22.675  1.00  0.00     0.010 A 
ATOM     13  C   UNL A   1      31.974  22.724  24.963  1.00  0.00     0.024 A 
ATOM     14  C   UNL A   1      32.379  21.825  23.966  1.00  0.00    -0.017 A 
BRANCH  10  15
ATOM     15  S   UNL A   1      31.848  26.207  22.806  1.00  0.00     0.264 S 
ATOM     16  O   UNL A   1      32.018  26.126  21.379  1.00  0.00    -0.201 OA
ATOM     17  O   UNL A   1      32.723  27.075  23.568  1.00  0.00    -0.201 OA
BRANCH  15  18
ATOM     18  N   UNL A   1      30.321  26.744  23.136  1.00  0.00    -0.249 N 
ATOM     19  C   UNL A   1      30.336  29.200  22.531  1.00  0.00     0.115 C 
ATOM     20  C   UNL A   1      29.637  27.961  22.997  1.00  0.00     0.230 C 
ATOM     21  O   UNL A   1      28.474  28.007  23.377  1.00  0.00    -0.274 OA
ATOM     22  H   UNL A   1      29.753  26.039  23.524  1.00  0.00     0.183 HD
ENDBRANCH  15  18
ENDBRANCH  10  15
BRANCH  14  23
ATOM     23  C   UNL A   1      32.592  20.402  24.253  1.00  0.00    -0.011 A 
ATOM     24  C   UNL A   1      32.801  19.883  25.589  1.00  0.00     0.027 A 
ATOM     25  C   UNL A   1      32.542  19.552  23.213  1.00  0.00     0.080 A 
ATOM     26  C   UNL A   1      32.929  18.565  25.786  1.00  0.00     0.095 A 
ATOM     27  C   UNL A   1      32.689  18.089  23.416  1.00  0.00     0.255 A 
ATOM     28  N   UNL A   1      32.873  17.678  24.726  1.00  0.00    -0.258 N 
ATOM     29  O   UNL A   1      32.631  17.355  22.435  1.00  0.00    -0.269 OA
BRANCH  28  30
ATOM     30  C   UNL A   1      33.022  16.264  24.943  1.00  0.00     0.451 C 
ATOM     31  F   UNL A   1      34.054  16.002  25.781  1.00  0.00    -0.185 F 
ATOM     32  F   UNL A   1      31.897  15.736  25.485  1.00  0.00    -0.185 F 
ENDBRANCH  28  30
ENDBRANCH  14  23
ENDBRANCH   6   9
ENDBRANCH   4   5
ENDBRANCH   3   4
ENDBRANCH   2   3
ENDBRANCH   1   2
BRANCH   1  33
ATOM     33  C   UNL A   1      31.494  31.907  26.595  1.00  0.00     0.021 C 
BRANCH  33  34
ATOM     34  C   UNL A   1      32.785  32.389  27.254  1.00  0.00     0.116 C 
BRANCH  34  35
ATOM     35  N   UNL A   1      32.698  33.791  27.629  1.00  0.00    -0.352 N 
ATOM     36  C   UNL A   1      33.324  34.459  28.649  1.00  0.00     0.251 C 
ATOM     37  H   UNL A   1      32.103  34.340  27.069  1.00  0.00     0.163 HD
ATOM     38  O   UNL A   1      32.904  35.557  29.005  1.00  0.00    -0.269 OA
BRANCH  36  39
ATOM     39  C   UNL A   1      34.495  33.853  29.317  1.00  0.00     0.039 A 
ATOM     40  C   UNL A   1      34.291  32.942  30.354  1.00  0.00     0.014 A 
ATOM     41  C   UNL A   1      35.794  34.206  28.936  1.00  0.00     0.014 A 
ATOM     42  C   UNL A   1      35.390  32.346  30.976  1.00  0.00     0.010 A 
ATOM     43  C   UNL A   1      36.884  33.554  29.502  1.00  0.00     0.010 A 
ATOM     44  C   UNL A   1      36.695  32.623  30.534  1.00  0.00    -0.014 A 
BRANCH  44  45
ATOM     45  C   UNL A   1      37.872  31.955  31.148  1.00  0.00     0.031 A 
ATOM     46  C   UNL A   1      38.638  30.914  30.378  1.00  0.00     0.074 A 
ATOM     47  C   UNL A   1      38.214  32.248  32.418  1.00  0.00     0.049 A 
ATOM     48  N   UNL A   1      39.650  30.180  30.760  1.00  0.00    -0.248 NA
ATOM     49  C   UNL A   1      38.183  30.644  29.006  1.00  0.00     0.031 C 
ATOM     50  C   UNL A   1      37.522  33.211  33.277  1.00  0.00     0.029 A 
ATOM     51  N   UNL A   1      39.223  31.762  33.212  1.00  0.00    -0.354 N 
ATOM     52  C   UNL A   1      39.947  29.353  29.681  1.00  0.00     0.074 A 
ATOM     53  C   UNL A   1      38.961  29.632  28.658  1.00  0.00     0.031 C 
ATOM     54  C   UNL A   1      38.144  33.267  34.465  1.00  0.00     0.029 A 
ATOM     55  C   UNL A   1      39.243  32.308  34.475  1.00  0.00     0.049 A 
ATOM     56  H   UNL A   1      39.871  31.087  32.906  1.00  0.00     0.167 HD
ATOM     57  C   UNL A   1      40.963  28.462  29.548  1.00  0.00     0.034 A 
ATOM     58  C   UNL A   1      40.046  32.054  35.527  1.00  0.00     0.034 A 
ATOM     59  C   UNL A   1      41.935  28.200  30.584  1.00  0.00     0.049 A 
ATOM     60  C   UNL A   1      41.143  31.030  35.372  1.00  0.00     0.074 A 
ATOM     61  C   UNL A   1      43.034  27.360  30.540  1.00  0.00     0.029 A 
ATOM     62  N   UNL A   1      41.917  28.761  31.855  1.00  0.00    -0.354 N 
ATOM     63  N   UNL A   1      41.447  30.296  34.326  1.00  0.00    -0.248 NA
ATOM     64  C   UNL A   1      42.010  30.810  36.536  1.00  0.00     0.031 C 
ATOM     65  C   UNL A   1      43.627  27.348  31.807  1.00  0.00     0.029 A 
ATOM     66  C   UNL A   1      42.959  28.254  32.616  1.00  0.00     0.049 A 
ATOM     67  H   UNL A   1      41.259  29.422  32.170  1.00  0.00     0.167 HD
ATOM     68  C   UNL A   1      42.561  29.549  34.698  1.00  0.00     0.074 A 
ATOM     69  C   UNL A   1      42.882  29.934  36.058  1.00  0.00     0.031 C 
ATOM     70  C   UNL A   1      43.260  28.633  33.978  1.00  0.00     0.034 A 
BRANCH  57  71
ATOM     71  C   UNL A   1      41.043  27.687  28.251  1.00  0.00     0.023 A 
ATOM     72  C   UNL A   1      40.693  26.327  28.179  1.00  0.00     0.031 A 
ATOM     73  C   UNL A   1      41.511  28.305  27.078  1.00  0.00     0.131 A 
ATOM     74  C   UNL A   1      40.904  25.610  26.991  1.00  0.00     0.055 A 
ATOM     75  C   UNL A   1      41.629  27.609  25.873  1.00  0.00     0.041 A 
ATOM     76  F   UNL A   1      41.881  29.596  27.085  1.00  0.00    -0.206 F 
ATOM     77  C   UNL A   1      41.343  26.248  25.829  1.00  0.00     0.022 A 
BRANCH  74  78
ATOM     78  S   UNL A   1      40.763  23.801  27.037  1.00  0.00     0.124 S 
ATOM     79  O   UNL A   1      39.332  23.612  26.817  1.00  0.00    -0.237 OA
ATOM     80  O   UNL A   1      41.639  23.388  25.947  1.00  0.00    -0.237 OA
ATOM     81  O   UNL A   1      41.230  23.456  28.379  1.00  0.00    -0.744 OA
ENDBRANCH  74  78
ENDBRANCH  57  71
BRANCH  58  82
ATOM     82  C   UNL A   1      39.838  32.767  36.820  1.00  0.00     0.023 A 
ATOM     83  C   UNL A   1      38.870  32.334  37.740  1.00  0.00     0.031 A 
ATOM     84  C   UNL A   1      40.590  33.911  37.145  1.00  0.00     0.131 A 
ATOM     85  C   UNL A   1      38.651  33.061  38.920  1.00  0.00     0.055 A 
ATOM     86  C   UNL A   1      40.408  34.598  38.346  1.00  0.00     0.041 A 
ATOM     87  F   UNL A   1      41.530  34.367  36.302  1.00  0.00    -0.206 F 
ATOM     88  C   UNL A   1      39.425  34.181  39.237  1.00  0.00     0.022 A 
BRANCH  85  89
ATOM     89  S   UNL A   1      37.281  32.571  40.003  1.00  0.00     0.124 S 
ATOM     90  O   UNL A   1      37.802  31.349  40.605  1.00  0.00    -0.237 OA
ATOM     91  O   UNL A   1      37.167  33.726  40.889  1.00  0.00    -0.237 OA
ATOM     92  O   UNL A   1      36.166  32.385  39.077  1.00  0.00    -0.744 OA
ENDBRANCH  85  89
ENDBRANCH  58  82
BRANCH  70  93
ATOM     93  C   UNL A   1      44.471  28.017  34.640  1.00  0.00     0.023 A 
ATOM     94  C   UNL A   1      44.388  26.829  35.387  1.00  0.00     0.031 A 
ATOM     95  C   UNL A   1      45.728  28.638  34.527  1.00  0.00     0.131 A 
ATOM     96  C   UNL A   1      45.527  26.332  36.039  1.00  0.00     0.055 A 
ATOM     97  C   UNL A   1      46.872  28.101  35.118  1.00  0.00     0.041 A 
ATOM     98  F   UNL A   1      45.868  29.779  33.831  1.00  0.00    -0.206 F 
ATOM     99  C   UNL A   1      46.773  26.949  35.893  1.00  0.00     0.022 A 
BRANCH  96 100
ATOM    100  S   UNL A   1      45.340  24.927  37.171  1.00  0.00     0.124 S 
ATOM    101  O   UNL A   1      44.061  25.221  37.810  1.00  0.00    -0.237 OA
ATOM    102  O   UNL A   1      45.350  23.787  36.259  1.00  0.00    -0.237 OA
ATOM    103  O   UNL A   1      46.508  25.032  38.044  1.00  0.00    -0.744 OA
ENDBRANCH  96 100
ENDBRANCH  70  93
ENDBRANCH  44  45
ENDBRANCH  36  39
ENDBRANCH  34  35
ENDBRANCH  33  34
ENDBRANCH   1  33
TORSDOF 20
ENDMDL
MODEL 2
REMARK VINA RESULT:     -12.5      2.968      3.425
REMARK SMILES CC(=O)NS(=O)(=O)c1ccc(-c2ccn(C(F)F)c(=O)c2)cc1C(=O)NCCCCCCNC(=O)c1ccc(-c2c3nc(c(-c4cc(S(=O)(=O)[O-])ccc4F)c4ccc([nH]4)c(-c4cc(S(=O)(=O)[O-])ccc4F)c4nc(c(-c5cc(S(=O)(=O)[O-])ccc5F)c5ccc2[nH]5)C=C4)C=C3)cc1
REMARK SMILES IDX 30 1 29 2 28 3 27 4 26 5 24 6 25 7 23 9 8 10 9 11 10 12
REMARK SMILES IDX 22 13 11 14 5 15 6 16 7 17 4 18 1 19 2 20 3 21 12 23 13 24
REMARK SMILES IDX 21 25 14 26 19 27 15 28 20 29 16 30 17 31 18 32 31 33 32 34
REMARK SMILES IDX 33 35 34 36 35 38 36 39 37 40 98 41 38 42 97 43 39 44 40 45
REMARK SMILES IDX 41 46 91 47 42 48 96 49 90 50 92 51 43 52 95 53 89 54 88 55
REMARK SMILES IDX 44 57 76 58 56 59 75 60 57 61 60 62 74 63 93 64 58 65 59 66
REMARK SMILES IDX 73 68 94 69 61 70 45 71 46 72 54 73 47 74 53 75 55 76 52 77
REMARK SMILES IDX 48 78 49 79 50 80 51 81 77 82 78 83 86 84 79 85 85 86 87 87
REMARK SMILES IDX 84 88 80 89 81 90 82 91 83 92 62 93 63 94 71 95 64 96 70 97
REMARK SMILES IDX 72 98 69 99 65 100 66 101 67 102 68 103
REMARK H PARENT 26 8 4 22 33 37 92 56 60 67
REMARK Flexibility Score: inf
ROOT
ATOM      1  C   UNL A   1      31.403  31.268  26.307  1.00  0.00     0.002 C 
ENDROOT
BRANCH   1   2
ATOM      2  C   UNL A   1      32.279  30.282  27.084  1.00  0.00     0.002 C 
BRANCH   2   3
ATOM      3  C   UNL A   1      31.836  28.828  26.944  1.00  0.00     0.021 C 
BRANCH   3   4
ATOM      4  C   UNL A   1      32.967  27.864  26.569  1.00  0.00     0.116 C 
BRANCH   4   5
ATOM      5  N   UNL A   1      32.539  26.502  26.768  1.00  0.00    -0.352 N 
ATOM      6  C   UNL A   1      32.540  25.321  26.097  1.00  0.00     0.252 C 
ATOM      7  O   UNL A   1      31.835  24.461  26.650  1.00  0.00    -0.269 OA
ATOM      8  H   UNL A   1      32.123  26.396  27.653  1.00  0.00     0.163 HD
BRANCH   6   9
ATOM      9  C   UNL A   1      33.332  24.851  24.911  1.00  0.00     0.060 A 
ATOM     10  C   UNL A   1      33.072  24.730  23.536  1.00  0.00     0.100 A 
ATOM     11  C   UNL A   1      33.951  23.975  22.712  1.00  0.00     0.024 A 
ATOM     12  C   UNL A   1      35.114  23.399  23.195  1.00  0.00     0.010 A 
ATOM     13  C   UNL A   1      34.570  24.292  25.354  1.00  0.00     0.024 A 
ATOM     14  C   UNL A   1      35.450  23.583  24.523  1.00  0.00    -0.017 A 
BRANCH  10  15
ATOM     15  S   UNL A   1      31.665  25.314  22.651  1.00  0.00     0.264 S 
ATOM     16  O   UNL A   1      30.549  24.503  23.061  1.00  0.00    -0.201 OA
ATOM     17  O   UNL A   1      32.007  25.375  21.244  1.00  0.00    -0.201 OA
BRANCH  15  18
ATOM     18  N   UNL A   1      31.382  26.881  23.090  1.00  0.00    -0.249 N 
ATOM     19  C   UNL A   1      33.535  28.111  22.586  1.00  0.00     0.115 C 
ATOM     20  C   UNL A   1      32.109  28.080  23.040  1.00  0.00     0.230 C 
ATOM     21  O   UNL A   1      31.576  29.088  23.489  1.00  0.00    -0.274 OA
ATOM     22  H   UNL A   1      30.487  27.004  23.481  1.00  0.00     0.183 HD
ENDBRANCH  15  18
ENDBRANCH  10  15
BRANCH  14  23
ATOM     23  C   UNL A   1      36.700  23.009  25.036  1.00  0.00    -0.011 A 
ATOM     24  C   UNL A   1      37.635  23.746  25.860  1.00  0.00     0.027 A 
ATOM     25  C   UNL A   1      36.943  21.718  24.751  1.00  0.00     0.080 A 
ATOM     26  C   UNL A   1      38.726  23.142  26.344  1.00  0.00     0.095 A 
ATOM     27  C   UNL A   1      38.153  21.037  25.276  1.00  0.00     0.255 A 
ATOM     28  N   UNL A   1      38.987  21.813  26.064  1.00  0.00    -0.258 N 
ATOM     29  O   UNL A   1      38.328  19.857  24.991  1.00  0.00    -0.269 OA
BRANCH  28  30
ATOM     30  C   UNL A   1      40.168  21.172  26.578  1.00  0.00     0.451 C 
ATOM     31  F   UNL A   1      41.243  21.421  25.793  1.00  0.00    -0.185 F 
ATOM     32  F   UNL A   1      40.451  21.611  27.829  1.00  0.00    -0.185 F 
ENDBRANCH  28  30
ENDBRANCH  14  23
ENDBRANCH   6   9
ENDBRANCH   4   5
ENDBRANCH   3   4
ENDBRANCH   2   3
ENDBRANCH   1   2
BRANCH   1  33
ATOM     33  C   UNL A   1      31.540  32.736  26.728  1.00  0.00     0.021 C 
BRANCH  33  34
ATOM     34  C   UNL A   1      32.819  33.066  27.495  1.00  0.00     0.116 C 
BRANCH  34  35
ATOM     35  N   UNL A   1      32.870  34.471  27.863  1.00  0.00    -0.352 N 
ATOM     36  C   UNL A   1      33.567  35.081  28.874  1.00  0.00     0.251 C 
ATOM     37  H   UNL A   1      32.325  35.072  27.306  1.00  0.00     0.163 HD
ATOM     38  O   UNL A   1      33.258  36.215  29.228  1.00  0.00    -0.269 OA
BRANCH  36  39
ATOM     39  C   UNL A   1      34.681  34.368  29.534  1.00  0.00     0.039 A 
ATOM     40  C   UNL A   1      35.973  34.502  29.023  1.00  0.00     0.014 A 
ATOM     41  C   UNL A   1      34.445  33.545  30.640  1.00  0.00     0.014 A 
ATOM     42  C   UNL A   1      37.036  33.851  29.653  1.00  0.00     0.010 A 
ATOM     43  C   UNL A   1      35.513  32.962  31.312  1.00  0.00     0.010 A 
ATOM     44  C   UNL A   1      36.820  33.101  30.821  1.00  0.00    -0.014 A 
BRANCH  44  45
ATOM     45  C   UNL A   1      37.949  32.449  31.534  1.00  0.00     0.031 A 
ATOM     46  C   UNL A   1      38.699  31.317  30.886  1.00  0.00     0.074 A 
ATOM     47  C   UNL A   1      38.259  32.840  32.785  1.00  0.00     0.049 A 
ATOM     48  N   UNL A   1      39.669  30.584  31.367  1.00  0.00    -0.248 NA
ATOM     49  C   UNL A   1      38.280  30.944  29.527  1.00  0.00     0.031 C 
ATOM     50  C   UNL A   1      37.578  33.899  33.531  1.00  0.00     0.029 A 
ATOM     51  N   UNL A   1      39.222  32.391  33.655  1.00  0.00    -0.354 N 
ATOM     52  C   UNL A   1      39.969  29.655  30.376  1.00  0.00     0.074 A 
ATOM     53  C   UNL A   1      39.029  29.877  29.297  1.00  0.00     0.031 C 
ATOM     54  C   UNL A   1      38.162  34.038  34.732  1.00  0.00     0.029 A 
ATOM     55  C   UNL A   1      39.221  33.044  34.865  1.00  0.00     0.049 A 
ATOM     56  H   UNL A   1      39.853  31.668  33.433  1.00  0.00     0.167 HD
ATOM     57  C   UNL A   1      40.954  28.720  30.358  1.00  0.00     0.034 A 
ATOM     58  C   UNL A   1      39.979  32.856  35.964  1.00  0.00     0.034 A 
ATOM     59  C   UNL A   1      41.879  28.515  31.447  1.00  0.00     0.049 A 
ATOM     60  C   UNL A   1      41.039  31.784  35.939  1.00  0.00     0.074 A 
ATOM     61  C   UNL A   1      42.946  27.636  31.517  1.00  0.00     0.029 A 
ATOM     62  N   UNL A   1      41.841  29.187  32.663  1.00  0.00    -0.354 N 
ATOM     63  N   UNL A   1      41.349  30.950  34.973  1.00  0.00    -0.248 NA
ATOM     64  C   UNL A   1      41.858  31.637  37.149  1.00  0.00     0.031 C 
ATOM     65  C   UNL A   1      43.496  27.715  32.801  1.00  0.00     0.029 A 
ATOM     66  C   UNL A   1      42.837  28.712  33.503  1.00  0.00     0.049 A 
ATOM     67  H   UNL A   1      41.200  29.897  32.895  1.00  0.00     0.167 HD
ATOM     68  C   UNL A   1      42.421  30.199  35.448  1.00  0.00     0.074 A 
ATOM     69  C   UNL A   1      42.711  30.691  36.780  1.00  0.00     0.031 C 
ATOM     70  C   UNL A   1      43.107  29.199  34.837  1.00  0.00     0.034 A 
BRANCH  57  71
ATOM     71  C   UNL A   1      41.046  27.831  29.137  1.00  0.00     0.023 A 
ATOM     72  C   UNL A   1      42.053  28.003  28.170  1.00  0.00     0.031 A 
ATOM     73  C   UNL A   1      40.092  26.822  28.915  1.00  0.00     0.131 A 
ATOM     74  C   UNL A   1      42.028  27.247  26.988  1.00  0.00     0.055 A 
ATOM     75  C   UNL A   1      40.129  26.007  27.781  1.00  0.00     0.041 A 
ATOM     76  F   UNL A   1      39.093  26.620  29.789  1.00  0.00    -0.206 F 
ATOM     77  C   UNL A   1      41.090  26.230  26.800  1.00  0.00     0.022 A 
BRANCH  74  78
ATOM     78  S   UNL A   1      43.131  27.729  25.630  1.00  0.00     0.124 S 
ATOM     79  O   UNL A   1      43.921  28.787  26.255  1.00  0.00    -0.237 OA
ATOM     80  O   UNL A   1      43.838  26.487  25.341  1.00  0.00    -0.237 OA
ATOM     81  O   UNL A   1      42.212  28.182  24.588  1.00  0.00    -0.744 OA
ENDBRANCH  74  78
ENDBRANCH  57  71
BRANCH  58  82
ATOM     82  C   UNL A   1      39.756  33.687  37.181  1.00  0.00     0.023 A 
ATOM     83  C   UNL A   1      40.545  34.817  37.444  1.00  0.00     0.031 A 
ATOM     84  C   UNL A   1      38.761  33.347  38.117  1.00  0.00     0.131 A 
ATOM     85  C   UNL A   1      40.355  35.544  38.630  1.00  0.00     0.055 A 
ATOM     86  C   UNL A   1      38.538  34.106  39.267  1.00  0.00     0.041 A 
ATOM     87  F   UNL A   1      37.976  32.277  37.915  1.00  0.00    -0.206 F 
ATOM     88  C   UNL A   1      39.347  35.205  39.535  1.00  0.00     0.022 A 
BRANCH  85  89
ATOM     89  S   UNL A   1      41.502  36.895  39.016  1.00  0.00     0.124 S 
ATOM     90  O   UNL A   1      42.358  36.278  40.023  1.00  0.00    -0.237 OA
ATOM     91  O   UNL A   1      42.119  37.150  37.717  1.00  0.00    -0.237 OA
ATOM     92  O   UNL A   1      40.625  37.956  39.506  1.00  0.00    -0.744 OA
ENDBRANCH  85  89
ENDBRANCH  58  82
BRANCH  70  93
ATOM     93  C   UNL A   1      44.271  28.601  35.593  1.00  0.00     0.023 A 
ATOM     94  C   UNL A   1      44.101  27.548  36.509  1.00  0.00     0.031 A 
ATOM     95  C   UNL A   1      45.570  29.103  35.399  1.00  0.00     0.131 A 
ATOM     96  C   UNL A   1      45.201  27.071  37.238  1.00  0.00     0.055 A 
ATOM     97  C   UNL A   1      46.672  28.576  36.074  1.00  0.00     0.041 A 
ATOM     98  F   UNL A   1      45.793  30.112  34.540  1.00  0.00    -0.206 F 
ATOM     99  C   UNL A   1      46.490  27.564  37.011  1.00  0.00     0.022 A 
BRANCH  96 100
ATOM    100  S   UNL A   1      44.913  25.870  38.567  1.00  0.00     0.124 S 
ATOM    101  O   UNL A   1      46.263  25.384  38.834  1.00  0.00    -0.237 OA
ATOM    102  O   UNL A   1      44.314  26.696  39.610  1.00  0.00    -0.237 OA
ATOM    103  O   UNL A   1      44.012  24.893  37.956  1.00  0.00    -0.744 OA
ENDBRANCH  96 100
ENDBRANCH  70  93
ENDBRANCH  44  45
ENDBRANCH  36  39
ENDBRANCH  34  35
ENDBRANCH  33  34
ENDBRANCH   1  33
TORSDOF 20
ENDMDL
MODEL 3
REMARK VINA RESULT:     -12.3      2.648      3.623
REMARK SMILES CC(=O)NS(=O)(=O)c1ccc(-c2ccn(C(F)F)c(=O)c2)cc1C(=O)NCCCCCCNC(=O)c1ccc(-c2c3nc(c(-c4cc(S(=O)(=O)[O-])ccc4F)c4ccc([nH]4)c(-c4cc(S(=O)(=O)[O-])ccc4F)c4nc(c(-c5cc(S(=O)(=O)[O-])ccc5F)c5ccc2[nH]5)C=C4)C=C3)cc1
REMARK SMILES IDX 30 1 29 2 28 3 27 4 26 5 24 6 25 7 23 9 8 10 9 11 10 12
REMARK SMILES IDX 22 13 11 14 5 15 6 16 7 17 4 18 1 19 2 20 3 21 12 23 13 24
REMARK SMILES IDX 21 25 14 26 19 27 15 28 20 29 16 30 17 31 18 32 31 33 32 34
REMARK SMILES IDX 33 35 34 36 35 38 36 39 37 40 98 41 38 42 97 43 39 44 40 45
REMARK SMILES IDX 41 46 91 47 42 48 96 49 90 50 92 51 43 52 95 53 89 54 88 55
REMARK SMILES IDX 44 57 76 58 56 59 75 60 57 61 60 62 74 63 93 64 58 65 59 66
REMARK SMILES IDX 73 68 94 69 61 70 45 71 46 72 54 73 47 74 53 75 55 76 52 77
REMARK SMILES IDX 48 78 49 79 50 80 51 81 77 82 78 83 86 84 79 85 85 86 87 87
REMARK SMILES IDX 84 88 80 89 81 90 82 91 83 92 62 93 63 94 71 95 64 96 70 97
REMARK SMILES IDX 72 98 69 99 65 100 66 101 67 102 68 103
REMARK H PARENT 26 8 4 22 33 37 92 56 60 67
REMARK Flexibility Score: inf
ROOT
ATOM      1  C   UNL A   1      31.475  30.356  26.389  1.00  0.00     0.002 C 
ENDROOT
BRANCH   1   2
ATOM      2  C   UNL A   1      32.794  29.582  26.332  1.00  0.00     0.002 C 
BRANCH   2   3
ATOM      3  C   UNL A   1      32.665  28.121  26.757  1.00  0.00     0.021 C 
BRANCH   3   4
ATOM      4  C   UNL A   1      33.337  27.131  25.799  1.00  0.00     0.116 C 
BRANCH   4   5
ATOM      5  N   UNL A   1      33.368  25.817  26.392  1.00  0.00    -0.352 N 
ATOM      6  C   UNL A   1      33.747  24.555  26.062  1.00  0.00     0.252 C 
ATOM      7  O   UNL A   1      33.356  23.712  26.886  1.00  0.00    -0.269 OA
ATOM      8  H   UNL A   1      33.008  25.842  27.307  1.00  0.00     0.163 HD
BRANCH   6   9
ATOM      9  C   UNL A   1      34.647  24.038  24.977  1.00  0.00     0.060 A 
ATOM     10  C   UNL A   1      34.505  23.823  23.597  1.00  0.00     0.100 A 
ATOM     11  C   UNL A   1      35.470  23.046  22.897  1.00  0.00     0.024 A 
ATOM     12  C   UNL A   1      36.603  22.539  23.509  1.00  0.00     0.010 A 
ATOM     13  C   UNL A   1      35.858  23.545  25.555  1.00  0.00     0.024 A 
ATOM     14  C   UNL A   1      36.822  22.815  24.845  1.00  0.00    -0.017 A 
BRANCH  10  15
ATOM     15  S   UNL A   1      33.163  24.307  22.564  1.00  0.00     0.264 S 
ATOM     16  O   UNL A   1      33.705  25.183  21.559  1.00  0.00    -0.201 OA
ATOM     17  O   UNL A   1      32.089  24.790  23.409  1.00  0.00    -0.201 OA
BRANCH  15  18
ATOM     18  N   UNL A   1      32.553  22.958  21.830  1.00  0.00    -0.249 N 
ATOM     19  C   UNL A   1      32.345  21.236  23.672  1.00  0.00     0.115 C 
ATOM     20  C   UNL A   1      32.157  21.680  22.255  1.00  0.00     0.230 C 
ATOM     21  O   UNL A   1      31.756  20.896  21.404  1.00  0.00    -0.274 OA
ATOM     22  H   UNL A   1      32.440  23.079  20.860  1.00  0.00     0.183 HD
ENDBRANCH  15  18
ENDBRANCH  10  15
BRANCH  14  23
ATOM     23  C   UNL A   1      38.039  22.312  25.494  1.00  0.00    -0.011 A 
ATOM     24  C   UNL A   1      38.828  23.097  26.421  1.00  0.00     0.027 A 
ATOM     25  C   UNL A   1      38.393  21.043  25.233  1.00  0.00     0.080 A 
ATOM     26  C   UNL A   1      39.894  22.556  27.023  1.00  0.00     0.095 A 
ATOM     27  C   UNL A   1      39.576  20.431  25.889  1.00  0.00     0.255 A 
ATOM     28  N   UNL A   1      40.267  21.248  26.770  1.00  0.00    -0.258 N 
ATOM     29  O   UNL A   1      39.856  19.268  25.621  1.00  0.00    -0.269 OA
BRANCH  28  30
ATOM     30  C   UNL A   1      41.419  20.675  27.412  1.00  0.00     0.451 C 
ATOM     31  F   UNL A   1      42.106  21.610  28.112  1.00  0.00    -0.185 F 
ATOM     32  F   UNL A   1      41.056  19.691  28.270  1.00  0.00    -0.185 F 
ENDBRANCH  28  30
ENDBRANCH  14  23
ENDBRANCH   6   9
ENDBRANCH   4   5
ENDBRANCH   3   4
ENDBRANCH   2   3
ENDBRANCH   1   2
BRANCH   1  33
ATOM     33  C   UNL A   1      31.617  31.879  26.506  1.00  0.00     0.021 C 
BRANCH  33  34
ATOM     34  C   UNL A   1      32.871  32.351  27.238  1.00  0.00     0.116 C 
BRANCH  34  35
ATOM     35  N   UNL A   1      32.743  33.731  27.676  1.00  0.00    -0.352 N 
ATOM     36  C   UNL A   1      33.335  34.365  28.738  1.00  0.00     0.251 C 
ATOM     37  H   UNL A   1      32.144  34.291  27.132  1.00  0.00     0.163 HD
ATOM     38  O   UNL A   1      32.883  35.434  29.137  1.00  0.00    -0.269 OA
BRANCH  36  39
ATOM     39  C   UNL A   1      34.510  33.757  29.397  1.00  0.00     0.039 A 
ATOM     40  C   UNL A   1      35.789  34.197  29.051  1.00  0.00     0.014 A 
ATOM     41  C   UNL A   1      34.349  32.733  30.336  1.00  0.00     0.014 A 
ATOM     42  C   UNL A   1      36.904  33.645  29.684  1.00  0.00     0.010 A 
ATOM     43  C   UNL A   1      35.454  32.240  31.021  1.00  0.00     0.010 A 
ATOM     44  C   UNL A   1      36.745  32.684  30.697  1.00  0.00    -0.014 A 
BRANCH  44  45
ATOM     45  C   UNL A   1      37.919  32.128  31.419  1.00  0.00     0.031 A 
ATOM     46  C   UNL A   1      38.754  31.049  30.785  1.00  0.00     0.074 A 
ATOM     47  C   UNL A   1      38.196  32.556  32.666  1.00  0.00     0.049 A 
ATOM     48  N   UNL A   1      39.776  30.397  31.275  1.00  0.00    -0.248 NA
ATOM     49  C   UNL A   1      38.367  30.629  29.430  1.00  0.00     0.031 C 
ATOM     50  C   UNL A   1      37.435  33.570  33.398  1.00  0.00     0.029 A 
ATOM     51  N   UNL A   1      39.189  32.192  33.541  1.00  0.00    -0.354 N 
ATOM     52  C   UNL A   1      40.148  29.482  30.296  1.00  0.00     0.074 A 
ATOM     53  C   UNL A   1      39.196  29.620  29.214  1.00  0.00     0.031 C 
ATOM     54  C   UNL A   1      38.004  33.766  34.597  1.00  0.00     0.029 A 
ATOM     55  C   UNL A   1      39.136  32.858  34.744  1.00  0.00     0.049 A 
ATOM     56  H   UNL A   1      39.874  31.517  33.329  1.00  0.00     0.167 HD
ATOM     57  C   UNL A   1      41.201  28.625  30.290  1.00  0.00     0.034 A 
ATOM     58  C   UNL A   1      39.904  32.741  35.845  1.00  0.00     0.034 A 
ATOM     59  C   UNL A   1      42.138  28.505  31.382  1.00  0.00     0.049 A 
ATOM     60  C   UNL A   1      41.043  31.753  35.834  1.00  0.00     0.074 A 
ATOM     61  C   UNL A   1      43.268  27.710  31.464  1.00  0.00     0.029 A 
ATOM     62  N   UNL A   1      42.046  29.185  32.590  1.00  0.00    -0.354 N 
ATOM     63  N   UNL A   1      41.417  30.933  34.878  1.00  0.00    -0.248 NA
ATOM     64  C   UNL A   1      41.868  31.682  37.046  1.00  0.00     0.031 C 
ATOM     65  C   UNL A   1      43.808  27.846  32.747  1.00  0.00     0.029 A 
ATOM     66  C   UNL A   1      43.074  28.797  33.437  1.00  0.00     0.049 A 
ATOM     67  H   UNL A   1      41.352  29.847  32.813  1.00  0.00     0.167 HD
ATOM     68  C   UNL A   1      42.542  30.272  35.364  1.00  0.00     0.074 A 
ATOM     69  C   UNL A   1      42.791  30.800  36.690  1.00  0.00     0.031 C 
ATOM     70  C   UNL A   1      43.303  29.319  34.765  1.00  0.00     0.034 A 
BRANCH  57  71
ATOM     71  C   UNL A   1      41.363  27.732  29.080  1.00  0.00     0.023 A 
ATOM     72  C   UNL A   1      42.360  27.964  28.115  1.00  0.00     0.031 A 
ATOM     73  C   UNL A   1      40.484  26.655  28.866  1.00  0.00     0.131 A 
ATOM     74  C   UNL A   1      42.396  27.194  26.943  1.00  0.00     0.055 A 
ATOM     75  C   UNL A   1      40.586  25.832  27.741  1.00  0.00     0.041 A 
ATOM     76  F   UNL A   1      39.498  26.392  29.737  1.00  0.00    -0.206 F 
ATOM     77  C   UNL A   1      41.533  26.112  26.762  1.00  0.00     0.022 A 
BRANCH  74  78
ATOM     78  S   UNL A   1      43.469  27.739  25.584  1.00  0.00     0.124 S 
ATOM     79  O   UNL A   1      44.254  26.535  25.328  1.00  0.00    -0.237 OA
ATOM     80  O   UNL A   1      42.508  28.110  24.552  1.00  0.00    -0.237 OA
ATOM     81  O   UNL A   1      44.220  28.850  26.167  1.00  0.00    -0.744 OA
ENDBRANCH  74  78
ENDBRANCH  57  71
BRANCH  58  82
ATOM     82  C   UNL A   1      39.616  33.567  37.053  1.00  0.00     0.023 A 
ATOM     83  C   UNL A   1      38.972  33.016  38.172  1.00  0.00     0.031 A 
ATOM     84  C   UNL A   1      39.958  34.931  37.095  1.00  0.00     0.131 A 
ATOM     85  C   UNL A   1      38.656  33.833  39.270  1.00  0.00     0.055 A 
ATOM     86  C   UNL A   1      39.693  35.726  38.212  1.00  0.00     0.041 A 
ATOM     87  F   UNL A   1      40.577  35.508  36.052  1.00  0.00    -0.206 F 
ATOM     88  C   UNL A   1      39.027  35.180  39.303  1.00  0.00     0.022 A 
BRANCH  85  89
ATOM     89  S   UNL A   1      37.677  33.129  40.625  1.00  0.00     0.124 S 
ATOM     90  O   UNL A   1      38.381  31.877  40.879  1.00  0.00    -0.237 OA
ATOM     91  O   UNL A   1      37.801  34.156  41.654  1.00  0.00    -0.237 OA
ATOM     92  O   UNL A   1      36.343  32.989  40.044  1.00  0.00    -0.744 OA
ENDBRANCH  85  89
ENDBRANCH  58  82
BRANCH  70  93
ATOM     93  C   UNL A   1      44.508  28.821  35.530  1.00  0.00     0.023 A 
ATOM     94  C   UNL A   1      44.431  27.728  36.410  1.00  0.00     0.031 A 
ATOM     95  C   UNL A   1      45.752  29.460  35.380  1.00  0.00     0.131 A 
ATOM     96  C   UNL A   1      45.560  27.344  37.150  1.00  0.00     0.055 A 
ATOM     97  C   UNL A   1      46.889  29.029  36.064  1.00  0.00     0.041 A 
ATOM     98  F   UNL A   1      45.885  30.514  34.557  1.00  0.00    -0.206 F 
ATOM     99  C   UNL A   1      46.794  27.974  36.966  1.00  0.00     0.022 A 
BRANCH  96 100
ATOM    100  S   UNL A   1      45.372  26.077  38.435  1.00  0.00     0.124 S 
ATOM    101  O   UNL A   1      46.731  25.968  38.954  1.00  0.00    -0.237 OA
ATOM    102  O   UNL A   1      44.393  26.685  39.332  1.00  0.00    -0.237 OA
ATOM    103  O   UNL A   1      44.893  24.909  37.697  1.00  0.00    -0.744 OA
ENDBRANCH  96 100
ENDBRANCH  70  93
ENDBRANCH  44  45
ENDBRANCH  36  39
ENDBRANCH  34  35
ENDBRANCH  33  34
ENDBRANCH   1  33
TORSDOF 20
ENDMDL
