MODEL 1
REMARK VINA RESULT:     -11.6      0.000      0.000
REMARK SMILES CC(C)COC(=O)c1ccc(NC(=O)[C@H]2[C@@H](C(=O)NCCCCCCNC(=O)c3ccc(-c4c5nc(c(-c6cc(S(=O)(=O)[O-])ccc6F)c6ccc([nH]6)c(-c6cc(S(=O)(=O)[O-])ccc6F)c6nc(c(-c7cc(S(=O)(=O)[O-])ccc7F)c7ccc4[nH]7)C=C6)C=C5)cc3)[C@@H]3C=C[C@H]2C3)cc1
REMARK SMILES IDX 21 1 20 2 19 3 17 4 18 5 16 7 15 8 95 9 92 10 94 11 96 12
REMARK SMILES IDX 93 13 13 14 12 15 14 17 11 18 8 19 9 20 98 21 10 22 97 23
REMARK SMILES IDX 6 24 7 25 5 26 4 27 2 28 1 29 3 30 22 31 23 32 24 33 25 34
REMARK SMILES IDX 26 35 27 36 28 38 29 39 30 40 91 41 31 42 90 43 32 44 33 45
REMARK SMILES IDX 34 46 84 47 35 48 89 49 83 50 85 51 36 52 88 53 82 54 81 55
REMARK SMILES IDX 37 57 69 58 49 59 68 60 50 61 53 62 67 63 86 64 51 65 52 66
REMARK SMILES IDX 66 68 87 69 54 70 38 71 39 72 47 73 40 74 46 75 48 76 45 77
REMARK SMILES IDX 41 78 42 79 43 80 44 81 70 82 71 83 79 84 72 85 78 86 80 87
REMARK SMILES IDX 77 88 73 89 74 90 75 91 76 92 55 93 56 94 64 95 57 96 63 97
REMARK SMILES IDX 65 98 62 99 58 100 59 101 60 102 61 103
REMARK H PARENT 19 6 12 16 26 37 85 56 53 67
REMARK Flexibility Score: inf
ROOT
ATOM      1  C   UNL A   1      31.412  24.848  27.093  1.00  0.00     0.021 C 
ENDROOT
BRANCH   1   2
ATOM      2  C   UNL A   1      31.117  23.500  26.448  1.00  0.00     0.116 C 
BRANCH   2   3
ATOM      3  N   UNL A   1      32.000  22.431  26.860  1.00  0.00    -0.356 N 
ATOM      4  C   UNL A   1      33.338  22.249  26.765  1.00  0.00     0.224 C 
ATOM      5  O   UNL A   1      33.789  21.348  27.489  1.00  0.00    -0.275 OA
ATOM      6  H   UNL A   1      31.533  21.683  27.297  1.00  0.00     0.163 HD
BRANCH   4   7
ATOM      7  C   UNL A   1      34.301  22.914  25.778  1.00  0.00     0.098 C 
ATOM      8  C   UNL A   1      34.237  22.860  24.221  1.00  0.00     0.099 C 
ATOM      9  C   UNL A   1      35.630  22.240  23.864  1.00  0.00     0.025 C 
ATOM     10  C   UNL A   1      35.758  22.468  26.084  1.00  0.00     0.025 C 
ATOM     11  C   UNL A   1      36.654  23.328  24.141  1.00  0.00    -0.027 C 
ATOM     12  C   UNL A   1      35.963  21.351  25.065  1.00  0.00     0.017 C 
ATOM     13  C   UNL A   1      36.712  23.480  25.474  1.00  0.00    -0.027 C 
BRANCH   8  14
ATOM     14  C   UNL A   1      33.065  22.208  23.514  1.00  0.00     0.228 C 
ATOM     15  N   UNL A   1      32.051  22.946  22.976  1.00  0.00    -0.326 N 
ATOM     16  H   UNL A   1      31.284  22.408  22.673  1.00  0.00     0.169 HD
ATOM     17  O   UNL A   1      32.976  20.979  23.435  1.00  0.00    -0.274 OA
BRANCH  15  18
ATOM     18  C   UNL A   1      31.894  24.322  22.774  1.00  0.00     0.041 A 
ATOM     19  C   UNL A   1      31.446  27.059  22.464  1.00  0.00     0.060 A 
ATOM     20  C   UNL A   1      32.665  26.506  22.072  1.00  0.00     0.018 A 
ATOM     21  C   UNL A   1      30.428  26.254  22.972  1.00  0.00     0.018 A 
ATOM     22  C   UNL A   1      32.886  25.139  22.231  1.00  0.00     0.027 A 
ATOM     23  C   UNL A   1      30.650  24.880  23.102  1.00  0.00     0.027 A 
BRANCH  19  24
ATOM     24  C   UNL A   1      31.245  28.499  22.270  1.00  0.00     0.338 C 
ATOM     25  O   UNL A   1      32.146  29.318  22.360  1.00  0.00    -0.246 OA
BRANCH  24  26
ATOM     26  O   UNL A   1      29.919  28.730  22.125  1.00  0.00    -0.462 OA
BRANCH  26  27
ATOM     27  C   UNL A   1      29.485  30.052  22.478  1.00  0.00     0.236 C 
BRANCH  27  28
ATOM     28  C   UNL A   1      27.959  30.108  22.662  1.00  0.00     0.021 C 
ATOM     29  C   UNL A   1      27.358  28.775  23.111  1.00  0.00     0.011 C 
ATOM     30  C   UNL A   1      27.595  31.206  23.662  1.00  0.00     0.011 C 
ENDBRANCH  27  28
ENDBRANCH  26  27
ENDBRANCH  24  26
ENDBRANCH  19  24
ENDBRANCH  15  18
ENDBRANCH   8  14
ENDBRANCH   4   7
ENDBRANCH   2   3
ENDBRANCH   1   2
BRANCH   1  31
ATOM     31  C   UNL A   1      31.778  25.995  26.151  1.00  0.00     0.002 C 
BRANCH  31  32
ATOM     32  C   UNL A   1      31.916  27.390  26.764  1.00  0.00     0.002 C 
BRANCH  32  33
ATOM     33  C   UNL A   1      31.701  28.597  25.845  1.00  0.00     0.021 C 
BRANCH  33  34
ATOM     34  C   UNL A   1      32.846  29.599  25.725  1.00  0.00     0.116 C 
BRANCH  34  35
ATOM     35  N   UNL A   1      32.499  30.929  26.179  1.00  0.00    -0.352 N 
ATOM     36  C   UNL A   1      33.112  31.752  27.091  1.00  0.00     0.251 C 
ATOM     37  H   UNL A   1      31.688  31.306  25.768  1.00  0.00     0.163 HD
ATOM     38  O   UNL A   1      32.569  32.821  27.369  1.00  0.00    -0.269 OA
BRANCH  36  39
ATOM     39  C   UNL A   1      34.381  31.374  27.768  1.00  0.00     0.039 A 
ATOM     40  C   UNL A   1      34.478  30.082  28.297  1.00  0.00     0.014 A 
ATOM     41  C   UNL A   1      35.440  32.268  27.951  1.00  0.00     0.014 A 
ATOM     42  C   UNL A   1      35.635  29.678  28.969  1.00  0.00     0.010 A 
ATOM     43  C   UNL A   1      36.621  31.845  28.568  1.00  0.00     0.010 A 
ATOM     44  C   UNL A   1      36.726  30.550  29.097  1.00  0.00    -0.014 A 
BRANCH  44  45
ATOM     45  C   UNL A   1      37.957  30.121  29.817  1.00  0.00     0.031 A 
ATOM     46  C   UNL A   1      38.225  30.606  31.217  1.00  0.00     0.074 A 
ATOM     47  C   UNL A   1      38.843  29.310  29.206  1.00  0.00     0.049 A 
ATOM     48  N   UNL A   1      39.238  30.349  32.005  1.00  0.00    -0.248 NA
ATOM     49  C   UNL A   1      37.234  31.525  31.796  1.00  0.00     0.031 C 
ATOM     50  C   UNL A   1      38.721  28.806  27.837  1.00  0.00     0.029 A 
ATOM     51  N   UNL A   1      40.020  28.768  29.655  1.00  0.00    -0.354 N 
ATOM     52  C   UNL A   1      39.014  31.082  33.168  1.00  0.00     0.074 A 
ATOM     53  C   UNL A   1      37.796  31.836  32.953  1.00  0.00     0.031 C 
ATOM     54  C   UNL A   1      39.770  28.011  27.567  1.00  0.00     0.029 A 
ATOM     55  C   UNL A   1      40.650  27.968  28.731  1.00  0.00     0.049 A 
ATOM     56  H   UNL A   1      40.381  28.935  30.556  1.00  0.00     0.167 HD
ATOM     57  C   UNL A   1      39.741  31.107  34.314  1.00  0.00     0.034 A 
ATOM     58  C   UNL A   1      41.802  27.273  28.812  1.00  0.00     0.034 A 
ATOM     59  C   UNL A   1      40.947  30.340  34.521  1.00  0.00     0.049 A 
ATOM     60  C   UNL A   1      42.578  27.291  30.103  1.00  0.00     0.074 A 
ATOM     61  C   UNL A   1      41.742  30.266  35.651  1.00  0.00     0.029 A 
ATOM     62  N   UNL A   1      41.533  29.511  33.572  1.00  0.00    -0.354 N 
ATOM     63  N   UNL A   1      42.327  27.954  31.209  1.00  0.00    -0.248 NA
ATOM     64  C   UNL A   1      43.777  26.447  30.165  1.00  0.00     0.031 C 
ATOM     65  C   UNL A   1      42.832  29.432  35.371  1.00  0.00     0.029 A 
ATOM     66  C   UNL A   1      42.685  28.934  34.086  1.00  0.00     0.049 A 
ATOM     67  H   UNL A   1      41.181  29.356  32.665  1.00  0.00     0.167 HD
ATOM     68  C   UNL A   1      43.323  27.580  32.107  1.00  0.00     0.074 A 
ATOM     69  C   UNL A   1      44.165  26.624  31.419  1.00  0.00     0.031 C 
ATOM     70  C   UNL A   1      43.521  27.988  33.388  1.00  0.00     0.034 A 
BRANCH  57  71
ATOM     71  C   UNL A   1      39.256  32.020  35.417  1.00  0.00     0.023 A 
ATOM     72  C   UNL A   1      39.646  33.371  35.479  1.00  0.00     0.031 A 
ATOM     73  C   UNL A   1      38.431  31.526  36.442  1.00  0.00     0.131 A 
ATOM     74  C   UNL A   1      39.282  34.155  36.584  1.00  0.00     0.055 A 
ATOM     75  C   UNL A   1      38.004  32.336  37.497  1.00  0.00     0.041 A 
ATOM     76  F   UNL A   1      38.042  30.242  36.448  1.00  0.00    -0.206 F 
ATOM     77  C   UNL A   1      38.443  33.654  37.582  1.00  0.00     0.022 A 
BRANCH  74  78
ATOM     78  S   UNL A   1      40.044  35.790  36.774  1.00  0.00     0.124 S 
ATOM     79  O   UNL A   1      41.458  35.442  36.892  1.00  0.00    -0.237 OA
ATOM     80  O   UNL A   1      39.652  36.466  35.544  1.00  0.00    -0.237 OA
ATOM     81  O   UNL A   1      39.434  36.312  37.995  1.00  0.00    -0.744 OA
ENDBRANCH  74  78
ENDBRANCH  57  71
BRANCH  58  82
ATOM     82  C   UNL A   1      42.292  26.488  27.645  1.00  0.00     0.023 A 
ATOM     83  C   UNL A   1      41.919  25.147  27.466  1.00  0.00     0.031 A 
ATOM     84  C   UNL A   1      43.170  27.061  26.708  1.00  0.00     0.131 A 
ATOM     85  C   UNL A   1      42.459  24.407  26.404  1.00  0.00     0.055 A 
ATOM     86  C   UNL A   1      43.670  26.334  25.627  1.00  0.00     0.041 A 
ATOM     87  F   UNL A   1      43.547  28.344  26.829  1.00  0.00    -0.206 F 
ATOM     88  C   UNL A   1      43.325  24.994  25.477  1.00  0.00     0.022 A 
BRANCH  85  89
ATOM     89  S   UNL A   1      42.066  22.640  26.288  1.00  0.00     0.124 S 
ATOM     90  O   UNL A   1      42.653  22.288  25.000  1.00  0.00    -0.237 OA
ATOM     91  O   UNL A   1      42.737  22.103  27.467  1.00  0.00    -0.237 OA
ATOM     92  O   UNL A   1      40.606  22.613  26.337  1.00  0.00    -0.744 OA
ENDBRANCH  85  89
ENDBRANCH  58  82
BRANCH  70  93
ATOM     93  C   UNL A   1      44.669  27.352  34.133  1.00  0.00     0.023 A 
ATOM     94  C   UNL A   1      45.980  27.850  34.037  1.00  0.00     0.031 A 
ATOM     95  C   UNL A   1      44.450  26.211  34.923  1.00  0.00     0.131 A 
ATOM     96  C   UNL A   1      47.033  27.169  34.665  1.00  0.00     0.055 A 
ATOM     97  C   UNL A   1      45.493  25.570  35.593  1.00  0.00     0.041 A 
ATOM     98  F   UNL A   1      43.217  25.693  35.050  1.00  0.00    -0.206 F 
ATOM     99  C   UNL A   1      46.796  26.039  35.452  1.00  0.00     0.022 A 
BRANCH  96 100
ATOM    100  S   UNL A   1      48.734  27.716  34.353  1.00  0.00     0.124 S 
ATOM    101  O   UNL A   1      49.197  28.057  35.694  1.00  0.00    -0.237 OA
ATOM    102  O   UNL A   1      49.336  26.529  33.754  1.00  0.00    -0.237 OA
ATOM    103  O   UNL A   1      48.569  28.851  33.447  1.00  0.00    -0.744 OA
ENDBRANCH  96 100
ENDBRANCH  70  93
ENDBRANCH  44  45
ENDBRANCH  36  39
ENDBRANCH  34  35
ENDBRANCH  33  34
ENDBRANCH  32  33
ENDBRANCH  31  32
ENDBRANCH   1  31
TORSDOF 22
ENDMDL
MODEL 2
REMARK VINA RESULT:     -11.3      1.764      2.209
REMARK SMILES CC(C)COC(=O)c1ccc(NC(=O)[C@H]2[C@@H](C(=O)NCCCCCCNC(=O)c3ccc(-c4c5nc(c(-c6cc(S(=O)(=O)[O-])ccc6F)c6ccc([nH]6)c(-c6cc(S(=O)(=O)[O-])ccc6F)c6nc(c(-c7cc(S(=O)(=O)[O-])ccc7F)c7ccc4[nH]7)C=C6)C=C5)cc3)[C@@H]3C=C[C@H]2C3)cc1
REMARK SMILES IDX 21 1 20 2 19 3 17 4 18 5 16 7 15 8 95 9 92 10 94 11 96 12
REMARK SMILES IDX 93 13 13 14 12 15 14 17 11 18 8 19 9 20 98 21 10 22 97 23
REMARK SMILES IDX 6 24 7 25 5 26 4 27 2 28 1 29 3 30 22 31 23 32 24 33 25 34
REMARK SMILES IDX 26 35 27 36 28 38 29 39 30 40 91 41 31 42 90 43 32 44 33 45
REMARK SMILES IDX 34 46 84 47 35 48 89 49 83 50 85 51 36 52 88 53 82 54 81 55
REMARK SMILES IDX 37 57 69 58 49 59 68 60 50 61 53 62 67 63 86 64 51 65 52 66
REMARK SMILES IDX 66 68 87 69 54 70 38 71 39 72 47 73 40 74 46 75 48 76 45 77
REMARK SMILES IDX 41 78 42 79 43 80 44 81 70 82 71 83 79 84 72 85 78 86 80 87
REMARK SMILES IDX 77 88 73 89 74 90 75 91 76 92 55 93 56 94 64 95 57 96 63 97
REMARK SMILES IDX 65 98 62 99 58 100 59 101 60 102 61 103
REMARK H PARENT 19 6 12 16 26 37 85 56 53 67
REMARK Flexibility Score: inf
ROOT
ATOM      1  C   UNL A   1      31.405  24.957  27.130  1.00  0.00     0.021 C 
ENDROOT
BRANCH   1   2
ATOM      2  C   UNL A   1      31.221  23.606  26.452  1.00  0.00     0.116 C 
BRANCH   2   3
ATOM      3  N   UNL A   1      32.114  22.570  26.923  1.00  0.00    -0.356 N 
ATOM      4  C   UNL A   1      33.452  22.394  26.836  1.00  0.00     0.224 C 
ATOM      5  O   UNL A   1      33.913  21.540  27.610  1.00  0.00    -0.275 OA
ATOM      6  H   UNL A   1      31.654  21.846  27.406  1.00  0.00     0.163 HD
BRANCH   4   7
ATOM      7  C   UNL A   1      34.408  23.007  25.808  1.00  0.00     0.098 C 
ATOM      8  C   UNL A   1      34.338  22.863  24.258  1.00  0.00     0.099 C 
ATOM      9  C   UNL A   1      35.734  22.233  23.931  1.00  0.00     0.025 C 
ATOM     10  C   UNL A   1      35.869  22.588  26.133  1.00  0.00     0.025 C 
ATOM     11  C   UNL A   1      36.751  23.341  24.141  1.00  0.00    -0.027 C 
ATOM     12  C   UNL A   1      36.078  21.416  25.179  1.00  0.00     0.017 C 
ATOM     13  C   UNL A   1      36.814  23.570  25.463  1.00  0.00    -0.027 C 
BRANCH   8  14
ATOM     14  C   UNL A   1      33.168  22.165  23.593  1.00  0.00     0.228 C 
ATOM     15  N   UNL A   1      32.102  22.861  23.100  1.00  0.00    -0.326 N 
ATOM     16  H   UNL A   1      31.348  22.291  22.825  1.00  0.00     0.169 HD
ATOM     17  O   UNL A   1      33.128  20.934  23.511  1.00  0.00    -0.274 OA
BRANCH  15  18
ATOM     18  C   UNL A   1      31.879  24.230  22.913  1.00  0.00     0.041 A 
ATOM     19  C   UNL A   1      31.294  26.944  22.628  1.00  0.00     0.060 A 
ATOM     20  C   UNL A   1      32.554  26.463  22.272  1.00  0.00     0.018 A 
ATOM     21  C   UNL A   1      30.304  26.077  23.087  1.00  0.00     0.018 A 
ATOM     22  C   UNL A   1      32.844  25.107  22.418  1.00  0.00     0.027 A 
ATOM     23  C   UNL A   1      30.595  24.715  23.205  1.00  0.00     0.027 A 
BRANCH  19  24
ATOM     24  C   UNL A   1      31.023  28.374  22.448  1.00  0.00     0.338 C 
ATOM     25  O   UNL A   1      31.881  29.236  22.558  1.00  0.00    -0.246 OA
BRANCH  24  26
ATOM     26  O   UNL A   1      29.689  28.539  22.290  1.00  0.00    -0.462 OA
BRANCH  26  27
ATOM     27  C   UNL A   1      29.065  29.425  23.232  1.00  0.00     0.236 C 
BRANCH  27  28
ATOM     28  C   UNL A   1      28.758  30.791  22.597  1.00  0.00     0.021 C 
ATOM     29  C   UNL A   1      28.306  30.688  21.139  1.00  0.00     0.011 C 
ATOM     30  C   UNL A   1      27.698  31.522  23.421  1.00  0.00     0.011 C 
ENDBRANCH  27  28
ENDBRANCH  26  27
ENDBRANCH  24  26
ENDBRANCH  19  24
ENDBRANCH  15  18
ENDBRANCH   8  14
ENDBRANCH   4   7
ENDBRANCH   2   3
ENDBRANCH   1   2
BRANCH   1  31
ATOM     31  C   UNL A   1      31.820  26.124  26.234  1.00  0.00     0.002 C 
BRANCH  31  32
ATOM     32  C   UNL A   1      31.967  27.498  26.893  1.00  0.00     0.002 C 
BRANCH  32  33
ATOM     33  C   UNL A   1      32.388  28.673  26.005  1.00  0.00     0.021 C 
BRANCH  33  34
ATOM     34  C   UNL A   1      33.703  29.370  26.342  1.00  0.00     0.116 C 
BRANCH  34  35
ATOM     35  N   UNL A   1      33.526  30.663  26.969  1.00  0.00    -0.352 N 
ATOM     36  C   UNL A   1      34.316  31.338  27.867  1.00  0.00     0.251 C 
ATOM     37  H   UNL A   1      32.703  31.137  26.709  1.00  0.00     0.163 HD
ATOM     38  O   UNL A   1      33.901  32.405  28.319  1.00  0.00    -0.269 OA
BRANCH  36  39
ATOM     39  C   UNL A   1      35.624  30.803  28.325  1.00  0.00     0.039 A 
ATOM     40  C   UNL A   1      35.618  29.632  29.092  1.00  0.00     0.014 A 
ATOM     41  C   UNL A   1      36.839  31.451  28.078  1.00  0.00     0.014 A 
ATOM     42  C   UNL A   1      36.815  29.096  29.575  1.00  0.00     0.010 A 
ATOM     43  C   UNL A   1      38.042  30.882  28.508  1.00  0.00     0.010 A 
ATOM     44  C   UNL A   1      38.042  29.707  29.275  1.00  0.00    -0.014 A 
BRANCH  44  45
ATOM     45  C   UNL A   1      39.316  29.139  29.794  1.00  0.00     0.031 A 
ATOM     46  C   UNL A   1      39.964  29.723  31.021  1.00  0.00     0.074 A 
ATOM     47  C   UNL A   1      39.902  28.109  29.151  1.00  0.00     0.049 A 
ATOM     48  N   UNL A   1      41.072  29.372  31.622  1.00  0.00    -0.248 NA
ATOM     49  C   UNL A   1      39.287  30.875  31.636  1.00  0.00     0.031 C 
ATOM     50  C   UNL A   1      39.399  27.481  27.928  1.00  0.00     0.029 A 
ATOM     51  N   UNL A   1      41.047  27.409  29.437  1.00  0.00    -0.354 N 
ATOM     52  C   UNL A   1      41.233  30.265  32.679  1.00  0.00     0.074 A 
ATOM     53  C   UNL A   1      40.136  31.206  32.596  1.00  0.00     0.031 C 
ATOM     54  C   UNL A   1      40.220  26.475  27.581  1.00  0.00     0.029 A 
ATOM     55  C   UNL A   1      41.318  26.401  28.540  1.00  0.00     0.049 A 
ATOM     56  H   UNL A   1      41.621  27.608  30.211  1.00  0.00     0.167 HD
ATOM     57  C   UNL A   1      42.192  30.285  33.641  1.00  0.00     0.034 A 
ATOM     58  C   UNL A   1      42.332  25.515  28.498  1.00  0.00     0.034 A 
ATOM     59  C   UNL A   1      43.274  29.332  33.720  1.00  0.00     0.049 A 
ATOM     60  C   UNL A   1      43.369  25.535  29.591  1.00  0.00     0.074 A 
ATOM     61  C   UNL A   1      44.278  29.240  34.668  1.00  0.00     0.029 A 
ATOM     62  N   UNL A   1      43.493  28.302  32.813  1.00  0.00    -0.354 N 
ATOM     63  N   UNL A   1      43.480  26.358  30.608  1.00  0.00    -0.248 NA
ATOM     64  C   UNL A   1      44.400  24.492  29.543  1.00  0.00     0.031 C 
ATOM     65  C   UNL A   1      45.130  28.187  34.309  1.00  0.00     0.029 A 
ATOM     66  C   UNL A   1      44.622  27.581  33.171  1.00  0.00     0.049 A 
ATOM     67  H   UNL A   1      42.928  28.112  32.029  1.00  0.00     0.167 HD
ATOM     68  C   UNL A   1      44.578  25.909  31.338  1.00  0.00     0.074 A 
ATOM     69  C   UNL A   1      45.081  24.737  30.652  1.00  0.00     0.031 C 
ATOM     70  C   UNL A   1      45.119  26.418  32.476  1.00  0.00     0.034 A 
BRANCH  57  71
ATOM     71  C   UNL A   1      42.118  31.395  34.663  1.00  0.00     0.023 A 
ATOM     72  C   UNL A   1      42.802  32.611  34.480  1.00  0.00     0.031 A 
ATOM     73  C   UNL A   1      41.393  31.222  35.854  1.00  0.00     0.131 A 
ATOM     74  C   UNL A   1      42.815  33.569  35.506  1.00  0.00     0.055 A 
ATOM     75  C   UNL A   1      41.343  32.214  36.837  1.00  0.00     0.041 A 
ATOM     76  F   UNL A   1      40.736  30.077  36.095  1.00  0.00    -0.206 F 
ATOM     77  C   UNL A   1      42.071  33.389  36.673  1.00  0.00     0.022 A 
BRANCH  74  78
ATOM     78  S   UNL A   1      43.942  34.982  35.354  1.00  0.00     0.124 S 
ATOM     79  O   UNL A   1      45.243  34.319  35.318  1.00  0.00    -0.237 OA
ATOM     80  O   UNL A   1      43.505  35.603  34.111  1.00  0.00    -0.237 OA
ATOM     81  O   UNL A   1      43.681  35.759  36.565  1.00  0.00    -0.744 OA
ENDBRANCH  74  78
ENDBRANCH  57  71
BRANCH  58  82
ATOM     82  C   UNL A   1      42.417  24.521  27.392  1.00  0.00     0.023 A 
ATOM     83  C   UNL A   1      41.629  23.360  27.400  1.00  0.00     0.031 A 
ATOM     84  C   UNL A   1      43.316  24.703  26.327  1.00  0.00     0.131 A 
ATOM     85  C   UNL A   1      41.787  22.400  26.389  1.00  0.00     0.055 A 
ATOM     86  C   UNL A   1      43.439  23.767  25.298  1.00  0.00     0.041 A 
ATOM     87  F   UNL A   1      44.084  25.803  26.267  1.00  0.00    -0.206 F 
ATOM     88  C   UNL A   1      42.680  22.600  25.332  1.00  0.00     0.022 A 
BRANCH  85  89
ATOM     89  S   UNL A   1      40.855  20.848  26.509  1.00  0.00     0.124 S 
ATOM     90  O   UNL A   1      41.681  19.943  25.719  1.00  0.00    -0.237 OA
ATOM     91  O   UNL A   1      40.843  20.615  27.949  1.00  0.00    -0.237 OA
ATOM     92  O   UNL A   1      39.560  21.184  25.923  1.00  0.00    -0.744 OA
ENDBRANCH  85  89
ENDBRANCH  58  82
BRANCH  70  93
ATOM     93  C   UNL A   1      46.286  25.667  33.068  1.00  0.00     0.023 A 
ATOM     94  C   UNL A   1      47.598  25.846  32.594  1.00  0.00     0.031 A 
ATOM     95  C   UNL A   1      46.074  24.734  34.097  1.00  0.00     0.131 A 
ATOM     96  C   UNL A   1      48.638  25.055  33.104  1.00  0.00     0.055 A 
ATOM     97  C   UNL A   1      47.123  23.990  34.640  1.00  0.00     0.041 A 
ATOM     98  F   UNL A   1      44.842  24.524  34.587  1.00  0.00    -0.206 F 
ATOM     99  C   UNL A   1      48.410  24.136  34.132  1.00  0.00     0.022 A 
BRANCH  96 100
ATOM    100  S   UNL A   1      50.275  25.163  32.330  1.00  0.00     0.124 S 
ATOM    101  O   UNL A   1      50.591  23.760  32.084  1.00  0.00    -0.237 OA
ATOM    102  O   UNL A   1      50.005  25.972  31.145  1.00  0.00    -0.237 OA
ATOM    103  O   UNL A   1      51.095  25.814  33.350  1.00  0.00    -0.744 OA
ENDBRANCH  96 100
ENDBRANCH  70  93
ENDBRANCH  44  45
ENDBRANCH  36  39
ENDBRANCH  34  35
ENDBRANCH  33  34
ENDBRANCH  32  33
ENDBRANCH  31  32
ENDBRANCH   1  31
TORSDOF 22
ENDMDL
MODEL 3
REMARK VINA RESULT:     -11.1      1.792      2.101
REMARK SMILES CC(C)COC(=O)c1ccc(NC(=O)[C@H]2[C@@H](C(=O)NCCCCCCNC(=O)c3ccc(-c4c5nc(c(-c6cc(S(=O)(=O)[O-])ccc6F)c6ccc([nH]6)c(-c6cc(S(=O)(=O)[O-])ccc6F)c6nc(c(-c7cc(S(=O)(=O)[O-])ccc7F)c7ccc4[nH]7)C=C6)C=C5)cc3)[C@@H]3C=C[C@H]2C3)cc1
REMARK SMILES IDX 21 1 20 2 19 3 17 4 18 5 16 7 15 8 95 9 92 10 94 11 96 12
REMARK SMILES IDX 93 13 13 14 12 15 14 17 11 18 8 19 9 20 98 21 10 22 97 23
REMARK SMILES IDX 6 24 7 25 5 26 4 27 2 28 1 29 3 30 22 31 23 32 24 33 25 34
REMARK SMILES IDX 26 35 27 36 28 38 29 39 30 40 91 41 31 42 90 43 32 44 33 45
REMARK SMILES IDX 34 46 84 47 35 48 89 49 83 50 85 51 36 52 88 53 82 54 81 55
REMARK SMILES IDX 37 57 69 58 49 59 68 60 50 61 53 62 67 63 86 64 51 65 52 66
REMARK SMILES IDX 66 68 87 69 54 70 38 71 39 72 47 73 40 74 46 75 48 76 45 77
REMARK SMILES IDX 41 78 42 79 43 80 44 81 70 82 71 83 79 84 72 85 78 86 80 87
REMARK SMILES IDX 77 88 73 89 74 90 75 91 76 92 55 93 56 94 64 95 57 96 63 97
REMARK SMILES IDX 65 98 62 99 58 100 59 101 60 102 61 103
REMARK H PARENT 19 6 12 16 26 37 85 56 53 67
REMARK Flexibility Score: inf
ROOT
ATOM      1  C   UNL A   1      31.409  25.527  27.215  1.00  0.00     0.021 C 
ENDROOT
BRANCH   1   2
ATOM      2  C   UNL A   1      31.130  24.308  26.346  1.00  0.00     0.116 C 
BRANCH   2   3
ATOM      3  N   UNL A   1      31.798  23.099  26.772  1.00  0.00    -0.356 N 
ATOM      4  C   UNL A   1      33.081  22.677  26.697  1.00  0.00     0.224 C 
ATOM      5  O   UNL A   1      33.352  21.712  27.429  1.00  0.00    -0.275 OA
ATOM      6  H   UNL A   1      31.198  22.451  27.206  1.00  0.00     0.163 HD
BRANCH   4   7
ATOM      7  C   UNL A   1      34.162  23.149  25.720  1.00  0.00     0.098 C 
ATOM      8  C   UNL A   1      34.204  22.915  24.179  1.00  0.00     0.099 C 
ATOM      9  C   UNL A   1      35.565  22.161  24.007  1.00  0.00     0.025 C 
ATOM     10  C   UNL A   1      35.554  22.642  26.189  1.00  0.00     0.025 C 
ATOM     11  C   UNL A   1      36.649  23.199  24.239  1.00  0.00    -0.027 C 
ATOM     12  C   UNL A   1      35.742  21.400  25.324  1.00  0.00     0.017 C 
ATOM     13  C   UNL A   1      36.625  23.505  25.546  1.00  0.00    -0.027 C 
BRANCH   8  14
ATOM     14  C   UNL A   1      33.037  22.267  23.460  1.00  0.00     0.228 C 
ATOM     15  N   UNL A   1      32.024  23.008  22.923  1.00  0.00    -0.326 N 
ATOM     16  H   UNL A   1      31.260  22.471  22.611  1.00  0.00     0.169 HD
ATOM     17  O   UNL A   1      32.950  21.039  23.369  1.00  0.00    -0.274 OA
BRANCH  15  18
ATOM     18  C   UNL A   1      31.865  24.386  22.733  1.00  0.00     0.041 A 
ATOM     19  C   UNL A   1      31.436  27.132  22.475  1.00  0.00     0.060 A 
ATOM     20  C   UNL A   1      32.527  26.536  21.843  1.00  0.00     0.018 A 
ATOM     21  C   UNL A   1      30.528  26.364  23.203  1.00  0.00     0.018 A 
ATOM     22  C   UNL A   1      32.740  25.165  21.976  1.00  0.00     0.027 A 
ATOM     23  C   UNL A   1      30.735  24.986  23.309  1.00  0.00     0.027 A 
BRANCH  19  24
ATOM     24  C   UNL A   1      31.238  28.574  22.302  1.00  0.00     0.338 C 
ATOM     25  O   UNL A   1      32.134  29.392  22.431  1.00  0.00    -0.246 OA
BRANCH  24  26
ATOM     26  O   UNL A   1      29.916  28.806  22.125  1.00  0.00    -0.462 OA
BRANCH  26  27
ATOM     27  C   UNL A   1      29.293  29.610  23.138  1.00  0.00     0.236 C 
BRANCH  27  28
ATOM     28  C   UNL A   1      27.969  30.212  22.638  1.00  0.00     0.021 C 
ATOM     29  C   UNL A   1      27.435  31.324  23.543  1.00  0.00     0.011 C 
ATOM     30  C   UNL A   1      28.142  30.739  21.213  1.00  0.00     0.011 C 
ENDBRANCH  27  28
ENDBRANCH  26  27
ENDBRANCH  24  26
ENDBRANCH  19  24
ENDBRANCH  15  18
ENDBRANCH   8  14
ENDBRANCH   4   7
ENDBRANCH   2   3
ENDBRANCH   1   2
BRANCH   1  31
ATOM     31  C   UNL A   1      31.584  26.862  26.491  1.00  0.00     0.002 C 
BRANCH  31  32
ATOM     32  C   UNL A   1      31.911  28.088  27.347  1.00  0.00     0.002 C 
BRANCH  32  33
ATOM     33  C   UNL A   1      31.749  29.469  26.705  1.00  0.00     0.021 C 
BRANCH  33  34
ATOM     34  C   UNL A   1      33.020  30.267  26.429  1.00  0.00     0.116 C 
BRANCH  34  35
ATOM     35  N   UNL A   1      32.918  31.663  26.801  1.00  0.00    -0.352 N 
ATOM     36  C   UNL A   1      33.734  32.443  27.583  1.00  0.00     0.251 C 
ATOM     37  H   UNL A   1      32.132  32.129  26.435  1.00  0.00     0.163 HD
ATOM     38  O   UNL A   1      33.382  33.598  27.819  1.00  0.00    -0.269 OA
BRANCH  36  39
ATOM     39  C   UNL A   1      34.996  31.923  28.170  1.00  0.00     0.039 A 
ATOM     40  C   UNL A   1      34.962  30.663  28.780  1.00  0.00     0.014 A 
ATOM     41  C   UNL A   1      36.184  32.661  28.194  1.00  0.00     0.014 A 
ATOM     42  C   UNL A   1      36.111  30.133  29.374  1.00  0.00     0.010 A 
ATOM     43  C   UNL A   1      37.349  32.105  28.733  1.00  0.00     0.010 A 
ATOM     44  C   UNL A   1      37.321  30.842  29.343  1.00  0.00    -0.014 A 
BRANCH  44  45
ATOM     45  C   UNL A   1      38.544  30.280  29.980  1.00  0.00     0.031 A 
ATOM     46  C   UNL A   1      38.952  30.723  31.361  1.00  0.00     0.074 A 
ATOM     47  C   UNL A   1      39.298  29.385  29.312  1.00  0.00     0.049 A 
ATOM     48  N   UNL A   1      39.982  30.354  32.080  1.00  0.00    -0.248 NA
ATOM     49  C   UNL A   1      38.104  31.737  32.003  1.00  0.00     0.031 C 
ATOM     50  C   UNL A   1      39.034  28.907  27.953  1.00  0.00     0.029 A 
ATOM     51  N   UNL A   1      40.437  28.718  29.683  1.00  0.00    -0.354 N 
ATOM     52  C   UNL A   1      39.912  31.098  33.255  1.00  0.00     0.074 A 
ATOM     53  C   UNL A   1      38.770  31.978  33.121  1.00  0.00     0.031 C 
ATOM     54  C   UNL A   1      39.973  28.008  27.615  1.00  0.00     0.029 A 
ATOM     55  C   UNL A   1      40.917  27.863  28.719  1.00  0.00     0.049 A 
ATOM     56  H   UNL A   1      40.872  28.839  30.558  1.00  0.00     0.167 HD
ATOM     57  C   UNL A   1      40.711  31.037  34.352  1.00  0.00     0.034 A 
ATOM     58  C   UNL A   1      41.992  27.050  28.724  1.00  0.00     0.034 A 
ATOM     59  C   UNL A   1      41.839  30.145  34.479  1.00  0.00     0.049 A 
ATOM     60  C   UNL A   1      42.848  26.976  29.961  1.00  0.00     0.074 A 
ATOM     61  C   UNL A   1      42.694  29.979  35.555  1.00  0.00     0.029 A 
ATOM     62  N   UNL A   1      42.271  29.267  33.493  1.00  0.00    -0.354 N 
ATOM     63  N   UNL A   1      42.741  27.653  31.082  1.00  0.00    -0.248 NA
ATOM     64  C   UNL A   1      43.952  26.009  29.944  1.00  0.00     0.031 C 
ATOM     65  C   UNL A   1      43.669  29.036  35.203  1.00  0.00     0.029 A 
ATOM     66  C   UNL A   1      43.387  28.567  33.930  1.00  0.00     0.049 A 
ATOM     67  H   UNL A   1      41.847  29.157  32.611  1.00  0.00     0.167 HD
ATOM     68  C   UNL A   1      43.748  27.168  31.912  1.00  0.00     0.074 A 
ATOM     69  C   UNL A   1      44.438  26.135  31.170  1.00  0.00     0.031 C 
ATOM     70  C   UNL A   1      44.071  27.543  33.178  1.00  0.00     0.034 A 
BRANCH  57  71
ATOM     71  C   UNL A   1      40.398  31.988  35.485  1.00  0.00     0.023 A 
ATOM     72  C   UNL A   1      39.364  31.726  36.402  1.00  0.00     0.031 A 
ATOM     73  C   UNL A   1      41.112  33.190  35.625  1.00  0.00     0.131 A 
ATOM     74  C   UNL A   1      39.018  32.690  37.362  1.00  0.00     0.055 A 
ATOM     75  C   UNL A   1      40.816  34.108  36.636  1.00  0.00     0.041 A 
ATOM     76  F   UNL A   1      42.097  33.505  34.769  1.00  0.00    -0.206 F 
ATOM     77  C   UNL A   1      39.753  33.869  37.501  1.00  0.00     0.022 A 
BRANCH  74  78
ATOM     78  S   UNL A   1      37.501  32.445  38.324  1.00  0.00     0.124 S 
ATOM     79  O   UNL A   1      37.835  33.119  39.577  1.00  0.00    -0.237 OA
ATOM     80  O   UNL A   1      36.493  33.096  37.497  1.00  0.00    -0.237 OA
ATOM     81  O   UNL A   1      37.386  30.991  38.419  1.00  0.00    -0.744 OA
ENDBRANCH  74  78
ENDBRANCH  57  71
BRANCH  58  82
ATOM     82  C   UNL A   1      42.319  26.226  27.526  1.00  0.00     0.023 A 
ATOM     83  C   UNL A   1      41.932  24.880  27.446  1.00  0.00     0.031 A 
ATOM     84  C   UNL A   1      43.056  26.768  26.458  1.00  0.00     0.131 A 
ATOM     85  C   UNL A   1      42.323  24.105  26.343  1.00  0.00     0.055 A 
ATOM     86  C   UNL A   1      43.404  26.006  25.343  1.00  0.00     0.041 A 
ATOM     87  F   UNL A   1      43.439  28.055  26.483  1.00  0.00    -0.206 F 
ATOM     88  C   UNL A   1      43.048  24.661  25.287  1.00  0.00     0.022 A 
BRANCH  85  89
ATOM     89  S   UNL A   1      41.927  22.334  26.342  1.00  0.00     0.124 S 
ATOM     90  O   UNL A   1      42.359  21.932  27.675  1.00  0.00    -0.237 OA
ATOM     91  O   UNL A   1      40.487  22.348  26.110  1.00  0.00    -0.237 OA
ATOM     92  O   UNL A   1      42.729  21.808  25.239  1.00  0.00    -0.744 OA
ENDBRANCH  85  89
ENDBRANCH  58  82
BRANCH  70  93
ATOM     93  C   UNL A   1      45.191  26.784  33.846  1.00  0.00     0.023 A 
ATOM     94  C   UNL A   1      44.941  25.690  34.693  1.00  0.00     0.031 A 
ATOM     95  C   UNL A   1      46.524  27.187  33.658  1.00  0.00     0.131 A 
ATOM     96  C   UNL A   1      46.005  25.078  35.373  1.00  0.00     0.055 A 
ATOM     97  C   UNL A   1      47.583  26.538  34.293  1.00  0.00     0.041 A 
ATOM     98  F   UNL A   1      46.819  28.226  32.860  1.00  0.00    -0.206 F 
ATOM     99  C   UNL A   1      47.325  25.488  35.169  1.00  0.00     0.022 A 
BRANCH  96 100
ATOM    100  S   UNL A   1      45.630  23.807  36.613  1.00  0.00     0.124 S 
ATOM    101  O   UNL A   1      46.932  23.597  37.238  1.00  0.00    -0.237 OA
ATOM    102  O   UNL A   1      44.626  24.469  37.440  1.00  0.00    -0.237 OA
ATOM    103  O   UNL A   1      45.136  22.686  35.817  1.00  0.00    -0.744 OA
ENDBRANCH  96 100
ENDBRANCH  70  93
ENDBRANCH  44  45
ENDBRANCH  36  39
ENDBRANCH  34  35
ENDBRANCH  33  34
ENDBRANCH  32  33
ENDBRANCH  31  32
ENDBRANCH   1  31
TORSDOF 22
ENDMDL
