MODEL 1
REMARK VINA RESULT:     -11.8      0.000      0.000
REMARK SMILES CC[C@@](C)(Nc1cc([N+](=O)[O-])ccc1C)C(=O)NCCCCCCNC(=O)c1ccc(-c2c3nc(c(-c4cc(S(=O)(=O)[O-])ccc4F)c4ccc([nH]4)c(-c4cc(S(=O)(=O)[O-])ccc4F)c4nc(c(-c5cc(S(=O)(=O)[O-])ccc5F)c5ccc2[nH]5)C=C4)C=C3)cc1
REMARK SMILES IDX 21 1 20 2 19 3 18 4 16 5 17 6 3 8 4 9 2 10 1 11 5 12 6 14
REMARK SMILES IDX 7 15 14 16 8 17 13 18 15 19 12 20 9 21 10 22 11 23 22 24
REMARK SMILES IDX 23 25 24 26 25 27 26 28 27 30 28 31 29 32 90 33 30 34 89 35
REMARK SMILES IDX 31 36 32 37 33 38 83 39 34 40 88 41 82 42 84 43 35 44 87 45
REMARK SMILES IDX 81 46 80 47 36 49 68 50 48 51 67 52 49 53 52 54 66 55 85 56
REMARK SMILES IDX 50 57 51 58 65 60 86 61 53 62 37 63 38 64 46 65 39 66 45 67
REMARK SMILES IDX 47 68 44 69 40 70 41 71 42 72 43 73 69 74 70 75 78 76 71 77
REMARK SMILES IDX 77 78 79 79 76 80 72 81 73 82 74 83 75 84 54 85 55 86 63 87
REMARK SMILES IDX 56 88 62 89 64 90 61 91 57 92 58 93 59 94 60 95
REMARK H PARENT 18 7 5 13 25 29 84 48 52 59
REMARK Flexibility Score: inf
ROOT
ATOM      1  C   UNL A   1      36.059  20.800  25.177  1.00  0.00     0.002 C 
ENDROOT
BRANCH   1   2
ATOM      2  C   UNL A   1      35.044  21.703  25.897  1.00  0.00     0.021 C 
BRANCH   2   3
ATOM      3  C   UNL A   1      33.725  21.047  26.360  1.00  0.00     0.116 C 
BRANCH   3   4
ATOM      4  N   UNL A   1      32.710  21.947  26.900  1.00  0.00    -0.354 N 
ATOM      5  C   UNL A   1      32.058  23.085  26.523  1.00  0.00     0.245 C 
ATOM      6  O   UNL A   1      31.177  23.439  27.324  1.00  0.00    -0.272 OA
ATOM      7  H   UNL A   1      32.411  21.649  27.790  1.00  0.00     0.163 HD
BRANCH   5   8
ATOM      8  C   UNL A   1      32.300  23.925  25.216  1.00  0.00     0.113 C 
ATOM      9  C   UNL A   1      32.593  23.092  23.959  1.00  0.00     0.045 C 
BRANCH   8  10
ATOM     10  C   UNL A   1      30.961  24.716  24.946  1.00  0.00     0.035 C 
ATOM     11  C   UNL A   1      30.326  24.490  23.570  1.00  0.00     0.007 C 
ENDBRANCH   8  10
BRANCH   8  12
ATOM     12  N   UNL A   1      33.383  24.974  25.280  1.00  0.00    -0.371 N 
ATOM     13  H   UNL A   1      34.285  24.621  25.457  1.00  0.00     0.161 HD
BRANCH  12  14
ATOM     14  C   UNL A   1      33.319  26.351  25.132  1.00  0.00     0.045 A 
ATOM     15  C   UNL A   1      32.835  27.134  26.191  1.00  0.00     0.111 A 
ATOM     16  C   UNL A   1      33.603  27.054  23.957  1.00  0.00    -0.027 A 
ATOM     17  C   UNL A   1      32.761  28.540  26.083  1.00  0.00     0.271 A 
ATOM     18  C   UNL A   1      33.743  28.455  23.923  1.00  0.00     0.012 A 
ATOM     19  C   UNL A   1      33.396  26.432  22.616  1.00  0.00     0.046 C 
ATOM     20  C   UNL A   1      33.307  29.211  24.992  1.00  0.00     0.086 A 
BRANCH  17  21
ATOM     21  N   UNL A   1      32.014  29.309  27.081  1.00  0.00     0.062 N 
ATOM     22  O   UNL A   1      31.340  28.677  27.908  1.00  0.00    -0.258 OA
ATOM     23  O   UNL A   1      32.090  30.545  27.037  1.00  0.00    -0.258 OA
ENDBRANCH  17  21
ENDBRANCH  12  14
ENDBRANCH   8  12
ENDBRANCH   5   8
ENDBRANCH   3   4
ENDBRANCH   2   3
ENDBRANCH   1   2
BRANCH   1  24
ATOM     24  C   UNL A   1      37.336  21.481  24.676  1.00  0.00     0.002 C 
BRANCH  24  25
ATOM     25  C   UNL A   1      38.535  21.461  25.627  1.00  0.00     0.021 C 
BRANCH  25  26
ATOM     26  C   UNL A   1      38.919  22.818  26.217  1.00  0.00     0.116 C 
BRANCH  26  27
ATOM     27  N   UNL A   1      40.355  23.007  26.369  1.00  0.00    -0.352 N 
ATOM     28  C   UNL A   1      41.068  24.169  26.583  1.00  0.00     0.251 C 
ATOM     29  H   UNL A   1      40.895  22.186  26.311  1.00  0.00     0.163 HD
ATOM     30  O   UNL A   1      42.298  24.176  26.524  1.00  0.00    -0.269 OA
BRANCH  28  31
ATOM     31  C   UNL A   1      40.360  25.381  27.067  1.00  0.00     0.039 A 
ATOM     32  C   UNL A   1      40.647  26.582  26.403  1.00  0.00     0.014 A 
ATOM     33  C   UNL A   1      39.628  25.398  28.251  1.00  0.00     0.014 A 
ATOM     34  C   UNL A   1      40.410  27.796  27.040  1.00  0.00     0.010 A 
ATOM     35  C   UNL A   1      39.458  26.598  28.920  1.00  0.00     0.010 A 
ATOM     36  C   UNL A   1      39.911  27.787  28.342  1.00  0.00    -0.014 A 
BRANCH  36  37
ATOM     37  C   UNL A   1      39.963  28.956  29.209  1.00  0.00     0.031 A 
ATOM     38  C   UNL A   1      38.899  29.973  29.176  1.00  0.00     0.074 A 
ATOM     39  C   UNL A   1      41.013  29.127  30.041  1.00  0.00     0.049 A 
ATOM     40  N   UNL A   1      39.091  31.229  29.404  1.00  0.00    -0.248 NA
ATOM     41  C   UNL A   1      37.520  29.646  28.840  1.00  0.00     0.031 C 
ATOM     42  C   UNL A   1      41.166  30.129  31.090  1.00  0.00     0.029 A 
ATOM     43  N   UNL A   1      42.276  28.568  29.910  1.00  0.00    -0.354 N 
ATOM     44  C   UNL A   1      37.856  31.815  29.543  1.00  0.00     0.074 A 
ATOM     45  C   UNL A   1      36.913  30.808  29.103  1.00  0.00     0.031 C 
ATOM     46  C   UNL A   1      42.476  30.303  31.334  1.00  0.00     0.029 A 
ATOM     47  C   UNL A   1      43.209  29.513  30.360  1.00  0.00     0.049 A 
ATOM     48  H   UNL A   1      42.482  27.670  29.564  1.00  0.00     0.167 HD
ATOM     49  C   UNL A   1      37.745  33.026  30.161  1.00  0.00     0.034 A 
ATOM     50  C   UNL A   1      44.180  29.985  29.527  1.00  0.00     0.034 A 
ATOM     51  C   UNL A   1      39.047  33.553  30.569  1.00  0.00     0.049 A 
ATOM     52  C   UNL A   1      44.111  31.482  29.311  1.00  0.00     0.074 A 
ATOM     53  C   UNL A   1      39.701  33.593  31.791  1.00  0.00     0.029 A 
ATOM     54  N   UNL A   1      39.994  33.895  29.609  1.00  0.00    -0.354 N 
ATOM     55  N   UNL A   1      43.070  32.220  29.580  1.00  0.00    -0.248 NA
ATOM     56  C   UNL A   1      45.214  32.258  28.756  1.00  0.00     0.031 C 
ATOM     57  C   UNL A   1      41.059  33.927  31.554  1.00  0.00     0.029 A 
ATOM     58  C   UNL A   1      41.228  34.115  30.193  1.00  0.00     0.049 A 
ATOM     59  H   UNL A   1      39.810  33.969  28.645  1.00  0.00     0.167 HD
ATOM     60  C   UNL A   1      43.326  33.528  29.239  1.00  0.00     0.074 A 
ATOM     61  C   UNL A   1      44.694  33.497  28.749  1.00  0.00     0.031 C 
ATOM     62  C   UNL A   1      42.381  34.510  29.389  1.00  0.00     0.034 A 
BRANCH  49  63
ATOM     63  C   UNL A   1      36.428  33.557  30.683  1.00  0.00     0.023 A 
ATOM     64  C   UNL A   1      35.540  34.211  29.803  1.00  0.00     0.031 A 
ATOM     65  C   UNL A   1      36.013  33.497  32.026  1.00  0.00     0.131 A 
ATOM     66  C   UNL A   1      34.389  34.868  30.277  1.00  0.00     0.055 A 
ATOM     67  C   UNL A   1      34.904  34.205  32.510  1.00  0.00     0.041 A 
ATOM     68  F   UNL A   1      36.642  32.716  32.916  1.00  0.00    -0.206 F 
ATOM     69  C   UNL A   1      34.095  34.913  31.635  1.00  0.00     0.022 A 
BRANCH  66  70
ATOM     70  S   UNL A   1      33.271  35.659  29.086  1.00  0.00     0.124 S 
ATOM     71  O   UNL A   1      32.451  36.506  29.943  1.00  0.00    -0.237 OA
ATOM     72  O   UNL A   1      34.203  36.344  28.196  1.00  0.00    -0.237 OA
ATOM     73  O   UNL A   1      32.566  34.528  28.482  1.00  0.00    -0.744 OA
ENDBRANCH  66  70
ENDBRANCH  49  63
BRANCH  50  74
ATOM     74  C   UNL A   1      44.632  28.981  28.518  1.00  0.00     0.023 A 
ATOM     75  C   UNL A   1      45.438  27.916  28.981  1.00  0.00     0.031 A 
ATOM     76  C   UNL A   1      43.996  28.828  27.280  1.00  0.00     0.131 A 
ATOM     77  C   UNL A   1      45.447  26.686  28.305  1.00  0.00     0.055 A 
ATOM     78  C   UNL A   1      44.072  27.624  26.567  1.00  0.00     0.041 A 
ATOM     79  F   UNL A   1      43.192  29.789  26.799  1.00  0.00    -0.206 F 
ATOM     80  C   UNL A   1      44.760  26.532  27.101  1.00  0.00     0.022 A 
BRANCH  77  81
ATOM     81  S   UNL A   1      46.118  25.221  29.153  1.00  0.00     0.124 S 
ATOM     82  O   UNL A   1      46.074  25.631  30.551  1.00  0.00    -0.237 OA
ATOM     83  O   UNL A   1      45.183  24.164  28.768  1.00  0.00    -0.237 OA
ATOM     84  O   UNL A   1      47.454  25.072  28.579  1.00  0.00    -0.744 OA
ENDBRANCH  77  81
ENDBRANCH  50  74
BRANCH  62  85
ATOM     85  C   UNL A   1      42.463  35.950  28.894  1.00  0.00     0.023 A 
ATOM     86  C   UNL A   1      43.180  36.966  29.540  1.00  0.00     0.031 A 
ATOM     87  C   UNL A   1      41.834  36.341  27.681  1.00  0.00     0.131 A 
ATOM     88  C   UNL A   1      43.200  38.287  29.047  1.00  0.00     0.055 A 
ATOM     89  C   UNL A   1      41.908  37.638  27.157  1.00  0.00     0.041 A 
ATOM     90  F   UNL A   1      41.127  35.482  26.934  1.00  0.00    -0.206 F 
ATOM     91  C   UNL A   1      42.584  38.628  27.848  1.00  0.00     0.022 A 
BRANCH  88  92
ATOM     92  S   UNL A   1      44.021  39.563  30.040  1.00  0.00     0.124 S 
ATOM     93  O   UNL A   1      43.253  40.755  29.692  1.00  0.00    -0.237 OA
ATOM     94  O   UNL A   1      43.836  39.067  31.401  1.00  0.00    -0.237 OA
ATOM     95  O   UNL A   1      45.399  39.549  29.554  1.00  0.00    -0.744 OA
ENDBRANCH  88  92
ENDBRANCH  62  85
ENDBRANCH  36  37
ENDBRANCH  28  31
ENDBRANCH  26  27
ENDBRANCH  25  26
ENDBRANCH  24  25
ENDBRANCH   1  24
TORSDOF 20
ENDMDL
MODEL 2
REMARK VINA RESULT:     -11.7      4.014     10.630
REMARK SMILES CC[C@@](C)(Nc1cc([N+](=O)[O-])ccc1C)C(=O)NCCCCCCNC(=O)c1ccc(-c2c3nc(c(-c4cc(S(=O)(=O)[O-])ccc4F)c4ccc([nH]4)c(-c4cc(S(=O)(=O)[O-])ccc4F)c4nc(c(-c5cc(S(=O)(=O)[O-])ccc5F)c5ccc2[nH]5)C=C4)C=C3)cc1
REMARK SMILES IDX 21 1 20 2 19 3 18 4 16 5 17 6 3 8 4 9 2 10 1 11 5 12 6 14
REMARK SMILES IDX 7 15 14 16 8 17 13 18 15 19 12 20 9 21 10 22 11 23 22 24
REMARK SMILES IDX 23 25 24 26 25 27 26 28 27 30 28 31 29 32 90 33 30 34 89 35
REMARK SMILES IDX 31 36 32 37 33 38 83 39 34 40 88 41 82 42 84 43 35 44 87 45
REMARK SMILES IDX 81 46 80 47 36 49 68 50 48 51 67 52 49 53 52 54 66 55 85 56
REMARK SMILES IDX 50 57 51 58 65 60 86 61 53 62 37 63 38 64 46 65 39 66 45 67
REMARK SMILES IDX 47 68 44 69 40 70 41 71 42 72 43 73 69 74 70 75 78 76 71 77
REMARK SMILES IDX 77 78 79 79 76 80 72 81 73 82 74 83 75 84 54 85 55 86 63 87
REMARK SMILES IDX 56 88 62 89 64 90 61 91 57 92 58 93 59 94 60 95
REMARK H PARENT 18 7 5 13 25 29 84 48 52 59
REMARK Flexibility Score: inf
ROOT
ATOM      1  C   UNL A   1      31.953  29.684  24.838  1.00  0.00     0.002 C 
ENDROOT
BRANCH   1   2
ATOM      2  C   UNL A   1      30.707  29.236  24.056  1.00  0.00     0.021 C 
BRANCH   2   3
ATOM      3  C   UNL A   1      30.471  27.717  23.921  1.00  0.00     0.116 C 
BRANCH   3   4
ATOM      4  N   UNL A   1      31.204  27.040  22.853  1.00  0.00    -0.354 N 
ATOM      5  C   UNL A   1      32.226  26.144  22.736  1.00  0.00     0.245 C 
ATOM      6  O   UNL A   1      32.441  25.791  21.564  1.00  0.00    -0.272 OA
ATOM      7  H   UNL A   1      30.865  27.307  21.969  1.00  0.00     0.163 HD
BRANCH   5   8
ATOM      8  C   UNL A   1      33.090  25.535  23.900  1.00  0.00     0.113 C 
ATOM      9  C   UNL A   1      33.849  26.567  24.747  1.00  0.00     0.045 C 
BRANCH   8  10
ATOM     10  C   UNL A   1      32.079  24.799  24.861  1.00  0.00     0.035 C 
ATOM     11  C   UNL A   1      32.170  25.189  26.340  1.00  0.00     0.007 C 
ENDBRANCH   8  10
BRANCH   8  12
ATOM     12  N   UNL A   1      34.107  24.491  23.507  1.00  0.00    -0.371 N 
ATOM     13  H   UNL A   1      34.715  24.763  22.781  1.00  0.00     0.161 HD
BRANCH  12  14
ATOM     14  C   UNL A   1      34.328  23.214  23.999  1.00  0.00     0.045 A 
ATOM     15  C   UNL A   1      33.404  22.198  23.713  1.00  0.00     0.111 A 
ATOM     16  C   UNL A   1      35.364  22.846  24.865  1.00  0.00    -0.027 A 
ATOM     17  C   UNL A   1      33.596  20.882  24.189  1.00  0.00     0.271 A 
ATOM     18  C   UNL A   1      35.677  21.503  25.151  1.00  0.00     0.012 A 
ATOM     19  C   UNL A   1      35.945  23.824  25.831  1.00  0.00     0.046 C 
ATOM     20  C   UNL A   1      34.779  20.508  24.821  1.00  0.00     0.086 A 
BRANCH  17  21
ATOM     21  N   UNL A   1      32.502  19.912  24.110  1.00  0.00     0.062 N 
ATOM     22  O   UNL A   1      32.007  19.691  22.995  1.00  0.00    -0.258 OA
ATOM     23  O   UNL A   1      32.128  19.373  25.162  1.00  0.00    -0.258 OA
ENDBRANCH  17  21
ENDBRANCH  12  14
ENDBRANCH   8  12
ENDBRANCH   5   8
ENDBRANCH   3   4
ENDBRANCH   2   3
ENDBRANCH   1   2
BRANCH   1  24
ATOM     24  C   UNL A   1      31.873  29.572  26.364  1.00  0.00     0.002 C 
BRANCH  24  25
ATOM     25  C   UNL A   1      32.674  30.601  27.163  1.00  0.00     0.021 C 
BRANCH  25  26
ATOM     26  C   UNL A   1      34.034  30.117  27.668  1.00  0.00     0.116 C 
BRANCH  26  27
ATOM     27  N   UNL A   1      34.749  31.103  28.465  1.00  0.00    -0.352 N 
ATOM     28  C   UNL A   1      35.931  30.973  29.164  1.00  0.00     0.251 C 
ATOM     29  H   UNL A   1      34.329  31.992  28.510  1.00  0.00     0.163 HD
ATOM     30  O   UNL A   1      36.318  31.862  29.925  1.00  0.00    -0.269 OA
BRANCH  28  31
ATOM     31  C   UNL A   1      36.837  29.836  28.862  1.00  0.00     0.039 A 
ATOM     32  C   UNL A   1      37.151  28.983  29.930  1.00  0.00     0.014 A 
ATOM     33  C   UNL A   1      37.531  29.729  27.660  1.00  0.00     0.014 A 
ATOM     34  C   UNL A   1      38.301  28.201  29.873  1.00  0.00     0.010 A 
ATOM     35  C   UNL A   1      38.713  29.011  27.626  1.00  0.00     0.010 A 
ATOM     36  C   UNL A   1      39.129  28.303  28.757  1.00  0.00    -0.014 A 
BRANCH  36  37
ATOM     37  C   UNL A   1      40.501  27.814  28.752  1.00  0.00     0.031 A 
ATOM     38  C   UNL A   1      40.816  26.441  28.324  1.00  0.00     0.074 A 
ATOM     39  C   UNL A   1      41.501  28.620  29.169  1.00  0.00     0.049 A 
ATOM     40  N   UNL A   1      41.789  25.739  28.799  1.00  0.00    -0.248 NA
ATOM     41  C   UNL A   1      40.016  25.732  27.333  1.00  0.00     0.031 C 
ATOM     42  C   UNL A   1      42.938  28.376  29.084  1.00  0.00     0.029 A 
ATOM     43  N   UNL A   1      41.387  29.723  30.003  1.00  0.00    -0.354 N 
ATOM     44  C   UNL A   1      41.933  24.636  27.993  1.00  0.00     0.074 A 
ATOM     45  C   UNL A   1      40.758  24.635  27.147  1.00  0.00     0.031 C 
ATOM     46  C   UNL A   1      43.558  29.120  30.016  1.00  0.00     0.029 A 
ATOM     47  C   UNL A   1      42.529  29.765  30.814  1.00  0.00     0.049 A 
ATOM     48  H   UNL A   1      40.638  30.362  30.022  1.00  0.00     0.167 HD
ATOM     49  C   UNL A   1      43.099  23.928  28.013  1.00  0.00     0.034 A 
ATOM     50  C   UNL A   1      42.423  29.699  32.172  1.00  0.00     0.034 A 
ATOM     51  C   UNL A   1      44.054  24.474  28.977  1.00  0.00     0.049 A 
ATOM     52  C   UNL A   1      43.136  28.508  32.774  1.00  0.00     0.074 A 
ATOM     53  C   UNL A   1      45.172  25.281  28.836  1.00  0.00     0.029 A 
ATOM     54  N   UNL A   1      43.766  24.441  30.338  1.00  0.00    -0.354 N 
ATOM     55  N   UNL A   1      43.519  27.458  32.100  1.00  0.00    -0.248 NA
ATOM     56  C   UNL A   1      43.457  28.405  34.192  1.00  0.00     0.031 C 
ATOM     57  C   UNL A   1      45.535  25.763  30.120  1.00  0.00     0.029 A 
ATOM     58  C   UNL A   1      44.654  25.231  31.047  1.00  0.00     0.049 A 
ATOM     59  H   UNL A   1      43.031  23.925  30.742  1.00  0.00     0.167 HD
ATOM     60  C   UNL A   1      44.107  26.549  32.949  1.00  0.00     0.074 A 
ATOM     61  C   UNL A   1      44.061  27.205  34.245  1.00  0.00     0.031 C 
ATOM     62  C   UNL A   1      44.569  25.339  32.500  1.00  0.00     0.034 A 
BRANCH  49  63
ATOM     63  C   UNL A   1      43.482  22.956  26.919  1.00  0.00     0.023 A 
ATOM     64  C   UNL A   1      42.928  21.658  26.911  1.00  0.00     0.031 A 
ATOM     65  C   UNL A   1      44.408  23.223  25.894  1.00  0.00     0.131 A 
ATOM     66  C   UNL A   1      43.384  20.671  26.018  1.00  0.00     0.055 A 
ATOM     67  C   UNL A   1      44.912  22.226  25.047  1.00  0.00     0.041 A 
ATOM     68  F   UNL A   1      44.835  24.470  25.647  1.00  0.00    -0.206 F 
ATOM     69  C   UNL A   1      44.412  20.935  25.119  1.00  0.00     0.022 A 
BRANCH  66  70
ATOM     70  S   UNL A   1      42.603  19.033  26.039  1.00  0.00     0.124 S 
ATOM     71  O   UNL A   1      42.626  18.696  27.458  1.00  0.00    -0.237 OA
ATOM     72  O   UNL A   1      41.294  19.308  25.458  1.00  0.00    -0.237 OA
ATOM     73  O   UNL A   1      43.489  18.225  25.200  1.00  0.00    -0.744 OA
ENDBRANCH  66  70
ENDBRANCH  49  63
BRANCH  50  74
ATOM     74  C   UNL A   1      41.169  30.318  32.696  1.00  0.00     0.023 A 
ATOM     75  C   UNL A   1      41.069  31.727  32.639  1.00  0.00     0.031 A 
ATOM     76  C   UNL A   1      39.986  29.586  32.859  1.00  0.00     0.131 A 
ATOM     77  C   UNL A   1      39.813  32.347  32.566  1.00  0.00     0.055 A 
ATOM     78  C   UNL A   1      38.735  30.218  32.865  1.00  0.00     0.041 A 
ATOM     79  F   UNL A   1      40.009  28.245  32.889  1.00  0.00    -0.206 F 
ATOM     80  C   UNL A   1      38.642  31.597  32.671  1.00  0.00     0.022 A 
BRANCH  77  81
ATOM     81  S   UNL A   1      39.722  34.090  32.044  1.00  0.00     0.124 S 
ATOM     82  O   UNL A   1      38.631  34.599  32.867  1.00  0.00    -0.237 OA
ATOM     83  O   UNL A   1      41.055  34.597  32.366  1.00  0.00    -0.237 OA
ATOM     84  O   UNL A   1      39.447  34.007  30.611  1.00  0.00    -0.744 OA
ENDBRANCH  77  81
ENDBRANCH  50  74
BRANCH  62  85
ATOM     85  C   UNL A   1      45.075  24.175  33.346  1.00  0.00     0.023 A 
ATOM     86  C   UNL A   1      46.360  24.103  33.900  1.00  0.00     0.031 A 
ATOM     87  C   UNL A   1      44.223  23.086  33.671  1.00  0.00     0.131 A 
ATOM     88  C   UNL A   1      46.779  22.989  34.656  1.00  0.00     0.055 A 
ATOM     89  C   UNL A   1      44.618  22.010  34.477  1.00  0.00     0.041 A 
ATOM     90  F   UNL A   1      42.957  23.015  33.236  1.00  0.00    -0.206 F 
ATOM     91  C   UNL A   1      45.911  21.948  34.965  1.00  0.00     0.022 A 
BRANCH  88  92
ATOM     92  S   UNL A   1      48.510  22.915  35.191  1.00  0.00     0.124 S 
ATOM     93  O   UNL A   1      48.528  23.881  36.287  1.00  0.00    -0.237 OA
ATOM     94  O   UNL A   1      48.658  21.516  35.580  1.00  0.00    -0.237 OA
ATOM     95  O   UNL A   1      49.259  23.313  34.001  1.00  0.00    -0.744 OA
ENDBRANCH  88  92
ENDBRANCH  62  85
ENDBRANCH  36  37
ENDBRANCH  28  31
ENDBRANCH  26  27
ENDBRANCH  25  26
ENDBRANCH  24  25
ENDBRANCH   1  24
TORSDOF 20
ENDMDL
MODEL 3
REMARK VINA RESULT:     -11.7      1.690      2.491
REMARK SMILES CC[C@@](C)(Nc1cc([N+](=O)[O-])ccc1C)C(=O)NCCCCCCNC(=O)c1ccc(-c2c3nc(c(-c4cc(S(=O)(=O)[O-])ccc4F)c4ccc([nH]4)c(-c4cc(S(=O)(=O)[O-])ccc4F)c4nc(c(-c5cc(S(=O)(=O)[O-])ccc5F)c5ccc2[nH]5)C=C4)C=C3)cc1
REMARK SMILES IDX 21 1 20 2 19 3 18 4 16 5 17 6 3 8 4 9 2 10 1 11 5 12 6 14
REMARK SMILES IDX 7 15 14 16 8 17 13 18 15 19 12 20 9 21 10 22 11 23 22 24
REMARK SMILES IDX 23 25 24 26 25 27 26 28 27 30 28 31 29 32 90 33 30 34 89 35
REMARK SMILES IDX 31 36 32 37 33 38 83 39 34 40 88 41 82 42 84 43 35 44 87 45
REMARK SMILES IDX 81 46 80 47 36 49 68 50 48 51 67 52 49 53 52 54 66 55 85 56
REMARK SMILES IDX 50 57 51 58 65 60 86 61 53 62 37 63 38 64 46 65 39 66 45 67
REMARK SMILES IDX 47 68 44 69 40 70 41 71 42 72 43 73 69 74 70 75 78 76 71 77
REMARK SMILES IDX 77 78 79 79 76 80 72 81 73 82 74 83 75 84 54 85 55 86 63 87
REMARK SMILES IDX 56 88 62 89 64 90 61 91 57 92 58 93 59 94 60 95
REMARK H PARENT 18 7 5 13 25 29 84 48 52 59
REMARK Flexibility Score: inf
ROOT
ATOM      1  C   UNL A   1      36.179  23.807  25.352  1.00  0.00     0.002 C 
ENDROOT
BRANCH   1   2
ATOM      2  C   UNL A   1      34.692  24.056  25.054  1.00  0.00     0.021 C 
BRANCH   2   3
ATOM      3  C   UNL A   1      34.205  25.521  25.084  1.00  0.00     0.116 C 
BRANCH   3   4
ATOM      4  N   UNL A   1      33.150  25.833  26.044  1.00  0.00    -0.354 N 
ATOM      5  C   UNL A   1      32.348  26.891  26.361  1.00  0.00     0.245 C 
ATOM      6  O   UNL A   1      31.508  26.629  27.240  1.00  0.00    -0.272 OA
ATOM      7  H   UNL A   1      32.966  25.064  26.630  1.00  0.00     0.163 HD
BRANCH   5   8
ATOM      8  C   UNL A   1      32.379  28.328  25.723  1.00  0.00     0.113 C 
ATOM      9  C   UNL A   1      31.686  29.417  26.555  1.00  0.00     0.045 C 
BRANCH   8  10
ATOM     10  C   UNL A   1      33.901  28.728  25.612  1.00  0.00     0.035 C 
ATOM     11  C   UNL A   1      34.625  28.950  26.944  1.00  0.00     0.007 C 
ENDBRANCH   8  10
BRANCH   8  12
ATOM     12  N   UNL A   1      31.823  28.456  24.326  1.00  0.00    -0.371 N 
ATOM     13  H   UNL A   1      32.491  28.358  23.609  1.00  0.00     0.161 HD
BRANCH  12  14
ATOM     14  C   UNL A   1      30.530  28.689  23.885  1.00  0.00     0.045 A 
ATOM     15  C   UNL A   1      30.059  30.008  23.803  1.00  0.00     0.111 A 
ATOM     16  C   UNL A   1      29.580  27.702  23.599  1.00  0.00    -0.027 A 
ATOM     17  C   UNL A   1      28.750  30.288  23.351  1.00  0.00     0.271 A 
ATOM     18  C   UNL A   1      28.367  27.981  22.941  1.00  0.00     0.012 A 
ATOM     19  C   UNL A   1      29.604  26.384  24.298  1.00  0.00     0.046 C 
ATOM     20  C   UNL A   1      27.938  29.287  22.825  1.00  0.00     0.086 A 
BRANCH  17  21
ATOM     21  N   UNL A   1      28.192  31.631  23.525  1.00  0.00     0.062 N 
ATOM     22  O   UNL A   1      26.987  31.721  23.806  1.00  0.00    -0.258 OA
ATOM     23  O   UNL A   1      28.950  32.599  23.372  1.00  0.00    -0.258 OA
ENDBRANCH  17  21
ENDBRANCH  12  14
ENDBRANCH   8  12
ENDBRANCH   5   8
ENDBRANCH   3   4
ENDBRANCH   2   3
ENDBRANCH   1   2
BRANCH   1  24
ATOM     24  C   UNL A   1      36.862  22.712  24.526  1.00  0.00     0.002 C 
BRANCH  24  25
ATOM     25  C   UNL A   1      38.128  22.098  25.127  1.00  0.00     0.021 C 
BRANCH  25  26
ATOM     26  C   UNL A   1      38.634  22.771  26.403  1.00  0.00     0.116 C 
BRANCH  26  27
ATOM     27  N   UNL A   1      40.080  22.941  26.443  1.00  0.00    -0.352 N 
ATOM     28  C   UNL A   1      40.823  24.096  26.573  1.00  0.00     0.251 C 
ATOM     29  H   UNL A   1      40.603  22.110  26.368  1.00  0.00     0.163 HD
ATOM     30  O   UNL A   1      42.046  24.081  26.423  1.00  0.00    -0.269 OA
BRANCH  28  31
ATOM     31  C   UNL A   1      40.171  25.331  27.075  1.00  0.00     0.039 A 
ATOM     32  C   UNL A   1      40.516  26.528  26.433  1.00  0.00     0.014 A 
ATOM     33  C   UNL A   1      39.435  25.363  28.257  1.00  0.00     0.014 A 
ATOM     34  C   UNL A   1      40.334  27.742  27.090  1.00  0.00     0.010 A 
ATOM     35  C   UNL A   1      39.319  26.558  28.946  1.00  0.00     0.010 A 
ATOM     36  C   UNL A   1      39.829  27.733  28.389  1.00  0.00    -0.014 A 
BRANCH  36  37
ATOM     37  C   UNL A   1      39.932  28.884  29.277  1.00  0.00     0.031 A 
ATOM     38  C   UNL A   1      38.887  29.920  29.299  1.00  0.00     0.074 A 
ATOM     39  C   UNL A   1      41.013  29.020  30.075  1.00  0.00     0.049 A 
ATOM     40  N   UNL A   1      39.109  31.168  29.545  1.00  0.00    -0.248 NA
ATOM     41  C   UNL A   1      37.491  29.625  29.004  1.00  0.00     0.031 C 
ATOM     42  C   UNL A   1      41.220  29.999  31.137  1.00  0.00     0.029 A 
ATOM     43  N   UNL A   1      42.260  28.442  29.890  1.00  0.00    -0.354 N 
ATOM     44  C   UNL A   1      37.890  31.773  29.737  1.00  0.00     0.074 A 
ATOM     45  C   UNL A   1      36.915  30.792  29.310  1.00  0.00     0.031 C 
ATOM     46  C   UNL A   1      42.540  30.144  31.340  1.00  0.00     0.029 A 
ATOM     47  C   UNL A   1      43.225  29.361  30.326  1.00  0.00     0.049 A 
ATOM     48  H   UNL A   1      42.437  27.547  29.520  1.00  0.00     0.167 HD
ATOM     49  C   UNL A   1      37.823  32.973  30.381  1.00  0.00     0.034 A 
ATOM     50  C   UNL A   1      44.176  29.832  29.469  1.00  0.00     0.034 A 
ATOM     51  C   UNL A   1      39.147  33.470  30.755  1.00  0.00     0.049 A 
ATOM     52  C   UNL A   1      44.127  31.334  29.285  1.00  0.00     0.074 A 
ATOM     53  C   UNL A   1      39.843  33.474  31.954  1.00  0.00     0.029 A 
ATOM     54  N   UNL A   1      40.067  33.813  29.769  1.00  0.00    -0.354 N 
ATOM     55  N   UNL A   1      43.109  32.085  29.603  1.00  0.00    -0.248 NA
ATOM     56  C   UNL A   1      45.224  32.101  28.707  1.00  0.00     0.031 C 
ATOM     57  C   UNL A   1      41.198  33.788  31.677  1.00  0.00     0.029 A 
ATOM     58  C   UNL A   1      41.324  34.000  30.315  1.00  0.00     0.049 A 
ATOM     59  H   UNL A   1      39.852  33.910  28.814  1.00  0.00     0.167 HD
ATOM     60  C   UNL A   1      43.377  33.395  29.279  1.00  0.00     0.074 A 
ATOM     61  C   UNL A   1      44.727  33.349  28.742  1.00  0.00     0.031 C 
ATOM     62  C   UNL A   1      42.456  34.390  29.479  1.00  0.00     0.034 A 
BRANCH  49  63
ATOM     63  C   UNL A   1      36.534  33.518  30.958  1.00  0.00     0.023 A 
ATOM     64  C   UNL A   1      35.605  34.158  30.112  1.00  0.00     0.031 A 
ATOM     65  C   UNL A   1      36.186  33.482  32.320  1.00  0.00     0.131 A 
ATOM     66  C   UNL A   1      34.480  34.827  30.630  1.00  0.00     0.055 A 
ATOM     67  C   UNL A   1      35.104  34.202  32.846  1.00  0.00     0.041 A 
ATOM     68  F   UNL A   1      36.857  32.715  33.193  1.00  0.00    -0.206 F 
ATOM     69  C   UNL A   1      34.253  34.896  32.000  1.00  0.00     0.022 A 
BRANCH  66  70
ATOM     70  S   UNL A   1      33.306  35.600  29.482  1.00  0.00     0.124 S 
ATOM     71  O   UNL A   1      32.508  34.462  29.040  1.00  0.00    -0.237 OA
ATOM     72  O   UNL A   1      32.634  36.572  30.337  1.00  0.00    -0.237 OA
ATOM     73  O   UNL A   1      34.171  36.181  28.455  1.00  0.00    -0.744 OA
ENDBRANCH  66  70
ENDBRANCH  49  63
BRANCH  50  74
ATOM     74  C   UNL A   1      44.574  28.840  28.427  1.00  0.00     0.023 A 
ATOM     75  C   UNL A   1      45.382  27.756  28.839  1.00  0.00     0.031 A 
ATOM     76  C   UNL A   1      43.890  28.719  27.211  1.00  0.00     0.131 A 
ATOM     77  C   UNL A   1      45.347  26.539  28.142  1.00  0.00     0.055 A 
ATOM     78  C   UNL A   1      43.922  27.526  26.475  1.00  0.00     0.041 A 
ATOM     79  F   UNL A   1      43.082  29.698  26.778  1.00  0.00    -0.206 F 
ATOM     80  C   UNL A   1      44.614  26.416  26.962  1.00  0.00     0.022 A 
BRANCH  77  81
ATOM     81  S   UNL A   1      46.029  25.049  28.939  1.00  0.00     0.124 S 
ATOM     82  O   UNL A   1      46.367  24.217  27.791  1.00  0.00    -0.237 OA
ATOM     83  O   UNL A   1      47.161  25.576  29.700  1.00  0.00    -0.237 OA
ATOM     84  O   UNL A   1      44.926  24.567  29.768  1.00  0.00    -0.744 OA
ENDBRANCH  77  81
ENDBRANCH  50  74
BRANCH  62  85
ATOM     85  C   UNL A   1      42.548  35.838  29.010  1.00  0.00     0.023 A 
ATOM     86  C   UNL A   1      43.360  36.811  29.607  1.00  0.00     0.031 A 
ATOM     87  C   UNL A   1      41.825  36.282  27.869  1.00  0.00     0.131 A 
ATOM     88  C   UNL A   1      43.386  38.142  29.142  1.00  0.00     0.055 A 
ATOM     89  C   UNL A   1      41.901  37.588  27.368  1.00  0.00     0.041 A 
ATOM     90  F   UNL A   1      41.019  35.468  27.173  1.00  0.00    -0.206 F 
ATOM     91  C   UNL A   1      42.675  38.535  28.014  1.00  0.00     0.022 A 
BRANCH  88  92
ATOM     92  S   UNL A   1      44.343  39.362  30.081  1.00  0.00     0.124 S 
ATOM     93  O   UNL A   1      43.439  39.669  31.186  1.00  0.00    -0.237 OA
ATOM     94  O   UNL A   1      45.544  38.611  30.437  1.00  0.00    -0.237 OA
ATOM     95  O   UNL A   1      44.550  40.450  29.128  1.00  0.00    -0.744 OA
ENDBRANCH  88  92
ENDBRANCH  62  85
ENDBRANCH  36  37
ENDBRANCH  28  31
ENDBRANCH  26  27
ENDBRANCH  25  26
ENDBRANCH  24  25
ENDBRANCH   1  24
TORSDOF 20
ENDMDL
