MODEL 1
REMARK VINA RESULT:     -12.6      0.000      0.000
REMARK SMILES Cc1ccc(CCC(=O)N2CCC3(CC2)[C@H](C(=O)NCCCCCCNC(=O)c2ccc(-c4c5nc(c(-c6cc(S(=O)(=O)[O-])ccc6F)c6ccc([nH]6)c(-c6cc(S(=O)(=O)[O-])ccc6F)c6nc(c(-c7cc(S(=O)(=O)[O-])ccc7F)c7ccc4[nH]7)C=C6)C=C5)cc2)CC(=O)N3C)cc1
REMARK SMILES IDX 22 1 21 2 20 3 19 4 17 5 18 6 16 8 8 9 9 10 10 11 11 12
REMARK SMILES IDX 15 13 12 14 14 15 13 16 95 17 92 18 93 19 96 20 94 21 7 22
REMARK SMILES IDX 6 23 5 24 1 25 2 26 3 27 98 28 4 29 97 30 23 31 24 32 25 33
REMARK SMILES IDX 26 34 27 35 28 37 29 38 30 39 91 40 31 41 90 42 32 43 33 44
REMARK SMILES IDX 34 45 84 46 35 47 89 48 83 49 85 50 36 51 88 52 82 53 81 54
REMARK SMILES IDX 37 56 69 57 49 58 68 59 50 60 53 61 67 62 86 63 51 64 52 65
REMARK SMILES IDX 66 67 87 68 54 69 38 70 39 71 47 72 40 73 46 74 48 75 45 76
REMARK SMILES IDX 41 77 42 78 43 79 44 80 70 81 71 82 79 83 72 84 78 85 80 86
REMARK SMILES IDX 77 87 73 88 74 89 75 90 76 91 55 92 56 93 64 94 57 95 63 96
REMARK SMILES IDX 65 97 62 98 58 99 59 100 60 101 61 102
REMARK H PARENT 19 7 26 36 85 55 53 66
REMARK Flexibility Score: inf
ROOT
ATOM      1  C   UNL A   1      38.717  21.444  25.460  1.00  0.00     0.002 C 
ENDROOT
BRANCH   1   2
ATOM      2  C   UNL A   1      37.532  20.578  25.027  1.00  0.00     0.021 C 
BRANCH   2   3
ATOM      3  C   UNL A   1      36.302  21.367  24.564  1.00  0.00     0.116 C 
BRANCH   3   4
ATOM      4  N   UNL A   1      36.316  22.778  24.917  1.00  0.00    -0.356 N 
ATOM      5  C   UNL A   1      35.400  23.637  25.431  1.00  0.00     0.226 C 
ATOM      6  O   UNL A   1      35.817  24.757  25.751  1.00  0.00    -0.275 OA
ATOM      7  H   UNL A   1      37.186  23.205  24.745  1.00  0.00     0.163 HD
BRANCH   5   8
ATOM      8  C   UNL A   1      33.918  23.324  25.666  1.00  0.00     0.113 C 
ATOM      9  C   UNL A   1      30.913  26.483  22.722  1.00  0.00     0.222 C 
ATOM     10  O   UNL A   1      31.243  27.148  21.736  1.00  0.00    -0.275 OA
ATOM     11  N   UNL A   1      31.302  25.163  22.852  1.00  0.00    -0.343 N 
ATOM     12  C   UNL A   1      32.537  24.707  22.244  1.00  0.00     0.122 C 
ATOM     13  C   UNL A   1      30.672  24.154  23.660  1.00  0.00     0.122 C 
ATOM     14  C   UNL A   1      33.491  24.333  23.377  1.00  0.00     0.051 C 
ATOM     15  C   UNL A   1      31.540  23.814  24.868  1.00  0.00     0.051 C 
ATOM     16  C   UNL A   1      32.957  23.333  24.444  1.00  0.00     0.058 C 
ATOM     17  N   UNL A   1      32.883  21.887  24.156  1.00  0.00    -0.339 N 
ATOM     18  C   UNL A   1      33.732  21.982  26.358  1.00  0.00     0.116 C 
ATOM     19  C   UNL A   1      33.157  21.107  25.286  1.00  0.00     0.223 C 
ATOM     20  C   UNL A   1      32.243  21.270  23.014  1.00  0.00     0.147 C 
ATOM     21  O   UNL A   1      32.967  19.906  25.411  1.00  0.00    -0.275 OA
BRANCH   9  22
ATOM     22  C   UNL A   1      30.305  27.213  23.925  1.00  0.00     0.105 C 
BRANCH  22  23
ATOM     23  C   UNL A   1      30.671  28.672  24.239  1.00  0.00     0.045 C 
BRANCH  23  24
ATOM     24  C   UNL A   1      31.650  28.834  25.392  1.00  0.00    -0.047 A 
ATOM     25  C   UNL A   1      35.319  29.346  27.552  1.00  0.00     0.044 C 
ATOM     26  C   UNL A   1      33.949  29.149  26.975  1.00  0.00    -0.051 A 
ATOM     27  C   UNL A   1      33.473  27.869  26.672  1.00  0.00     0.004 A 
ATOM     28  C   UNL A   1      33.173  30.261  26.629  1.00  0.00     0.004 A 
ATOM     29  C   UNL A   1      32.309  27.711  25.915  1.00  0.00     0.004 A 
ATOM     30  C   UNL A   1      32.024  30.104  25.852  1.00  0.00     0.004 A 
ENDBRANCH  23  24
ENDBRANCH  22  23
ENDBRANCH   9  22
ENDBRANCH   5   8
ENDBRANCH   3   4
ENDBRANCH   2   3
ENDBRANCH   1   2
BRANCH   1  31
ATOM     31  C   UNL A   1      39.666  20.780  26.468  1.00  0.00     0.002 C 
BRANCH  31  32
ATOM     32  C   UNL A   1      40.657  19.776  25.874  1.00  0.00     0.021 C 
BRANCH  32  33
ATOM     33  C   UNL A   1      41.858  19.494  26.767  1.00  0.00     0.116 C 
BRANCH  33  34
ATOM     34  N   UNL A   1      43.121  19.956  26.220  1.00  0.00    -0.352 N 
ATOM     35  C   UNL A   1      43.537  21.236  25.920  1.00  0.00     0.251 C 
ATOM     36  H   UNL A   1      43.782  19.248  26.037  1.00  0.00     0.163 HD
ATOM     37  O   UNL A   1      44.560  21.408  25.258  1.00  0.00    -0.269 OA
BRANCH  35  38
ATOM     38  C   UNL A   1      42.832  22.406  26.500  1.00  0.00     0.039 A 
ATOM     39  C   UNL A   1      42.818  23.589  25.745  1.00  0.00     0.014 A 
ATOM     40  C   UNL A   1      42.378  22.417  27.815  1.00  0.00     0.014 A 
ATOM     41  C   UNL A   1      42.565  24.807  26.371  1.00  0.00     0.010 A 
ATOM     42  C   UNL A   1      42.232  23.625  28.459  1.00  0.00     0.010 A 
ATOM     43  C   UNL A   1      42.375  24.821  27.749  1.00  0.00    -0.014 A 
BRANCH  43  44
ATOM     44  C   UNL A   1      42.389  26.023  28.567  1.00  0.00     0.031 A 
ATOM     45  C   UNL A   1      41.297  27.008  28.448  1.00  0.00     0.074 A 
ATOM     46  C   UNL A   1      43.315  26.141  29.542  1.00  0.00     0.049 A 
ATOM     47  N   UNL A   1      41.350  28.209  28.907  1.00  0.00    -0.248 NA
ATOM     48  C   UNL A   1      40.051  26.720  27.749  1.00  0.00     0.031 C 
ATOM     49  C   UNL A   1      43.292  27.049  30.684  1.00  0.00     0.029 A 
ATOM     50  N   UNL A   1      44.602  25.606  29.548  1.00  0.00    -0.354 N 
ATOM     51  C   UNL A   1      40.085  28.745  28.839  1.00  0.00     0.074 A 
ATOM     52  C   UNL A   1      39.331  27.806  28.044  1.00  0.00     0.031 C 
ATOM     53  C   UNL A   1      44.546  27.217  31.131  1.00  0.00     0.029 A 
ATOM     54  C   UNL A   1      45.426  26.547  30.192  1.00  0.00     0.049 A 
ATOM     55  H   UNL A   1      44.880  24.738  29.175  1.00  0.00     0.167 HD
ATOM     56  C   UNL A   1      39.802  29.855  29.579  1.00  0.00     0.034 A 
ATOM     57  C   UNL A   1      46.451  27.151  29.522  1.00  0.00     0.034 A 
ATOM     58  C   UNL A   1      41.004  30.367  30.240  1.00  0.00     0.049 A 
ATOM     59  C   UNL A   1      46.315  28.655  29.435  1.00  0.00     0.074 A 
ATOM     60  C   UNL A   1      41.490  30.271  31.534  1.00  0.00     0.029 A 
ATOM     61  N   UNL A   1      42.050  30.852  29.464  1.00  0.00    -0.354 N 
ATOM     62  N   UNL A   1      45.200  29.307  29.624  1.00  0.00    -0.248 NA
ATOM     63  C   UNL A   1      47.432  29.542  29.135  1.00  0.00     0.031 C 
ATOM     64  C   UNL A   1      42.855  30.666  31.519  1.00  0.00     0.029 A 
ATOM     65  C   UNL A   1      43.188  31.030  30.226  1.00  0.00     0.049 A 
ATOM     66  H   UNL A   1      41.987  31.045  28.500  1.00  0.00     0.167 HD
ATOM     67  C   UNL A   1      45.418  30.657  29.484  1.00  0.00     0.074 A 
ATOM     68  C   UNL A   1      46.839  30.748  29.190  1.00  0.00     0.031 C 
ATOM     69  C   UNL A   1      44.404  31.569  29.624  1.00  0.00     0.034 A 
BRANCH  56  70
ATOM     70  C   UNL A   1      38.406  30.324  29.938  1.00  0.00     0.023 A 
ATOM     71  C   UNL A   1      37.934  31.539  29.393  1.00  0.00     0.031 A 
ATOM     72  C   UNL A   1      37.518  29.682  30.822  1.00  0.00     0.131 A 
ATOM     73  C   UNL A   1      36.710  32.105  29.795  1.00  0.00     0.055 A 
ATOM     74  C   UNL A   1      36.321  30.266  31.261  1.00  0.00     0.041 A 
ATOM     75  F   UNL A   1      37.731  28.436  31.260  1.00  0.00    -0.206 F 
ATOM     76  C   UNL A   1      35.915  31.491  30.757  1.00  0.00     0.022 A 
BRANCH  73  77
ATOM     77  S   UNL A   1      36.167  33.663  29.043  1.00  0.00     0.124 S 
ATOM     78  O   UNL A   1      37.368  34.486  29.136  1.00  0.00    -0.237 OA
ATOM     79  O   UNL A   1      35.771  33.241  27.704  1.00  0.00    -0.237 OA
ATOM     80  O   UNL A   1      35.063  34.088  29.904  1.00  0.00    -0.744 OA
ENDBRANCH  73  77
ENDBRANCH  56  70
BRANCH  57  81
ATOM     81  C   UNL A   1      47.076  26.258  28.503  1.00  0.00     0.023 A 
ATOM     82  C   UNL A   1      46.774  26.528  27.151  1.00  0.00     0.031 A 
ATOM     83  C   UNL A   1      48.231  25.516  28.781  1.00  0.00     0.131 A 
ATOM     84  C   UNL A   1      47.697  26.214  26.144  1.00  0.00     0.055 A 
ATOM     85  C   UNL A   1      49.120  25.147  27.762  1.00  0.00     0.041 A 
ATOM     86  F   UNL A   1      48.590  25.258  30.049  1.00  0.00    -0.206 F 
ATOM     87  C   UNL A   1      48.879  25.536  26.443  1.00  0.00     0.022 A 
BRANCH  84  88
ATOM     88  S   UNL A   1      47.448  26.944  24.497  1.00  0.00     0.124 S 
ATOM     89  O   UNL A   1      47.922  25.879  23.619  1.00  0.00    -0.237 OA
ATOM     90  O   UNL A   1      46.008  27.193  24.478  1.00  0.00    -0.237 OA
ATOM     91  O   UNL A   1      48.271  28.150  24.523  1.00  0.00    -0.744 OA
ENDBRANCH  84  88
ENDBRANCH  57  81
BRANCH  69  92
ATOM     92  C   UNL A   1      44.444  33.056  29.294  1.00  0.00     0.023 A 
ATOM     93  C   UNL A   1      43.614  33.676  28.350  1.00  0.00     0.031 A 
ATOM     94  C   UNL A   1      45.314  33.938  29.993  1.00  0.00     0.131 A 
ATOM     95  C   UNL A   1      43.698  35.058  28.088  1.00  0.00     0.055 A 
ATOM     96  C   UNL A   1      45.350  35.320  29.778  1.00  0.00     0.041 A 
ATOM     97  F   UNL A   1      46.166  33.505  30.933  1.00  0.00    -0.206 F 
ATOM     98  C   UNL A   1      44.546  35.890  28.810  1.00  0.00     0.022 A 
BRANCH  95  99
ATOM     99  S   UNL A   1      42.698  35.735  26.737  1.00  0.00     0.124 S 
ATOM    100  O   UNL A   1      41.351  35.670  27.297  1.00  0.00    -0.237 OA
ATOM    101  O   UNL A   1      43.252  37.076  26.580  1.00  0.00    -0.237 OA
ATOM    102  O   UNL A   1      42.953  34.822  25.624  1.00  0.00    -0.744 OA
ENDBRANCH  95  99
ENDBRANCH  69  92
ENDBRANCH  43  44
ENDBRANCH  35  38
ENDBRANCH  33  34
ENDBRANCH  32  33
ENDBRANCH  31  32
ENDBRANCH   1  31
TORSDOF 19
ENDMDL
MODEL 2
REMARK VINA RESULT:     -12.0      4.256      6.148
REMARK SMILES Cc1ccc(CCC(=O)N2CCC3(CC2)[C@H](C(=O)NCCCCCCNC(=O)c2ccc(-c4c5nc(c(-c6cc(S(=O)(=O)[O-])ccc6F)c6ccc([nH]6)c(-c6cc(S(=O)(=O)[O-])ccc6F)c6nc(c(-c7cc(S(=O)(=O)[O-])ccc7F)c7ccc4[nH]7)C=C6)C=C5)cc2)CC(=O)N3C)cc1
REMARK SMILES IDX 22 1 21 2 20 3 19 4 17 5 18 6 16 8 8 9 9 10 10 11 11 12
REMARK SMILES IDX 15 13 12 14 14 15 13 16 95 17 92 18 93 19 96 20 94 21 7 22
REMARK SMILES IDX 6 23 5 24 1 25 2 26 3 27 98 28 4 29 97 30 23 31 24 32 25 33
REMARK SMILES IDX 26 34 27 35 28 37 29 38 30 39 91 40 31 41 90 42 32 43 33 44
REMARK SMILES IDX 34 45 84 46 35 47 89 48 83 49 85 50 36 51 88 52 82 53 81 54
REMARK SMILES IDX 37 56 69 57 49 58 68 59 50 60 53 61 67 62 86 63 51 64 52 65
REMARK SMILES IDX 66 67 87 68 54 69 38 70 39 71 47 72 40 73 46 74 48 75 45 76
REMARK SMILES IDX 41 77 42 78 43 79 44 80 70 81 71 82 79 83 72 84 78 85 80 86
REMARK SMILES IDX 77 87 73 88 74 89 75 90 76 91 55 92 56 93 64 94 57 95 63 96
REMARK SMILES IDX 65 97 62 98 58 99 59 100 60 101 61 102
REMARK H PARENT 19 7 26 36 85 55 53 66
REMARK Flexibility Score: inf
ROOT
ATOM      1  C   UNL A   1      40.270  24.462  27.366  1.00  0.00     0.002 C 
ENDROOT
BRANCH   1   2
ATOM      2  C   UNL A   1      39.393  23.444  26.635  1.00  0.00     0.021 C 
BRANCH   2   3
ATOM      3  C   UNL A   1      37.993  23.952  26.272  1.00  0.00     0.116 C 
BRANCH   3   4
ATOM      4  N   UNL A   1      37.579  23.673  24.905  1.00  0.00    -0.356 N 
ATOM      5  C   UNL A   1      36.395  23.374  24.315  1.00  0.00     0.226 C 
ATOM      6  O   UNL A   1      36.390  23.350  23.078  1.00  0.00    -0.275 OA
ATOM      7  H   UNL A   1      38.327  23.710  24.266  1.00  0.00     0.163 HD
BRANCH   5   8
ATOM      8  C   UNL A   1      35.078  23.096  25.047  1.00  0.00     0.113 C 
ATOM      9  C   UNL A   1      31.333  26.375  23.342  1.00  0.00     0.222 C 
ATOM     10  O   UNL A   1      31.322  27.046  22.306  1.00  0.00    -0.275 OA
ATOM     11  N   UNL A   1      31.705  25.043  23.323  1.00  0.00    -0.343 N 
ATOM     12  C   UNL A   1      32.639  24.565  22.322  1.00  0.00     0.122 C 
ATOM     13  C   UNL A   1      31.364  24.039  24.293  1.00  0.00     0.122 C 
ATOM     14  C   UNL A   1      33.915  24.150  23.052  1.00  0.00     0.051 C 
ATOM     15  C   UNL A   1      32.586  23.659  25.125  1.00  0.00     0.051 C 
ATOM     16  C   UNL A   1      33.754  23.148  24.233  1.00  0.00     0.058 C 
ATOM     17  N   UNL A   1      33.543  21.709  23.982  1.00  0.00    -0.339 N 
ATOM     18  C   UNL A   1      35.103  21.749  25.753  1.00  0.00     0.116 C 
ATOM     19  C   UNL A   1      34.167  20.905  24.942  1.00  0.00     0.223 C 
ATOM     20  C   UNL A   1      32.529  21.125  23.128  1.00  0.00     0.147 C 
ATOM     21  O   UNL A   1      33.998  19.708  25.119  1.00  0.00    -0.275 OA
BRANCH   9  22
ATOM     22  C   UNL A   1      31.201  27.102  24.684  1.00  0.00     0.105 C 
BRANCH  22  23
ATOM     23  C   UNL A   1      31.324  28.631  24.778  1.00  0.00     0.045 C 
BRANCH  23  24
ATOM     24  C   UNL A   1      32.560  29.112  25.523  1.00  0.00    -0.047 A 
ATOM     25  C   UNL A   1      35.460  29.656  28.635  1.00  0.00     0.044 C 
ATOM     26  C   UNL A   1      34.552  29.598  27.442  1.00  0.00    -0.051 A 
ATOM     27  C   UNL A   1      33.458  30.462  27.329  1.00  0.00     0.004 A 
ATOM     28  C   UNL A   1      34.729  28.597  26.481  1.00  0.00     0.004 A 
ATOM     29  C   UNL A   1      32.485  30.242  26.351  1.00  0.00     0.004 A 
ATOM     30  C   UNL A   1      33.744  28.362  25.520  1.00  0.00     0.004 A 
ENDBRANCH  23  24
ENDBRANCH  22  23
ENDBRANCH   9  22
ENDBRANCH   5   8
ENDBRANCH   3   4
ENDBRANCH   2   3
ENDBRANCH   1   2
BRANCH   1  31
ATOM     31  C   UNL A   1      41.734  24.500  26.906  1.00  0.00     0.002 C 
BRANCH  31  32
ATOM     32  C   UNL A   1      41.980  25.177  25.555  1.00  0.00     0.021 C 
BRANCH  32  33
ATOM     33  C   UNL A   1      43.228  26.049  25.522  1.00  0.00     0.116 C 
BRANCH  33  34
ATOM     34  N   UNL A   1      42.999  27.388  25.010  1.00  0.00    -0.352 N 
ATOM     35  C   UNL A   1      42.102  28.349  25.425  1.00  0.00     0.251 C 
ATOM     36  H   UNL A   1      43.572  27.650  24.252  1.00  0.00     0.163 HD
ATOM     37  O   UNL A   1      41.903  29.343  24.727  1.00  0.00    -0.269 OA
BRANCH  35  38
ATOM     38  C   UNL A   1      41.476  28.257  26.767  1.00  0.00     0.039 A 
ATOM     39  C   UNL A   1      40.094  28.019  26.818  1.00  0.00     0.014 A 
ATOM     40  C   UNL A   1      42.165  28.591  27.928  1.00  0.00     0.014 A 
ATOM     41  C   UNL A   1      39.378  28.332  27.971  1.00  0.00     0.010 A 
ATOM     42  C   UNL A   1      41.451  29.001  29.032  1.00  0.00     0.010 A 
ATOM     43  C   UNL A   1      40.055  28.919  29.035  1.00  0.00    -0.014 A 
BRANCH  43  44
ATOM     44  C   UNL A   1      39.406  29.555  30.170  1.00  0.00     0.031 A 
ATOM     45  C   UNL A   1      38.718  30.849  29.996  1.00  0.00     0.074 A 
ATOM     46  C   UNL A   1      39.299  28.872  31.330  1.00  0.00     0.049 A 
ATOM     47  N   UNL A   1      38.361  31.617  30.965  1.00  0.00    -0.248 NA
ATOM     48  C   UNL A   1      38.413  31.408  28.685  1.00  0.00     0.031 C 
ATOM     49  C   UNL A   1      38.397  29.149  32.444  1.00  0.00     0.029 A 
ATOM     50  N   UNL A   1      40.181  27.913  31.825  1.00  0.00    -0.354 N 
ATOM     51  C   UNL A   1      37.539  32.593  30.451  1.00  0.00     0.074 A 
ATOM     52  C   UNL A   1      37.664  32.462  29.020  1.00  0.00     0.031 C 
ATOM     53  C   UNL A   1      38.900  28.594  33.557  1.00  0.00     0.029 A 
ATOM     54  C   UNL A   1      40.215  28.081  33.222  1.00  0.00     0.049 A 
ATOM     55  H   UNL A   1      40.682  27.248  31.300  1.00  0.00     0.167 HD
ATOM     56  C   UNL A   1      36.753  33.306  31.308  1.00  0.00     0.034 A 
ATOM     57  C   UNL A   1      41.371  28.437  33.853  1.00  0.00     0.034 A 
ATOM     58  C   UNL A   1      37.046  32.963  32.700  1.00  0.00     0.049 A 
ATOM     59  C   UNL A   1      41.278  29.754  34.591  1.00  0.00     0.074 A 
ATOM     60  C   UNL A   1      36.418  32.153  33.632  1.00  0.00     0.029 A 
ATOM     61  N   UNL A   1      38.301  33.258  33.221  1.00  0.00    -0.354 N 
ATOM     62  N   UNL A   1      40.362  30.659  34.374  1.00  0.00    -0.248 NA
ATOM     63  C   UNL A   1      42.210  30.150  35.639  1.00  0.00     0.031 C 
ATOM     64  C   UNL A   1      37.327  31.929  34.701  1.00  0.00     0.029 A 
ATOM     65  C   UNL A   1      38.492  32.627  34.434  1.00  0.00     0.049 A 
ATOM     66  H   UNL A   1      38.964  33.840  32.783  1.00  0.00     0.167 HD
ATOM     67  C   UNL A   1      40.553  31.729  35.214  1.00  0.00     0.074 A 
ATOM     68  C   UNL A   1      41.719  31.351  35.996  1.00  0.00     0.031 C 
ATOM     69  C   UNL A   1      39.728  32.824  35.184  1.00  0.00     0.034 A 
BRANCH  56  70
ATOM     70  C   UNL A   1      35.530  34.103  30.899  1.00  0.00     0.023 A 
ATOM     71  C   UNL A   1      35.017  35.069  31.794  1.00  0.00     0.031 A 
ATOM     72  C   UNL A   1      34.800  33.948  29.707  1.00  0.00     0.131 A 
ATOM     73  C   UNL A   1      33.805  35.740  31.544  1.00  0.00     0.055 A 
ATOM     74  C   UNL A   1      33.568  34.580  29.475  1.00  0.00     0.041 A 
ATOM     75  F   UNL A   1      35.264  33.227  28.679  1.00  0.00    -0.206 F 
ATOM     76  C   UNL A   1      33.058  35.474  30.402  1.00  0.00     0.022 A 
BRANCH  73  77
ATOM     77  S   UNL A   1      33.215  36.974  32.736  1.00  0.00     0.124 S 
ATOM     78  O   UNL A   1      31.821  36.586  32.916  1.00  0.00    -0.237 OA
ATOM     79  O   UNL A   1      34.103  36.757  33.872  1.00  0.00    -0.237 OA
ATOM     80  O   UNL A   1      33.414  38.243  32.035  1.00  0.00    -0.744 OA
ENDBRANCH  73  77
ENDBRANCH  56  70
BRANCH  57  81
ATOM     81  C   UNL A   1      42.584  27.879  33.188  1.00  0.00     0.023 A 
ATOM     82  C   UNL A   1      43.271  28.733  32.298  1.00  0.00     0.031 A 
ATOM     83  C   UNL A   1      43.285  26.790  33.724  1.00  0.00     0.131 A 
ATOM     84  C   UNL A   1      44.652  28.590  32.105  1.00  0.00     0.055 A 
ATOM     85  C   UNL A   1      44.654  26.614  33.475  1.00  0.00     0.041 A 
ATOM     86  F   UNL A   1      42.697  25.964  34.603  1.00  0.00    -0.206 F 
ATOM     87  C   UNL A   1      45.354  27.542  32.701  1.00  0.00     0.022 A 
BRANCH  84  88
ATOM     88  S   UNL A   1      45.546  29.946  31.288  1.00  0.00     0.124 S 
ATOM     89  O   UNL A   1      44.717  30.192  30.112  1.00  0.00    -0.237 OA
ATOM     90  O   UNL A   1      45.531  30.992  32.309  1.00  0.00    -0.237 OA
ATOM     91  O   UNL A   1      46.865  29.381  31.019  1.00  0.00    -0.744 OA
ENDBRANCH  84  88
ENDBRANCH  57  81
BRANCH  69  92
ATOM     92  C   UNL A   1      39.934  34.158  35.893  1.00  0.00     0.023 A 
ATOM     93  C   UNL A   1      39.699  34.368  37.258  1.00  0.00     0.031 A 
ATOM     94  C   UNL A   1      40.451  35.286  35.197  1.00  0.00     0.131 A 
ATOM     95  C   UNL A   1      39.908  35.625  37.859  1.00  0.00     0.055 A 
ATOM     96  C   UNL A   1      40.720  36.515  35.807  1.00  0.00     0.041 A 
ATOM     97  F   UNL A   1      40.736  35.248  33.887  1.00  0.00    -0.206 F 
ATOM     98  C   UNL A   1      40.437  36.697  37.148  1.00  0.00     0.022 A 
BRANCH  95  99
ATOM     99  S   UNL A   1      39.421  35.839  39.591  1.00  0.00     0.124 S 
ATOM    100  O   UNL A   1      38.725  37.121  39.553  1.00  0.00    -0.237 OA
ATOM    101  O   UNL A   1      38.580  34.670  39.825  1.00  0.00    -0.237 OA
ATOM    102  O   UNL A   1      40.693  35.843  40.311  1.00  0.00    -0.744 OA
ENDBRANCH  95  99
ENDBRANCH  69  92
ENDBRANCH  43  44
ENDBRANCH  35  38
ENDBRANCH  33  34
ENDBRANCH  32  33
ENDBRANCH  31  32
ENDBRANCH   1  31
TORSDOF 19
ENDMDL
MODEL 3
REMARK VINA RESULT:     -11.6      4.039      9.609
REMARK SMILES Cc1ccc(CCC(=O)N2CCC3(CC2)[C@H](C(=O)NCCCCCCNC(=O)c2ccc(-c4c5nc(c(-c6cc(S(=O)(=O)[O-])ccc6F)c6ccc([nH]6)c(-c6cc(S(=O)(=O)[O-])ccc6F)c6nc(c(-c7cc(S(=O)(=O)[O-])ccc7F)c7ccc4[nH]7)C=C6)C=C5)cc2)CC(=O)N3C)cc1
REMARK SMILES IDX 22 1 21 2 20 3 19 4 17 5 18 6 16 8 8 9 9 10 10 11 11 12
REMARK SMILES IDX 15 13 12 14 14 15 13 16 95 17 92 18 93 19 96 20 94 21 7 22
REMARK SMILES IDX 6 23 5 24 1 25 2 26 3 27 98 28 4 29 97 30 23 31 24 32 25 33
REMARK SMILES IDX 26 34 27 35 28 37 29 38 30 39 91 40 31 41 90 42 32 43 33 44
REMARK SMILES IDX 34 45 84 46 35 47 89 48 83 49 85 50 36 51 88 52 82 53 81 54
REMARK SMILES IDX 37 56 69 57 49 58 68 59 50 60 53 61 67 62 86 63 51 64 52 65
REMARK SMILES IDX 66 67 87 68 54 69 38 70 39 71 47 72 40 73 46 74 48 75 45 76
REMARK SMILES IDX 41 77 42 78 43 79 44 80 70 81 71 82 79 83 72 84 78 85 80 86
REMARK SMILES IDX 77 87 73 88 74 89 75 90 76 91 55 92 56 93 64 94 57 95 63 96
REMARK SMILES IDX 65 97 62 98 58 99 59 100 60 101 61 102
REMARK H PARENT 19 7 26 36 85 55 53 66
REMARK Flexibility Score: inf
ROOT
ATOM      1  C   UNL A   1      36.265  30.429  27.662  1.00  0.00     0.002 C 
ENDROOT
BRANCH   1   2
ATOM      2  C   UNL A   1      35.190  29.356  27.851  1.00  0.00     0.021 C 
BRANCH   2   3
ATOM      3  C   UNL A   1      34.461  28.951  26.565  1.00  0.00     0.116 C 
BRANCH   3   4
ATOM      4  N   UNL A   1      33.296  29.762  26.244  1.00  0.00    -0.356 N 
ATOM      5  C   UNL A   1      32.287  29.659  25.344  1.00  0.00     0.226 C 
ATOM      6  O   UNL A   1      31.362  30.473  25.461  1.00  0.00    -0.275 OA
ATOM      7  H   UNL A   1      33.224  30.565  26.809  1.00  0.00     0.163 HD
BRANCH   5   8
ATOM      8  C   UNL A   1      32.190  28.613  24.228  1.00  0.00     0.113 C 
ATOM      9  C   UNL A   1      31.600  23.811  26.298  1.00  0.00     0.222 C 
ATOM     10  O   UNL A   1      31.247  23.513  27.442  1.00  0.00    -0.275 OA
ATOM     11  N   UNL A   1      30.923  24.775  25.573  1.00  0.00    -0.343 N 
ATOM     12  C   UNL A   1      30.241  25.855  26.259  1.00  0.00     0.122 C 
ATOM     13  C   UNL A   1      30.907  24.925  24.143  1.00  0.00     0.122 C 
ATOM     14  C   UNL A   1      30.968  27.150  25.905  1.00  0.00     0.051 C 
ATOM     15  C   UNL A   1      31.710  26.154  23.723  1.00  0.00     0.051 C 
ATOM     16  C   UNL A   1      31.169  27.451  24.391  1.00  0.00     0.058 C 
ATOM     17  N   UNL A   1      30.056  27.961  23.566  1.00  0.00    -0.339 N 
ATOM     18  C   UNL A   1      31.907  29.257  22.880  1.00  0.00     0.116 C 
ATOM     19  C   UNL A   1      30.491  28.863  22.588  1.00  0.00     0.223 C 
ATOM     20  C   UNL A   1      28.737  27.376  23.447  1.00  0.00     0.147 C 
ATOM     21  O   UNL A   1      29.846  29.281  21.637  1.00  0.00    -0.275 OA
BRANCH   9  22
ATOM     22  C   UNL A   1      32.958  23.306  25.797  1.00  0.00     0.105 C 
BRANCH  22  23
ATOM     23  C   UNL A   1      34.227  24.161  25.940  1.00  0.00     0.045 C 
BRANCH  23  24
ATOM     24  C   UNL A   1      35.501  23.464  25.485  1.00  0.00    -0.047 A 
ATOM     25  C   UNL A   1      38.859  20.798  25.418  1.00  0.00     0.044 C 
ATOM     26  C   UNL A   1      37.762  21.810  25.276  1.00  0.00    -0.051 A 
ATOM     27  C   UNL A   1      37.863  23.069  25.879  1.00  0.00     0.004 A 
ATOM     28  C   UNL A   1      36.572  21.461  24.630  1.00  0.00     0.004 A 
ATOM     29  C   UNL A   1      36.747  23.907  25.951  1.00  0.00     0.004 A 
ATOM     30  C   UNL A   1      35.450  22.288  24.724  1.00  0.00     0.004 A 
ENDBRANCH  23  24
ENDBRANCH  22  23
ENDBRANCH   9  22
ENDBRANCH   5   8
ENDBRANCH   3   4
ENDBRANCH   2   3
ENDBRANCH   1   2
BRANCH   1  31
ATOM     31  C   UNL A   1      35.817  31.857  28.006  1.00  0.00     0.002 C 
BRANCH  31  32
ATOM     32  C   UNL A   1      34.699  31.961  29.046  1.00  0.00     0.021 C 
BRANCH  32  33
ATOM     33  C   UNL A   1      35.200  32.073  30.480  1.00  0.00     0.116 C 
BRANCH  33  34
ATOM     34  N   UNL A   1      35.009  33.385  31.071  1.00  0.00    -0.352 N 
ATOM     35  C   UNL A   1      35.892  34.166  31.787  1.00  0.00     0.251 C 
ATOM     36  H   UNL A   1      34.115  33.776  30.942  1.00  0.00     0.163 HD
ATOM     37  O   UNL A   1      35.481  35.152  32.397  1.00  0.00    -0.269 OA
BRANCH  35  38
ATOM     38  C   UNL A   1      37.351  33.900  31.717  1.00  0.00     0.039 A 
ATOM     39  C   UNL A   1      37.999  34.186  30.505  1.00  0.00     0.014 A 
ATOM     40  C   UNL A   1      38.026  33.211  32.719  1.00  0.00     0.014 A 
ATOM     41  C   UNL A   1      39.226  33.592  30.219  1.00  0.00     0.010 A 
ATOM     42  C   UNL A   1      39.185  32.540  32.401  1.00  0.00     0.010 A 
ATOM     43  C   UNL A   1      39.757  32.690  31.134  1.00  0.00    -0.014 A 
BRANCH  43  44
ATOM     44  C   UNL A   1      40.864  31.789  30.851  1.00  0.00     0.031 A 
ATOM     45  C   UNL A   1      40.595  30.403  30.423  1.00  0.00     0.074 A 
ATOM     46  C   UNL A   1      42.120  32.283  30.824  1.00  0.00     0.049 A 
ATOM     47  N   UNL A   1      41.473  29.462  30.416  1.00  0.00    -0.248 NA
ATOM     48  C   UNL A   1      39.274  29.952  30.000  1.00  0.00     0.031 C 
ATOM     49  C   UNL A   1      43.301  31.675  30.221  1.00  0.00     0.029 A 
ATOM     50  N   UNL A   1      42.619  33.351  31.567  1.00  0.00    -0.354 N 
ATOM     51  C   UNL A   1      40.943  28.393  29.731  1.00  0.00     0.074 A 
ATOM     52  C   UNL A   1      39.550  28.722  29.558  1.00  0.00     0.031 C 
ATOM     53  C   UNL A   1      44.397  32.191  30.797  1.00  0.00     0.029 A 
ATOM     54  C   UNL A   1      43.949  33.028  31.893  1.00  0.00     0.049 A 
ATOM     55  H   UNL A   1      42.135  34.172  31.815  1.00  0.00     0.167 HD
ATOM     56  C   UNL A   1      41.787  27.420  29.280  1.00  0.00     0.034 A 
ATOM     57  C   UNL A   1      44.329  32.873  33.195  1.00  0.00     0.034 A 
ATOM     58  C   UNL A   1      43.154  27.650  29.750  1.00  0.00     0.049 A 
ATOM     59  C   UNL A   1      44.853  31.490  33.512  1.00  0.00     0.074 A 
ATOM     60  C   UNL A   1      44.288  28.176  29.154  1.00  0.00     0.029 A 
ATOM     61  N   UNL A   1      43.420  27.590  31.113  1.00  0.00    -0.354 N 
ATOM     62  N   UNL A   1      44.639  30.433  32.776  1.00  0.00    -0.248 NA
ATOM     63  C   UNL A   1      45.668  31.194  34.683  1.00  0.00     0.031 C 
ATOM     64  C   UNL A   1      45.226  28.471  30.180  1.00  0.00     0.029 A 
ATOM     65  C   UNL A   1      44.674  28.096  31.393  1.00  0.00     0.049 A 
ATOM     66  H   UNL A   1      42.799  27.233  31.789  1.00  0.00     0.167 HD
ATOM     67  C   UNL A   1      45.260  29.340  33.335  1.00  0.00     0.074 A 
ATOM     68  C   UNL A   1      45.901  29.879  34.523  1.00  0.00     0.031 C 
ATOM     69  C   UNL A   1      45.183  28.098  32.761  1.00  0.00     0.034 A 
BRANCH  56  70
ATOM     70  C   UNL A   1      41.451  26.420  28.193  1.00  0.00     0.023 A 
ATOM     71  C   UNL A   1      41.719  25.051  28.419  1.00  0.00     0.031 A 
ATOM     72  C   UNL A   1      40.926  26.721  26.922  1.00  0.00     0.131 A 
ATOM     73  C   UNL A   1      41.569  24.089  27.403  1.00  0.00     0.055 A 
ATOM     74  C   UNL A   1      40.819  25.774  25.893  1.00  0.00     0.041 A 
ATOM     75  F   UNL A   1      40.434  27.930  26.626  1.00  0.00    -0.206 F 
ATOM     76  C   UNL A   1      41.153  24.449  26.127  1.00  0.00     0.022 A 
BRANCH  73  77
ATOM     77  S   UNL A   1      41.925  22.350  27.774  1.00  0.00     0.124 S 
ATOM     78  O   UNL A   1      40.605  21.830  28.115  1.00  0.00    -0.237 OA
ATOM     79  O   UNL A   1      42.506  21.878  26.523  1.00  0.00    -0.237 OA
ATOM     80  O   UNL A   1      42.863  22.428  28.895  1.00  0.00    -0.744 OA
ENDBRANCH  73  77
ENDBRANCH  56  70
BRANCH  57  81
ATOM     81  C   UNL A   1      43.582  33.770  34.123  1.00  0.00     0.023 A 
ATOM     82  C   UNL A   1      44.082  35.082  34.279  1.00  0.00     0.031 A 
ATOM     83  C   UNL A   1      42.243  33.535  34.459  1.00  0.00     0.131 A 
ATOM     84  C   UNL A   1      43.212  36.137  34.589  1.00  0.00     0.055 A 
ATOM     85  C   UNL A   1      41.392  34.585  34.832  1.00  0.00     0.041 A 
ATOM     86  F   UNL A   1      41.701  32.317  34.298  1.00  0.00    -0.206 F 
ATOM     87  C   UNL A   1      41.863  35.899  34.852  1.00  0.00     0.022 A 
BRANCH  84  88
ATOM     88  S   UNL A   1      43.820  37.838  34.373  1.00  0.00     0.124 S 
ATOM     89  O   UNL A   1      44.268  38.173  35.721  1.00  0.00    -0.237 OA
ATOM     90  O   UNL A   1      44.874  37.670  33.374  1.00  0.00    -0.237 OA
ATOM     91  O   UNL A   1      42.647  38.569  33.901  1.00  0.00    -0.744 OA
ENDBRANCH  84  88
ENDBRANCH  57  81
BRANCH  69  92
ATOM     92  C   UNL A   1      45.631  26.771  33.363  1.00  0.00     0.023 A 
ATOM     93  C   UNL A   1      44.795  25.917  34.096  1.00  0.00     0.031 A 
ATOM     94  C   UNL A   1      46.950  26.281  33.156  1.00  0.00     0.131 A 
ATOM     95  C   UNL A   1      45.267  24.701  34.630  1.00  0.00     0.055 A 
ATOM     96  C   UNL A   1      47.398  25.043  33.630  1.00  0.00     0.041 A 
ATOM     97  F   UNL A   1      47.870  26.973  32.469  1.00  0.00    -0.206 F 
ATOM     98  C   UNL A   1      46.558  24.247  34.385  1.00  0.00     0.022 A 
BRANCH  95  99
ATOM     99  S   UNL A   1      44.158  23.747  35.699  1.00  0.00     0.124 S 
ATOM    100  O   UNL A   1      44.471  24.289  37.018  1.00  0.00    -0.237 OA
ATOM    101  O   UNL A   1      42.842  24.093  35.170  1.00  0.00    -0.237 OA
ATOM    102  O   UNL A   1      44.571  22.363  35.480  1.00  0.00    -0.744 OA
ENDBRANCH  95  99
ENDBRANCH  69  92
ENDBRANCH  43  44
ENDBRANCH  35  38
ENDBRANCH  33  34
ENDBRANCH  32  33
ENDBRANCH  31  32
ENDBRANCH   1  31
TORSDOF 19
ENDMDL
