MODEL 1
REMARK VINA RESULT:     -11.9      0.000      0.000
REMARK SMILES CC1CCN(C(=O)N[C@]2(C(=O)NCCCCCCNC(=O)c3ccc(-c4c5nc(c(-c6cc(S(=O)(=O)[O-])ccc6F)c6ccc([nH]6)c(-c6cc(S(=O)(=O)[O-])ccc6F)c6nc(c(-c7cc(S(=O)(=O)[O-])ccc7F)c7ccc4[nH]7)C=C6)C=C5)cc3)CCSC2)CC1
REMARK SMILES IDX 16 1 15 2 14 3 13 4 12 5 10 6 11 7 9 9 85 10 88 11 86 12
REMARK SMILES IDX 87 13 8 14 1 15 2 16 3 17 90 18 4 19 89 20 5 21 6 22 7 23
REMARK SMILES IDX 17 25 18 26 19 27 20 28 21 30 22 31 23 32 84 33 24 34 83 35
REMARK SMILES IDX 25 36 26 37 27 38 77 39 28 40 82 41 76 42 78 43 29 44 81 45
REMARK SMILES IDX 75 46 74 47 30 49 62 50 42 51 61 52 43 53 46 54 60 55 79 56
REMARK SMILES IDX 44 57 45 58 59 60 80 61 47 62 31 63 32 64 40 65 33 66 39 67
REMARK SMILES IDX 41 68 38 69 34 70 35 71 36 72 37 73 63 74 64 75 72 76 65 77
REMARK SMILES IDX 71 78 73 79 70 80 66 81 67 82 68 83 69 84 48 85 49 86 57 87
REMARK SMILES IDX 50 88 56 89 58 90 55 91 51 92 52 93 53 94 54 95
REMARK H PARENT 12 8 8 24 19 29 78 48 46 59
REMARK Flexibility Score: inf
ROOT
ATOM      1  C   UNL A   1      31.879  29.754  26.923  1.00  0.00     0.002 C 
ENDROOT
BRANCH   1   2
ATOM      2  C   UNL A   1      33.233  29.094  27.166  1.00  0.00     0.002 C 
BRANCH   2   3
ATOM      3  C   UNL A   1      34.061  28.698  25.941  1.00  0.00     0.021 C 
BRANCH   3   4
ATOM      4  C   UNL A   1      33.380  28.612  24.565  1.00  0.00     0.116 C 
BRANCH   4   5
ATOM      5  N   UNL A   1      33.907  27.622  23.644  1.00  0.00    -0.354 N 
ATOM      6  C   UNL A   1      33.354  26.608  22.928  1.00  0.00     0.246 C 
ATOM      7  O   UNL A   1      34.039  26.224  21.966  1.00  0.00    -0.272 OA
ATOM      8  H   UNL A   1      34.878  27.703  23.509  1.00  0.00     0.163 HD
BRANCH   6   9
ATOM      9  C   UNL A   1      31.961  25.959  23.187  1.00  0.00     0.130 C 
ATOM     10  C   UNL A   1      31.281  26.014  24.569  1.00  0.00     0.050 C 
ATOM     11  C   UNL A   1      31.047  26.717  22.171  1.00  0.00     0.108 C 
ATOM     12  C   UNL A   1      29.818  26.412  24.447  1.00  0.00     0.072 C 
ATOM     13  S   UNL A   1      29.809  27.621  23.126  1.00  0.00    -0.159 SA
BRANCH   9  14
ATOM     14  N   UNL A   1      32.059  24.520  22.775  1.00  0.00    -0.323 N 
ATOM     15  C   UNL A   1      37.481  23.506  25.484  1.00  0.00     0.008 C 
ATOM     16  C   UNL A   1      35.984  23.210  25.563  1.00  0.00    -0.011 C 
ATOM     17  C   UNL A   1      35.551  22.112  24.579  1.00  0.00     0.025 C 
ATOM     18  C   UNL A   1      35.190  24.481  25.268  1.00  0.00     0.025 C 
ATOM     19  C   UNL A   1      34.021  21.932  24.549  1.00  0.00     0.121 C 
ATOM     20  C   UNL A   1      33.692  24.191  25.358  1.00  0.00     0.121 C 
ATOM     21  N   UNL A   1      33.331  23.216  24.344  1.00  0.00    -0.325 N 
ATOM     22  C   UNL A   1      32.545  23.355  23.239  1.00  0.00     0.318 C 
ATOM     23  O   UNL A   1      32.243  22.379  22.540  1.00  0.00    -0.249 OA
ATOM     24  H   UNL A   1      31.639  24.388  21.894  1.00  0.00     0.166 HD
ENDBRANCH   9  14
ENDBRANCH   6   9
ENDBRANCH   4   5
ENDBRANCH   3   4
ENDBRANCH   2   3
ENDBRANCH   1   2
BRANCH   1  25
ATOM     25  C   UNL A   1      31.944  31.245  26.602  1.00  0.00     0.021 C 
BRANCH  25  26
ATOM     26  C   UNL A   1      33.017  32.008  27.363  1.00  0.00     0.116 C 
BRANCH  26  27
ATOM     27  N   UNL A   1      32.693  33.415  27.522  1.00  0.00    -0.352 N 
ATOM     28  C   UNL A   1      33.215  34.302  28.438  1.00  0.00     0.251 C 
ATOM     29  H   UNL A   1      32.019  33.778  26.902  1.00  0.00     0.163 HD
ATOM     30  O   UNL A   1      32.733  35.415  28.571  1.00  0.00    -0.269 OA
BRANCH  28  31
ATOM     31  C   UNL A   1      34.349  33.856  29.280  1.00  0.00     0.039 A 
ATOM     32  C   UNL A   1      34.100  33.002  30.355  1.00  0.00     0.014 A 
ATOM     33  C   UNL A   1      35.657  34.226  28.952  1.00  0.00     0.014 A 
ATOM     34  C   UNL A   1      35.176  32.469  31.068  1.00  0.00     0.010 A 
ATOM     35  C   UNL A   1      36.727  33.632  29.614  1.00  0.00     0.010 A 
ATOM     36  C   UNL A   1      36.497  32.750  30.681  1.00  0.00    -0.014 A 
BRANCH  36  37
ATOM     37  C   UNL A   1      37.653  32.139  31.389  1.00  0.00     0.031 A 
ATOM     38  C   UNL A   1      38.414  31.011  30.744  1.00  0.00     0.074 A 
ATOM     39  C   UNL A   1      37.976  32.555  32.629  1.00  0.00     0.049 A 
ATOM     40  N   UNL A   1      39.406  30.304  31.220  1.00  0.00    -0.248 NA
ATOM     41  C   UNL A   1      37.975  30.605  29.400  1.00  0.00     0.031 C 
ATOM     42  C   UNL A   1      37.283  33.607  33.374  1.00  0.00     0.029 A 
ATOM     43  N   UNL A   1      38.966  32.142  33.485  1.00  0.00    -0.354 N 
ATOM     44  C   UNL A   1      39.704  29.364  30.238  1.00  0.00     0.074 A 
ATOM     45  C   UNL A   1      38.740  29.548  29.176  1.00  0.00     0.031 C 
ATOM     46  C   UNL A   1      37.886  33.774  34.563  1.00  0.00     0.029 A 
ATOM     47  C   UNL A   1      38.979  32.815  34.685  1.00  0.00     0.049 A 
ATOM     48  H   UNL A   1      39.608  31.429  33.262  1.00  0.00     0.167 HD
ATOM     49  C   UNL A   1      40.706  28.451  30.215  1.00  0.00     0.034 A 
ATOM     50  C   UNL A   1      39.775  32.670  35.763  1.00  0.00     0.034 A 
ATOM     51  C   UNL A   1      41.667  28.291  31.279  1.00  0.00     0.049 A 
ATOM     52  C   UNL A   1      40.869  31.633  35.725  1.00  0.00     0.074 A 
ATOM     53  C   UNL A   1      42.756  27.439  31.336  1.00  0.00     0.029 A 
ATOM     54  N   UNL A   1      41.649  28.992  32.478  1.00  0.00    -0.354 N 
ATOM     55  N   UNL A   1      41.175  30.789  34.765  1.00  0.00    -0.248 NA
ATOM     56  C   UNL A   1      41.734  31.538  36.907  1.00  0.00     0.031 C 
ATOM     57  C   UNL A   1      43.354  27.575  32.594  1.00  0.00     0.029 A 
ATOM     58  C   UNL A   1      42.688  28.569  33.294  1.00  0.00     0.049 A 
ATOM     59  H   UNL A   1      40.995  29.688  32.715  1.00  0.00     0.167 HD
ATOM     60  C   UNL A   1      42.287  30.086  35.218  1.00  0.00     0.074 A 
ATOM     61  C   UNL A   1      42.606  30.614  36.529  1.00  0.00     0.031 C 
ATOM     62  C   UNL A   1      42.988  29.098  34.604  1.00  0.00     0.034 A 
BRANCH  49  63
ATOM     63  C   UNL A   1      40.790  27.544  29.009  1.00  0.00     0.023 A 
ATOM     64  C   UNL A   1      41.752  27.743  28.001  1.00  0.00     0.031 A 
ATOM     65  C   UNL A   1      39.878  26.487  28.845  1.00  0.00     0.131 A 
ATOM     66  C   UNL A   1      41.725  26.955  26.840  1.00  0.00     0.055 A 
ATOM     67  C   UNL A   1      39.912  25.650  27.727  1.00  0.00     0.041 A 
ATOM     68  F   UNL A   1      38.924  26.259  29.761  1.00  0.00    -0.206 F 
ATOM     69  C   UNL A   1      40.829  25.893  26.709  1.00  0.00     0.022 A 
BRANCH  66  70
ATOM     70  S   UNL A   1      42.774  27.442  25.443  1.00  0.00     0.124 S 
ATOM     71  O   UNL A   1      44.027  27.772  26.118  1.00  0.00    -0.237 OA
ATOM     72  O   UNL A   1      42.787  26.237  24.623  1.00  0.00    -0.237 OA
ATOM     73  O   UNL A   1      42.067  28.584  24.866  1.00  0.00    -0.744 OA
ENDBRANCH  66  70
ENDBRANCH  49  63
BRANCH  50  74
ATOM     74  C   UNL A   1      39.570  33.517  36.973  1.00  0.00     0.023 A 
ATOM     75  C   UNL A   1      38.972  32.995  38.130  1.00  0.00     0.031 A 
ATOM     76  C   UNL A   1      39.938  34.875  36.977  1.00  0.00     0.131 A 
ATOM     77  C   UNL A   1      38.717  33.833  39.227  1.00  0.00     0.055 A 
ATOM     78  C   UNL A   1      39.731  35.692  38.089  1.00  0.00     0.041 A 
ATOM     79  F   UNL A   1      40.520  35.424  35.899  1.00  0.00    -0.206 F 
ATOM     80  C   UNL A   1      39.104  35.175  39.219  1.00  0.00     0.022 A 
BRANCH  77  81
ATOM     81  S   UNL A   1      37.795  33.163  40.637  1.00  0.00     0.124 S 
ATOM     82  O   UNL A   1      36.466  32.983  40.065  1.00  0.00    -0.237 OA
ATOM     83  O   UNL A   1      38.538  31.941  40.931  1.00  0.00    -0.237 OA
ATOM     84  O   UNL A   1      37.905  34.214  41.647  1.00  0.00    -0.744 OA
ENDBRANCH  77  81
ENDBRANCH  50  74
BRANCH  62  85
ATOM     85  C   UNL A   1      44.196  28.560  35.329  1.00  0.00     0.023 A 
ATOM     86  C   UNL A   1      44.087  27.568  36.319  1.00  0.00     0.031 A 
ATOM     87  C   UNL A   1      45.478  29.051  35.022  1.00  0.00     0.131 A 
ATOM     88  C   UNL A   1      45.233  27.138  37.004  1.00  0.00     0.055 A 
ATOM     89  C   UNL A   1      46.621  28.576  35.665  1.00  0.00     0.041 A 
ATOM     90  F   UNL A   1      45.640  30.001  34.086  1.00  0.00    -0.206 F 
ATOM     91  C   UNL A   1      46.501  27.622  36.671  1.00  0.00     0.022 A 
BRANCH  88  92
ATOM     92  S   UNL A   1      45.036  25.994  38.399  1.00  0.00     0.124 S 
ATOM     93  O   UNL A   1      44.040  26.680  39.215  1.00  0.00    -0.237 OA
ATOM     94  O   UNL A   1      44.588  24.772  37.740  1.00  0.00    -0.237 OA
ATOM     95  O   UNL A   1      46.376  25.929  38.981  1.00  0.00    -0.744 OA
ENDBRANCH  88  92
ENDBRANCH  62  85
ENDBRANCH  36  37
ENDBRANCH  28  31
ENDBRANCH  26  27
ENDBRANCH  25  26
ENDBRANCH   1  25
TORSDOF 17
ENDMDL
MODEL 2
REMARK VINA RESULT:     -11.6      5.559     11.370
REMARK SMILES CC1CCN(C(=O)N[C@]2(C(=O)NCCCCCCNC(=O)c3ccc(-c4c5nc(c(-c6cc(S(=O)(=O)[O-])ccc6F)c6ccc([nH]6)c(-c6cc(S(=O)(=O)[O-])ccc6F)c6nc(c(-c7cc(S(=O)(=O)[O-])ccc7F)c7ccc4[nH]7)C=C6)C=C5)cc3)CCSC2)CC1
REMARK SMILES IDX 16 1 15 2 14 3 13 4 12 5 10 6 11 7 9 9 85 10 88 11 86 12
REMARK SMILES IDX 87 13 8 14 1 15 2 16 3 17 90 18 4 19 89 20 5 21 6 22 7 23
REMARK SMILES IDX 17 25 18 26 19 27 20 28 21 30 22 31 23 32 84 33 24 34 83 35
REMARK SMILES IDX 25 36 26 37 27 38 77 39 28 40 82 41 76 42 78 43 29 44 81 45
REMARK SMILES IDX 75 46 74 47 30 49 62 50 42 51 61 52 43 53 46 54 60 55 79 56
REMARK SMILES IDX 44 57 45 58 59 60 80 61 47 62 31 63 32 64 40 65 33 66 39 67
REMARK SMILES IDX 41 68 38 69 34 70 35 71 36 72 37 73 63 74 64 75 72 76 65 77
REMARK SMILES IDX 71 78 73 79 70 80 66 81 67 82 68 83 69 84 48 85 49 86 57 87
REMARK SMILES IDX 50 88 56 89 58 90 55 91 51 92 52 93 53 94 54 95
REMARK H PARENT 12 8 8 24 19 29 78 48 46 59
REMARK Flexibility Score: inf
ROOT
ATOM      1  C   UNL A   1      37.050  22.084  24.313  1.00  0.00     0.002 C 
ENDROOT
BRANCH   1   2
ATOM      2  C   UNL A   1      37.292  23.373  25.094  1.00  0.00     0.002 C 
BRANCH   2   3
ATOM      3  C   UNL A   1      36.294  23.732  26.198  1.00  0.00     0.021 C 
BRANCH   3   4
ATOM      4  C   UNL A   1      35.043  22.861  26.398  1.00  0.00     0.116 C 
BRANCH   4   5
ATOM      5  N   UNL A   1      33.869  23.529  26.928  1.00  0.00    -0.354 N 
ATOM      6  C   UNL A   1      32.590  23.679  26.495  1.00  0.00     0.246 C 
ATOM      7  O   UNL A   1      31.777  23.979  27.384  1.00  0.00    -0.272 OA
ATOM      8  H   UNL A   1      34.036  23.970  27.792  1.00  0.00     0.163 HD
BRANCH   6   9
ATOM      9  C   UNL A   1      32.087  23.460  25.036  1.00  0.00     0.130 C 
ATOM     10  C   UNL A   1      33.037  23.544  23.826  1.00  0.00     0.050 C 
ATOM     11  C   UNL A   1      31.513  22.007  25.098  1.00  0.00     0.108 C 
ATOM     12  C   UNL A   1      32.824  22.373  22.877  1.00  0.00     0.072 C 
ATOM     13  S   UNL A   1      32.486  20.992  23.965  1.00  0.00    -0.159 SA
BRANCH   9  14
ATOM     14  N   UNL A   1      30.958  24.421  24.807  1.00  0.00    -0.323 N 
ATOM     15  C   UNL A   1      33.820  29.275  27.260  1.00  0.00     0.008 C 
ATOM     16  C   UNL A   1      33.338  28.655  25.950  1.00  0.00    -0.011 C 
ATOM     17  C   UNL A   1      31.831  28.853  25.725  1.00  0.00     0.025 C 
ATOM     18  C   UNL A   1      33.649  27.159  25.941  1.00  0.00     0.025 C 
ATOM     19  C   UNL A   1      31.326  28.089  24.486  1.00  0.00     0.121 C 
ATOM     20  C   UNL A   1      33.180  26.537  24.627  1.00  0.00     0.121 C 
ATOM     21  N   UNL A   1      31.738  26.677  24.518  1.00  0.00    -0.325 N 
ATOM     22  C   UNL A   1      30.765  25.722  24.527  1.00  0.00     0.318 C 
ATOM     23  O   UNL A   1      29.582  26.009  24.301  1.00  0.00    -0.249 OA
ATOM     24  H   UNL A   1      30.093  23.957  24.887  1.00  0.00     0.166 HD
ENDBRANCH   9  14
ENDBRANCH   6   9
ENDBRANCH   4   5
ENDBRANCH   3   4
ENDBRANCH   2   3
ENDBRANCH   1   2
BRANCH   1  25
ATOM     25  C   UNL A   1      37.703  20.842  24.913  1.00  0.00     0.021 C 
BRANCH  25  26
ATOM     26  C   UNL A   1      38.932  21.124  25.764  1.00  0.00     0.116 C 
BRANCH  26  27
ATOM     27  N   UNL A   1      39.755  19.943  25.963  1.00  0.00    -0.352 N 
ATOM     28  C   UNL A   1      41.109  19.891  26.210  1.00  0.00     0.251 C 
ATOM     29  H   UNL A   1      39.289  19.077  25.916  1.00  0.00     0.163 HD
ATOM     30  O   UNL A   1      41.705  18.826  26.191  1.00  0.00    -0.269 OA
BRANCH  28  31
ATOM     31  C   UNL A   1      41.826  21.163  26.459  1.00  0.00     0.039 A 
ATOM     32  C   UNL A   1      42.163  21.975  25.375  1.00  0.00     0.014 A 
ATOM     33  C   UNL A   1      42.093  21.576  27.768  1.00  0.00     0.014 A 
ATOM     34  C   UNL A   1      42.716  23.235  25.610  1.00  0.00     0.010 A 
ATOM     35  C   UNL A   1      42.570  22.862  28.000  1.00  0.00     0.010 A 
ATOM     36  C   UNL A   1      42.889  23.704  26.923  1.00  0.00    -0.014 A 
BRANCH  36  37
ATOM     37  C   UNL A   1      43.415  25.068  27.191  1.00  0.00     0.031 A 
ATOM     38  C   UNL A   1      42.502  26.126  27.748  1.00  0.00     0.074 A 
ATOM     39  C   UNL A   1      44.690  25.369  26.876  1.00  0.00     0.049 A 
ATOM     40  N   UNL A   1      42.747  27.388  27.991  1.00  0.00    -0.248 NA
ATOM     41  C   UNL A   1      41.119  25.716  28.038  1.00  0.00     0.031 C 
ATOM     42  C   UNL A   1      45.657  24.440  26.287  1.00  0.00     0.029 A 
ATOM     43  N   UNL A   1      45.394  26.541  27.001  1.00  0.00    -0.354 N 
ATOM     44  C   UNL A   1      41.549  27.924  28.452  1.00  0.00     0.074 A 
ATOM     45  C   UNL A   1      40.564  26.866  28.386  1.00  0.00     0.031 C 
ATOM     46  C   UNL A   1      46.832  25.071  26.129  1.00  0.00     0.029 A 
ATOM     47  C   UNL A   1      46.695  26.457  26.561  1.00  0.00     0.049 A 
ATOM     48  H   UNL A   1      45.003  27.366  27.371  1.00  0.00     0.167 HD
ATOM     49  C   UNL A   1      41.301  29.174  28.914  1.00  0.00     0.034 A 
ATOM     50  C   UNL A   1      47.663  27.393  26.505  1.00  0.00     0.034 A 
ATOM     51  C   UNL A   1      42.300  30.213  28.985  1.00  0.00     0.049 A 
ATOM     52  C   UNL A   1      47.360  28.784  27.003  1.00  0.00     0.074 A 
ATOM     53  C   UNL A   1      42.175  31.496  29.487  1.00  0.00     0.029 A 
ATOM     54  N   UNL A   1      43.608  30.091  28.532  1.00  0.00    -0.354 N 
ATOM     55  N   UNL A   1      46.236  29.261  27.490  1.00  0.00    -0.248 NA
ATOM     56  C   UNL A   1      48.457  29.758  26.958  1.00  0.00     0.031 C 
ATOM     57  C   UNL A   1      43.383  32.170  29.276  1.00  0.00     0.029 A 
ATOM     58  C   UNL A   1      44.289  31.285  28.714  1.00  0.00     0.049 A 
ATOM     59  H   UNL A   1      43.995  29.275  28.139  1.00  0.00     0.167 HD
ATOM     60  C   UNL A   1      46.504  30.582  27.837  1.00  0.00     0.074 A 
ATOM     61  C   UNL A   1      47.897  30.821  27.517  1.00  0.00     0.031 C 
ATOM     62  C   UNL A   1      45.676  31.511  28.380  1.00  0.00     0.034 A 
BRANCH  49  63
ATOM     63  C   UNL A   1      39.889  29.485  29.352  1.00  0.00     0.023 A 
ATOM     64  C   UNL A   1      39.543  29.589  30.712  1.00  0.00     0.031 A 
ATOM     65  C   UNL A   1      38.865  29.647  28.401  1.00  0.00     0.131 A 
ATOM     66  C   UNL A   1      38.201  29.761  31.083  1.00  0.00     0.055 A 
ATOM     67  C   UNL A   1      37.545  29.906  28.776  1.00  0.00     0.041 A 
ATOM     68  F   UNL A   1      39.128  29.538  27.090  1.00  0.00    -0.206 F 
ATOM     69  C   UNL A   1      37.204  29.948  30.125  1.00  0.00     0.022 A 
BRANCH  66  70
ATOM     70  S   UNL A   1      37.761  29.580  32.833  1.00  0.00     0.124 S 
ATOM     71  O   UNL A   1      36.663  30.536  32.960  1.00  0.00    -0.237 OA
ATOM     72  O   UNL A   1      37.396  28.172  32.925  1.00  0.00    -0.237 OA
ATOM     73  O   UNL A   1      38.987  29.956  33.536  1.00  0.00    -0.744 OA
ENDBRANCH  66  70
ENDBRANCH  49  63
BRANCH  50  74
ATOM     74  C   UNL A   1      49.007  27.057  25.954  1.00  0.00     0.023 A 
ATOM     75  C   UNL A   1      49.379  27.452  24.660  1.00  0.00     0.031 A 
ATOM     76  C   UNL A   1      49.930  26.304  26.703  1.00  0.00     0.131 A 
ATOM     77  C   UNL A   1      50.619  27.055  24.134  1.00  0.00     0.055 A 
ATOM     78  C   UNL A   1      51.183  25.956  26.196  1.00  0.00     0.041 A 
ATOM     79  F   UNL A   1      49.628  25.906  27.949  1.00  0.00    -0.206 F 
ATOM     80  C   UNL A   1      51.528  26.320  24.898  1.00  0.00     0.022 A 
BRANCH  77  81
ATOM     81  S   UNL A   1      50.992  27.442  22.402  1.00  0.00     0.124 S 
ATOM     82  O   UNL A   1      49.928  26.733  21.702  1.00  0.00    -0.237 OA
ATOM     83  O   UNL A   1      50.907  28.900  22.394  1.00  0.00    -0.237 OA
ATOM     84  O   UNL A   1      52.336  26.898  22.214  1.00  0.00    -0.744 OA
ENDBRANCH  77  81
ENDBRANCH  50  74
BRANCH  62  85
ATOM     85  C   UNL A   1      46.274  32.859  28.702  1.00  0.00     0.023 A 
ATOM     86  C   UNL A   1      46.200  33.938  27.804  1.00  0.00     0.031 A 
ATOM     87  C   UNL A   1      46.930  33.063  29.929  1.00  0.00     0.131 A 
ATOM     88  C   UNL A   1      46.817  35.156  28.124  1.00  0.00     0.055 A 
ATOM     89  C   UNL A   1      47.491  34.294  30.267  1.00  0.00     0.041 A 
ATOM     90  F   UNL A   1      47.032  32.066  30.823  1.00  0.00    -0.206 F 
ATOM     91  C   UNL A   1      47.447  35.347  29.357  1.00  0.00     0.022 A 
BRANCH  88  92
ATOM     92  S   UNL A   1      46.862  36.466  26.870  1.00  0.00     0.124 S 
ATOM     93  O   UNL A   1      47.387  35.756  25.708  1.00  0.00    -0.237 OA
ATOM     94  O   UNL A   1      45.462  36.870  26.791  1.00  0.00    -0.237 OA
ATOM     95  O   UNL A   1      47.763  37.463  27.448  1.00  0.00    -0.744 OA
ENDBRANCH  88  92
ENDBRANCH  62  85
ENDBRANCH  36  37
ENDBRANCH  28  31
ENDBRANCH  26  27
ENDBRANCH  25  26
ENDBRANCH   1  25
TORSDOF 17
ENDMDL
MODEL 3
REMARK VINA RESULT:     -11.5      1.299      1.649
REMARK SMILES CC1CCN(C(=O)N[C@]2(C(=O)NCCCCCCNC(=O)c3ccc(-c4c5nc(c(-c6cc(S(=O)(=O)[O-])ccc6F)c6ccc([nH]6)c(-c6cc(S(=O)(=O)[O-])ccc6F)c6nc(c(-c7cc(S(=O)(=O)[O-])ccc7F)c7ccc4[nH]7)C=C6)C=C5)cc3)CCSC2)CC1
REMARK SMILES IDX 16 1 15 2 14 3 13 4 12 5 10 6 11 7 9 9 85 10 88 11 86 12
REMARK SMILES IDX 87 13 8 14 1 15 2 16 3 17 90 18 4 19 89 20 5 21 6 22 7 23
REMARK SMILES IDX 17 25 18 26 19 27 20 28 21 30 22 31 23 32 84 33 24 34 83 35
REMARK SMILES IDX 25 36 26 37 27 38 77 39 28 40 82 41 76 42 78 43 29 44 81 45
REMARK SMILES IDX 75 46 74 47 30 49 62 50 42 51 61 52 43 53 46 54 60 55 79 56
REMARK SMILES IDX 44 57 45 58 59 60 80 61 47 62 31 63 32 64 40 65 33 66 39 67
REMARK SMILES IDX 41 68 38 69 34 70 35 71 36 72 37 73 63 74 64 75 72 76 65 77
REMARK SMILES IDX 71 78 73 79 70 80 66 81 67 82 68 83 69 84 48 85 49 86 57 87
REMARK SMILES IDX 50 88 56 89 58 90 55 91 51 92 52 93 53 94 54 95
REMARK H PARENT 12 8 8 24 19 29 78 48 46 59
REMARK Flexibility Score: inf
ROOT
ATOM      1  C   UNL A   1      31.624  30.453  26.590  1.00  0.00     0.002 C 
ENDROOT
BRANCH   1   2
ATOM      2  C   UNL A   1      32.962  29.895  27.069  1.00  0.00     0.002 C 
BRANCH   2   3
ATOM      3  C   UNL A   1      33.881  29.258  26.024  1.00  0.00     0.021 C 
BRANCH   3   4
ATOM      4  C   UNL A   1      33.628  27.807  25.579  1.00  0.00     0.116 C 
BRANCH   4   5
ATOM      5  N   UNL A   1      34.030  27.466  24.228  1.00  0.00    -0.354 N 
ATOM      6  C   UNL A   1      33.402  26.886  23.172  1.00  0.00     0.246 C 
ATOM      7  O   UNL A   1      33.935  27.105  22.072  1.00  0.00    -0.272 OA
ATOM      8  H   UNL A   1      34.965  27.708  24.033  1.00  0.00     0.163 HD
BRANCH   6   9
ATOM      9  C   UNL A   1      32.090  26.047  23.237  1.00  0.00     0.130 C 
ATOM     10  C   UNL A   1      31.362  25.775  24.567  1.00  0.00     0.050 C 
ATOM     11  C   UNL A   1      31.126  26.869  22.320  1.00  0.00     0.108 C 
ATOM     12  C   UNL A   1      29.866  26.021  24.437  1.00  0.00     0.072 C 
ATOM     13  S   UNL A   1      29.756  27.440  23.350  1.00  0.00    -0.159 SA
BRANCH   9  14
ATOM     14  N   UNL A   1      32.375  24.727  22.584  1.00  0.00    -0.323 N 
ATOM     15  C   UNL A   1      37.531  23.620  25.741  1.00  0.00     0.008 C 
ATOM     16  C   UNL A   1      36.071  23.203  25.569  1.00  0.00    -0.011 C 
ATOM     17  C   UNL A   1      35.861  22.286  24.354  1.00  0.00     0.025 C 
ATOM     18  C   UNL A   1      35.194  24.443  25.412  1.00  0.00     0.025 C 
ATOM     19  C   UNL A   1      34.370  22.001  24.095  1.00  0.00     0.121 C 
ATOM     20  C   UNL A   1      33.731  24.030  25.253  1.00  0.00     0.121 C 
ATOM     21  N   UNL A   1      33.585  23.245  24.040  1.00  0.00    -0.325 N 
ATOM     22  C   UNL A   1      32.918  23.534  22.887  1.00  0.00     0.318 C 
ATOM     23  O   UNL A   1      32.794  22.692  21.988  1.00  0.00    -0.249 OA
ATOM     24  H   UNL A   1      32.072  24.736  21.648  1.00  0.00     0.166 HD
ENDBRANCH   9  14
ENDBRANCH   6   9
ENDBRANCH   4   5
ENDBRANCH   3   4
ENDBRANCH   2   3
ENDBRANCH   1   2
BRANCH   1  25
ATOM     25  C   UNL A   1      31.447  31.953  26.801  1.00  0.00     0.021 C 
BRANCH  25  26
ATOM     26  C   UNL A   1      32.747  32.728  26.952  1.00  0.00     0.116 C 
BRANCH  26  27
ATOM     27  N   UNL A   1      32.549  34.038  27.548  1.00  0.00    -0.352 N 
ATOM     28  C   UNL A   1      33.203  34.578  28.634  1.00  0.00     0.251 C 
ATOM     29  H   UNL A   1      31.865  34.608  27.126  1.00  0.00     0.163 HD
ATOM     30  O   UNL A   1      32.822  35.624  29.133  1.00  0.00    -0.269 OA
BRANCH  28  31
ATOM     31  C   UNL A   1      34.353  33.835  29.201  1.00  0.00     0.039 A 
ATOM     32  C   UNL A   1      35.647  34.272  28.919  1.00  0.00     0.014 A 
ATOM     33  C   UNL A   1      34.137  32.758  30.066  1.00  0.00     0.014 A 
ATOM     34  C   UNL A   1      36.729  33.662  29.557  1.00  0.00     0.010 A 
ATOM     35  C   UNL A   1      35.210  32.207  30.759  1.00  0.00     0.010 A 
ATOM     36  C   UNL A   1      36.518  32.651  30.509  1.00  0.00    -0.014 A 
BRANCH  36  37
ATOM     37  C   UNL A   1      37.654  32.037  31.246  1.00  0.00     0.031 A 
ATOM     38  C   UNL A   1      38.445  30.927  30.609  1.00  0.00     0.074 A 
ATOM     39  C   UNL A   1      37.931  32.435  32.503  1.00  0.00     0.049 A 
ATOM     40  N   UNL A   1      39.427  30.219  31.107  1.00  0.00    -0.248 NA
ATOM     41  C   UNL A   1      38.057  30.540  29.244  1.00  0.00     0.031 C 
ATOM     42  C   UNL A   1      37.204  33.469  33.241  1.00  0.00     0.029 A 
ATOM     43  N   UNL A   1      38.895  32.015  33.385  1.00  0.00    -0.354 N 
ATOM     44  C   UNL A   1      39.766  29.298  30.121  1.00  0.00     0.074 A 
ATOM     45  C   UNL A   1      38.837  29.492  29.029  1.00  0.00     0.031 C 
ATOM     46  C   UNL A   1      37.765  33.621  34.453  1.00  0.00     0.029 A 
ATOM     47  C   UNL A   1      38.860  32.668  34.596  1.00  0.00     0.049 A 
ATOM     48  H   UNL A   1      39.549  31.311  33.173  1.00  0.00     0.167 HD
ATOM     49  C   UNL A   1      40.775  28.393  30.117  1.00  0.00     0.034 A 
ATOM     50  C   UNL A   1      39.620  32.511  35.698  1.00  0.00     0.034 A 
ATOM     51  C   UNL A   1      41.701  28.223  31.211  1.00  0.00     0.049 A 
ATOM     52  C   UNL A   1      40.723  31.484  35.681  1.00  0.00     0.074 A 
ATOM     53  C   UNL A   1      42.794  27.378  31.291  1.00  0.00     0.029 A 
ATOM     54  N   UNL A   1      41.636  28.903  32.420  1.00  0.00    -0.354 N 
ATOM     55  N   UNL A   1      41.069  30.658  34.719  1.00  0.00    -0.248 NA
ATOM     56  C   UNL A   1      41.549  31.375  36.890  1.00  0.00     0.031 C 
ATOM     57  C   UNL A   1      43.348  27.498  32.571  1.00  0.00     0.029 A 
ATOM     58  C   UNL A   1      42.650  28.474  33.263  1.00  0.00     0.049 A 
ATOM     59  H   UNL A   1      40.968  29.591  32.645  1.00  0.00     0.167 HD
ATOM     60  C   UNL A   1      42.171  29.956  35.198  1.00  0.00     0.074 A 
ATOM     61  C   UNL A   1      42.440  30.465  36.528  1.00  0.00     0.031 C 
ATOM     62  C   UNL A   1      42.900  28.984  34.592  1.00  0.00     0.034 A 
BRANCH  49  63
ATOM     63  C   UNL A   1      40.909  27.508  28.900  1.00  0.00     0.023 A 
ATOM     64  C   UNL A   1      41.916  27.718  27.940  1.00  0.00     0.031 A 
ATOM     65  C   UNL A   1      39.998  26.459  28.676  1.00  0.00     0.131 A 
ATOM     66  C   UNL A   1      41.936  26.951  26.765  1.00  0.00     0.055 A 
ATOM     67  C   UNL A   1      40.078  25.642  27.546  1.00  0.00     0.041 A 
ATOM     68  F   UNL A   1      39.003  26.222  29.544  1.00  0.00    -0.206 F 
ATOM     69  C   UNL A   1      41.041  25.897  26.574  1.00  0.00     0.022 A 
BRANCH  66  70
ATOM     70  S   UNL A   1      43.050  27.455  25.425  1.00  0.00     0.124 S 
ATOM     71  O   UNL A   1      43.327  26.176  24.777  1.00  0.00    -0.237 OA
ATOM     72  O   UNL A   1      42.230  28.393  24.668  1.00  0.00    -0.237 OA
ATOM     73  O   UNL A   1      44.187  28.046  26.130  1.00  0.00    -0.744 OA
ENDBRANCH  66  70
ENDBRANCH  49  63
BRANCH  50  74
ATOM     74  C   UNL A   1      39.367  33.336  36.915  1.00  0.00     0.023 A 
ATOM     75  C   UNL A   1      40.062  34.535  37.134  1.00  0.00     0.031 A 
ATOM     76  C   UNL A   1      38.449  32.918  37.895  1.00  0.00     0.131 A 
ATOM     77  C   UNL A   1      39.866  35.252  38.325  1.00  0.00     0.055 A 
ATOM     78  C   UNL A   1      38.217  33.661  39.054  1.00  0.00     0.041 A 
ATOM     79  F   UNL A   1      37.752  31.782  37.733  1.00  0.00    -0.206 F 
ATOM     80  C   UNL A   1      38.938  34.830  39.281  1.00  0.00     0.022 A 
BRANCH  77  81
ATOM     81  S   UNL A   1      40.902  36.705  38.646  1.00  0.00     0.124 S 
ATOM     82  O   UNL A   1      39.902  37.733  38.904  1.00  0.00    -0.237 OA
ATOM     83  O   UNL A   1      41.686  36.268  39.798  1.00  0.00    -0.237 OA
ATOM     84  O   UNL A   1      41.659  36.864  37.406  1.00  0.00    -0.744 OA
ENDBRANCH  77  81
ENDBRANCH  50  74
BRANCH  62  85
ATOM     85  C   UNL A   1      44.088  28.444  35.349  1.00  0.00     0.023 A 
ATOM     86  C   UNL A   1      43.949  27.455  36.339  1.00  0.00     0.031 A 
ATOM     87  C   UNL A   1      45.379  28.928  35.073  1.00  0.00     0.131 A 
ATOM     88  C   UNL A   1      45.075  27.022  37.055  1.00  0.00     0.055 A 
ATOM     89  C   UNL A   1      46.503  28.450  35.747  1.00  0.00     0.041 A 
ATOM     90  F   UNL A   1      45.569  29.873  34.138  1.00  0.00    -0.206 F 
ATOM     91  C   UNL A   1      46.354  27.500  36.752  1.00  0.00     0.022 A 
BRANCH  88  92
ATOM     92  S   UNL A   1      44.838  25.885  38.448  1.00  0.00     0.124 S 
ATOM     93  O   UNL A   1      44.045  24.822  37.839  1.00  0.00    -0.237 OA
ATOM     94  O   UNL A   1      46.209  25.534  38.801  1.00  0.00    -0.237 OA
ATOM     95  O   UNL A   1      44.131  26.697  39.438  1.00  0.00    -0.744 OA
ENDBRANCH  88  92
ENDBRANCH  62  85
ENDBRANCH  36  37
ENDBRANCH  28  31
ENDBRANCH  26  27
ENDBRANCH  25  26
ENDBRANCH   1  25
TORSDOF 17
ENDMDL
