MODEL 1
REMARK VINA RESULT:     -12.3      0.000      0.000
REMARK SMILES O=C(C[C@H](C(=O)NCCCCCCNC(=O)c1ccc(-c2c3nc(c(-c4cc(S(=O)(=O)[O-])ccc4F)c4ccc([nH]4)c(-c4cc(S(=O)(=O)[O-])ccc4F)c4nc(c(-c5cc(S(=O)(=O)[O-])ccc5F)c5ccc2[nH]5)C=C4)C=C3)cc1)c1ccccc1)Nc1ccc(Cl)cc1Cl
REMARK SMILES IDX 10 1 9 2 8 3 7 4 5 5 6 6 4 8 3 9 2 10 1 11 86 12 87 14 88 15
REMARK SMILES IDX 93 16 89 17 92 18 94 19 90 20 91 21 80 22 81 23 85 24 82 25
REMARK SMILES IDX 84 26 83 27 11 28 12 29 13 30 14 31 15 32 16 34 17 35 18 36
REMARK SMILES IDX 79 37 19 38 78 39 20 40 21 41 22 42 72 43 23 44 77 45 71 46
REMARK SMILES IDX 73 47 24 48 76 49 70 50 69 51 25 53 57 54 37 55 56 56 38 57
REMARK SMILES IDX 41 58 55 59 74 60 39 61 40 62 54 64 75 65 42 66 26 67 27 68
REMARK SMILES IDX 35 69 28 70 34 71 36 72 33 73 29 74 30 75 31 76 32 77 58 78
REMARK SMILES IDX 59 79 67 80 60 81 66 82 68 83 65 84 61 85 62 86 63 87 64 88
REMARK SMILES IDX 43 89 44 90 52 91 45 92 51 93 53 94 50 95 46 96 47 97 48 98
REMARK SMILES IDX 49 99
REMARK H PARENT 7 7 86 13 14 33 73 52 41 63
REMARK Flexibility Score: inf
ROOT
ATOM      1  C   UNL A   1      32.623  29.864  26.804  1.00  0.00     0.002 C 
ENDROOT
BRANCH   1   2
ATOM      2  C   UNL A   1      31.918  28.637  27.398  1.00  0.00     0.021 C 
BRANCH   2   3
ATOM      3  C   UNL A   1      32.415  27.313  26.815  1.00  0.00     0.116 C 
BRANCH   3   4
ATOM      4  N   UNL A   1      31.420  26.274  26.996  1.00  0.00    -0.356 N 
ATOM      5  C   UNL A   1      30.612  25.684  26.067  1.00  0.00     0.228 C 
ATOM      6  O   UNL A   1      29.642  25.049  26.482  1.00  0.00    -0.274 OA
ATOM      7  H   UNL A   1      31.313  25.948  27.919  1.00  0.00     0.163 HD
BRANCH   5   8
ATOM      8  C   UNL A   1      30.958  25.792  24.574  1.00  0.00     0.118 C 
BRANCH   8   9
ATOM      9  C   UNL A   1      30.565  24.507  23.828  1.00  0.00     0.118 C 
BRANCH   9  10
ATOM     10  C   UNL A   1      31.731  23.567  23.586  1.00  0.00     0.225 C 
ATOM     11  O   UNL A   1      32.090  23.256  22.454  1.00  0.00    -0.275 OA
ATOM     12  N   UNL A   1      32.331  23.108  24.746  1.00  0.00    -0.325 N 
ATOM     13  H   UNL A   1      31.841  23.212  25.593  1.00  0.00     0.169 HD
BRANCH  12  14
ATOM     14  C   UNL A   1      33.607  22.499  24.786  1.00  0.00     0.060 A 
ATOM     15  C   UNL A   1      33.629  21.100  24.884  1.00  0.00     0.029 A 
ATOM     16  C   UNL A   1      34.831  23.199  24.785  1.00  0.00     0.066 A 
ATOM     17  C   UNL A   1      34.844  20.407  24.902  1.00  0.00     0.023 A 
ATOM     18  C   UNL A   1      36.044  22.500  24.804  1.00  0.00     0.043 A 
ATOM     19  Cl  UNL A   1      34.945  24.916  24.985  1.00  0.00    -0.082 Cl
ATOM     20  C   UNL A   1      36.045  21.110  24.850  1.00  0.00     0.042 A 
ATOM     21  Cl  UNL A   1      37.538  20.257  24.887  1.00  0.00    -0.084 Cl
ENDBRANCH  12  14
ENDBRANCH   9  10
ENDBRANCH   8   9
BRANCH   8  22
ATOM     22  C   UNL A   1      30.283  26.990  23.911  1.00  0.00    -0.035 A 
ATOM     23  C   UNL A   1      28.902  26.999  23.662  1.00  0.00     0.004 A 
ATOM     24  C   UNL A   1      31.036  28.123  23.557  1.00  0.00     0.004 A 
ATOM     25  C   UNL A   1      28.288  28.125  23.107  1.00  0.00     0.000 A 
ATOM     26  C   UNL A   1      30.416  29.256  23.029  1.00  0.00     0.000 A 
ATOM     27  C   UNL A   1      29.041  29.258  22.806  1.00  0.00     0.000 A 
ENDBRANCH   8  22
ENDBRANCH   5   8
ENDBRANCH   3   4
ENDBRANCH   2   3
ENDBRANCH   1   2
BRANCH   1  28
ATOM     28  C   UNL A   1      31.699  30.832  26.056  1.00  0.00     0.002 C 
BRANCH  28  29
ATOM     29  C   UNL A   1      31.449  32.160  26.773  1.00  0.00     0.021 C 
BRANCH  29  30
ATOM     30  C   UNL A   1      32.696  32.777  27.399  1.00  0.00     0.116 C 
BRANCH  30  31
ATOM     31  N   UNL A   1      32.501  34.188  27.700  1.00  0.00    -0.352 N 
ATOM     32  C   UNL A   1      33.075  34.952  28.683  1.00  0.00     0.251 C 
ATOM     33  H   UNL A   1      31.867  34.661  27.114  1.00  0.00     0.163 HD
ATOM     34  O   UNL A   1      32.606  36.058  28.947  1.00  0.00    -0.269 OA
BRANCH  32  35
ATOM     35  C   UNL A   1      34.242  34.436  29.430  1.00  0.00     0.039 A 
ATOM     36  C   UNL A   1      34.038  33.805  30.658  1.00  0.00     0.014 A 
ATOM     37  C   UNL A   1      35.535  34.579  28.920  1.00  0.00     0.014 A 
ATOM     38  C   UNL A   1      35.126  33.268  31.349  1.00  0.00     0.010 A 
ATOM     39  C   UNL A   1      36.608  33.975  29.570  1.00  0.00     0.010 A 
ATOM     40  C   UNL A   1      36.416  33.316  30.794  1.00  0.00    -0.014 A 
BRANCH  40  41
ATOM     41  C   UNL A   1      37.574  32.688  31.482  1.00  0.00     0.031 A 
ATOM     42  C   UNL A   1      38.298  31.534  30.842  1.00  0.00     0.074 A 
ATOM     43  C   UNL A   1      37.935  33.120  32.707  1.00  0.00     0.049 A 
ATOM     44  N   UNL A   1      39.283  30.812  31.311  1.00  0.00    -0.248 NA
ATOM     45  C   UNL A   1      37.832  31.120  29.509  1.00  0.00     0.031 C 
ATOM     46  C   UNL A   1      37.288  34.209  33.443  1.00  0.00     0.029 A 
ATOM     47  N   UNL A   1      38.930  32.696  33.553  1.00  0.00    -0.354 N 
ATOM     48  C   UNL A   1      39.547  29.853  30.338  1.00  0.00     0.074 A 
ATOM     49  C   UNL A   1      38.576  30.048  29.284  1.00  0.00     0.031 C 
ATOM     50  C   UNL A   1      37.923  34.387  34.612  1.00  0.00     0.029 A 
ATOM     51  C   UNL A   1      38.985  33.394  34.737  1.00  0.00     0.049 A 
ATOM     52  H   UNL A   1      39.547  31.961  33.333  1.00  0.00     0.167 HD
ATOM     53  C   UNL A   1      40.524  28.912  30.320  1.00  0.00     0.034 A 
ATOM     54  C   UNL A   1      39.790  33.243  35.809  1.00  0.00     0.034 A 
ATOM     55  C   UNL A   1      41.491  28.740  31.377  1.00  0.00     0.049 A 
ATOM     56  C   UNL A   1      40.842  32.163  35.779  1.00  0.00     0.074 A 
ATOM     57  C   UNL A   1      42.556  27.858  31.434  1.00  0.00     0.029 A 
ATOM     58  N   UNL A   1      41.505  29.455  32.569  1.00  0.00    -0.354 N 
ATOM     59  N   UNL A   1      41.112  31.298  34.829  1.00  0.00    -0.248 NA
ATOM     60  C   UNL A   1      41.703  32.045  36.963  1.00  0.00     0.031 C 
ATOM     61  C   UNL A   1      43.162  27.981  32.688  1.00  0.00     0.029 A 
ATOM     62  C   UNL A   1      42.535  29.005  33.382  1.00  0.00     0.049 A 
ATOM     63  H   UNL A   1      40.877  30.175  32.802  1.00  0.00     0.167 HD
ATOM     64  C   UNL A   1      42.200  30.558  35.288  1.00  0.00     0.074 A 
ATOM     65  C   UNL A   1      42.541  31.090  36.591  1.00  0.00     0.031 C 
ATOM     66  C   UNL A   1      42.860  29.536  34.685  1.00  0.00     0.034 A 
BRANCH  53  67
ATOM     67  C   UNL A   1      40.571  27.977  29.133  1.00  0.00     0.023 A 
ATOM     68  C   UNL A   1      41.514  28.135  28.101  1.00  0.00     0.031 A 
ATOM     69  C   UNL A   1      39.651  26.919  29.024  1.00  0.00     0.131 A 
ATOM     70  C   UNL A   1      41.466  27.301  26.974  1.00  0.00     0.055 A 
ATOM     71  C   UNL A   1      39.665  26.038  27.942  1.00  0.00     0.041 A 
ATOM     72  F   UNL A   1      38.713  26.730  29.966  1.00  0.00    -0.206 F 
ATOM     73  C   UNL A   1      40.567  26.234  26.900  1.00  0.00     0.022 A 
BRANCH  70  74
ATOM     74  S   UNL A   1      42.496  27.720  25.542  1.00  0.00     0.124 S 
ATOM     75  O   UNL A   1      42.320  26.540  24.698  1.00  0.00    -0.237 OA
ATOM     76  O   UNL A   1      41.879  28.949  25.058  1.00  0.00    -0.237 OA
ATOM     77  O   UNL A   1      43.833  27.874  26.114  1.00  0.00    -0.744 OA
ENDBRANCH  70  74
ENDBRANCH  53  67
BRANCH  54  78
ATOM     78  C   UNL A   1      39.635  34.122  37.004  1.00  0.00     0.023 A 
ATOM     79  C   UNL A   1      39.058  33.636  38.188  1.00  0.00     0.031 A 
ATOM     80  C   UNL A   1      40.011  35.477  36.965  1.00  0.00     0.131 A 
ATOM     81  C   UNL A   1      38.822  34.507  39.263  1.00  0.00     0.055 A 
ATOM     82  C   UNL A   1      39.832  36.326  38.060  1.00  0.00     0.041 A 
ATOM     83  F   UNL A   1      40.569  35.996  35.860  1.00  0.00    -0.206 F 
ATOM     84  C   UNL A   1      39.219  35.844  39.212  1.00  0.00     0.022 A 
BRANCH  81  85
ATOM     85  S   UNL A   1      37.893  33.889  40.693  1.00  0.00     0.124 S 
ATOM     86  O   UNL A   1      36.803  33.167  40.046  1.00  0.00    -0.237 OA
ATOM     87  O   UNL A   1      38.892  33.072  41.372  1.00  0.00    -0.237 OA
ATOM     88  O   UNL A   1      37.504  35.109  41.397  1.00  0.00    -0.744 OA
ENDBRANCH  81  85
ENDBRANCH  54  78
BRANCH  66  89
ATOM     89  C   UNL A   1      44.054  28.963  35.412  1.00  0.00     0.023 A 
ATOM     90  C   UNL A   1      43.922  27.938  36.366  1.00  0.00     0.031 A 
ATOM     91  C   UNL A   1      45.344  29.458  35.151  1.00  0.00     0.131 A 
ATOM     92  C   UNL A   1      45.049  27.486  37.067  1.00  0.00     0.055 A 
ATOM     93  C   UNL A   1      46.471  28.956  35.801  1.00  0.00     0.041 A 
ATOM     94  F   UNL A   1      45.531  30.439  34.254  1.00  0.00    -0.206 F 
ATOM     95  C   UNL A   1      46.326  27.973  36.776  1.00  0.00     0.022 A 
BRANCH  92  96
ATOM     96  S   UNL A   1      44.813  26.322  38.439  1.00  0.00     0.124 S 
ATOM     97  O   UNL A   1      45.706  26.868  39.455  1.00  0.00    -0.237 OA
ATOM     98  O   UNL A   1      43.385  26.446  38.712  1.00  0.00    -0.237 OA
ATOM     99  O   UNL A   1      45.226  25.039  37.875  1.00  0.00    -0.744 OA
ENDBRANCH  92  96
ENDBRANCH  66  89
ENDBRANCH  40  41
ENDBRANCH  32  35
ENDBRANCH  30  31
ENDBRANCH  29  30
ENDBRANCH  28  29
ENDBRANCH   1  28
TORSDOF 20
ENDMDL
MODEL 2
REMARK VINA RESULT:     -12.0      5.584     10.176
REMARK SMILES O=C(C[C@H](C(=O)NCCCCCCNC(=O)c1ccc(-c2c3nc(c(-c4cc(S(=O)(=O)[O-])ccc4F)c4ccc([nH]4)c(-c4cc(S(=O)(=O)[O-])ccc4F)c4nc(c(-c5cc(S(=O)(=O)[O-])ccc5F)c5ccc2[nH]5)C=C4)C=C3)cc1)c1ccccc1)Nc1ccc(Cl)cc1Cl
REMARK SMILES IDX 10 1 9 2 8 3 7 4 5 5 6 6 4 8 3 9 2 10 1 11 86 12 87 14 88 15
REMARK SMILES IDX 93 16 89 17 92 18 94 19 90 20 91 21 80 22 81 23 85 24 82 25
REMARK SMILES IDX 84 26 83 27 11 28 12 29 13 30 14 31 15 32 16 34 17 35 18 36
REMARK SMILES IDX 79 37 19 38 78 39 20 40 21 41 22 42 72 43 23 44 77 45 71 46
REMARK SMILES IDX 73 47 24 48 76 49 70 50 69 51 25 53 57 54 37 55 56 56 38 57
REMARK SMILES IDX 41 58 55 59 74 60 39 61 40 62 54 64 75 65 42 66 26 67 27 68
REMARK SMILES IDX 35 69 28 70 34 71 36 72 33 73 29 74 30 75 31 76 32 77 58 78
REMARK SMILES IDX 59 79 67 80 60 81 66 82 68 83 65 84 61 85 62 86 63 87 64 88
REMARK SMILES IDX 43 89 44 90 52 91 45 92 51 93 53 94 50 95 46 96 47 97 48 98
REMARK SMILES IDX 49 99
REMARK H PARENT 7 7 86 13 14 33 73 52 41 63
REMARK Flexibility Score: inf
ROOT
ATOM      1  C   UNL A   1      35.638  24.496  24.831  1.00  0.00     0.002 C 
ENDROOT
BRANCH   1   2
ATOM      2  C   UNL A   1      34.450  24.919  25.705  1.00  0.00     0.021 C 
BRANCH   2   3
ATOM      3  C   UNL A   1      34.034  26.377  25.496  1.00  0.00     0.116 C 
BRANCH   3   4
ATOM      4  N   UNL A   1      33.125  26.800  26.543  1.00  0.00    -0.356 N 
ATOM      5  C   UNL A   1      31.765  26.912  26.510  1.00  0.00     0.228 C 
ATOM      6  O   UNL A   1      31.229  27.570  27.400  1.00  0.00    -0.274 OA
ATOM      7  H   UNL A   1      33.549  27.042  27.399  1.00  0.00     0.163 HD
BRANCH   5   8
ATOM      8  C   UNL A   1      30.965  26.190  25.413  1.00  0.00     0.118 C 
BRANCH   8   9
ATOM      9  C   UNL A   1      29.976  25.188  26.029  1.00  0.00     0.118 C 
BRANCH   9  10
ATOM     10  C   UNL A   1      30.595  23.837  26.335  1.00  0.00     0.225 C 
ATOM     11  O   UNL A   1      30.152  23.104  27.213  1.00  0.00    -0.275 OA
ATOM     12  N   UNL A   1      31.687  23.528  25.542  1.00  0.00    -0.325 N 
ATOM     13  H   UNL A   1      32.116  24.256  25.038  1.00  0.00     0.169 HD
BRANCH  12  14
ATOM     14  C   UNL A   1      32.222  22.224  25.410  1.00  0.00     0.060 A 
ATOM     15  C   UNL A   1      31.852  21.511  24.260  1.00  0.00     0.029 A 
ATOM     16  C   UNL A   1      33.044  21.593  26.365  1.00  0.00     0.066 A 
ATOM     17  C   UNL A   1      32.353  20.226  24.029  1.00  0.00     0.023 A 
ATOM     18  C   UNL A   1      33.542  20.307  26.129  1.00  0.00     0.043 A 
ATOM     19  Cl  UNL A   1      33.317  22.229  27.954  1.00  0.00    -0.082 Cl
ATOM     20  C   UNL A   1      33.204  19.635  24.959  1.00  0.00     0.042 A 
ATOM     21  Cl  UNL A   1      33.808  18.049  24.679  1.00  0.00    -0.084 Cl
ENDBRANCH  12  14
ENDBRANCH   9  10
ENDBRANCH   8   9
BRANCH   8  22
ATOM     22  C   UNL A   1      30.207  27.165  24.516  1.00  0.00    -0.035 A 
ATOM     23  C   UNL A   1      30.814  28.339  24.044  1.00  0.00     0.004 A 
ATOM     24  C   UNL A   1      28.885  26.889  24.125  1.00  0.00     0.004 A 
ATOM     25  C   UNL A   1      30.128  29.194  23.178  1.00  0.00     0.000 A 
ATOM     26  C   UNL A   1      28.213  27.730  23.238  1.00  0.00     0.000 A 
ATOM     27  C   UNL A   1      28.835  28.882  22.763  1.00  0.00     0.000 A 
ENDBRANCH   8  22
ENDBRANCH   5   8
ENDBRANCH   3   4
ENDBRANCH   2   3
ENDBRANCH   1   2
BRANCH   1  28
ATOM     28  C   UNL A   1      35.372  23.283  23.933  1.00  0.00     0.002 C 
BRANCH  28  29
ATOM     29  C   UNL A   1      36.190  22.038  24.281  1.00  0.00     0.021 C 
BRANCH  29  30
ATOM     30  C   UNL A   1      36.760  22.040  25.696  1.00  0.00     0.116 C 
BRANCH  30  31
ATOM     31  N   UNL A   1      37.754  20.992  25.874  1.00  0.00    -0.352 N 
ATOM     32  C   UNL A   1      39.088  21.103  26.170  1.00  0.00     0.251 C 
ATOM     33  H   UNL A   1      37.421  20.071  25.766  1.00  0.00     0.163 HD
ATOM     34  O   UNL A   1      39.826  20.128  26.034  1.00  0.00    -0.269 OA
BRANCH  32  35
ATOM     35  C   UNL A   1      39.634  22.395  26.634  1.00  0.00     0.039 A 
ATOM     36  C   UNL A   1      40.621  22.401  27.622  1.00  0.00     0.014 A 
ATOM     37  C   UNL A   1      39.170  23.600  26.098  1.00  0.00     0.014 A 
ATOM     38  C   UNL A   1      41.182  23.613  28.031  1.00  0.00     0.010 A 
ATOM     39  C   UNL A   1      39.785  24.799  26.450  1.00  0.00     0.010 A 
ATOM     40  C   UNL A   1      40.795  24.819  27.424  1.00  0.00    -0.014 A 
BRANCH  40  41
ATOM     41  C   UNL A   1      41.432  26.109  27.798  1.00  0.00     0.031 A 
ATOM     42  C   UNL A   1      40.639  27.157  28.532  1.00  0.00     0.074 A 
ATOM     43  C   UNL A   1      42.704  26.355  27.427  1.00  0.00     0.049 A 
ATOM     44  N   UNL A   1      40.995  28.366  28.885  1.00  0.00    -0.248 NA
ATOM     45  C   UNL A   1      39.255  26.810  28.889  1.00  0.00     0.031 C 
ATOM     46  C   UNL A   1      43.561  25.428  26.684  1.00  0.00     0.029 A 
ATOM     47  N   UNL A   1      43.498  27.458  27.618  1.00  0.00    -0.354 N 
ATOM     48  C   UNL A   1      39.877  28.927  29.495  1.00  0.00     0.074 A 
ATOM     49  C   UNL A   1      38.816  27.947  29.405  1.00  0.00     0.031 C 
ATOM     50  C   UNL A   1      44.769  25.988  26.512  1.00  0.00     0.029 A 
ATOM     51  C   UNL A   1      44.759  27.332  27.081  1.00  0.00     0.049 A 
ATOM     52  H   UNL A   1      43.195  28.265  28.094  1.00  0.00     0.167 HD
ATOM     53  C   UNL A   1      39.756  30.139  30.093  1.00  0.00     0.034 A 
ATOM     54  C   UNL A   1      45.787  28.204  27.039  1.00  0.00     0.034 A 
ATOM     55  C   UNL A   1      40.831  31.099  30.182  1.00  0.00     0.049 A 
ATOM     56  C   UNL A   1      45.614  29.560  27.676  1.00  0.00     0.074 A 
ATOM     57  C   UNL A   1      40.834  32.330  30.814  1.00  0.00     0.029 A 
ATOM     58  N   UNL A   1      42.089  30.942  29.612  1.00  0.00    -0.354 N 
ATOM     59  N   UNL A   1      44.566  30.056  28.295  1.00  0.00    -0.248 NA
ATOM     60  C   UNL A   1      46.764  30.472  27.617  1.00  0.00     0.031 C 
ATOM     61  C   UNL A   1      42.061  32.951  30.558  1.00  0.00     0.029 A 
ATOM     62  C   UNL A   1      42.860  32.072  29.844  1.00  0.00     0.049 A 
ATOM     63  H   UNL A   1      42.389  30.147  29.116  1.00  0.00     0.167 HD
ATOM     64  C   UNL A   1      44.948  31.323  28.731  1.00  0.00     0.074 A 
ATOM     65  C   UNL A   1      46.323  31.507  28.316  1.00  0.00     0.031 C 
ATOM     66  C   UNL A   1      44.228  32.248  29.417  1.00  0.00     0.034 A 
BRANCH  53  67
ATOM     67  C   UNL A   1      38.407  30.504  30.666  1.00  0.00     0.023 A 
ATOM     68  C   UNL A   1      37.431  31.167  29.899  1.00  0.00     0.031 A 
ATOM     69  C   UNL A   1      38.094  30.197  32.002  1.00  0.00     0.131 A 
ATOM     70  C   UNL A   1      36.225  31.568  30.495  1.00  0.00     0.055 A 
ATOM     71  C   UNL A   1      36.857  30.521  32.563  1.00  0.00     0.041 A 
ATOM     72  F   UNL A   1      38.992  29.585  32.790  1.00  0.00    -0.206 F 
ATOM     73  C   UNL A   1      35.919  31.224  31.814  1.00  0.00     0.022 A 
BRANCH  70  74
ATOM     74  S   UNL A   1      35.126  32.673  29.567  1.00  0.00     0.124 S 
ATOM     75  O   UNL A   1      34.498  31.743  28.631  1.00  0.00    -0.237 OA
ATOM     76  O   UNL A   1      34.262  33.209  30.612  1.00  0.00    -0.237 OA
ATOM     77  O   UNL A   1      36.042  33.636  28.958  1.00  0.00    -0.744 OA
ENDBRANCH  70  74
ENDBRANCH  53  67
BRANCH  54  78
ATOM     78  C   UNL A   1      47.067  27.838  26.367  1.00  0.00     0.023 A 
ATOM     79  C   UNL A   1      47.228  28.004  24.981  1.00  0.00     0.031 A 
ATOM     80  C   UNL A   1      48.130  27.265  27.087  1.00  0.00     0.131 A 
ATOM     81  C   UNL A   1      48.398  27.552  24.352  1.00  0.00     0.055 A 
ATOM     82  C   UNL A   1      49.319  26.874  26.466  1.00  0.00     0.041 A 
ATOM     83  F   UNL A   1      48.033  27.084  28.414  1.00  0.00    -0.206 F 
ATOM     84  C   UNL A   1      49.450  27.003  25.087  1.00  0.00     0.022 A 
BRANCH  81  85
ATOM     85  S   UNL A   1      48.483  27.599  22.541  1.00  0.00     0.124 S 
ATOM     86  O   UNL A   1      49.728  28.326  22.323  1.00  0.00    -0.237 OA
ATOM     87  O   UNL A   1      48.499  26.180  22.203  1.00  0.00    -0.237 OA
ATOM     88  O   UNL A   1      47.266  28.315  22.163  1.00  0.00    -0.744 OA
ENDBRANCH  81  85
ENDBRANCH  54  78
BRANCH  66  89
ATOM     89  C   UNL A   1      44.939  33.523  29.806  1.00  0.00     0.023 A 
ATOM     90  C   UNL A   1      44.913  34.667  28.989  1.00  0.00     0.031 A 
ATOM     91  C   UNL A   1      45.662  33.590  31.010  1.00  0.00     0.131 A 
ATOM     92  C   UNL A   1      45.645  35.806  29.356  1.00  0.00     0.055 A 
ATOM     93  C   UNL A   1      46.331  34.748  31.405  1.00  0.00     0.041 A 
ATOM     94  F   UNL A   1      45.725  32.527  31.829  1.00  0.00    -0.206 F 
ATOM     95  C   UNL A   1      46.337  35.861  30.569  1.00  0.00     0.022 A 
BRANCH  92  96
ATOM     96  S   UNL A   1      45.767  37.181  28.180  1.00  0.00     0.124 S 
ATOM     97  O   UNL A   1      44.403  37.700  28.179  1.00  0.00    -0.237 OA
ATOM     98  O   UNL A   1      46.774  38.036  28.801  1.00  0.00    -0.237 OA
ATOM     99  O   UNL A   1      46.185  36.535  26.938  1.00  0.00    -0.744 OA
ENDBRANCH  92  96
ENDBRANCH  66  89
ENDBRANCH  40  41
ENDBRANCH  32  35
ENDBRANCH  30  31
ENDBRANCH  29  30
ENDBRANCH  28  29
ENDBRANCH   1  28
TORSDOF 20
ENDMDL
MODEL 3
REMARK VINA RESULT:     -11.9      5.346     11.354
REMARK SMILES O=C(C[C@H](C(=O)NCCCCCCNC(=O)c1ccc(-c2c3nc(c(-c4cc(S(=O)(=O)[O-])ccc4F)c4ccc([nH]4)c(-c4cc(S(=O)(=O)[O-])ccc4F)c4nc(c(-c5cc(S(=O)(=O)[O-])ccc5F)c5ccc2[nH]5)C=C4)C=C3)cc1)c1ccccc1)Nc1ccc(Cl)cc1Cl
REMARK SMILES IDX 10 1 9 2 8 3 7 4 5 5 6 6 4 8 3 9 2 10 1 11 86 12 87 14 88 15
REMARK SMILES IDX 93 16 89 17 92 18 94 19 90 20 91 21 80 22 81 23 85 24 82 25
REMARK SMILES IDX 84 26 83 27 11 28 12 29 13 30 14 31 15 32 16 34 17 35 18 36
REMARK SMILES IDX 79 37 19 38 78 39 20 40 21 41 22 42 72 43 23 44 77 45 71 46
REMARK SMILES IDX 73 47 24 48 76 49 70 50 69 51 25 53 57 54 37 55 56 56 38 57
REMARK SMILES IDX 41 58 55 59 74 60 39 61 40 62 54 64 75 65 42 66 26 67 27 68
REMARK SMILES IDX 35 69 28 70 34 71 36 72 33 73 29 74 30 75 31 76 32 77 58 78
REMARK SMILES IDX 59 79 67 80 60 81 66 82 68 83 65 84 61 85 62 86 63 87 64 88
REMARK SMILES IDX 43 89 44 90 52 91 45 92 51 93 53 94 50 95 46 96 47 97 48 98
REMARK SMILES IDX 49 99
REMARK H PARENT 7 7 86 13 14 33 73 52 41 63
REMARK Flexibility Score: inf
ROOT
ATOM      1  C   UNL A   1      33.045  35.604  30.274  1.00  0.00     0.002 C 
ENDROOT
BRANCH   1   2
ATOM      2  C   UNL A   1      33.623  36.411  31.443  1.00  0.00     0.021 C 
BRANCH   2   3
ATOM      3  C   UNL A   1      34.063  35.540  32.621  1.00  0.00     0.116 C 
BRANCH   3   4
ATOM      4  N   UNL A   1      33.842  34.138  32.326  1.00  0.00    -0.356 N 
ATOM      5  C   UNL A   1      34.755  33.130  32.200  1.00  0.00     0.228 C 
ATOM      6  O   UNL A   1      34.381  32.092  31.654  1.00  0.00    -0.274 OA
ATOM      7  H   UNL A   1      32.902  33.876  32.198  1.00  0.00     0.163 HD
BRANCH   5   8
ATOM      8  C   UNL A   1      36.171  33.305  32.771  1.00  0.00     0.118 C 
BRANCH   8   9
ATOM      9  C   UNL A   1      36.600  32.059  33.560  1.00  0.00     0.118 C 
BRANCH   9  10
ATOM     10  C   UNL A   1      37.503  32.369  34.738  1.00  0.00     0.225 C 
ATOM     11  O   UNL A   1      38.384  31.597  35.103  1.00  0.00    -0.275 OA
ATOM     12  N   UNL A   1      37.235  33.585  35.345  1.00  0.00    -0.325 N 
ATOM     13  H   UNL A   1      36.377  34.023  35.146  1.00  0.00     0.169 HD
BRANCH  12  14
ATOM     14  C   UNL A   1      38.125  34.237  36.232  1.00  0.00     0.060 A 
ATOM     15  C   UNL A   1      39.013  35.158  35.659  1.00  0.00     0.029 A 
ATOM     16  C   UNL A   1      38.205  33.987  37.617  1.00  0.00     0.066 A 
ATOM     17  C   UNL A   1      39.911  35.873  36.459  1.00  0.00     0.023 A 
ATOM     18  C   UNL A   1      39.105  34.704  38.413  1.00  0.00     0.043 A 
ATOM     19  Cl  UNL A   1      37.397  32.665  38.393  1.00  0.00    -0.082 Cl
ATOM     20  C   UNL A   1      39.944  35.650  37.833  1.00  0.00     0.042 A 
ATOM     21  Cl  UNL A   1      41.058  36.519  38.814  1.00  0.00    -0.084 Cl
ENDBRANCH  12  14
ENDBRANCH   9  10
ENDBRANCH   8   9
BRANCH   8  22
ATOM     22  C   UNL A   1      37.200  33.594  31.681  1.00  0.00    -0.035 A 
ATOM     23  C   UNL A   1      38.405  34.251  31.975  1.00  0.00     0.004 A 
ATOM     24  C   UNL A   1      36.967  33.183  30.357  1.00  0.00     0.004 A 
ATOM     25  C   UNL A   1      39.363  34.458  30.979  1.00  0.00     0.000 A 
ATOM     26  C   UNL A   1      37.937  33.366  29.371  1.00  0.00     0.000 A 
ATOM     27  C   UNL A   1      39.136  34.002  29.683  1.00  0.00     0.000 A 
ENDBRANCH   8  22
ENDBRANCH   5   8
ENDBRANCH   3   4
ENDBRANCH   2   3
ENDBRANCH   1   2
BRANCH   1  28
ATOM     28  C   UNL A   1      34.030  35.339  29.130  1.00  0.00     0.002 C 
BRANCH  28  29
ATOM     29  C   UNL A   1      33.614  34.219  28.174  1.00  0.00     0.021 C 
BRANCH  29  30
ATOM     30  C   UNL A   1      34.476  32.963  28.271  1.00  0.00     0.116 C 
BRANCH  30  31
ATOM     31  N   UNL A   1      33.780  31.795  27.752  1.00  0.00    -0.352 N 
ATOM     32  C   UNL A   1      34.259  30.532  27.522  1.00  0.00     0.251 C 
ATOM     33  H   UNL A   1      32.829  31.933  27.534  1.00  0.00     0.163 HD
ATOM     34  O   UNL A   1      33.599  29.742  26.847  1.00  0.00    -0.269 OA
BRANCH  32  35
ATOM     35  C   UNL A   1      35.570  30.130  28.072  1.00  0.00     0.039 A 
ATOM     36  C   UNL A   1      35.646  29.685  29.393  1.00  0.00     0.014 A 
ATOM     37  C   UNL A   1      36.724  30.196  27.286  1.00  0.00     0.014 A 
ATOM     38  C   UNL A   1      36.871  29.253  29.908  1.00  0.00     0.010 A 
ATOM     39  C   UNL A   1      37.927  29.693  27.775  1.00  0.00     0.010 A 
ATOM     40  C   UNL A   1      38.014  29.220  29.093  1.00  0.00    -0.014 A 
BRANCH  40  41
ATOM     41  C   UNL A   1      39.309  28.698  29.604  1.00  0.00     0.031 A 
ATOM     42  C   UNL A   1      39.970  29.348  30.790  1.00  0.00     0.074 A 
ATOM     43  C   UNL A   1      39.914  27.676  28.965  1.00  0.00     0.049 A 
ATOM     44  N   UNL A   1      41.127  29.082  31.340  1.00  0.00    -0.248 NA
ATOM     45  C   UNL A   1      39.247  30.463  31.421  1.00  0.00     0.031 C 
ATOM     46  C   UNL A   1      39.384  26.987  27.786  1.00  0.00     0.029 A 
ATOM     47  N   UNL A   1      41.105  27.041  29.212  1.00  0.00    -0.354 N 
ATOM     48  C   UNL A   1      41.276  30.003  32.373  1.00  0.00     0.074 A 
ATOM     49  C   UNL A   1      40.119  30.871  32.329  1.00  0.00     0.031 C 
ATOM     50  C   UNL A   1      40.231  26.006  27.434  1.00  0.00     0.029 A 
ATOM     51  C   UNL A   1      41.387  26.028  28.323  1.00  0.00     0.049 A 
ATOM     52  H   UNL A   1      41.702  27.285  29.955  1.00  0.00     0.167 HD
ATOM     53  C   UNL A   1      42.275  30.098  33.286  1.00  0.00     0.034 A 
ATOM     54  C   UNL A   1      42.461  25.219  28.227  1.00  0.00     0.034 A 
ATOM     55  C   UNL A   1      43.416  29.215  33.320  1.00  0.00     0.049 A 
ATOM     56  C   UNL A   1      43.577  25.372  29.230  1.00  0.00     0.074 A 
ATOM     57  C   UNL A   1      44.455  29.187  34.234  1.00  0.00     0.029 A 
ATOM     58  N   UNL A   1      43.676  28.212  32.394  1.00  0.00    -0.354 N 
ATOM     59  N   UNL A   1      43.678  26.214  30.233  1.00  0.00    -0.248 NA
ATOM     60  C   UNL A   1      44.721  24.461  29.093  1.00  0.00     0.031 C 
ATOM     61  C   UNL A   1      45.381  28.226  33.816  1.00  0.00     0.029 A 
ATOM     62  C   UNL A   1      44.878  27.588  32.693  1.00  0.00     0.049 A 
ATOM     63  H   UNL A   1      43.092  27.978  31.637  1.00  0.00     0.167 HD
ATOM     64  C   UNL A   1      44.879  25.906  30.868  1.00  0.00     0.074 A 
ATOM     65  C   UNL A   1      45.457  24.794  30.142  1.00  0.00     0.031 C 
ATOM     66  C   UNL A   1      45.449  26.485  31.955  1.00  0.00     0.034 A 
BRANCH  53  67
ATOM     67  C   UNL A   1      42.192  31.217  34.298  1.00  0.00     0.023 A 
ATOM     68  C   UNL A   1      42.556  32.537  33.976  1.00  0.00     0.031 A 
ATOM     69  C   UNL A   1      41.755  30.959  35.610  1.00  0.00     0.131 A 
ATOM     70  C   UNL A   1      42.550  33.528  34.969  1.00  0.00     0.055 A 
ATOM     71  C   UNL A   1      41.667  31.968  36.570  1.00  0.00     0.041 A 
ATOM     72  F   UNL A   1      41.415  29.715  35.985  1.00  0.00    -0.206 F 
ATOM     73  C   UNL A   1      42.080  33.260  36.257  1.00  0.00     0.022 A 
BRANCH  70  74
ATOM     74  S   UNL A   1      43.302  35.135  34.594  1.00  0.00     0.124 S 
ATOM     75  O   UNL A   1      44.473  34.736  33.815  1.00  0.00    -0.237 OA
ATOM     76  O   UNL A   1      42.244  35.814  33.856  1.00  0.00    -0.237 OA
ATOM     77  O   UNL A   1      43.601  35.690  35.913  1.00  0.00    -0.744 OA
ENDBRANCH  70  74
ENDBRANCH  53  67
BRANCH  54  78
ATOM     78  C   UNL A   1      42.548  24.198  27.143  1.00  0.00     0.023 A 
ATOM     79  C   UNL A   1      41.948  22.937  27.288  1.00  0.00     0.031 A 
ATOM     80  C   UNL A   1      43.279  24.446  25.966  1.00  0.00     0.131 A 
ATOM     81  C   UNL A   1      42.133  21.954  26.304  1.00  0.00     0.055 A 
ATOM     82  C   UNL A   1      43.408  23.486  24.960  1.00  0.00     0.041 A 
ATOM     83  F   UNL A   1      43.872  25.635  25.773  1.00  0.00    -0.206 F 
ATOM     84  C   UNL A   1      42.846  22.226  25.134  1.00  0.00     0.022 A 
BRANCH  81  85
ATOM     85  S   UNL A   1      41.514  20.279  26.622  1.00  0.00     0.124 S 
ATOM     86  O   UNL A   1      40.084  20.518  26.772  1.00  0.00    -0.237 OA
ATOM     87  O   UNL A   1      41.926  19.571  25.415  1.00  0.00    -0.237 OA
ATOM     88  O   UNL A   1      42.215  19.886  27.844  1.00  0.00    -0.744 OA
ENDBRANCH  81  85
ENDBRANCH  54  78
BRANCH  66  89
ATOM     89  C   UNL A   1      46.744  25.887  32.454  1.00  0.00     0.023 A 
ATOM     90  C   UNL A   1      47.979  26.173  31.845  1.00  0.00     0.031 A 
ATOM     91  C   UNL A   1      46.739  25.010  33.553  1.00  0.00     0.131 A 
ATOM     92  C   UNL A   1      49.146  25.540  32.299  1.00  0.00     0.055 A 
ATOM     93  C   UNL A   1      47.912  24.437  34.045  1.00  0.00     0.041 A 
ATOM     94  F   UNL A   1      45.589  24.697  34.173  1.00  0.00    -0.206 F 
ATOM     95  C   UNL A   1      49.123  24.691  33.408  1.00  0.00     0.022 A 
BRANCH  92  96
ATOM     96  S   UNL A   1      50.680  25.763  31.357  1.00  0.00     0.124 S 
ATOM     97  O   UNL A   1      50.967  27.177  31.576  1.00  0.00    -0.237 OA
ATOM     98  O   UNL A   1      51.585  24.820  32.007  1.00  0.00    -0.237 OA
ATOM     99  O   UNL A   1      50.298  25.412  29.991  1.00  0.00    -0.744 OA
ENDBRANCH  92  96
ENDBRANCH  66  89
ENDBRANCH  40  41
ENDBRANCH  32  35
ENDBRANCH  30  31
ENDBRANCH  29  30
ENDBRANCH  28  29
ENDBRANCH   1  28
TORSDOF 20
ENDMDL
