MODEL 1
REMARK VINA RESULT:     -10.5      0.000      0.000
REMARK SMILES CCC1(C(=O)N[C@H]2C=C[C@H](C(=O)NCCCCCCNC(=O)c3ccc(-c4c5nc(c(-c6cc(S(=O)(=O)[O-])ccc6F)c6ccc([nH]6)c(-c6cc(S(=O)(=O)[O-])ccc6F)c6nc(c(-c7cc(S(=O)(=O)[O-])ccc7F)c7ccc4[nH]7)C=C6)C=C5)cc3)C2)CC[NH2+]CC1
REMARK SMILES IDX 16 1 15 2 14 3 13 4 11 5 12 6 10 8 7 9 8 10 86 11 9 12 6 13
REMARK SMILES IDX 4 14 5 15 3 17 87 18 91 19 88 20 90 21 89 22 2 25 1 26 17 27
REMARK SMILES IDX 18 28 19 29 20 30 21 31 22 33 23 34 24 35 85 36 25 37 84 38
REMARK SMILES IDX 26 39 27 40 28 41 78 42 29 43 83 44 77 45 79 46 30 47 82 48
REMARK SMILES IDX 76 49 75 50 31 52 63 53 43 54 62 55 44 56 47 57 61 58 80 59
REMARK SMILES IDX 45 60 46 61 60 63 81 64 48 65 32 66 33 67 41 68 34 69 40 70
REMARK SMILES IDX 42 71 39 72 35 73 36 74 37 75 38 76 64 77 65 78 73 79 66 80
REMARK SMILES IDX 72 81 74 82 71 83 67 84 68 85 69 86 70 87 49 88 50 89 58 90
REMARK SMILES IDX 51 91 57 92 59 93 56 94 52 95 53 96 54 97 55 98
REMARK H PARENT 13 7 6 16 89 23 89 24 20 32 79 51 47 62
REMARK Flexibility Score: inf
ROOT
ATOM      1  C   UNL A   1      40.267  22.437  26.675  1.00  0.00     0.002 C 
ENDROOT
BRANCH   1   2
ATOM      2  C   UNL A   1      38.889  22.055  26.126  1.00  0.00     0.021 C 
BRANCH   2   3
ATOM      3  C   UNL A   1      38.000  23.240  25.766  1.00  0.00     0.116 C 
BRANCH   3   4
ATOM      4  N   UNL A   1      36.748  23.235  26.502  1.00  0.00    -0.356 N 
ATOM      5  C   UNL A   1      35.522  22.791  26.081  1.00  0.00     0.227 C 
ATOM      6  O   UNL A   1      34.584  22.783  26.876  1.00  0.00    -0.274 OA
ATOM      7  H   UNL A   1      36.785  23.595  27.418  1.00  0.00     0.163 HD
BRANCH   5   8
ATOM      8  C   UNL A   1      35.397  22.362  24.617  1.00  0.00     0.103 C 
ATOM      9  C   UNL A   1      33.638  23.653  23.542  1.00  0.00     0.106 C 
ATOM     10  C   UNL A   1      33.250  22.215  23.671  1.00  0.00    -0.006 C 
ATOM     11  C   UNL A   1      35.154  23.597  23.743  1.00  0.00     0.047 C 
ATOM     12  C   UNL A   1      34.199  21.516  24.305  1.00  0.00    -0.016 C 
BRANCH   9  13
ATOM     13  N   UNL A   1      33.326  24.128  22.219  1.00  0.00    -0.349 N 
ATOM     14  C   UNL A   1      32.841  25.314  21.769  1.00  0.00     0.227 C 
ATOM     15  O   UNL A   1      32.883  25.452  20.541  1.00  0.00    -0.274 OA
ATOM     16  H   UNL A   1      33.498  23.471  21.506  1.00  0.00     0.164 HD
BRANCH  14  17
ATOM     17  C   UNL A   1      32.235  26.414  22.703  1.00  0.00     0.060 C 
ATOM     18  C   UNL A   1      33.383  27.415  23.045  1.00  0.00     0.078 C 
ATOM     19  C   UNL A   1      31.030  27.095  22.007  1.00  0.00     0.078 C 
ATOM     20  C   UNL A   1      32.993  28.878  23.247  1.00  0.00     0.261 C 
ATOM     21  C   UNL A   1      30.743  28.504  22.519  1.00  0.00     0.261 C 
ATOM     22  N   UNL A   1      31.930  29.331  22.360  1.00  0.00    -0.346 N 
ATOM     23  H   UNL A   1      32.253  29.273  21.393  1.00  0.00     0.346 HD
ATOM     24  H   UNL A   1      31.695  30.295  22.594  1.00  0.00     0.346 HD
BRANCH  17  25
ATOM     25  C   UNL A   1      31.770  25.660  24.012  1.00  0.00     0.014 C 
ATOM     26  C   UNL A   1      31.887  26.354  25.361  1.00  0.00     0.005 C 
ENDBRANCH  17  25
ENDBRANCH  14  17
ENDBRANCH   9  13
ENDBRANCH   5   8
ENDBRANCH   3   4
ENDBRANCH   2   3
ENDBRANCH   1   2
BRANCH   1  27
ATOM     27  C   UNL A   1      40.761  21.579  27.843  1.00  0.00     0.002 C 
BRANCH  27  28
ATOM     28  C   UNL A   1      41.147  20.143  27.481  1.00  0.00     0.021 C 
BRANCH  28  29
ATOM     29  C   UNL A   1      41.138  19.837  25.987  1.00  0.00     0.116 C 
BRANCH  29  30
ATOM     30  N   UNL A   1      42.405  19.291  25.532  1.00  0.00    -0.352 N 
ATOM     31  C   UNL A   1      43.594  19.935  25.287  1.00  0.00     0.251 C 
ATOM     32  H   UNL A   1      42.413  18.319  25.378  1.00  0.00     0.163 HD
ATOM     33  O   UNL A   1      44.498  19.343  24.710  1.00  0.00    -0.269 OA
BRANCH  31  34
ATOM     34  C   UNL A   1      43.762  21.348  25.696  1.00  0.00     0.039 A 
ATOM     35  C   UNL A   1      44.251  21.628  26.973  1.00  0.00     0.014 A 
ATOM     36  C   UNL A   1      43.441  22.392  24.823  1.00  0.00     0.014 A 
ATOM     37  C   UNL A   1      44.477  22.954  27.353  1.00  0.00     0.010 A 
ATOM     38  C   UNL A   1      43.741  23.706  25.174  1.00  0.00     0.010 A 
ATOM     39  C   UNL A   1      44.260  24.002  26.444  1.00  0.00    -0.014 A 
BRANCH  39  40
ATOM     40  C   UNL A   1      44.569  25.411  26.805  1.00  0.00     0.031 A 
ATOM     41  C   UNL A   1      43.497  26.295  27.384  1.00  0.00     0.074 A 
ATOM     42  C   UNL A   1      45.797  25.910  26.563  1.00  0.00     0.049 A 
ATOM     43  N   UNL A   1      43.552  27.564  27.705  1.00  0.00    -0.248 NA
ATOM     44  C   UNL A   1      42.182  25.677  27.604  1.00  0.00     0.031 C 
ATOM     45  C   UNL A   1      46.911  25.161  25.978  1.00  0.00     0.029 A 
ATOM     46  N   UNL A   1      46.317  27.162  26.775  1.00  0.00    -0.354 N 
ATOM     47  C   UNL A   1      42.280  27.895  28.158  1.00  0.00     0.074 A 
ATOM     48  C   UNL A   1      41.460  26.714  27.999  1.00  0.00     0.031 C 
ATOM     49  C   UNL A   1      47.990  25.957  25.913  1.00  0.00     0.029 A 
ATOM     50  C   UNL A   1      47.634  27.287  26.397  1.00  0.00     0.049 A 
ATOM     51  H   UNL A   1      45.796  27.903  27.163  1.00  0.00     0.167 HD
ATOM     52  C   UNL A   1      41.843  29.069  28.683  1.00  0.00     0.034 A 
ATOM     53  C   UNL A   1      48.459  28.353  26.427  1.00  0.00     0.034 A 
ATOM     54  C   UNL A   1      42.676  30.238  28.832  1.00  0.00     0.049 A 
ATOM     55  C   UNL A   1      47.934  29.665  26.957  1.00  0.00     0.074 A 
ATOM     56  C   UNL A   1      42.350  31.463  29.388  1.00  0.00     0.029 A 
ATOM     57  N   UNL A   1      43.997  30.335  28.411  1.00  0.00    -0.354 N 
ATOM     58  N   UNL A   1      46.740  29.949  27.426  1.00  0.00    -0.248 NA
ATOM     59  C   UNL A   1      48.871  30.795  26.967  1.00  0.00     0.031 C 
ATOM     60  C   UNL A   1      43.441  32.323  29.230  1.00  0.00     0.029 A 
ATOM     61  C   UNL A   1      44.485  31.611  28.659  1.00  0.00     0.049 A 
ATOM     62  H   UNL A   1      44.511  29.605  27.998  1.00  0.00     0.167 HD
ATOM     63  C   UNL A   1      46.799  31.284  27.824  1.00  0.00     0.074 A 
ATOM     64  C   UNL A   1      48.146  31.738  27.551  1.00  0.00     0.031 C 
ATOM     65  C   UNL A   1      45.828  32.059  28.373  1.00  0.00     0.034 A 
BRANCH  52  66
ATOM     66  C   UNL A   1      40.392  29.143  29.102  1.00  0.00     0.023 A 
ATOM     67  C   UNL A   1      40.008  29.054  30.452  1.00  0.00     0.031 A 
ATOM     68  C   UNL A   1      39.374  29.265  28.139  1.00  0.00     0.131 A 
ATOM     69  C   UNL A   1      38.649  28.995  30.793  1.00  0.00     0.055 A 
ATOM     70  C   UNL A   1      38.024  29.301  28.495  1.00  0.00     0.041 A 
ATOM     71  F   UNL A   1      39.673  29.332  26.832  1.00  0.00    -0.206 F 
ATOM     72  C   UNL A   1      37.653  29.146  29.827  1.00  0.00     0.022 A 
BRANCH  69  73
ATOM     73  S   UNL A   1      38.205  28.539  32.492  1.00  0.00     0.124 S 
ATOM     74  O   UNL A   1      36.903  29.189  32.640  1.00  0.00    -0.237 OA
ATOM     75  O   UNL A   1      38.189  27.082  32.434  1.00  0.00    -0.237 OA
ATOM     76  O   UNL A   1      39.278  29.122  33.294  1.00  0.00    -0.744 OA
ENDBRANCH  69  73
ENDBRANCH  52  66
BRANCH  53  77
ATOM     77  C   UNL A   1      49.864  28.240  25.938  1.00  0.00     0.023 A 
ATOM     78  C   UNL A   1      50.175  28.440  24.584  1.00  0.00     0.031 A 
ATOM     79  C   UNL A   1      50.911  27.881  26.807  1.00  0.00     0.131 A 
ATOM     80  C   UNL A   1      51.484  28.229  24.127  1.00  0.00     0.055 A 
ATOM     81  C   UNL A   1      52.224  27.732  26.359  1.00  0.00     0.041 A 
ATOM     82  F   UNL A   1      50.672  27.678  28.113  1.00  0.00    -0.206 F 
ATOM     83  C   UNL A   1      52.515  27.893  25.007  1.00  0.00     0.022 A 
BRANCH  80  84
ATOM     84  S   UNL A   1      51.802  28.306  22.343  1.00  0.00     0.124 S 
ATOM     85  O   UNL A   1      50.857  29.332  21.917  1.00  0.00    -0.237 OA
ATOM     86  O   UNL A   1      53.214  28.674  22.302  1.00  0.00    -0.237 OA
ATOM     87  O   UNL A   1      51.500  26.951  21.886  1.00  0.00    -0.744 OA
ENDBRANCH  80  84
ENDBRANCH  53  77
BRANCH  65  88
ATOM     88  C   UNL A   1      46.209  33.468  28.760  1.00  0.00     0.023 A 
ATOM     89  C   UNL A   1      45.981  34.563  27.906  1.00  0.00     0.031 A 
ATOM     90  C   UNL A   1      46.825  33.718  30.000  1.00  0.00     0.131 A 
ATOM     91  C   UNL A   1      46.418  35.844  28.279  1.00  0.00     0.055 A 
ATOM     92  C   UNL A   1      47.194  35.004  30.394  1.00  0.00     0.041 A 
ATOM     93  F   UNL A   1      47.074  32.712  30.854  1.00  0.00    -0.206 F 
ATOM     94  C   UNL A   1      47.004  36.074  29.526  1.00  0.00     0.022 A 
BRANCH  91  95
ATOM     95  S   UNL A   1      46.306  37.189  27.067  1.00  0.00     0.124 S 
ATOM     96  O   UNL A   1      44.864  37.317  26.888  1.00  0.00    -0.237 OA
ATOM     97  O   UNL A   1      46.963  38.291  27.761  1.00  0.00    -0.237 OA
ATOM     98  O   UNL A   1      47.030  36.668  25.908  1.00  0.00    -0.744 OA
ENDBRANCH  91  95
ENDBRANCH  65  88
ENDBRANCH  39  40
ENDBRANCH  31  34
ENDBRANCH  29  30
ENDBRANCH  28  29
ENDBRANCH  27  28
ENDBRANCH   1  27
TORSDOF 19
ENDMDL
MODEL 2
REMARK VINA RESULT:     -10.5      1.066      7.741
REMARK SMILES CCC1(C(=O)N[C@H]2C=C[C@H](C(=O)NCCCCCCNC(=O)c3ccc(-c4c5nc(c(-c6cc(S(=O)(=O)[O-])ccc6F)c6ccc([nH]6)c(-c6cc(S(=O)(=O)[O-])ccc6F)c6nc(c(-c7cc(S(=O)(=O)[O-])ccc7F)c7ccc4[nH]7)C=C6)C=C5)cc3)C2)CC[NH2+]CC1
REMARK SMILES IDX 16 1 15 2 14 3 13 4 11 5 12 6 10 8 7 9 8 10 86 11 9 12 6 13
REMARK SMILES IDX 4 14 5 15 3 17 87 18 91 19 88 20 90 21 89 22 2 25 1 26 17 27
REMARK SMILES IDX 18 28 19 29 20 30 21 31 22 33 23 34 24 35 85 36 25 37 84 38
REMARK SMILES IDX 26 39 27 40 28 41 78 42 29 43 83 44 77 45 79 46 30 47 82 48
REMARK SMILES IDX 76 49 75 50 31 52 63 53 43 54 62 55 44 56 47 57 61 58 80 59
REMARK SMILES IDX 45 60 46 61 60 63 81 64 48 65 32 66 33 67 41 68 34 69 40 70
REMARK SMILES IDX 42 71 39 72 35 73 36 74 37 75 38 76 64 77 65 78 73 79 66 80
REMARK SMILES IDX 72 81 74 82 71 83 67 84 68 85 69 86 70 87 49 88 50 89 58 90
REMARK SMILES IDX 51 91 57 92 59 93 56 94 52 95 53 96 54 97 55 98
REMARK H PARENT 13 7 6 16 89 23 89 24 20 32 79 51 47 62
REMARK Flexibility Score: inf
ROOT
ATOM      1  C   UNL A   1      40.328  22.404  26.429  1.00  0.00     0.002 C 
ENDROOT
BRANCH   1   2
ATOM      2  C   UNL A   1      38.983  23.127  26.549  1.00  0.00     0.021 C 
BRANCH   2   3
ATOM      3  C   UNL A   1      37.853  22.502  25.737  1.00  0.00     0.116 C 
BRANCH   3   4
ATOM      4  N   UNL A   1      36.595  22.490  26.462  1.00  0.00    -0.356 N 
ATOM      5  C   UNL A   1      35.325  22.566  25.952  1.00  0.00     0.227 C 
ATOM      6  O   UNL A   1      34.368  22.453  26.715  1.00  0.00    -0.274 OA
ATOM      7  H   UNL A   1      36.662  22.418  27.442  1.00  0.00     0.163 HD
BRANCH   5   8
ATOM      8  C   UNL A   1      35.188  22.826  24.450  1.00  0.00     0.103 C 
ATOM      9  C   UNL A   1      33.419  24.451  24.068  1.00  0.00     0.106 C 
ATOM     10  C   UNL A   1      33.034  23.102  23.552  1.00  0.00    -0.006 C 
ATOM     11  C   UNL A   1      34.937  24.320  24.212  1.00  0.00     0.047 C 
ATOM     12  C   UNL A   1      33.988  22.199  23.805  1.00  0.00    -0.016 C 
BRANCH   9  13
ATOM     13  N   UNL A   1      33.096  25.460  23.092  1.00  0.00    -0.349 N 
ATOM     14  C   UNL A   1      32.798  26.779  23.213  1.00  0.00     0.227 C 
ATOM     15  O   UNL A   1      32.768  27.398  22.142  1.00  0.00    -0.274 OA
ATOM     16  H   UNL A   1      33.090  25.133  22.164  1.00  0.00     0.164 HD
BRANCH  14  17
ATOM     17  C   UNL A   1      32.474  27.475  24.577  1.00  0.00     0.060 C 
ATOM     18  C   UNL A   1      33.748  27.360  25.470  1.00  0.00     0.078 C 
ATOM     19  C   UNL A   1      32.039  28.942  24.333  1.00  0.00     0.078 C 
ATOM     20  C   UNL A   1      34.022  28.507  26.442  1.00  0.00     0.261 C 
ATOM     21  C   UNL A   1      32.264  29.856  25.536  1.00  0.00     0.261 C 
ATOM     22  N   UNL A   1      33.667  29.819  25.919  1.00  0.00    -0.346 N 
ATOM     23  H   UNL A   1      34.243  30.020  25.101  1.00  0.00     0.346 HD
ATOM     24  H   UNL A   1      33.830  30.517  26.644  1.00  0.00     0.346 HD
BRANCH  17  25
ATOM     25  C   UNL A   1      31.292  26.642  25.215  1.00  0.00     0.014 C 
ATOM     26  C   UNL A   1      29.983  26.488  24.453  1.00  0.00     0.005 C 
ENDBRANCH  17  25
ENDBRANCH  14  17
ENDBRANCH   9  13
ENDBRANCH   5   8
ENDBRANCH   3   4
ENDBRANCH   2   3
ENDBRANCH   1   2
BRANCH   1  27
ATOM     27  C   UNL A   1      40.722  21.560  27.645  1.00  0.00     0.002 C 
BRANCH  27  28
ATOM     28  C   UNL A   1      41.304  20.182  27.322  1.00  0.00     0.021 C 
BRANCH  28  29
ATOM     29  C   UNL A   1      41.333  19.833  25.838  1.00  0.00     0.116 C 
BRANCH  29  30
ATOM     30  N   UNL A   1      42.649  19.402  25.403  1.00  0.00    -0.352 N 
ATOM     31  C   UNL A   1      43.789  20.144  25.206  1.00  0.00     0.251 C 
ATOM     32  H   UNL A   1      42.738  18.438  25.223  1.00  0.00     0.163 HD
ATOM     33  O   UNL A   1      44.750  19.642  24.637  1.00  0.00    -0.269 OA
BRANCH  31  34
ATOM     34  C   UNL A   1      43.835  21.553  25.657  1.00  0.00     0.039 A 
ATOM     35  C   UNL A   1      44.174  21.827  26.983  1.00  0.00     0.014 A 
ATOM     36  C   UNL A   1      43.546  22.600  24.776  1.00  0.00     0.014 A 
ATOM     37  C   UNL A   1      44.285  23.153  27.410  1.00  0.00     0.010 A 
ATOM     38  C   UNL A   1      43.734  23.919  25.181  1.00  0.00     0.010 A 
ATOM     39  C   UNL A   1      44.104  24.211  26.503  1.00  0.00    -0.014 A 
BRANCH  39  40
ATOM     40  C   UNL A   1      44.293  25.625  26.921  1.00  0.00     0.031 A 
ATOM     41  C   UNL A   1      45.653  26.263  26.837  1.00  0.00     0.074 A 
ATOM     42  C   UNL A   1      43.253  26.318  27.426  1.00  0.00     0.049 A 
ATOM     43  N   UNL A   1      46.033  27.460  27.210  1.00  0.00    -0.248 NA
ATOM     44  C   UNL A   1      46.736  25.434  26.288  1.00  0.00     0.031 C 
ATOM     45  C   UNL A   1      41.892  25.800  27.585  1.00  0.00     0.029 A 
ATOM     46  N   UNL A   1      43.174  27.604  27.899  1.00  0.00    -0.354 N 
ATOM     47  C   UNL A   1      47.397  27.524  26.945  1.00  0.00     0.074 A 
ATOM     48  C   UNL A   1      47.788  26.221  26.452  1.00  0.00     0.031 C 
ATOM     49  C   UNL A   1      41.109  26.770  28.084  1.00  0.00     0.029 A 
ATOM     50  C   UNL A   1      41.917  27.959  28.332  1.00  0.00     0.049 A 
ATOM     51  H   UNL A   1      43.945  28.216  27.925  1.00  0.00     0.167 HD
ATOM     52  C   UNL A   1      48.240  28.580  27.077  1.00  0.00     0.034 A 
ATOM     53  C   UNL A   1      41.469  29.107  28.879  1.00  0.00     0.034 A 
ATOM     54  C   UNL A   1      47.832  29.872  27.573  1.00  0.00     0.049 A 
ATOM     55  C   UNL A   1      42.437  30.247  29.073  1.00  0.00     0.074 A 
ATOM     56  C   UNL A   1      48.591  31.023  27.708  1.00  0.00     0.029 A 
ATOM     57  N   UNL A   1      46.557  30.186  28.030  1.00  0.00    -0.354 N 
ATOM     58  N   UNL A   1      43.715  30.308  28.774  1.00  0.00    -0.248 NA
ATOM     59  C   UNL A   1      41.900  31.475  29.672  1.00  0.00     0.031 C 
ATOM     60  C   UNL A   1      47.801  32.002  28.319  1.00  0.00     0.029 A 
ATOM     61  C   UNL A   1      46.520  31.497  28.483  1.00  0.00     0.049 A 
ATOM     62  H   UNL A   1      45.792  29.567  28.031  1.00  0.00     0.167 HD
ATOM     63  C   UNL A   1      44.123  31.597  29.113  1.00  0.00     0.074 A 
ATOM     64  C   UNL A   1      42.952  32.279  29.627  1.00  0.00     0.031 C 
ATOM     65  C   UNL A   1      45.350  32.166  29.004  1.00  0.00     0.034 A 
BRANCH  52  66
ATOM     66  C   UNL A   1      49.689  28.361  26.705  1.00  0.00     0.023 A 
ATOM     67  C   UNL A   1      50.133  28.463  25.375  1.00  0.00     0.031 A 
ATOM     68  C   UNL A   1      50.634  28.006  27.685  1.00  0.00     0.131 A 
ATOM     69  C   UNL A   1      51.455  28.125  25.047  1.00  0.00     0.055 A 
ATOM     70  C   UNL A   1      51.972  27.764  27.365  1.00  0.00     0.041 A 
ATOM     71  F   UNL A   1      50.270  27.870  28.970  1.00  0.00    -0.206 F 
ATOM     72  C   UNL A   1      52.385  27.803  26.037  1.00  0.00     0.022 A 
BRANCH  69  73
ATOM     73  S   UNL A   1      51.890  27.940  23.296  1.00  0.00     0.124 S 
ATOM     74  O   UNL A   1      50.824  27.060  22.819  1.00  0.00    -0.237 OA
ATOM     75  O   UNL A   1      51.846  29.315  22.813  1.00  0.00    -0.237 OA
ATOM     76  O   UNL A   1      53.218  27.332  23.335  1.00  0.00    -0.744 OA
ENDBRANCH  69  73
ENDBRANCH  52  66
BRANCH  53  77
ATOM     77  C   UNL A   1      40.041  29.245  29.289  1.00  0.00     0.023 A 
ATOM     78  C   UNL A   1      39.673  29.208  30.643  1.00  0.00     0.031 A 
ATOM     79  C   UNL A   1      39.017  29.368  28.333  1.00  0.00     0.131 A 
ATOM     80  C   UNL A   1      38.318  29.238  31.002  1.00  0.00     0.055 A 
ATOM     81  C   UNL A   1      37.672  29.459  28.698  1.00  0.00     0.041 A 
ATOM     82  F   UNL A   1      39.310  29.410  27.023  1.00  0.00    -0.206 F 
ATOM     83  C   UNL A   1      37.315  29.379  30.041  1.00  0.00     0.022 A 
BRANCH  80  84
ATOM     84  S   UNL A   1      37.876  28.988  32.744  1.00  0.00     0.124 S 
ATOM     85  O   UNL A   1      36.600  29.688  32.829  1.00  0.00    -0.237 OA
ATOM     86  O   UNL A   1      37.820  27.533  32.837  1.00  0.00    -0.237 OA
ATOM     87  O   UNL A   1      38.982  29.615  33.467  1.00  0.00    -0.744 OA
ENDBRANCH  80  84
ENDBRANCH  53  77
BRANCH  65  88
ATOM     88  C   UNL A   1      45.475  33.618  29.402  1.00  0.00     0.023 A 
ATOM     89  C   UNL A   1      45.116  34.663  28.531  1.00  0.00     0.031 A 
ATOM     90  C   UNL A   1      45.975  33.960  30.672  1.00  0.00     0.131 A 
ATOM     91  C   UNL A   1      45.318  35.996  28.919  1.00  0.00     0.055 A 
ATOM     92  C   UNL A   1      46.108  35.288  31.078  1.00  0.00     0.041 A 
ATOM     93  F   UNL A   1      46.339  33.006  31.544  1.00  0.00    -0.206 F 
ATOM     94  C   UNL A   1      45.792  36.316  30.194  1.00  0.00     0.022 A 
BRANCH  91  95
ATOM     95  S   UNL A   1      45.052  37.308  27.695  1.00  0.00     0.124 S 
ATOM     96  O   UNL A   1      44.414  38.347  28.497  1.00  0.00    -0.237 OA
ATOM     97  O   UNL A   1      46.410  37.595  27.245  1.00  0.00    -0.237 OA
ATOM     98  O   UNL A   1      44.190  36.677  26.697  1.00  0.00    -0.744 OA
ENDBRANCH  91  95
ENDBRANCH  65  88
ENDBRANCH  39  40
ENDBRANCH  31  34
ENDBRANCH  29  30
ENDBRANCH  28  29
ENDBRANCH  27  28
ENDBRANCH   1  27
TORSDOF 19
ENDMDL
MODEL 3
REMARK VINA RESULT:     -10.3      2.429      7.982
REMARK SMILES CCC1(C(=O)N[C@H]2C=C[C@H](C(=O)NCCCCCCNC(=O)c3ccc(-c4c5nc(c(-c6cc(S(=O)(=O)[O-])ccc6F)c6ccc([nH]6)c(-c6cc(S(=O)(=O)[O-])ccc6F)c6nc(c(-c7cc(S(=O)(=O)[O-])ccc7F)c7ccc4[nH]7)C=C6)C=C5)cc3)C2)CC[NH2+]CC1
REMARK SMILES IDX 16 1 15 2 14 3 13 4 11 5 12 6 10 8 7 9 8 10 86 11 9 12 6 13
REMARK SMILES IDX 4 14 5 15 3 17 87 18 91 19 88 20 90 21 89 22 2 25 1 26 17 27
REMARK SMILES IDX 18 28 19 29 20 30 21 31 22 33 23 34 24 35 85 36 25 37 84 38
REMARK SMILES IDX 26 39 27 40 28 41 78 42 29 43 83 44 77 45 79 46 30 47 82 48
REMARK SMILES IDX 76 49 75 50 31 52 63 53 43 54 62 55 44 56 47 57 61 58 80 59
REMARK SMILES IDX 45 60 46 61 60 63 81 64 48 65 32 66 33 67 41 68 34 69 40 70
REMARK SMILES IDX 42 71 39 72 35 73 36 74 37 75 38 76 64 77 65 78 73 79 66 80
REMARK SMILES IDX 72 81 74 82 71 83 67 84 68 85 69 86 70 87 49 88 50 89 58 90
REMARK SMILES IDX 51 91 57 92 59 93 56 94 52 95 53 96 54 97 55 98
REMARK H PARENT 13 7 6 16 89 23 89 24 20 32 79 51 47 62
REMARK Flexibility Score: inf
ROOT
ATOM      1  C   UNL A   1      37.001  21.754  25.385  1.00  0.00     0.002 C 
ENDROOT
BRANCH   1   2
ATOM      2  C   UNL A   1      35.698  21.457  26.135  1.00  0.00     0.021 C 
BRANCH   2   3
ATOM      3  C   UNL A   1      34.711  22.619  26.176  1.00  0.00     0.116 C 
BRANCH   3   4
ATOM      4  N   UNL A   1      33.425  22.271  25.599  1.00  0.00    -0.356 N 
ATOM      5  C   UNL A   1      32.984  22.494  24.321  1.00  0.00     0.227 C 
ATOM      6  O   UNL A   1      31.889  22.050  23.981  1.00  0.00    -0.274 OA
ATOM      7  H   UNL A   1      32.791  21.819  26.201  1.00  0.00     0.163 HD
BRANCH   5   8
ATOM      8  C   UNL A   1      33.885  23.323  23.403  1.00  0.00     0.103 C 
ATOM      9  C   UNL A   1      32.924  25.538  23.110  1.00  0.00     0.106 C 
ATOM     10  C   UNL A   1      32.876  24.756  21.838  1.00  0.00    -0.006 C 
ATOM     11  C   UNL A   1      33.960  24.762  23.926  1.00  0.00     0.047 C 
ATOM     12  C   UNL A   1      33.362  23.521  22.012  1.00  0.00    -0.016 C 
BRANCH   9  13
ATOM     13  N   UNL A   1      33.395  26.874  22.847  1.00  0.00    -0.349 N 
ATOM     14  C   UNL A   1      33.321  28.022  23.569  1.00  0.00     0.227 C 
ATOM     15  O   UNL A   1      34.011  28.949  23.129  1.00  0.00    -0.274 OA
ATOM     16  H   UNL A   1      33.857  26.974  21.984  1.00  0.00     0.164 HD
BRANCH  14  17
ATOM     17  C   UNL A   1      32.412  28.198  24.830  1.00  0.00     0.060 C 
ATOM     18  C   UNL A   1      33.143  27.512  26.027  1.00  0.00     0.078 C 
ATOM     19  C   UNL A   1      32.133  29.702  25.077  1.00  0.00     0.078 C 
ATOM     20  C   UNL A   1      32.943  28.130  27.410  1.00  0.00     0.261 C 
ATOM     21  C   UNL A   1      31.786  30.031  26.527  1.00  0.00     0.261 C 
ATOM     22  N   UNL A   1      32.863  29.584  27.398  1.00  0.00    -0.346 N 
ATOM     23  H   UNL A   1      33.747  29.966  27.061  1.00  0.00     0.346 HD
ATOM     24  H   UNL A   1      32.678  29.911  28.346  1.00  0.00     0.346 HD
BRANCH  17  25
ATOM     25  C   UNL A   1      31.070  27.427  24.506  1.00  0.00     0.014 C 
ATOM     26  C   UNL A   1      30.483  26.474  25.536  1.00  0.00     0.005 C 
ENDBRANCH  17  25
ENDBRANCH  14  17
ENDBRANCH   9  13
ENDBRANCH   5   8
ENDBRANCH   3   4
ENDBRANCH   2   3
ENDBRANCH   1   2
BRANCH   1  27
ATOM     27  C   UNL A   1      37.416  20.694  24.361  1.00  0.00     0.002 C 
BRANCH  27  28
ATOM     28  C   UNL A   1      38.260  19.545  24.917  1.00  0.00     0.021 C 
BRANCH  28  29
ATOM     29  C   UNL A   1      39.120  19.910  26.122  1.00  0.00     0.116 C 
BRANCH  29  30
ATOM     30  N   UNL A   1      40.394  19.212  26.117  1.00  0.00    -0.352 N 
ATOM     31  C   UNL A   1      41.668  19.723  26.185  1.00  0.00     0.251 C 
ATOM     32  H   UNL A   1      40.336  18.231  26.056  1.00  0.00     0.163 HD
ATOM     33  O   UNL A   1      42.627  18.995  25.959  1.00  0.00    -0.269 OA
BRANCH  31  34
ATOM     34  C   UNL A   1      41.870  21.154  26.504  1.00  0.00     0.039 A 
ATOM     35  C   UNL A   1      42.206  21.515  27.810  1.00  0.00     0.014 A 
ATOM     36  C   UNL A   1      41.730  22.137  25.518  1.00  0.00     0.014 A 
ATOM     37  C   UNL A   1      42.463  22.855  28.113  1.00  0.00     0.010 A 
ATOM     38  C   UNL A   1      42.063  23.458  25.804  1.00  0.00     0.010 A 
ATOM     39  C   UNL A   1      42.431  23.833  27.105  1.00  0.00    -0.014 A 
BRANCH  39  40
ATOM     40  C   UNL A   1      42.777  25.250  27.396  1.00  0.00     0.031 A 
ATOM     41  C   UNL A   1      44.134  25.787  27.031  1.00  0.00     0.074 A 
ATOM     42  C   UNL A   1      41.888  26.037  28.034  1.00  0.00     0.049 A 
ATOM     43  N   UNL A   1      44.645  26.972  27.256  1.00  0.00    -0.248 NA
ATOM     44  C   UNL A   1      45.048  24.858  26.350  1.00  0.00     0.031 C 
ATOM     45  C   UNL A   1      40.551  25.624  28.464  1.00  0.00     0.029 A 
ATOM     46  N   UNL A   1      41.973  27.348  28.433  1.00  0.00    -0.354 N 
ATOM     47  C   UNL A   1      45.940  26.928  26.750  1.00  0.00     0.074 A 
ATOM     48  C   UNL A   1      46.157  25.578  26.276  1.00  0.00     0.031 C 
ATOM     49  C   UNL A   1      39.930  26.668  29.034  1.00  0.00     0.029 A 
ATOM     50  C   UNL A   1      40.839  27.809  29.061  1.00  0.00     0.049 A 
ATOM     51  H   UNL A   1      42.770  27.905  28.285  1.00  0.00     0.167 HD
ATOM     52  C   UNL A   1      46.854  27.928  26.664  1.00  0.00     0.034 A 
ATOM     53  C   UNL A   1      40.566  29.012  29.607  1.00  0.00     0.034 A 
ATOM     54  C   UNL A   1      46.620  29.269  27.145  1.00  0.00     0.049 A 
ATOM     55  C   UNL A   1      41.620  30.091  29.556  1.00  0.00     0.074 A 
ATOM     56  C   UNL A   1      47.458  30.369  27.072  1.00  0.00     0.029 A 
ATOM     57  N   UNL A   1      45.470  29.692  27.801  1.00  0.00    -0.354 N 
ATOM     58  N   UNL A   1      42.823  30.048  29.030  1.00  0.00    -0.248 NA
ATOM     59  C   UNL A   1      41.274  31.381  30.164  1.00  0.00     0.031 C 
ATOM     60  C   UNL A   1      46.851  31.430  27.752  1.00  0.00     0.029 A 
ATOM     61  C   UNL A   1      45.594  31.024  28.172  1.00  0.00     0.049 A 
ATOM     62  H   UNL A   1      44.682  29.129  27.976  1.00  0.00     0.167 HD
ATOM     63  C   UNL A   1      43.361  31.321  29.212  1.00  0.00     0.074 A 
ATOM     64  C   UNL A   1      42.346  32.107  29.883  1.00  0.00     0.031 C 
ATOM     65  C   UNL A   1      44.580  31.797  28.851  1.00  0.00     0.034 A 
BRANCH  52  66
ATOM     66  C   UNL A   1      48.196  27.591  26.055  1.00  0.00     0.023 A 
ATOM     67  C   UNL A   1      48.443  27.753  24.679  1.00  0.00     0.031 A 
ATOM     68  C   UNL A   1      49.231  27.064  26.848  1.00  0.00     0.131 A 
ATOM     69  C   UNL A   1      49.653  27.308  24.126  1.00  0.00     0.055 A 
ATOM     70  C   UNL A   1      50.468  26.711  26.305  1.00  0.00     0.041 A 
ATOM     71  F   UNL A   1      49.051  26.864  28.163  1.00  0.00    -0.206 F 
ATOM     72  C   UNL A   1      50.679  26.814  24.933  1.00  0.00     0.022 A 
BRANCH  69  73
ATOM     73  S   UNL A   1      49.795  27.220  22.320  1.00  0.00     0.124 S 
ATOM     74  O   UNL A   1      49.525  28.604  21.935  1.00  0.00    -0.237 OA
ATOM     75  O   UNL A   1      51.166  26.760  22.133  1.00  0.00    -0.237 OA
ATOM     76  O   UNL A   1      48.758  26.263  21.941  1.00  0.00    -0.744 OA
ENDBRANCH  69  73
ENDBRANCH  52  66
BRANCH  53  77
ATOM     77  C   UNL A   1      39.247  29.269  30.256  1.00  0.00     0.023 A 
ATOM     78  C   UNL A   1      38.261  30.028  29.606  1.00  0.00     0.031 A 
ATOM     79  C   UNL A   1      38.970  28.802  31.553  1.00  0.00     0.131 A 
ATOM     80  C   UNL A   1      37.068  30.344  30.273  1.00  0.00     0.055 A 
ATOM     81  C   UNL A   1      37.756  29.068  32.190  1.00  0.00     0.041 A 
ATOM     82  F   UNL A   1      39.876  28.071  32.221  1.00  0.00    -0.206 F 
ATOM     83  C   UNL A   1      36.801  29.855  31.554  1.00  0.00     0.022 A 
BRANCH  80  84
ATOM     84  S   UNL A   1      35.907  31.488  29.477  1.00  0.00     0.124 S 
ATOM     85  O   UNL A   1      36.811  32.489  28.923  1.00  0.00    -0.237 OA
ATOM     86  O   UNL A   1      35.239  30.620  28.513  1.00  0.00    -0.237 OA
ATOM     87  O   UNL A   1      35.070  31.947  30.585  1.00  0.00    -0.744 OA
ENDBRANCH  80  84
ENDBRANCH  53  77
BRANCH  65  88
ATOM     88  C   UNL A   1      44.861  33.255  29.131  1.00  0.00     0.023 A 
ATOM     89  C   UNL A   1      45.476  33.679  30.323  1.00  0.00     0.031 A 
ATOM     90  C   UNL A   1      44.492  34.237  28.194  1.00  0.00     0.131 A 
ATOM     91  C   UNL A   1      45.651  35.050  30.570  1.00  0.00     0.055 A 
ATOM     92  C   UNL A   1      44.731  35.593  28.415  1.00  0.00     0.041 A 
ATOM     93  F   UNL A   1      43.895  33.892  27.041  1.00  0.00    -0.206 F 
ATOM     94  C   UNL A   1      45.301  36.008  29.615  1.00  0.00     0.022 A 
BRANCH  91  95
ATOM     95  S   UNL A   1      46.244  35.571  32.202  1.00  0.00     0.124 S 
ATOM     96  O   UNL A   1      46.264  37.024  32.069  1.00  0.00    -0.237 OA
ATOM     97  O   UNL A   1      45.226  35.026  33.094  1.00  0.00    -0.237 OA
ATOM     98  O   UNL A   1      47.560  34.941  32.307  1.00  0.00    -0.744 OA
ENDBRANCH  91  95
ENDBRANCH  65  88
ENDBRANCH  39  40
ENDBRANCH  31  34
ENDBRANCH  29  30
ENDBRANCH  28  29
ENDBRANCH  27  28
ENDBRANCH   1  27
TORSDOF 19
ENDMDL
