MODEL 1
REMARK VINA RESULT:     -13.1      0.000      0.000
REMARK SMILES Cc1ccc2c(c1)c(-c1ccnc3c(C)cccc13)c(C)n2CC(=O)NCCCCCCNC(=O)c1ccc(-c2c3nc(c(-c4cc(S(=O)(=O)[O-])ccc4F)c4ccc([nH]4)c(-c4cc(S(=O)(=O)[O-])ccc4F)c4nc(c(-c5cc(S(=O)(=O)[O-])ccc5F)c5ccc2[nH]5)C=C4)C=C3)cc1
REMARK SMILES IDX 30 1 29 2 28 3 27 4 26 5 24 6 25 7 23 9 22 10 1 11 2 12 3 13
REMARK SMILES IDX 7 14 4 15 6 16 5 17 8 18 20 19 21 20 9 21 10 22 19 23 11 24
REMARK SMILES IDX 13 25 18 26 12 27 14 28 17 29 15 30 16 31 31 32 32 33 33 34
REMARK SMILES IDX 34 35 35 37 36 38 37 39 98 40 38 41 97 42 39 43 40 44 41 45
REMARK SMILES IDX 91 46 42 47 96 48 90 49 92 50 43 51 95 52 89 53 88 54 44 56
REMARK SMILES IDX 76 57 56 58 75 59 57 60 60 61 74 62 93 63 58 64 59 65 73 67
REMARK SMILES IDX 94 68 61 69 45 70 46 71 54 72 47 73 53 74 55 75 52 76 48 77
REMARK SMILES IDX 49 78 50 79 51 80 77 81 78 82 86 83 79 84 85 85 87 86 84 87
REMARK SMILES IDX 80 88 81 89 82 90 83 91 62 92 63 93 71 94 64 95 70 96 72 97
REMARK SMILES IDX 69 98 65 99 66 100 67 101 68 102
REMARK H PARENT 26 8 33 36 92 55 60 66
REMARK Flexibility Score: inf
ROOT
ATOM      1  C   UNL A   1      31.935  29.142  25.517  1.00  0.00     0.002 C 
ENDROOT
BRANCH   1   2
ATOM      2  C   UNL A   1      30.763  29.207  24.530  1.00  0.00     0.002 C 
BRANCH   2   3
ATOM      3  C   UNL A   1      31.129  28.852  23.083  1.00  0.00     0.021 C 
BRANCH   3   4
ATOM      4  C   UNL A   1      30.605  27.492  22.630  1.00  0.00     0.116 C 
BRANCH   4   5
ATOM      5  N   UNL A   1      31.496  26.874  21.664  1.00  0.00    -0.355 N 
ATOM      6  C   UNL A   1      32.720  26.299  21.855  1.00  0.00     0.239 C 
ATOM      7  O   UNL A   1      33.317  25.866  20.865  1.00  0.00    -0.273 OA
ATOM      8  H   UNL A   1      31.171  26.870  20.734  1.00  0.00     0.163 HD
BRANCH   6   9
ATOM      9  C   UNL A   1      33.295  26.131  23.249  1.00  0.00     0.222 C 
BRANCH   9  10
ATOM     10  N   UNL A   1      33.114  24.795  23.808  1.00  0.00    -0.335 N 
ATOM     11  C   UNL A   1      29.413  22.662  27.521  1.00  0.00     0.044 C 
ATOM     12  C   UNL A   1      30.337  23.262  26.501  1.00  0.00    -0.050 A 
ATOM     13  C   UNL A   1      30.086  24.543  26.012  1.00  0.00     0.005 A 
ATOM     14  C   UNL A   1      31.466  22.560  26.050  1.00  0.00     0.014 A 
ATOM     15  C   UNL A   1      30.932  25.142  25.074  1.00  0.00     0.027 A 
ATOM     16  C   UNL A   1      32.340  23.145  25.105  1.00  0.00     0.008 A 
ATOM     17  C   UNL A   1      32.068  24.432  24.643  1.00  0.00     0.049 A 
ATOM     18  C   UNL A   1      33.542  22.712  24.469  1.00  0.00     0.011 A 
ATOM     19  C   UNL A   1      33.951  23.711  23.596  1.00  0.00     0.024 A 
ATOM     20  C   UNL A   1      35.099  23.722  22.641  1.00  0.00     0.065 C 
BRANCH  18  21
ATOM     21  C   UNL A   1      34.265  21.459  24.665  1.00  0.00    -0.005 A 
ATOM     22  C   UNL A   1      35.539  21.520  25.222  1.00  0.00     0.029 A 
ATOM     23  C   UNL A   1      33.730  20.208  24.254  1.00  0.00     0.008 A 
ATOM     24  C   UNL A   1      36.234  20.341  25.367  1.00  0.00     0.112 A 
ATOM     25  C   UNL A   1      34.528  19.057  24.438  1.00  0.00     0.074 A 
ATOM     26  C   UNL A   1      32.452  20.066  23.663  1.00  0.00     0.011 A 
ATOM     27  N   UNL A   1      35.755  19.134  24.995  1.00  0.00    -0.256 NA
ATOM     28  C   UNL A   1      34.019  17.816  24.019  1.00  0.00    -0.025 A 
ATOM     29  C   UNL A   1      31.965  18.836  23.245  1.00  0.00     0.001 A 
ATOM     30  C   UNL A   1      34.808  16.544  24.180  1.00  0.00     0.047 C 
ATOM     31  C   UNL A   1      32.750  17.711  23.420  1.00  0.00     0.005 A 
ENDBRANCH  18  21
ENDBRANCH   9  10
ENDBRANCH   6   9
ENDBRANCH   4   5
ENDBRANCH   3   4
ENDBRANCH   2   3
ENDBRANCH   1   2
BRANCH   1  32
ATOM     32  C   UNL A   1      32.320  30.482  26.162  1.00  0.00     0.021 C 
BRANCH  32  33
ATOM     33  C   UNL A   1      33.647  30.448  26.921  1.00  0.00     0.116 C 
BRANCH  33  34
ATOM     34  N   UNL A   1      33.831  31.602  27.775  1.00  0.00    -0.352 N 
ATOM     35  C   UNL A   1      34.828  32.063  28.587  1.00  0.00     0.251 C 
ATOM     36  H   UNL A   1      33.049  32.200  27.767  1.00  0.00     0.163 HD
ATOM     37  O   UNL A   1      34.601  33.148  29.133  1.00  0.00    -0.269 OA
BRANCH  35  38
ATOM     38  C   UNL A   1      36.101  31.353  28.897  1.00  0.00     0.039 A 
ATOM     39  C   UNL A   1      37.347  31.945  29.103  1.00  0.00     0.014 A 
ATOM     40  C   UNL A   1      36.015  29.947  28.942  1.00  0.00     0.014 A 
ATOM     41  C   UNL A   1      38.486  31.155  29.255  1.00  0.00     0.010 A 
ATOM     42  C   UNL A   1      37.146  29.155  29.108  1.00  0.00     0.010 A 
ATOM     43  C   UNL A   1      38.390  29.760  29.214  1.00  0.00    -0.014 A 
BRANCH  43  44
ATOM     44  C   UNL A   1      39.615  28.977  29.371  1.00  0.00     0.031 A 
ATOM     45  C   UNL A   1      39.968  28.649  30.783  1.00  0.00     0.074 A 
ATOM     46  C   UNL A   1      40.336  28.491  28.338  1.00  0.00     0.049 A 
ATOM     47  N   UNL A   1      40.969  29.083  31.478  1.00  0.00    -0.248 NA
ATOM     48  C   UNL A   1      39.009  27.848  31.557  1.00  0.00     0.031 C 
ATOM     49  C   UNL A   1      39.976  28.462  26.917  1.00  0.00     0.029 A 
ATOM     50  N   UNL A   1      41.527  27.829  28.361  1.00  0.00    -0.354 N 
ATOM     51  C   UNL A   1      40.882  28.454  32.722  1.00  0.00     0.074 A 
ATOM     52  C   UNL A   1      39.580  27.838  32.762  1.00  0.00     0.031 C 
ATOM     53  C   UNL A   1      40.805  27.617  26.262  1.00  0.00     0.029 A 
ATOM     54  C   UNL A   1      41.847  27.180  27.175  1.00  0.00     0.049 A 
ATOM     55  H   UNL A   1      42.114  27.812  29.153  1.00  0.00     0.167 HD
ATOM     56  C   UNL A   1      41.967  28.323  33.540  1.00  0.00     0.034 A 
ATOM     57  C   UNL A   1      42.864  26.305  26.969  1.00  0.00     0.034 A 
ATOM     58  C   UNL A   1      43.039  29.182  33.116  1.00  0.00     0.049 A 
ATOM     59  C   UNL A   1      43.859  26.496  28.048  1.00  0.00     0.074 A 
ATOM     60  C   UNL A   1      43.243  30.542  33.043  1.00  0.00     0.029 A 
ATOM     61  N   UNL A   1      44.027  28.608  32.355  1.00  0.00    -0.354 N 
ATOM     62  N   UNL A   1      44.609  27.554  28.171  1.00  0.00    -0.248 NA
ATOM     63  C   UNL A   1      43.716  25.683  29.245  1.00  0.00     0.031 C 
ATOM     64  C   UNL A   1      44.052  30.732  31.886  1.00  0.00     0.029 A 
ATOM     65  C   UNL A   1      44.344  29.477  31.348  1.00  0.00     0.049 A 
ATOM     66  H   UNL A   1      44.435  27.726  32.507  1.00  0.00     0.167 HD
ATOM     67  C   UNL A   1      44.637  27.794  29.536  1.00  0.00     0.074 A 
ATOM     68  C   UNL A   1      44.169  26.553  30.150  1.00  0.00     0.031 C 
ATOM     69  C   UNL A   1      44.767  29.061  30.025  1.00  0.00     0.034 A 
BRANCH  56  70
ATOM     70  C   UNL A   1      42.205  27.160  34.483  1.00  0.00     0.023 A 
ATOM     71  C   UNL A   1      42.966  26.029  34.139  1.00  0.00     0.031 A 
ATOM     72  C   UNL A   1      41.881  27.284  35.854  1.00  0.00     0.131 A 
ATOM     73  C   UNL A   1      43.398  25.111  35.107  1.00  0.00     0.055 A 
ATOM     74  C   UNL A   1      42.367  26.404  36.829  1.00  0.00     0.041 A 
ATOM     75  F   UNL A   1      41.139  28.309  36.302  1.00  0.00    -0.206 F 
ATOM     76  C   UNL A   1      43.139  25.313  36.458  1.00  0.00     0.022 A 
BRANCH  73  77
ATOM     77  S   UNL A   1      44.341  23.640  34.621  1.00  0.00     0.124 S 
ATOM     78  O   UNL A   1      43.442  23.010  33.661  1.00  0.00    -0.237 OA
ATOM     79  O   UNL A   1      45.550  24.236  34.061  1.00  0.00    -0.237 OA
ATOM     80  O   UNL A   1      44.530  22.927  35.882  1.00  0.00    -0.744 OA
ENDBRANCH  73  77
ENDBRANCH  56  70
BRANCH  57  81
ATOM     81  C   UNL A   1      42.784  25.022  26.229  1.00  0.00     0.023 A 
ATOM     82  C   UNL A   1      41.782  24.094  26.567  1.00  0.00     0.031 A 
ATOM     83  C   UNL A   1      43.863  24.557  25.456  1.00  0.00     0.131 A 
ATOM     84  C   UNL A   1      41.905  22.748  26.193  1.00  0.00     0.055 A 
ATOM     85  C   UNL A   1      43.973  23.217  25.065  1.00  0.00     0.041 A 
ATOM     86  F   UNL A   1      44.873  25.381  25.132  1.00  0.00    -0.206 F 
ATOM     87  C   UNL A   1      42.999  22.301  25.449  1.00  0.00     0.022 A 
BRANCH  84  88
ATOM     88  S   UNL A   1      40.689  21.529  26.765  1.00  0.00     0.124 S 
ATOM     89  O   UNL A   1      40.848  21.597  28.218  1.00  0.00    -0.237 OA
ATOM     90  O   UNL A   1      39.442  22.094  26.247  1.00  0.00    -0.237 OA
ATOM     91  O   UNL A   1      41.129  20.289  26.152  1.00  0.00    -0.744 OA
ENDBRANCH  84  88
ENDBRANCH  57  81
BRANCH  69  92
ATOM     92  C   UNL A   1      45.146  30.176  29.076  1.00  0.00     0.023 A 
ATOM     93  C   UNL A   1      46.502  30.548  29.046  1.00  0.00     0.031 A 
ATOM     94  C   UNL A   1      44.228  31.009  28.410  1.00  0.00     0.131 A 
ATOM     95  C   UNL A   1      46.897  31.735  28.423  1.00  0.00     0.055 A 
ATOM     96  C   UNL A   1      44.638  32.156  27.721  1.00  0.00     0.041 A 
ATOM     97  F   UNL A   1      42.908  30.794  28.477  1.00  0.00    -0.206 F 
ATOM     98  C   UNL A   1      45.975  32.535  27.743  1.00  0.00     0.022 A 
BRANCH  95  99
ATOM     99  S   UNL A   1      48.585  32.352  28.634  1.00  0.00     0.124 S 
ATOM    100  O   UNL A   1      48.715  33.285  27.518  1.00  0.00    -0.237 OA
ATOM    101  O   UNL A   1      48.525  32.967  29.960  1.00  0.00    -0.237 OA
ATOM    102  O   UNL A   1      49.415  31.155  28.548  1.00  0.00    -0.744 OA
ENDBRANCH  95  99
ENDBRANCH  69  92
ENDBRANCH  43  44
ENDBRANCH  35  38
ENDBRANCH  33  34
ENDBRANCH  32  33
ENDBRANCH   1  32
TORSDOF 18
ENDMDL
MODEL 2
REMARK VINA RESULT:     -12.6      3.287      9.181
REMARK SMILES Cc1ccc2c(c1)c(-c1ccnc3c(C)cccc13)c(C)n2CC(=O)NCCCCCCNC(=O)c1ccc(-c2c3nc(c(-c4cc(S(=O)(=O)[O-])ccc4F)c4ccc([nH]4)c(-c4cc(S(=O)(=O)[O-])ccc4F)c4nc(c(-c5cc(S(=O)(=O)[O-])ccc5F)c5ccc2[nH]5)C=C4)C=C3)cc1
REMARK SMILES IDX 30 1 29 2 28 3 27 4 26 5 24 6 25 7 23 9 22 10 1 11 2 12 3 13
REMARK SMILES IDX 7 14 4 15 6 16 5 17 8 18 20 19 21 20 9 21 10 22 19 23 11 24
REMARK SMILES IDX 13 25 18 26 12 27 14 28 17 29 15 30 16 31 31 32 32 33 33 34
REMARK SMILES IDX 34 35 35 37 36 38 37 39 98 40 38 41 97 42 39 43 40 44 41 45
REMARK SMILES IDX 91 46 42 47 96 48 90 49 92 50 43 51 95 52 89 53 88 54 44 56
REMARK SMILES IDX 76 57 56 58 75 59 57 60 60 61 74 62 93 63 58 64 59 65 73 67
REMARK SMILES IDX 94 68 61 69 45 70 46 71 54 72 47 73 53 74 55 75 52 76 48 77
REMARK SMILES IDX 49 78 50 79 51 80 77 81 78 82 86 83 79 84 85 85 87 86 84 87
REMARK SMILES IDX 80 88 81 89 82 90 83 91 62 92 63 93 71 94 64 95 70 96 72 97
REMARK SMILES IDX 69 98 65 99 66 100 67 101 68 102
REMARK H PARENT 26 8 33 36 92 55 60 66
REMARK Flexibility Score: inf
ROOT
ATOM      1  C   UNL A   1      35.464  22.465  25.202  1.00  0.00     0.002 C 
ENDROOT
BRANCH   1   2
ATOM      2  C   UNL A   1      34.764  21.123  24.956  1.00  0.00     0.002 C 
BRANCH   2   3
ATOM      3  C   UNL A   1      33.531  20.877  25.835  1.00  0.00     0.021 C 
BRANCH   3   4
ATOM      4  C   UNL A   1      32.205  21.150  25.130  1.00  0.00     0.116 C 
BRANCH   4   5
ATOM      5  N   UNL A   1      31.241  21.760  26.028  1.00  0.00    -0.355 N 
ATOM      6  C   UNL A   1      31.281  22.976  26.649  1.00  0.00     0.239 C 
ATOM      7  O   UNL A   1      30.352  23.269  27.407  1.00  0.00    -0.273 OA
ATOM      8  H   UNL A   1      30.441  21.217  26.219  1.00  0.00     0.163 HD
BRANCH   6   9
ATOM      9  C   UNL A   1      32.395  23.964  26.360  1.00  0.00     0.222 C 
BRANCH   9  10
ATOM     10  N   UNL A   1      32.024  25.017  25.418  1.00  0.00    -0.335 N 
ATOM     11  C   UNL A   1      32.721  25.581  19.830  1.00  0.00     0.044 C 
ATOM     12  C   UNL A   1      32.512  25.361  21.301  1.00  0.00    -0.050 A 
ATOM     13  C   UNL A   1      32.792  24.113  21.857  1.00  0.00     0.005 A 
ATOM     14  C   UNL A   1      32.064  26.401  22.129  1.00  0.00     0.014 A 
ATOM     15  C   UNL A   1      32.626  23.874  23.224  1.00  0.00     0.027 A 
ATOM     16  C   UNL A   1      31.892  26.186  23.516  1.00  0.00     0.008 A 
ATOM     17  C   UNL A   1      32.190  24.930  24.044  1.00  0.00     0.049 A 
ATOM     18  C   UNL A   1      31.471  27.013  24.601  1.00  0.00     0.011 A 
ATOM     19  C   UNL A   1      31.467  26.240  25.753  1.00  0.00     0.024 A 
ATOM     20  C   UNL A   1      31.035  26.606  27.136  1.00  0.00     0.065 C 
BRANCH  18  21
ATOM     21  C   UNL A   1      31.105  28.426  24.568  1.00  0.00    -0.005 A 
ATOM     22  C   UNL A   1      31.908  29.325  25.264  1.00  0.00     0.029 A 
ATOM     23  C   UNL A   1      29.937  28.886  23.901  1.00  0.00     0.008 A 
ATOM     24  C   UNL A   1      31.536  30.650  25.265  1.00  0.00     0.112 A 
ATOM     25  C   UNL A   1      29.639  30.266  23.971  1.00  0.00     0.074 A 
ATOM     26  C   UNL A   1      29.062  28.033  23.189  1.00  0.00     0.011 A 
ATOM     27  N   UNL A   1      30.439  31.124  24.638  1.00  0.00    -0.256 NA
ATOM     28  C   UNL A   1      28.478  30.732  23.333  1.00  0.00    -0.025 A 
ATOM     29  C   UNL A   1      27.912  28.505  22.571  1.00  0.00     0.001 A 
ATOM     30  C   UNL A   1      28.090  32.187  23.362  1.00  0.00     0.047 C 
ATOM     31  C   UNL A   1      27.619  29.854  22.646  1.00  0.00     0.005 A 
ENDBRANCH  18  21
ENDBRANCH   9  10
ENDBRANCH   6   9
ENDBRANCH   4   5
ENDBRANCH   3   4
ENDBRANCH   2   3
ENDBRANCH   1   2
BRANCH   1  32
ATOM     32  C   UNL A   1      36.788  22.378  25.977  1.00  0.00     0.021 C 
BRANCH  32  33
ATOM     33  C   UNL A   1      38.031  22.548  25.103  1.00  0.00     0.116 C 
BRANCH  33  34
ATOM     34  N   UNL A   1      39.228  22.028  25.731  1.00  0.00    -0.352 N 
ATOM     35  C   UNL A   1      40.099  22.472  26.685  1.00  0.00     0.251 C 
ATOM     36  H   UNL A   1      39.473  21.138  25.387  1.00  0.00     0.163 HD
ATOM     37  O   UNL A   1      41.005  21.685  26.977  1.00  0.00    -0.269 OA
BRANCH  35  38
ATOM     38  C   UNL A   1      40.071  23.813  27.337  1.00  0.00     0.039 A 
ATOM     39  C   UNL A   1      39.009  24.716  27.318  1.00  0.00     0.014 A 
ATOM     40  C   UNL A   1      41.259  24.192  27.994  1.00  0.00     0.014 A 
ATOM     41  C   UNL A   1      39.161  25.993  27.859  1.00  0.00     0.010 A 
ATOM     42  C   UNL A   1      41.411  25.459  28.546  1.00  0.00     0.010 A 
ATOM     43  C   UNL A   1      40.377  26.379  28.433  1.00  0.00    -0.014 A 
BRANCH  43  44
ATOM     44  C   UNL A   1      40.488  27.731  28.978  1.00  0.00     0.031 A 
ATOM     45  C   UNL A   1      41.551  28.570  28.352  1.00  0.00     0.074 A 
ATOM     46  C   UNL A   1      39.646  28.241  29.903  1.00  0.00     0.049 A 
ATOM     47  N   UNL A   1      42.647  29.000  28.888  1.00  0.00    -0.248 NA
ATOM     48  C   UNL A   1      41.444  28.843  26.913  1.00  0.00     0.031 C 
ATOM     49  C   UNL A   1      38.389  27.671  30.395  1.00  0.00     0.029 A 
ATOM     50  N   UNL A   1      39.702  29.445  30.540  1.00  0.00    -0.354 N 
ATOM     51  C   UNL A   1      43.281  29.772  27.910  1.00  0.00     0.074 A 
ATOM     52  C   UNL A   1      42.577  29.507  26.681  1.00  0.00     0.031 C 
ATOM     53  C   UNL A   1      37.696  28.623  31.062  1.00  0.00     0.029 A 
ATOM     54  C   UNL A   1      38.527  29.808  31.185  1.00  0.00     0.049 A 
ATOM     55  H   UNL A   1      40.509  30.010  30.543  1.00  0.00     0.167 HD
ATOM     56  C   UNL A   1      44.208  30.720  28.232  1.00  0.00     0.034 A 
ATOM     57  C   UNL A   1      38.235  31.013  31.737  1.00  0.00     0.034 A 
ATOM     58  C   UNL A   1      44.658  30.563  29.588  1.00  0.00     0.049 A 
ATOM     59  C   UNL A   1      39.508  31.733  31.969  1.00  0.00     0.074 A 
ATOM     60  C   UNL A   1      45.370  29.611  30.286  1.00  0.00     0.029 A 
ATOM     61  N   UNL A   1      44.073  31.368  30.533  1.00  0.00    -0.354 N 
ATOM     62  N   UNL A   1      40.393  31.383  32.858  1.00  0.00    -0.248 NA
ATOM     63  C   UNL A   1      39.991  32.600  30.907  1.00  0.00     0.031 C 
ATOM     64  C   UNL A   1      44.809  29.619  31.596  1.00  0.00     0.029 A 
ATOM     65  C   UNL A   1      43.825  30.608  31.642  1.00  0.00     0.049 A 
ATOM     66  H   UNL A   1      43.867  32.325  30.429  1.00  0.00     0.167 HD
ATOM     67  C   UNL A   1      41.609  31.584  32.225  1.00  0.00     0.074 A 
ATOM     68  C   UNL A   1      41.304  32.437  31.077  1.00  0.00     0.031 C 
ATOM     69  C   UNL A   1      42.695  30.814  32.526  1.00  0.00     0.034 A 
BRANCH  56  70
ATOM     70  C   UNL A   1      44.430  32.009  27.465  1.00  0.00     0.023 A 
ATOM     71  C   UNL A   1      43.740  33.203  27.742  1.00  0.00     0.031 A 
ATOM     72  C   UNL A   1      45.540  32.134  26.598  1.00  0.00     0.131 A 
ATOM     73  C   UNL A   1      44.156  34.433  27.215  1.00  0.00     0.055 A 
ATOM     74  C   UNL A   1      45.995  33.370  26.123  1.00  0.00     0.041 A 
ATOM     75  F   UNL A   1      46.265  31.062  26.240  1.00  0.00    -0.206 F 
ATOM     76  C   UNL A   1      45.306  34.532  26.439  1.00  0.00     0.022 A 
BRANCH  73  77
ATOM     77  S   UNL A   1      43.216  35.945  27.558  1.00  0.00     0.124 S 
ATOM     78  O   UNL A   1      42.261  35.485  28.559  1.00  0.00    -0.237 OA
ATOM     79  O   UNL A   1      44.262  36.840  28.044  1.00  0.00    -0.237 OA
ATOM     80  O   UNL A   1      42.656  36.299  26.256  1.00  0.00    -0.744 OA
ENDBRANCH  73  77
ENDBRANCH  56  70
BRANCH  57  81
ATOM     81  C   UNL A   1      36.957  31.755  31.604  1.00  0.00     0.023 A 
ATOM     82  C   UNL A   1      36.467  32.057  30.320  1.00  0.00     0.031 A 
ATOM     83  C   UNL A   1      36.407  32.460  32.689  1.00  0.00     0.131 A 
ATOM     84  C   UNL A   1      35.513  33.069  30.143  1.00  0.00     0.055 A 
ATOM     85  C   UNL A   1      35.438  33.456  32.512  1.00  0.00     0.041 A 
ATOM     86  F   UNL A   1      36.858  32.251  33.937  1.00  0.00    -0.206 F 
ATOM     87  C   UNL A   1      34.999  33.777  31.231  1.00  0.00     0.022 A 
BRANCH  84  88
ATOM     88  S   UNL A   1      35.001  33.556  28.473  1.00  0.00     0.124 S 
ATOM     89  O   UNL A   1      36.020  32.913  27.641  1.00  0.00    -0.237 OA
ATOM     90  O   UNL A   1      33.665  32.965  28.390  1.00  0.00    -0.237 OA
ATOM     91  O   UNL A   1      35.055  35.007  28.505  1.00  0.00    -0.744 OA
ENDBRANCH  84  88
ENDBRANCH  57  81
BRANCH  69  92
ATOM     92  C   UNL A   1      42.641  29.917  33.743  1.00  0.00     0.023 A 
ATOM     93  C   UNL A   1      43.340  30.352  34.882  1.00  0.00     0.031 A 
ATOM     94  C   UNL A   1      42.150  28.599  33.744  1.00  0.00     0.131 A 
ATOM     95  C   UNL A   1      43.581  29.474  35.942  1.00  0.00     0.055 A 
ATOM     96  C   UNL A   1      42.326  27.747  34.841  1.00  0.00     0.041 A 
ATOM     97  F   UNL A   1      41.567  28.064  32.663  1.00  0.00    -0.206 F 
ATOM     98  C   UNL A   1      43.062  28.177  35.939  1.00  0.00     0.022 A 
BRANCH  95  99
ATOM     99  S   UNL A   1      44.721  29.944  37.268  1.00  0.00     0.124 S 
ATOM    100  O   UNL A   1      46.024  29.729  36.645  1.00  0.00    -0.237 OA
ATOM    101  O   UNL A   1      44.361  31.342  37.502  1.00  0.00    -0.237 OA
ATOM    102  O   UNL A   1      44.392  29.033  38.359  1.00  0.00    -0.744 OA
ENDBRANCH  95  99
ENDBRANCH  69  92
ENDBRANCH  43  44
ENDBRANCH  35  38
ENDBRANCH  33  34
ENDBRANCH  32  33
ENDBRANCH   1  32
TORSDOF 18
ENDMDL
MODEL 3
REMARK VINA RESULT:     -12.4      1.986      3.106
REMARK SMILES Cc1ccc2c(c1)c(-c1ccnc3c(C)cccc13)c(C)n2CC(=O)NCCCCCCNC(=O)c1ccc(-c2c3nc(c(-c4cc(S(=O)(=O)[O-])ccc4F)c4ccc([nH]4)c(-c4cc(S(=O)(=O)[O-])ccc4F)c4nc(c(-c5cc(S(=O)(=O)[O-])ccc5F)c5ccc2[nH]5)C=C4)C=C3)cc1
REMARK SMILES IDX 30 1 29 2 28 3 27 4 26 5 24 6 25 7 23 9 22 10 1 11 2 12 3 13
REMARK SMILES IDX 7 14 4 15 6 16 5 17 8 18 20 19 21 20 9 21 10 22 19 23 11 24
REMARK SMILES IDX 13 25 18 26 12 27 14 28 17 29 15 30 16 31 31 32 32 33 33 34
REMARK SMILES IDX 34 35 35 37 36 38 37 39 98 40 38 41 97 42 39 43 40 44 41 45
REMARK SMILES IDX 91 46 42 47 96 48 90 49 92 50 43 51 95 52 89 53 88 54 44 56
REMARK SMILES IDX 76 57 56 58 75 59 57 60 60 61 74 62 93 63 58 64 59 65 73 67
REMARK SMILES IDX 94 68 61 69 45 70 46 71 54 72 47 73 53 74 55 75 52 76 48 77
REMARK SMILES IDX 49 78 50 79 51 80 77 81 78 82 86 83 79 84 85 85 87 86 84 87
REMARK SMILES IDX 80 88 81 89 82 90 83 91 62 92 63 93 71 94 64 95 70 96 72 97
REMARK SMILES IDX 69 98 65 99 66 100 67 101 68 102
REMARK H PARENT 26 8 33 36 92 55 60 66
REMARK Flexibility Score: inf
ROOT
ATOM      1  C   UNL A   1      35.018  29.971  27.263  1.00  0.00     0.002 C 
ENDROOT
BRANCH   1   2
ATOM      2  C   UNL A   1      34.629  28.696  26.505  1.00  0.00     0.002 C 
BRANCH   2   3
ATOM      3  C   UNL A   1      33.977  28.941  25.139  1.00  0.00     0.021 C 
BRANCH   3   4
ATOM      4  C   UNL A   1      32.470  28.695  25.120  1.00  0.00     0.116 C 
BRANCH   4   5
ATOM      5  N   UNL A   1      31.988  28.248  26.414  1.00  0.00    -0.355 N 
ATOM      6  C   UNL A   1      31.022  27.330  26.712  1.00  0.00     0.239 C 
ATOM      7  O   UNL A   1      30.753  27.137  27.901  1.00  0.00    -0.273 OA
ATOM      8  H   UNL A   1      32.422  28.668  27.193  1.00  0.00     0.163 HD
BRANCH   6   9
ATOM      9  C   UNL A   1      30.349  26.522  25.619  1.00  0.00     0.222 C 
BRANCH   9  10
ATOM     10  N   UNL A   1      31.256  25.638  24.891  1.00  0.00    -0.335 N 
ATOM     11  C   UNL A   1      32.757  25.328  19.443  1.00  0.00     0.044 C 
ATOM     12  C   UNL A   1      32.369  25.485  20.885  1.00  0.00    -0.050 A 
ATOM     13  C   UNL A   1      31.640  26.604  21.285  1.00  0.00     0.005 A 
ATOM     14  C   UNL A   1      32.709  24.508  21.833  1.00  0.00     0.014 A 
ATOM     15  C   UNL A   1      31.246  26.778  22.615  1.00  0.00     0.027 A 
ATOM     16  C   UNL A   1      32.319  24.658  23.184  1.00  0.00     0.008 A 
ATOM     17  C   UNL A   1      31.581  25.783  23.551  1.00  0.00     0.049 A 
ATOM     18  C   UNL A   1      32.493  23.865  24.358  1.00  0.00     0.011 A 
ATOM     19  C   UNL A   1      31.912  24.540  25.423  1.00  0.00     0.024 A 
ATOM     20  C   UNL A   1      31.888  24.178  26.872  1.00  0.00     0.065 C 
BRANCH  18  21
ATOM     21  C   UNL A   1      33.149  22.566  24.480  1.00  0.00    -0.005 A 
ATOM     22  C   UNL A   1      32.345  21.439  24.624  1.00  0.00     0.029 A 
ATOM     23  C   UNL A   1      34.564  22.437  24.511  1.00  0.00     0.008 A 
ATOM     24  C   UNL A   1      32.968  20.222  24.780  1.00  0.00     0.112 A 
ATOM     25  C   UNL A   1      35.104  21.143  24.685  1.00  0.00     0.074 A 
ATOM     26  C   UNL A   1      35.448  23.536  24.389  1.00  0.00     0.011 A 
ATOM     27  N   UNL A   1      34.308  20.060  24.808  1.00  0.00    -0.256 NA
ATOM     28  C   UNL A   1      36.502  21.003  24.736  1.00  0.00    -0.025 A 
ATOM     29  C   UNL A   1      36.826  23.384  24.451  1.00  0.00     0.001 A 
ATOM     30  C   UNL A   1      37.154  19.659  24.920  1.00  0.00     0.047 C 
ATOM     31  C   UNL A   1      37.352  22.119  24.628  1.00  0.00     0.005 A 
ENDBRANCH  18  21
ENDBRANCH   9  10
ENDBRANCH   6   9
ENDBRANCH   4   5
ENDBRANCH   3   4
ENDBRANCH   2   3
ENDBRANCH   1   2
BRANCH   1  32
ATOM     32  C   UNL A   1      33.880  30.984  27.464  1.00  0.00     0.021 C 
BRANCH  32  33
ATOM     33  C   UNL A   1      34.338  32.328  28.031  1.00  0.00     0.116 C 
BRANCH  33  34
ATOM     34  N   UNL A   1      34.368  32.341  29.479  1.00  0.00    -0.352 N 
ATOM     35  C   UNL A   1      35.223  31.879  30.439  1.00  0.00     0.251 C 
ATOM     36  H   UNL A   1      33.583  32.793  29.864  1.00  0.00     0.163 HD
ATOM     37  O   UNL A   1      34.895  32.134  31.602  1.00  0.00    -0.269 OA
BRANCH  35  38
ATOM     38  C   UNL A   1      36.451  31.069  30.198  1.00  0.00     0.039 A 
ATOM     39  C   UNL A   1      36.582  29.693  30.384  1.00  0.00     0.014 A 
ATOM     40  C   UNL A   1      37.584  31.796  29.779  1.00  0.00     0.014 A 
ATOM     41  C   UNL A   1      37.826  29.078  30.247  1.00  0.00     0.010 A 
ATOM     42  C   UNL A   1      38.824  31.185  29.628  1.00  0.00     0.010 A 
ATOM     43  C   UNL A   1      38.955  29.832  29.911  1.00  0.00    -0.014 A 
BRANCH  43  44
ATOM     44  C   UNL A   1      40.238  29.141  29.788  1.00  0.00     0.031 A 
ATOM     45  C   UNL A   1      40.953  28.918  31.078  1.00  0.00     0.074 A 
ATOM     46  C   UNL A   1      40.717  28.644  28.627  1.00  0.00     0.049 A 
ATOM     47  N   UNL A   1      42.057  29.457  31.482  1.00  0.00    -0.248 NA
ATOM     48  C   UNL A   1      40.279  28.104  32.099  1.00  0.00     0.031 C 
ATOM     49  C   UNL A   1      40.021  28.510  27.344  1.00  0.00     0.029 A 
ATOM     50  N   UNL A   1      41.924  28.063  28.377  1.00  0.00    -0.354 N 
ATOM     51  C   UNL A   1      42.329  28.896  32.733  1.00  0.00     0.074 A 
ATOM     52  C   UNL A   1      41.128  28.200  33.122  1.00  0.00     0.031 C 
ATOM     53  C   UNL A   1      40.725  27.684  26.537  1.00  0.00     0.029 A 
ATOM     54  C   UNL A   1      41.990  27.369  27.176  1.00  0.00     0.049 A 
ATOM     55  H   UNL A   1      42.687  28.130  28.997  1.00  0.00     0.167 HD
ATOM     56  C   UNL A   1      43.589  28.883  33.257  1.00  0.00     0.034 A 
ATOM     57  C   UNL A   1      42.989  26.551  26.757  1.00  0.00     0.034 A 
ATOM     58  C   UNL A   1      44.454  29.783  32.544  1.00  0.00     0.049 A 
ATOM     59  C   UNL A   1      44.202  26.868  27.544  1.00  0.00     0.074 A 
ATOM     60  C   UNL A   1      44.527  31.148  32.369  1.00  0.00     0.029 A 
ATOM     61  N   UNL A   1      45.264  29.232  31.584  1.00  0.00    -0.354 N 
ATOM     62  N   UNL A   1      44.875  27.978  27.433  1.00  0.00    -0.248 NA
ATOM     63  C   UNL A   1      44.421  26.118  28.770  1.00  0.00     0.031 C 
ATOM     64  C   UNL A   1      45.009  31.323  31.040  1.00  0.00     0.029 A 
ATOM     65  C   UNL A   1      45.255  30.060  30.496  1.00  0.00     0.049 A 
ATOM     66  H   UNL A   1      45.764  28.388  31.664  1.00  0.00     0.167 HD
ATOM     67  C   UNL A   1      45.221  28.298  28.737  1.00  0.00     0.074 A 
ATOM     68  C   UNL A   1      45.016  27.066  29.498  1.00  0.00     0.031 C 
ATOM     69  C   UNL A   1      45.369  29.597  29.127  1.00  0.00     0.034 A 
BRANCH  56  70
ATOM     70  C   UNL A   1      44.141  27.794  34.157  1.00  0.00     0.023 A 
ATOM     71  C   UNL A   1      44.351  27.964  35.537  1.00  0.00     0.031 A 
ATOM     72  C   UNL A   1      44.227  26.464  33.685  1.00  0.00     0.131 A 
ATOM     73  C   UNL A   1      44.594  26.874  36.383  1.00  0.00     0.055 A 
ATOM     74  C   UNL A   1      44.406  25.368  34.539  1.00  0.00     0.041 A 
ATOM     75  F   UNL A   1      44.069  26.177  32.383  1.00  0.00    -0.206 F 
ATOM     76  C   UNL A   1      44.581  25.570  35.900  1.00  0.00     0.022 A 
BRANCH  73  77
ATOM     77  S   UNL A   1      44.904  27.134  38.151  1.00  0.00     0.124 S 
ATOM     78  O   UNL A   1      46.235  26.562  38.311  1.00  0.00    -0.237 OA
ATOM     79  O   UNL A   1      44.822  28.588  38.254  1.00  0.00    -0.237 OA
ATOM     80  O   UNL A   1      43.815  26.407  38.798  1.00  0.00    -0.744 OA
ENDBRANCH  73  77
ENDBRANCH  56  70
BRANCH  57  81
ATOM     81  C   UNL A   1      42.828  25.225  26.112  1.00  0.00     0.023 A 
ATOM     82  C   UNL A   1      41.943  24.288  26.676  1.00  0.00     0.031 A 
ATOM     83  C   UNL A   1      43.767  24.749  25.180  1.00  0.00     0.131 A 
ATOM     84  C   UNL A   1      42.050  22.927  26.357  1.00  0.00     0.055 A 
ATOM     85  C   UNL A   1      43.858  23.391  24.846  1.00  0.00     0.041 A 
ATOM     86  F   UNL A   1      44.667  25.582  24.634  1.00  0.00    -0.206 F 
ATOM     87  C   UNL A   1      43.008  22.470  25.450  1.00  0.00     0.022 A 
BRANCH  84  88
ATOM     88  S   UNL A   1      41.008  21.708  27.205  1.00  0.00     0.124 S 
ATOM     89  O   UNL A   1      41.408  20.459  26.554  1.00  0.00    -0.237 OA
ATOM     90  O   UNL A   1      41.451  21.857  28.592  1.00  0.00    -0.237 OA
ATOM     91  O   UNL A   1      39.656  22.151  26.917  1.00  0.00    -0.744 OA
ENDBRANCH  84  88
ENDBRANCH  57  81
BRANCH  69  92
ATOM     92  C   UNL A   1      45.415  30.677  28.070  1.00  0.00     0.023 A 
ATOM     93  C   UNL A   1      46.686  31.160  27.714  1.00  0.00     0.031 A 
ATOM     94  C   UNL A   1      44.294  31.384  27.597  1.00  0.00     0.131 A 
ATOM     95  C   UNL A   1      46.813  32.335  26.967  1.00  0.00     0.055 A 
ATOM     96  C   UNL A   1      44.425  32.516  26.784  1.00  0.00     0.041 A 
ATOM     97  F   UNL A   1      43.050  31.062  27.973  1.00  0.00    -0.206 F 
ATOM     98  C   UNL A   1      45.689  33.008  26.482  1.00  0.00     0.022 A 
BRANCH  95  99
ATOM     99  S   UNL A   1      48.438  33.107  26.759  1.00  0.00     0.124 S 
ATOM    100  O   UNL A   1      49.287  31.960  26.451  1.00  0.00    -0.237 OA
ATOM    101  O   UNL A   1      48.201  34.027  25.648  1.00  0.00    -0.237 OA
ATOM    102  O   UNL A   1      48.694  33.747  28.044  1.00  0.00    -0.744 OA
ENDBRANCH  95  99
ENDBRANCH  69  92
ENDBRANCH  43  44
ENDBRANCH  35  38
ENDBRANCH  33  34
ENDBRANCH  32  33
ENDBRANCH   1  32
TORSDOF 18
ENDMDL
