MODEL 1
REMARK VINA RESULT:     -10.6      0.000      0.000
REMARK SMILES CC[C@](C)(C(=O)NCCCCCCNC(=O)c1ccc(-c2c3nc(c(-c4cc(S(=O)(=O)[O-])ccc4F)c4ccc([nH]4)c(-c4cc(S(=O)(=O)[O-])ccc4F)c4nc(c(-c5cc(S(=O)(=O)[O-])ccc5F)c5ccc2[nH]5)C=C4)C=C3)cc1)[C@H]1CCC[C@H](OC)C1
REMARK SMILES IDX 11 1 10 2 9 3 8 4 7 5 5 6 6 7 3 9 4 10 2 11 1 12 80 13 81 14
REMARK SMILES IDX 87 15 82 16 84 17 83 18 85 19 86 20 12 21 13 22 14 23 15 24
REMARK SMILES IDX 16 26 17 27 18 28 79 29 19 30 78 31 20 32 21 33 22 34 72 35
REMARK SMILES IDX 23 36 77 37 71 38 73 39 24 40 76 41 70 42 69 43 25 45 57 46
REMARK SMILES IDX 37 47 56 48 38 49 41 50 55 51 74 52 39 53 40 54 54 56 75 57
REMARK SMILES IDX 42 58 26 59 27 60 35 61 28 62 34 63 36 64 33 65 29 66 30 67
REMARK SMILES IDX 31 68 32 69 58 70 59 71 67 72 60 73 66 74 68 75 65 76 61 77
REMARK SMILES IDX 62 78 63 79 64 80 43 81 44 82 52 83 45 84 51 85 53 86 50 87
REMARK SMILES IDX 46 88 47 89 48 90 49 91
REMARK H PARENT 7 8 14 25 73 44 41 55
REMARK Flexibility Score: inf
ROOT
ATOM      1  C   UNL A   1      37.124  21.446  24.705  1.00  0.00     0.002 C 
ENDROOT
BRANCH   1   2
ATOM      2  C   UNL A   1      37.551  22.798  25.288  1.00  0.00     0.002 C 
BRANCH   2   3
ATOM      3  C   UNL A   1      36.420  23.824  25.422  1.00  0.00     0.021 C 
BRANCH   3   4
ATOM      4  C   UNL A   1      35.125  23.404  24.737  1.00  0.00     0.116 C 
BRANCH   4   5
ATOM      5  N   UNL A   1      34.114  23.116  25.729  1.00  0.00    -0.356 N 
ATOM      6  C   UNL A   1      33.024  23.781  26.180  1.00  0.00     0.226 C 
ATOM      7  O   UNL A   1      32.539  23.287  27.198  1.00  0.00    -0.274 OA
ATOM      8  H   UNL A   1      34.246  22.247  26.173  1.00  0.00     0.163 HD
BRANCH   6   9
ATOM      9  C   UNL A   1      32.444  25.045  25.487  1.00  0.00     0.049 C 
ATOM     10  C   UNL A   1      31.421  25.677  26.487  1.00  0.00     0.022 C 
BRANCH   9  11
ATOM     11  C   UNL A   1      33.568  26.112  25.250  1.00  0.00     0.013 C 
ATOM     12  C   UNL A   1      33.285  27.555  25.662  1.00  0.00     0.005 C 
ENDBRANCH   9  11
BRANCH   9  13
ATOM     13  C   UNL A   1      31.535  24.706  24.189  1.00  0.00     0.007 C 
ATOM     14  C   UNL A   1      30.259  25.568  24.025  1.00  0.00     0.005 C 
ATOM     15  C   UNL A   1      32.151  24.578  22.780  1.00  0.00     0.036 C 
ATOM     16  C   UNL A   1      30.478  26.916  23.328  1.00  0.00     0.003 C 
ATOM     17  C   UNL A   1      32.583  25.919  22.208  1.00  0.00     0.118 C 
ATOM     18  C   UNL A   1      31.382  26.867  22.094  1.00  0.00     0.032 C 
BRANCH  17  19
ATOM     19  O   UNL A   1      33.305  25.809  20.976  1.00  0.00    -0.381 OA
ATOM     20  C   UNL A   1      32.563  25.468  19.818  1.00  0.00     0.195 C 
ENDBRANCH  17  19
ENDBRANCH   9  13
ENDBRANCH   6   9
ENDBRANCH   4   5
ENDBRANCH   3   4
ENDBRANCH   2   3
ENDBRANCH   1   2
BRANCH   1  21
ATOM     21  C   UNL A   1      38.035  20.274  25.072  1.00  0.00     0.021 C 
BRANCH  21  22
ATOM     22  C   UNL A   1      39.243  20.656  25.920  1.00  0.00     0.116 C 
BRANCH  22  23
ATOM     23  N   UNL A   1      40.206  19.572  26.007  1.00  0.00    -0.352 N 
ATOM     24  C   UNL A   1      41.570  19.639  26.119  1.00  0.00     0.251 C 
ATOM     25  H   UNL A   1      39.827  18.664  25.980  1.00  0.00     0.163 HD
ATOM     26  O   UNL A   1      42.249  18.627  25.958  1.00  0.00    -0.269 OA
BRANCH  24  27
ATOM     27  C   UNL A   1      42.214  20.937  26.407  1.00  0.00     0.039 A 
ATOM     28  C   UNL A   1      42.486  21.804  25.349  1.00  0.00     0.014 A 
ATOM     29  C   UNL A   1      42.534  21.302  27.720  1.00  0.00     0.014 A 
ATOM     30  C   UNL A   1      43.023  23.065  25.612  1.00  0.00     0.010 A 
ATOM     31  C   UNL A   1      43.000  22.587  27.987  1.00  0.00     0.010 A 
ATOM     32  C   UNL A   1      43.248  23.483  26.935  1.00  0.00    -0.014 A 
BRANCH  32  33
ATOM     33  C   UNL A   1      43.727  24.859  27.231  1.00  0.00     0.031 A 
ATOM     34  C   UNL A   1      42.787  25.880  27.813  1.00  0.00     0.074 A 
ATOM     35  C   UNL A   1      44.997  25.196  26.929  1.00  0.00     0.049 A 
ATOM     36  N   UNL A   1      43.007  27.140  28.089  1.00  0.00    -0.248 NA
ATOM     37  C   UNL A   1      41.415  25.433  28.102  1.00  0.00     0.031 C 
ATOM     38  C   UNL A   1      45.989  24.300  26.329  1.00  0.00     0.029 A 
ATOM     39  N   UNL A   1      45.675  26.382  27.077  1.00  0.00    -0.354 N 
ATOM     40  C   UNL A   1      41.802  27.638  28.574  1.00  0.00     0.074 A 
ATOM     41  C   UNL A   1      40.842  26.558  28.505  1.00  0.00     0.031 C 
ATOM     42  C   UNL A   1      47.151  24.957  26.187  1.00  0.00     0.029 A 
ATOM     43  C   UNL A   1      46.977  26.336  26.632  1.00  0.00     0.049 A 
ATOM     44  H   UNL A   1      45.268  27.189  27.467  1.00  0.00     0.167 HD
ATOM     45  C   UNL A   1      41.530  28.878  29.050  1.00  0.00     0.034 A 
ATOM     46  C   UNL A   1      47.918  27.300  26.570  1.00  0.00     0.034 A 
ATOM     47  C   UNL A   1      42.504  29.940  29.124  1.00  0.00     0.049 A 
ATOM     48  C   UNL A   1      47.574  28.681  27.073  1.00  0.00     0.074 A 
ATOM     49  C   UNL A   1      42.350  31.212  29.647  1.00  0.00     0.029 A 
ATOM     50  N   UNL A   1      43.809  29.862  28.653  1.00  0.00    -0.354 N 
ATOM     51  N   UNL A   1      46.446  29.115  27.588  1.00  0.00    -0.248 NA
ATOM     52  C   UNL A   1      48.631  29.698  26.999  1.00  0.00     0.031 C 
ATOM     53  C   UNL A   1      43.528  31.928  29.418  1.00  0.00     0.029 A 
ATOM     54  C   UNL A   1      44.453  31.076  28.836  1.00  0.00     0.049 A 
ATOM     55  H   UNL A   1      44.216  29.062  28.249  1.00  0.00     0.167 HD
ATOM     56  C   UNL A   1      46.675  30.447  27.930  1.00  0.00     0.074 A 
ATOM     57  C   UNL A   1      48.050  30.733  27.584  1.00  0.00     0.031 C 
ATOM     58  C   UNL A   1      45.825  31.351  28.480  1.00  0.00     0.034 A 
BRANCH  45  59
ATOM     59  C   UNL A   1      40.121  29.168  29.503  1.00  0.00     0.023 A 
ATOM     60  C   UNL A   1      39.788  29.294  30.863  1.00  0.00     0.031 A 
ATOM     61  C   UNL A   1      39.095  29.345  28.556  1.00  0.00     0.131 A 
ATOM     62  C   UNL A   1      38.459  29.542  31.238  1.00  0.00     0.055 A 
ATOM     63  C   UNL A   1      37.790  29.665  28.932  1.00  0.00     0.041 A 
ATOM     64  F   UNL A   1      39.348  29.212  27.244  1.00  0.00    -0.206 F 
ATOM     65  C   UNL A   1      37.463  29.756  30.281  1.00  0.00     0.022 A 
BRANCH  62  66
ATOM     66  S   UNL A   1      38.025  29.472  32.998  1.00  0.00     0.124 S 
ATOM     67  O   UNL A   1      37.252  28.233  33.061  1.00  0.00    -0.237 OA
ATOM     68  O   UNL A   1      39.331  29.444  33.645  1.00  0.00    -0.237 OA
ATOM     69  O   UNL A   1      37.250  30.693  33.209  1.00  0.00    -0.744 OA
ENDBRANCH  62  66
ENDBRANCH  45  59
BRANCH  46  70
ATOM     70  C   UNL A   1      49.265  27.019  25.989  1.00  0.00     0.023 A 
ATOM     71  C   UNL A   1      49.600  27.453  24.696  1.00  0.00     0.031 A 
ATOM     72  C   UNL A   1      50.208  26.241  26.684  1.00  0.00     0.131 A 
ATOM     73  C   UNL A   1      50.810  27.047  24.112  1.00  0.00     0.055 A 
ATOM     74  C   UNL A   1      51.442  25.901  26.126  1.00  0.00     0.041 A 
ATOM     75  F   UNL A   1      49.944  25.796  27.923  1.00  0.00    -0.206 F 
ATOM     76  C   UNL A   1      51.740  26.287  24.823  1.00  0.00     0.022 A 
BRANCH  73  77
ATOM     77  S   UNL A   1      51.090  27.412  22.356  1.00  0.00     0.124 S 
ATOM     78  O   UNL A   1      52.401  26.815  22.136  1.00  0.00    -0.237 OA
ATOM     79  O   UNL A   1      49.961  26.736  21.725  1.00  0.00    -0.237 OA
ATOM     80  O   UNL A   1      51.050  28.872  22.303  1.00  0.00    -0.744 OA
ENDBRANCH  73  77
ENDBRANCH  46  70
BRANCH  58  81
ATOM     81  C   UNL A   1      46.382  32.721  28.787  1.00  0.00     0.023 A 
ATOM     82  C   UNL A   1      46.347  33.763  27.844  1.00  0.00     0.031 A 
ATOM     83  C   UNL A   1      46.968  32.982  30.039  1.00  0.00     0.131 A 
ATOM     84  C   UNL A   1      46.944  34.997  28.143  1.00  0.00     0.055 A 
ATOM     85  C   UNL A   1      47.497  34.233  30.356  1.00  0.00     0.041 A 
ATOM     86  F   UNL A   1      47.033  32.023  30.976  1.00  0.00    -0.206 F 
ATOM     87  C   UNL A   1      47.500  35.245  29.401  1.00  0.00     0.022 A 
BRANCH  84  88
ATOM     88  S   UNL A   1      47.077  36.241  26.830  1.00  0.00     0.124 S 
ATOM     89  O   UNL A   1      46.635  37.452  27.514  1.00  0.00    -0.237 OA
ATOM     90  O   UNL A   1      48.494  36.183  26.488  1.00  0.00    -0.237 OA
ATOM     91  O   UNL A   1      46.170  35.746  25.796  1.00  0.00    -0.744 OA
ENDBRANCH  84  88
ENDBRANCH  58  81
ENDBRANCH  32  33
ENDBRANCH  24  27
ENDBRANCH  22  23
ENDBRANCH  21  22
ENDBRANCH   1  21
TORSDOF 19
ENDMDL
MODEL 2
REMARK VINA RESULT:     -10.6      5.801      8.967
REMARK SMILES CC[C@](C)(C(=O)NCCCCCCNC(=O)c1ccc(-c2c3nc(c(-c4cc(S(=O)(=O)[O-])ccc4F)c4ccc([nH]4)c(-c4cc(S(=O)(=O)[O-])ccc4F)c4nc(c(-c5cc(S(=O)(=O)[O-])ccc5F)c5ccc2[nH]5)C=C4)C=C3)cc1)[C@H]1CCC[C@H](OC)C1
REMARK SMILES IDX 11 1 10 2 9 3 8 4 7 5 5 6 6 7 3 9 4 10 2 11 1 12 80 13 81 14
REMARK SMILES IDX 87 15 82 16 84 17 83 18 85 19 86 20 12 21 13 22 14 23 15 24
REMARK SMILES IDX 16 26 17 27 18 28 79 29 19 30 78 31 20 32 21 33 22 34 72 35
REMARK SMILES IDX 23 36 77 37 71 38 73 39 24 40 76 41 70 42 69 43 25 45 57 46
REMARK SMILES IDX 37 47 56 48 38 49 41 50 55 51 74 52 39 53 40 54 54 56 75 57
REMARK SMILES IDX 42 58 26 59 27 60 35 61 28 62 34 63 36 64 33 65 29 66 30 67
REMARK SMILES IDX 31 68 32 69 58 70 59 71 67 72 60 73 66 74 68 75 65 76 61 77
REMARK SMILES IDX 62 78 63 79 64 80 43 81 44 82 52 83 45 84 51 85 53 86 50 87
REMARK SMILES IDX 46 88 47 89 48 90 49 91
REMARK H PARENT 7 8 14 25 73 44 41 55
REMARK Flexibility Score: inf
ROOT
ATOM      1  C   UNL A   1      31.648  29.551  24.874  1.00  0.00     0.002 C 
ENDROOT
BRANCH   1   2
ATOM      2  C   UNL A   1      30.495  29.458  23.869  1.00  0.00     0.002 C 
BRANCH   2   3
ATOM      3  C   UNL A   1      30.833  28.709  22.575  1.00  0.00     0.021 C 
BRANCH   3   4
ATOM      4  C   UNL A   1      30.734  27.193  22.698  1.00  0.00     0.116 C 
BRANCH   4   5
ATOM      5  N   UNL A   1      31.799  26.567  21.948  1.00  0.00    -0.356 N 
ATOM      6  C   UNL A   1      32.843  25.773  22.283  1.00  0.00     0.226 C 
ATOM      7  O   UNL A   1      33.655  25.626  21.369  1.00  0.00    -0.274 OA
ATOM      8  H   UNL A   1      31.755  26.759  20.983  1.00  0.00     0.163 HD
BRANCH   6   9
ATOM      9  C   UNL A   1      33.006  25.116  23.681  1.00  0.00     0.049 C 
ATOM     10  C   UNL A   1      33.171  26.282  24.711  1.00  0.00     0.022 C 
BRANCH   9  11
ATOM     11  C   UNL A   1      31.706  24.337  24.083  1.00  0.00     0.013 C 
ATOM     12  C   UNL A   1      31.224  24.441  25.528  1.00  0.00     0.005 C 
ENDBRANCH   9  11
BRANCH   9  13
ATOM     13  C   UNL A   1      34.385  24.280  23.842  1.00  0.00     0.007 C 
ATOM     14  C   UNL A   1      35.144  24.495  25.175  1.00  0.00     0.005 C 
ATOM     15  C   UNL A   1      34.453  22.767  23.547  1.00  0.00     0.036 C 
ATOM     16  C   UNL A   1      34.661  23.623  26.339  1.00  0.00     0.003 C 
ATOM     17  C   UNL A   1      33.750  21.934  24.607  1.00  0.00     0.118 C 
ATOM     18  C   UNL A   1      34.392  22.159  25.983  1.00  0.00     0.032 C 
BRANCH  17  19
ATOM     19  O   UNL A   1      33.656  20.545  24.273  1.00  0.00    -0.381 OA
ATOM     20  C   UNL A   1      32.480  20.116  23.611  1.00  0.00     0.195 C 
ENDBRANCH  17  19
ENDBRANCH   9  13
ENDBRANCH   6   9
ENDBRANCH   4   5
ENDBRANCH   3   4
ENDBRANCH   2   3
ENDBRANCH   1   2
BRANCH   1  21
ATOM     21  C   UNL A   1      31.385  30.476  26.064  1.00  0.00     0.021 C 
BRANCH  21  22
ATOM     22  C   UNL A   1      32.626  30.820  26.882  1.00  0.00     0.116 C 
BRANCH  22  23
ATOM     23  N   UNL A   1      32.779  32.254  27.052  1.00  0.00    -0.352 N 
ATOM     24  C   UNL A   1      33.739  32.940  27.750  1.00  0.00     0.251 C 
ATOM     25  H   UNL A   1      32.100  32.810  26.606  1.00  0.00     0.163 HD
ATOM     26  O   UNL A   1      33.594  34.140  27.973  1.00  0.00    -0.269 OA
BRANCH  24  27
ATOM     27  C   UNL A   1      34.929  32.221  28.250  1.00  0.00     0.039 A 
ATOM     28  C   UNL A   1      36.151  32.893  28.297  1.00  0.00     0.014 A 
ATOM     29  C   UNL A   1      34.835  30.895  28.684  1.00  0.00     0.014 A 
ATOM     30  C   UNL A   1      37.268  32.254  28.838  1.00  0.00     0.010 A 
ATOM     31  C   UNL A   1      35.930  30.286  29.291  1.00  0.00     0.010 A 
ATOM     32  C   UNL A   1      37.158  30.960  29.375  1.00  0.00    -0.014 A 
BRANCH  32  33
ATOM     33  C   UNL A   1      38.317  30.309  30.042  1.00  0.00     0.031 A 
ATOM     34  C   UNL A   1      38.710  30.708  31.438  1.00  0.00     0.074 A 
ATOM     35  C   UNL A   1      39.040  29.393  29.365  1.00  0.00     0.049 A 
ATOM     36  N   UNL A   1      39.718  30.292  32.161  1.00  0.00    -0.248 NA
ATOM     37  C   UNL A   1      37.876  31.723  32.100  1.00  0.00     0.031 C 
ATOM     38  C   UNL A   1      38.774  28.953  27.993  1.00  0.00     0.029 A 
ATOM     39  N   UNL A   1      40.148  28.670  29.732  1.00  0.00    -0.354 N 
ATOM     40  C   UNL A   1      39.645  30.999  33.357  1.00  0.00     0.074 A 
ATOM     41  C   UNL A   1      38.526  31.907  33.241  1.00  0.00     0.031 C 
ATOM     42  C   UNL A   1      39.674  28.018  27.646  1.00  0.00     0.029 A 
ATOM     43  C   UNL A   1      40.615  27.830  28.745  1.00  0.00     0.049 A 
ATOM     44  H   UNL A   1      40.569  28.744  30.619  1.00  0.00     0.167 HD
ATOM     45  C   UNL A   1      40.430  30.885  34.456  1.00  0.00     0.034 A 
ATOM     46  C   UNL A   1      41.690  27.017  28.721  1.00  0.00     0.034 A 
ATOM     47  C   UNL A   1      41.535  29.962  34.560  1.00  0.00     0.049 A 
ATOM     48  C   UNL A   1      42.567  26.939  29.946  1.00  0.00     0.074 A 
ATOM     49  C   UNL A   1      42.354  29.723  35.650  1.00  0.00     0.029 A 
ATOM     50  N   UNL A   1      41.986  29.137  33.537  1.00  0.00    -0.354 N 
ATOM     51  N   UNL A   1      42.443  27.569  31.093  1.00  0.00    -0.248 NA
ATOM     52  C   UNL A   1      43.720  26.032  29.882  1.00  0.00     0.031 C 
ATOM     53  C   UNL A   1      43.347  28.818  35.263  1.00  0.00     0.029 A 
ATOM     54  C   UNL A   1      43.096  28.421  33.959  1.00  0.00     0.049 A 
ATOM     55  H   UNL A   1      41.578  29.071  32.644  1.00  0.00     0.167 HD
ATOM     56  C   UNL A   1      43.485  27.105  31.893  1.00  0.00     0.074 A 
ATOM     57  C   UNL A   1      44.208  26.129  31.108  1.00  0.00     0.031 C 
ATOM     58  C   UNL A   1      43.813  27.454  33.163  1.00  0.00     0.034 A 
BRANCH  45  59
ATOM     59  C   UNL A   1      40.145  31.794  35.626  1.00  0.00     0.023 A 
ATOM     60  C   UNL A   1      39.055  31.577  36.487  1.00  0.00     0.031 A 
ATOM     61  C   UNL A   1      40.993  32.883  35.899  1.00  0.00     0.131 A 
ATOM     62  C   UNL A   1      38.817  32.462  37.549  1.00  0.00     0.055 A 
ATOM     63  C   UNL A   1      40.793  33.715  37.001  1.00  0.00     0.041 A 
ATOM     64  F   UNL A   1      42.036  33.153  35.097  1.00  0.00    -0.206 F 
ATOM     65  C   UNL A   1      39.694  33.513  37.829  1.00  0.00     0.022 A 
BRANCH  62  66
ATOM     66  S   UNL A   1      37.280  32.287  38.497  1.00  0.00     0.124 S 
ATOM     67  O   UNL A   1      36.362  33.123  37.726  1.00  0.00    -0.237 OA
ATOM     68  O   UNL A   1      37.036  30.852  38.442  1.00  0.00    -0.237 OA
ATOM     69  O   UNL A   1      37.629  32.811  39.816  1.00  0.00    -0.744 OA
ENDBRANCH  62  66
ENDBRANCH  45  59
BRANCH  46  70
ATOM     70  C   UNL A   1      42.027  26.230  27.496  1.00  0.00     0.023 A 
ATOM     71  C   UNL A   1      41.656  24.880  27.378  1.00  0.00     0.031 A 
ATOM     72  C   UNL A   1      42.798  26.790  26.462  1.00  0.00     0.131 A 
ATOM     73  C   UNL A   1      42.115  24.120  26.292  1.00  0.00     0.055 A 
ATOM     74  C   UNL A   1      43.191  26.048  25.347  1.00  0.00     0.041 A 
ATOM     75  F   UNL A   1      43.184  28.076  26.520  1.00  0.00    -0.206 F 
ATOM     76  C   UNL A   1      42.867  24.698  25.268  1.00  0.00     0.022 A 
BRANCH  73  77
ATOM     77  S   UNL A   1      41.831  22.328  26.308  1.00  0.00     0.124 S 
ATOM     78  O   UNL A   1      40.395  22.254  26.069  1.00  0.00    -0.237 OA
ATOM     79  O   UNL A   1      42.689  21.877  25.217  1.00  0.00    -0.237 OA
ATOM     80  O   UNL A   1      42.265  21.928  27.646  1.00  0.00    -0.744 OA
ENDBRANCH  73  77
ENDBRANCH  46  70
BRANCH  58  81
ATOM     81  C   UNL A   1      44.980  26.732  33.796  1.00  0.00     0.023 A 
ATOM     82  C   UNL A   1      44.830  25.477  34.410  1.00  0.00     0.031 A 
ATOM     83  C   UNL A   1      46.259  27.318  33.793  1.00  0.00     0.131 A 
ATOM     84  C   UNL A   1      45.924  24.877  35.051  1.00  0.00     0.055 A 
ATOM     85  C   UNL A   1      47.359  26.684  34.370  1.00  0.00     0.041 A 
ATOM     86  F   UNL A   1      46.460  28.517  33.223  1.00  0.00    -0.206 F 
ATOM     87  C   UNL A   1      47.193  25.463  35.017  1.00  0.00     0.022 A 
BRANCH  84  88
ATOM     88  S   UNL A   1      45.646  23.371  36.021  1.00  0.00     0.124 S 
ATOM     89  O   UNL A   1      45.875  23.841  37.384  1.00  0.00    -0.237 OA
ATOM     90  O   UNL A   1      44.266  23.034  35.686  1.00  0.00    -0.237 OA
ATOM     91  O   UNL A   1      46.652  22.442  35.509  1.00  0.00    -0.744 OA
ENDBRANCH  84  88
ENDBRANCH  58  81
ENDBRANCH  32  33
ENDBRANCH  24  27
ENDBRANCH  22  23
ENDBRANCH  21  22
ENDBRANCH   1  21
TORSDOF 19
ENDMDL
MODEL 3
REMARK VINA RESULT:     -10.5      5.551      8.649
REMARK SMILES CC[C@](C)(C(=O)NCCCCCCNC(=O)c1ccc(-c2c3nc(c(-c4cc(S(=O)(=O)[O-])ccc4F)c4ccc([nH]4)c(-c4cc(S(=O)(=O)[O-])ccc4F)c4nc(c(-c5cc(S(=O)(=O)[O-])ccc5F)c5ccc2[nH]5)C=C4)C=C3)cc1)[C@H]1CCC[C@H](OC)C1
REMARK SMILES IDX 11 1 10 2 9 3 8 4 7 5 5 6 6 7 3 9 4 10 2 11 1 12 80 13 81 14
REMARK SMILES IDX 87 15 82 16 84 17 83 18 85 19 86 20 12 21 13 22 14 23 15 24
REMARK SMILES IDX 16 26 17 27 18 28 79 29 19 30 78 31 20 32 21 33 22 34 72 35
REMARK SMILES IDX 23 36 77 37 71 38 73 39 24 40 76 41 70 42 69 43 25 45 57 46
REMARK SMILES IDX 37 47 56 48 38 49 41 50 55 51 74 52 39 53 40 54 54 56 75 57
REMARK SMILES IDX 42 58 26 59 27 60 35 61 28 62 34 63 36 64 33 65 29 66 30 67
REMARK SMILES IDX 31 68 32 69 58 70 59 71 67 72 60 73 66 74 68 75 65 76 61 77
REMARK SMILES IDX 62 78 63 79 64 80 43 81 44 82 52 83 45 84 51 85 53 86 50 87
REMARK SMILES IDX 46 88 47 89 48 90 49 91
REMARK H PARENT 7 8 14 25 73 44 41 55
REMARK Flexibility Score: inf
ROOT
ATOM      1  C   UNL A   1      32.486  28.451  25.145  1.00  0.00     0.002 C 
ENDROOT
BRANCH   1   2
ATOM      2  C   UNL A   1      31.370  29.307  24.537  1.00  0.00     0.002 C 
BRANCH   2   3
ATOM      3  C   UNL A   1      30.999  28.946  23.094  1.00  0.00     0.021 C 
BRANCH   3   4
ATOM      4  C   UNL A   1      30.715  27.463  22.885  1.00  0.00     0.116 C 
BRANCH   4   5
ATOM      5  N   UNL A   1      31.673  26.903  21.959  1.00  0.00    -0.356 N 
ATOM      6  C   UNL A   1      32.494  25.827  21.993  1.00  0.00     0.226 C 
ATOM      7  O   UNL A   1      33.321  25.818  21.080  1.00  0.00    -0.274 OA
ATOM      8  H   UNL A   1      31.743  27.415  21.121  1.00  0.00     0.163 HD
BRANCH   6   9
ATOM      9  C   UNL A   1      32.407  24.717  23.076  1.00  0.00     0.049 C 
ATOM     10  C   UNL A   1      30.904  24.296  23.171  1.00  0.00     0.022 C 
BRANCH   9  11
ATOM     11  C   UNL A   1      33.207  23.444  22.630  1.00  0.00     0.013 C 
ATOM     12  C   UNL A   1      32.522  22.085  22.755  1.00  0.00     0.005 C 
ENDBRANCH   9  11
BRANCH   9  13
ATOM     13  C   UNL A   1      32.740  25.249  24.570  1.00  0.00     0.007 C 
ATOM     14  C   UNL A   1      31.724  24.841  25.665  1.00  0.00     0.005 C 
ATOM     15  C   UNL A   1      34.140  25.078  25.197  1.00  0.00     0.036 C 
ATOM     16  C   UNL A   1      31.955  23.454  26.274  1.00  0.00     0.003 C 
ATOM     17  C   UNL A   1      34.437  23.636  25.575  1.00  0.00     0.118 C 
ATOM     18  C   UNL A   1      33.415  23.126  26.599  1.00  0.00     0.032 C 
BRANCH  17  19
ATOM     19  O   UNL A   1      35.787  23.424  26.005  1.00  0.00    -0.381 OA
ATOM     20  C   UNL A   1      36.387  22.186  25.668  1.00  0.00     0.195 C 
ENDBRANCH  17  19
ENDBRANCH   9  13
ENDBRANCH   6   9
ENDBRANCH   4   5
ENDBRANCH   3   4
ENDBRANCH   2   3
ENDBRANCH   1   2
BRANCH   1  21
ATOM     21  C   UNL A   1      32.704  28.655  26.644  1.00  0.00     0.021 C 
BRANCH  21  22
ATOM     22  C   UNL A   1      34.009  29.357  27.003  1.00  0.00     0.116 C 
BRANCH  22  23
ATOM     23  N   UNL A   1      33.798  30.760  27.315  1.00  0.00    -0.352 N 
ATOM     24  C   UNL A   1      34.501  31.565  28.174  1.00  0.00     0.251 C 
ATOM     25  H   UNL A   1      33.048  31.191  26.847  1.00  0.00     0.163 HD
ATOM     26  O   UNL A   1      34.053  32.667  28.485  1.00  0.00    -0.269 OA
BRANCH  24  27
ATOM     27  C   UNL A   1      35.780  31.088  28.738  1.00  0.00     0.039 A 
ATOM     28  C   UNL A   1      35.757  30.082  29.703  1.00  0.00     0.014 A 
ATOM     29  C   UNL A   1      36.998  31.622  28.303  1.00  0.00     0.014 A 
ATOM     30  C   UNL A   1      36.959  29.567  30.190  1.00  0.00     0.010 A 
ATOM     31  C   UNL A   1      38.195  31.055  28.733  1.00  0.00     0.010 A 
ATOM     32  C   UNL A   1      38.188  30.021  29.682  1.00  0.00    -0.014 A 
BRANCH  32  33
ATOM     33  C   UNL A   1      39.470  29.409  30.122  1.00  0.00     0.031 A 
ATOM     34  C   UNL A   1      40.233  29.999  31.276  1.00  0.00     0.074 A 
ATOM     35  C   UNL A   1      39.965  28.353  29.446  1.00  0.00     0.049 A 
ATOM     36  N   UNL A   1      41.390  29.638  31.770  1.00  0.00    -0.248 NA
ATOM     37  C   UNL A   1      39.629  31.158  31.952  1.00  0.00     0.031 C 
ATOM     38  C   UNL A   1      39.330  27.719  28.287  1.00  0.00     0.029 A 
ATOM     39  N   UNL A   1      41.116  27.626  29.627  1.00  0.00    -0.354 N 
ATOM     40  C   UNL A   1      41.657  30.529  32.804  1.00  0.00     0.074 A 
ATOM     41  C   UNL A   1      40.566  31.478  32.833  1.00  0.00     0.031 C 
ATOM     42  C   UNL A   1      40.084  26.685  27.881  1.00  0.00     0.029 A 
ATOM     43  C   UNL A   1      41.282  26.613  28.709  1.00  0.00     0.049 A 
ATOM     44  H   UNL A   1      41.762  27.813  30.345  1.00  0.00     0.167 HD
ATOM     45  C   UNL A   1      42.707  30.539  33.662  1.00  0.00     0.034 A 
ATOM     46  C   UNL A   1      42.294  25.737  28.542  1.00  0.00     0.034 A 
ATOM     47  C   UNL A   1      43.780  29.575  33.628  1.00  0.00     0.049 A 
ATOM     48  C   UNL A   1      43.468  25.797  29.490  1.00  0.00     0.074 A 
ATOM     49  C   UNL A   1      44.857  29.459  34.489  1.00  0.00     0.029 A 
ATOM     50  N   UNL A   1      43.922  28.570  32.679  1.00  0.00    -0.354 N 
ATOM     51  N   UNL A   1      43.670  26.608  30.504  1.00  0.00    -0.248 NA
ATOM     52  C   UNL A   1      44.542  24.819  29.280  1.00  0.00     0.031 C 
ATOM     53  C   UNL A   1      45.691  28.442  34.014  1.00  0.00     0.029 A 
ATOM     54  C   UNL A   1      45.089  27.860  32.910  1.00  0.00     0.049 A 
ATOM     55  H   UNL A   1      43.286  28.390  31.949  1.00  0.00     0.167 HD
ATOM     56  C   UNL A   1      44.879  26.210  31.070  1.00  0.00     0.074 A 
ATOM     57  C   UNL A   1      45.345  25.077  30.300  1.00  0.00     0.031 C 
ATOM     58  C   UNL A   1      45.545  26.734  32.131  1.00  0.00     0.034 A 
BRANCH  45  59
ATOM     59  C   UNL A   1      42.766  31.639  34.693  1.00  0.00     0.023 A 
ATOM     60  C   UNL A   1      41.989  31.602  35.864  1.00  0.00     0.031 A 
ATOM     61  C   UNL A   1      43.633  32.732  34.513  1.00  0.00     0.131 A 
ATOM     62  C   UNL A   1      42.061  32.659  36.785  1.00  0.00     0.055 A 
ATOM     63  C   UNL A   1      43.755  33.743  35.468  1.00  0.00     0.041 A 
ATOM     64  F   UNL A   1      44.381  32.834  33.403  1.00  0.00    -0.206 F 
ATOM     65  C   UNL A   1      42.959  33.715  36.608  1.00  0.00     0.022 A 
BRANCH  62  66
ATOM     66  S   UNL A   1      40.884  32.692  38.164  1.00  0.00     0.124 S 
ATOM     67  O   UNL A   1      41.626  31.977  39.201  1.00  0.00    -0.237 OA
ATOM     68  O   UNL A   1      40.694  34.120  38.384  1.00  0.00    -0.237 OA
ATOM     69  O   UNL A   1      39.720  31.980  37.639  1.00  0.00    -0.744 OA
ENDBRANCH  62  66
ENDBRANCH  45  59
BRANCH  46  70
ATOM     70  C   UNL A   1      42.273  24.745  27.425  1.00  0.00     0.023 A 
ATOM     71  C   UNL A   1      41.530  23.558  27.525  1.00  0.00     0.031 A 
ATOM     72  C   UNL A   1      43.062  24.930  26.276  1.00  0.00     0.131 A 
ATOM     73  C   UNL A   1      41.645  22.573  26.533  1.00  0.00     0.055 A 
ATOM     74  C   UNL A   1      43.117  23.978  25.256  1.00  0.00     0.041 A 
ATOM     75  F   UNL A   1      43.796  26.044  26.124  1.00  0.00    -0.206 F 
ATOM     76  C   UNL A   1      42.422  22.781  25.392  1.00  0.00     0.022 A 
BRANCH  73  77
ATOM     77  S   UNL A   1      40.875  20.956  26.823  1.00  0.00     0.124 S 
ATOM     78  O   UNL A   1      40.791  20.927  28.279  1.00  0.00    -0.237 OA
ATOM     79  O   UNL A   1      39.610  21.093  26.109  1.00  0.00    -0.237 OA
ATOM     80  O   UNL A   1      41.825  20.017  26.232  1.00  0.00    -0.744 OA
ENDBRANCH  73  77
ENDBRANCH  46  70
BRANCH  58  81
ATOM     81  C   UNL A   1      46.824  26.047  32.548  1.00  0.00     0.023 A 
ATOM     82  C   UNL A   1      46.837  25.031  33.519  1.00  0.00     0.031 A 
ATOM     83  C   UNL A   1      48.050  26.427  31.972  1.00  0.00     0.131 A 
ATOM     84  C   UNL A   1      48.057  24.473  33.931  1.00  0.00     0.055 A 
ATOM     85  C   UNL A   1      49.252  25.819  32.335  1.00  0.00     0.041 A 
ATOM     86  F   UNL A   1      48.099  27.395  31.043  1.00  0.00    -0.206 F 
ATOM     87  C   UNL A   1      49.262  24.846  33.330  1.00  0.00     0.022 A 
BRANCH  84  88
ATOM     88  S   UNL A   1      48.059  23.328  35.336  1.00  0.00     0.124 S 
ATOM     89  O   UNL A   1      49.486  23.186  35.609  1.00  0.00    -0.237 OA
ATOM     90  O   UNL A   1      47.289  24.059  36.337  1.00  0.00    -0.237 OA
ATOM     91  O   UNL A   1      47.407  22.132  34.806  1.00  0.00    -0.744 OA
ENDBRANCH  84  88
ENDBRANCH  58  81
ENDBRANCH  32  33
ENDBRANCH  24  27
ENDBRANCH  22  23
ENDBRANCH  21  22
ENDBRANCH   1  21
TORSDOF 19
ENDMDL
