MODEL 1
REMARK VINA RESULT:     -12.4      0.000      0.000
REMARK SMILES C[C@H]1CCC[C@]1(C(=O)NCCCCCCNC(=O)c1ccc(-c2c3nc(c(-c4cc(S(=O)(=O)[O-])ccc4F)c4ccc([nH]4)c(-c4cc(S(=O)(=O)[O-])ccc4F)c4nc(c(-c5cc(S(=O)(=O)[O-])ccc5F)c5ccc2[nH]5)C=C4)C=C3)cc1)c1ccc2c(c1)OCO2
REMARK SMILES IDX 13 1 12 2 11 3 10 4 9 5 7 6 8 7 6 9 1 10 2 11 3 12 4 13 5 14
REMARK SMILES IDX 82 15 83 16 87 17 84 18 86 19 85 20 88 21 90 22 89 23 14 24
REMARK SMILES IDX 15 25 16 26 17 27 18 29 19 30 20 31 81 32 21 33 80 34 22 35
REMARK SMILES IDX 23 36 24 37 74 38 25 39 79 40 73 41 75 42 26 43 78 44 72 45
REMARK SMILES IDX 71 46 27 48 59 49 39 50 58 51 40 52 43 53 57 54 76 55 41 56
REMARK SMILES IDX 42 57 56 59 77 60 44 61 28 62 29 63 37 64 30 65 36 66 38 67
REMARK SMILES IDX 35 68 31 69 32 70 33 71 34 72 60 73 61 74 69 75 62 76 68 77
REMARK SMILES IDX 70 78 67 79 63 80 64 81 65 82 66 83 45 84 46 85 54 86 47 87
REMARK SMILES IDX 53 88 55 89 52 90 48 91 49 92 50 93 51 94
REMARK H PARENT 9 8 16 28 75 47 43 58
REMARK Flexibility Score: inf
ROOT
ATOM      1  C   UNL A   1      31.818  30.442  26.177  1.00  0.00     0.002 C 
ENDROOT
BRANCH   1   2
ATOM      2  C   UNL A   1      32.353  29.509  27.270  1.00  0.00     0.002 C 
BRANCH   2   3
ATOM      3  C   UNL A   1      33.695  28.859  26.943  1.00  0.00     0.021 C 
BRANCH   3   4
ATOM      4  C   UNL A   1      33.558  27.521  26.233  1.00  0.00     0.116 C 
BRANCH   4   5
ATOM      5  N   UNL A   1      33.593  27.664  24.795  1.00  0.00    -0.355 N 
ATOM      6  C   UNL A   1      32.652  27.526  23.820  1.00  0.00     0.230 C 
ATOM      7  O   UNL A   1      33.043  27.916  22.713  1.00  0.00    -0.274 OA
ATOM      8  H   UNL A   1      34.481  27.914  24.450  1.00  0.00     0.163 HD
BRANCH   6   9
ATOM      9  C   UNL A   1      31.216  26.936  24.064  1.00  0.00     0.077 C 
ATOM     10  C   UNL A   1      31.776  25.182  22.168  1.00  0.00     0.009 C 
ATOM     11  C   UNL A   1      30.954  25.532  23.402  1.00  0.00     0.006 C 
ATOM     12  C   UNL A   1      31.006  24.487  24.510  1.00  0.00     0.005 C 
ATOM     13  C   UNL A   1      30.598  25.236  25.773  1.00  0.00     0.002 C 
ATOM     14  C   UNL A   1      31.030  26.696  25.594  1.00  0.00     0.022 C 
BRANCH   9  15
ATOM     15  C   UNL A   1      30.046  27.812  23.491  1.00  0.00    -0.028 A 
ATOM     16  C   UNL A   1      28.697  27.364  23.481  1.00  0.00     0.009 A 
ATOM     17  C   UNL A   1      30.276  29.186  23.244  1.00  0.00     0.055 A 
ATOM     18  C   UNL A   1      27.622  28.240  23.274  1.00  0.00     0.051 A 
ATOM     19  C   UNL A   1      29.199  30.033  23.121  1.00  0.00     0.166 A 
ATOM     20  C   UNL A   1      27.907  29.577  23.147  1.00  0.00     0.165 A 
ATOM     21  O   UNL A   1      29.272  31.393  23.090  1.00  0.00    -0.454 OA
ATOM     22  O   UNL A   1      27.007  30.599  23.136  1.00  0.00    -0.454 OA
ATOM     23  C   UNL A   1      27.898  31.708  23.380  1.00  0.00     0.468 C 
ENDBRANCH   9  15
ENDBRANCH   6   9
ENDBRANCH   4   5
ENDBRANCH   3   4
ENDBRANCH   2   3
ENDBRANCH   1   2
BRANCH   1  24
ATOM     24  C   UNL A   1      31.611  31.894  26.618  1.00  0.00     0.021 C 
BRANCH  24  25
ATOM     25  C   UNL A   1      32.803  32.491  27.357  1.00  0.00     0.116 C 
BRANCH  25  26
ATOM     26  N   UNL A   1      32.612  33.912  27.599  1.00  0.00    -0.352 N 
ATOM     27  C   UNL A   1      33.137  34.691  28.597  1.00  0.00     0.251 C 
ATOM     28  H   UNL A   1      32.027  34.377  26.959  1.00  0.00     0.163 HD
ATOM     29  O   UNL A   1      32.655  35.789  28.840  1.00  0.00    -0.269 OA
BRANCH  27  30
ATOM     30  C   UNL A   1      34.284  34.179  29.374  1.00  0.00     0.039 A 
ATOM     31  C   UNL A   1      34.049  33.427  30.525  1.00  0.00     0.014 A 
ATOM     32  C   UNL A   1      35.591  34.440  28.950  1.00  0.00     0.014 A 
ATOM     33  C   UNL A   1      35.130  32.895  31.228  1.00  0.00     0.010 A 
ATOM     34  C   UNL A   1      36.660  33.841  29.604  1.00  0.00     0.010 A 
ATOM     35  C   UNL A   1      36.441  33.071  30.755  1.00  0.00    -0.014 A 
BRANCH  35  36
ATOM     36  C   UNL A   1      37.602  32.474  31.460  1.00  0.00     0.031 A 
ATOM     37  C   UNL A   1      38.348  31.327  30.836  1.00  0.00     0.074 A 
ATOM     38  C   UNL A   1      37.942  32.923  32.685  1.00  0.00     0.049 A 
ATOM     39  N   UNL A   1      39.332  30.615  31.323  1.00  0.00    -0.248 NA
ATOM     40  C   UNL A   1      37.906  30.907  29.498  1.00  0.00     0.031 C 
ATOM     41  C   UNL A   1      37.270  34.009  33.402  1.00  0.00     0.029 A 
ATOM     42  N   UNL A   1      38.932  32.521  33.544  1.00  0.00    -0.354 N 
ATOM     43  C   UNL A   1      39.619  29.658  30.356  1.00  0.00     0.074 A 
ATOM     44  C   UNL A   1      38.655  29.834  29.292  1.00  0.00     0.031 C 
ATOM     45  C   UNL A   1      37.889  34.208  34.576  1.00  0.00     0.029 A 
ATOM     46  C   UNL A   1      38.963  33.231  34.722  1.00  0.00     0.049 A 
ATOM     47  H   UNL A   1      39.561  31.792  33.338  1.00  0.00     0.167 HD
ATOM     48  C   UNL A   1      40.614  28.736  30.345  1.00  0.00     0.034 A 
ATOM     49  C   UNL A   1      39.759  33.101  35.801  1.00  0.00     0.034 A 
ATOM     50  C   UNL A   1      41.567  28.578  31.419  1.00  0.00     0.049 A 
ATOM     51  C   UNL A   1      40.824  32.032  35.791  1.00  0.00     0.074 A 
ATOM     52  C   UNL A   1      42.637  27.705  31.500  1.00  0.00     0.029 A 
ATOM     53  N   UNL A   1      41.556  29.302  32.605  1.00  0.00    -0.354 N 
ATOM     54  N   UNL A   1      41.111  31.159  34.852  1.00  0.00    -0.248 NA
ATOM     55  C   UNL A   1      41.676  31.938  36.982  1.00  0.00     0.031 C 
ATOM     56  C   UNL A   1      43.222  27.845  32.762  1.00  0.00     0.029 A 
ATOM     57  C   UNL A   1      42.578  28.870  33.437  1.00  0.00     0.049 A 
ATOM     58  H   UNL A   1      40.915  30.018  32.823  1.00  0.00     0.167 HD
ATOM     59  C   UNL A   1      42.204  30.438  35.327  1.00  0.00     0.074 A 
ATOM     60  C   UNL A   1      42.527  30.987  36.629  1.00  0.00     0.031 C 
ATOM     61  C   UNL A   1      42.882  29.420  34.738  1.00  0.00     0.034 A 
BRANCH  48  62
ATOM     62  C   UNL A   1      40.694  27.818  29.146  1.00  0.00     0.023 A 
ATOM     63  C   UNL A   1      41.647  28.014  28.130  1.00  0.00     0.031 A 
ATOM     64  C   UNL A   1      39.780  26.762  28.992  1.00  0.00     0.131 A 
ATOM     65  C   UNL A   1      41.603  27.232  26.966  1.00  0.00     0.055 A 
ATOM     66  C   UNL A   1      39.804  25.924  27.874  1.00  0.00     0.041 A 
ATOM     67  F   UNL A   1      38.832  26.535  29.914  1.00  0.00    -0.206 F 
ATOM     68  C   UNL A   1      40.707  26.169  26.843  1.00  0.00     0.022 A 
BRANCH  65  69
ATOM     69  S   UNL A   1      42.613  27.739  25.547  1.00  0.00     0.124 S 
ATOM     70  O   UNL A   1      41.865  28.892  25.051  1.00  0.00    -0.237 OA
ATOM     71  O   UNL A   1      43.901  28.031  26.165  1.00  0.00    -0.237 OA
ATOM     72  O   UNL A   1      42.589  26.567  24.674  1.00  0.00    -0.744 OA
ENDBRANCH  65  69
ENDBRANCH  48  62
BRANCH  49  73
ATOM     73  C   UNL A   1      39.586  33.996  36.980  1.00  0.00     0.023 A 
ATOM     74  C   UNL A   1      39.005  33.521  38.166  1.00  0.00     0.031 A 
ATOM     75  C   UNL A   1      39.967  35.349  36.929  1.00  0.00     0.131 A 
ATOM     76  C   UNL A   1      38.777  34.400  39.236  1.00  0.00     0.055 A 
ATOM     77  C   UNL A   1      39.792  36.206  38.017  1.00  0.00     0.041 A 
ATOM     78  F   UNL A   1      40.531  35.856  35.821  1.00  0.00    -0.206 F 
ATOM     79  C   UNL A   1      39.181  35.736  39.176  1.00  0.00     0.022 A 
BRANCH  76  80
ATOM     80  S   UNL A   1      37.862  33.793  40.679  1.00  0.00     0.124 S 
ATOM     81  O   UNL A   1      36.689  33.193  40.053  1.00  0.00    -0.237 OA
ATOM     82  O   UNL A   1      38.818  32.865  41.275  1.00  0.00    -0.237 OA
ATOM     83  O   UNL A   1      37.606  35.005  41.453  1.00  0.00    -0.744 OA
ENDBRANCH  76  80
ENDBRANCH  49  73
BRANCH  61  84
ATOM     84  C   UNL A   1      44.078  28.871  35.481  1.00  0.00     0.023 A 
ATOM     85  C   UNL A   1      43.959  27.832  36.419  1.00  0.00     0.031 A 
ATOM     86  C   UNL A   1      45.358  29.406  35.246  1.00  0.00     0.131 A 
ATOM     87  C   UNL A   1      45.089  27.400  37.131  1.00  0.00     0.055 A 
ATOM     88  C   UNL A   1      46.489  28.925  35.907  1.00  0.00     0.041 A 
ATOM     89  F   UNL A   1      45.531  30.404  34.364  1.00  0.00    -0.206 F 
ATOM     90  C   UNL A   1      46.356  27.927  36.866  1.00  0.00     0.022 A 
BRANCH  87  91
ATOM     91  S   UNL A   1      44.865  26.213  38.484  1.00  0.00     0.124 S 
ATOM     92  O   UNL A   1      44.604  27.093  39.620  1.00  0.00    -0.237 OA
ATOM     93  O   UNL A   1      43.733  25.420  38.019  1.00  0.00    -0.237 OA
ATOM     94  O   UNL A   1      46.142  25.503  38.532  1.00  0.00    -0.744 OA
ENDBRANCH  87  91
ENDBRANCH  61  84
ENDBRANCH  35  36
ENDBRANCH  27  30
ENDBRANCH  25  26
ENDBRANCH  24  25
ENDBRANCH   1  24
TORSDOF 17
ENDMDL
MODEL 2
REMARK VINA RESULT:     -12.3      5.104      7.972
REMARK SMILES C[C@H]1CCC[C@]1(C(=O)NCCCCCCNC(=O)c1ccc(-c2c3nc(c(-c4cc(S(=O)(=O)[O-])ccc4F)c4ccc([nH]4)c(-c4cc(S(=O)(=O)[O-])ccc4F)c4nc(c(-c5cc(S(=O)(=O)[O-])ccc5F)c5ccc2[nH]5)C=C4)C=C3)cc1)c1ccc2c(c1)OCO2
REMARK SMILES IDX 13 1 12 2 11 3 10 4 9 5 7 6 8 7 6 9 1 10 2 11 3 12 4 13 5 14
REMARK SMILES IDX 82 15 83 16 87 17 84 18 86 19 85 20 88 21 90 22 89 23 14 24
REMARK SMILES IDX 15 25 16 26 17 27 18 29 19 30 20 31 81 32 21 33 80 34 22 35
REMARK SMILES IDX 23 36 24 37 74 38 25 39 79 40 73 41 75 42 26 43 78 44 72 45
REMARK SMILES IDX 71 46 27 48 59 49 39 50 58 51 40 52 43 53 57 54 76 55 41 56
REMARK SMILES IDX 42 57 56 59 77 60 44 61 28 62 29 63 37 64 30 65 36 66 38 67
REMARK SMILES IDX 35 68 31 69 32 70 33 71 34 72 60 73 61 74 69 75 62 76 68 77
REMARK SMILES IDX 70 78 67 79 63 80 64 81 65 82 66 83 45 84 46 85 54 86 47 87
REMARK SMILES IDX 53 88 55 89 52 90 48 91 49 92 50 93 51 94
REMARK H PARENT 9 8 16 28 75 47 43 58
REMARK Flexibility Score: inf
ROOT
ATOM      1  C   UNL A   1      35.444  21.947  24.329  1.00  0.00     0.002 C 
ENDROOT
BRANCH   1   2
ATOM      2  C   UNL A   1      33.928  21.730  24.257  1.00  0.00     0.002 C 
BRANCH   2   3
ATOM      3  C   UNL A   1      33.131  22.495  25.312  1.00  0.00     0.021 C 
BRANCH   3   4
ATOM      4  C   UNL A   1      31.716  22.832  24.869  1.00  0.00     0.116 C 
BRANCH   4   5
ATOM      5  N   UNL A   1      31.104  23.827  25.720  1.00  0.00    -0.355 N 
ATOM      6  C   UNL A   1      30.782  25.138  25.540  1.00  0.00     0.230 C 
ATOM      7  O   UNL A   1      30.098  25.599  26.462  1.00  0.00    -0.274 OA
ATOM      8  H   UNL A   1      30.872  23.486  26.614  1.00  0.00     0.163 HD
BRANCH   6   9
ATOM      9  C   UNL A   1      31.225  25.987  24.294  1.00  0.00     0.077 C 
ATOM     10  C   UNL A   1      33.492  26.421  25.582  1.00  0.00     0.009 C 
ATOM     11  C   UNL A   1      32.756  26.351  24.250  1.00  0.00     0.006 C 
ATOM     12  C   UNL A   1      33.412  25.446  23.214  1.00  0.00     0.005 C 
ATOM     13  C   UNL A   1      32.299  25.111  22.227  1.00  0.00     0.002 C 
ATOM     14  C   UNL A   1      30.978  25.145  23.004  1.00  0.00     0.022 C 
BRANCH   9  15
ATOM     15  C   UNL A   1      30.533  27.393  24.183  1.00  0.00    -0.028 A 
ATOM     16  C   UNL A   1      31.088  28.561  24.773  1.00  0.00     0.009 A 
ATOM     17  C   UNL A   1      29.495  27.572  23.239  1.00  0.00     0.055 A 
ATOM     18  C   UNL A   1      30.662  29.848  24.419  1.00  0.00     0.051 A 
ATOM     19  C   UNL A   1      29.152  28.848  22.856  1.00  0.00     0.166 A 
ATOM     20  C   UNL A   1      29.726  29.957  23.421  1.00  0.00     0.165 A 
ATOM     21  O   UNL A   1      28.327  29.159  21.818  1.00  0.00    -0.454 OA
ATOM     22  O   UNL A   1      29.331  31.104  22.803  1.00  0.00    -0.454 OA
ATOM     23  C   UNL A   1      28.681  30.543  21.643  1.00  0.00     0.468 C 
ENDBRANCH   9  15
ENDBRANCH   6   9
ENDBRANCH   4   5
ENDBRANCH   3   4
ENDBRANCH   2   3
ENDBRANCH   1   2
BRANCH   1  24
ATOM     24  C   UNL A   1      35.871  23.389  24.622  1.00  0.00     0.021 C 
BRANCH  24  25
ATOM     25  C   UNL A   1      36.556  23.569  25.971  1.00  0.00     0.116 C 
BRANCH  25  26
ATOM     26  N   UNL A   1      37.527  22.514  26.213  1.00  0.00    -0.352 N 
ATOM     27  C   UNL A   1      38.866  22.626  26.483  1.00  0.00     0.251 C 
ATOM     28  H   UNL A   1      37.175  21.596  26.176  1.00  0.00     0.163 HD
ATOM     29  O   UNL A   1      39.601  21.654  26.369  1.00  0.00    -0.269 OA
BRANCH  27  30
ATOM     30  C   UNL A   1      39.402  23.936  26.906  1.00  0.00     0.039 A 
ATOM     31  C   UNL A   1      39.952  24.790  25.950  1.00  0.00     0.014 A 
ATOM     32  C   UNL A   1      39.348  24.315  28.252  1.00  0.00     0.014 A 
ATOM     33  C   UNL A   1      40.407  26.050  26.339  1.00  0.00     0.010 A 
ATOM     34  C   UNL A   1      39.726  25.599  28.622  1.00  0.00     0.010 A 
ATOM     35  C   UNL A   1      40.268  26.477  27.671  1.00  0.00    -0.014 A 
BRANCH  35  36
ATOM     36  C   UNL A   1      40.701  27.830  28.097  1.00  0.00     0.031 A 
ATOM     37  C   UNL A   1      42.158  28.199  28.046  1.00  0.00     0.074 A 
ATOM     38  C   UNL A   1      39.794  28.698  28.587  1.00  0.00     0.049 A 
ATOM     39  N   UNL A   1      42.750  29.294  28.449  1.00  0.00    -0.248 NA
ATOM     40  C   UNL A   1      43.073  27.188  27.496  1.00  0.00     0.031 C 
ATOM     41  C   UNL A   1      38.359  28.436  28.713  1.00  0.00     0.029 A 
ATOM     42  N   UNL A   1      39.943  29.971  29.073  1.00  0.00    -0.354 N 
ATOM     43  C   UNL A   1      44.106  29.100  28.211  1.00  0.00     0.074 A 
ATOM     44  C   UNL A   1      44.253  27.754  27.701  1.00  0.00     0.031 C 
ATOM     45  C   UNL A   1      37.756  29.527  29.210  1.00  0.00     0.029 A 
ATOM     46  C   UNL A   1      38.764  30.544  29.490  1.00  0.00     0.049 A 
ATOM     47  H   UNL A   1      40.812  30.431  29.120  1.00  0.00     0.167 HD
ATOM     48  C   UNL A   1      45.130  29.974  28.375  1.00  0.00     0.034 A 
ATOM     49  C   UNL A   1      38.526  31.748  30.047  1.00  0.00     0.034 A 
ATOM     50  C   UNL A   1      44.960  31.314  28.887  1.00  0.00     0.049 A 
ATOM     51  C   UNL A   1      39.688  32.684  30.273  1.00  0.00     0.074 A 
ATOM     52  C   UNL A   1      45.917  32.297  29.061  1.00  0.00     0.029 A 
ATOM     53  N   UNL A   1      43.754  31.854  29.317  1.00  0.00    -0.354 N 
ATOM     54  N   UNL A   1      40.961  32.503  30.005  1.00  0.00    -0.248 NA
ATOM     55  C   UNL A   1      39.377  33.989  30.867  1.00  0.00     0.031 C 
ATOM     56  C   UNL A   1      45.307  33.400  29.668  1.00  0.00     0.029 A 
ATOM     57  C   UNL A   1      43.950  33.143  29.790  1.00  0.00     0.049 A 
ATOM     58  H   UNL A   1      42.887  31.389  29.291  1.00  0.00     0.167 HD
ATOM     59  C   UNL A   1      41.596  33.689  30.365  1.00  0.00     0.074 A 
ATOM     60  C   UNL A   1      40.563  34.578  30.857  1.00  0.00     0.031 C 
ATOM     61  C   UNL A   1      42.912  34.015  30.289  1.00  0.00     0.034 A 
BRANCH  48  62
ATOM     62  C   UNL A   1      46.518  29.489  28.025  1.00  0.00     0.023 A 
ATOM     63  C   UNL A   1      46.856  29.106  26.714  1.00  0.00     0.031 A 
ATOM     64  C   UNL A   1      47.505  29.361  29.018  1.00  0.00     0.131 A 
ATOM     65  C   UNL A   1      48.108  28.529  26.451  1.00  0.00     0.055 A 
ATOM     66  C   UNL A   1      48.782  28.876  28.730  1.00  0.00     0.041 A 
ATOM     67  F   UNL A   1      47.240  29.687  30.292  1.00  0.00    -0.206 F 
ATOM     68  C   UNL A   1      49.084  28.437  27.444  1.00  0.00     0.022 A 
BRANCH  65  69
ATOM     69  S   UNL A   1      48.371  27.739  24.839  1.00  0.00     0.124 S 
ATOM     70  O   UNL A   1      48.275  26.322  25.187  1.00  0.00    -0.237 OA
ATOM     71  O   UNL A   1      47.277  28.277  24.041  1.00  0.00    -0.237 OA
ATOM     72  O   UNL A   1      49.708  28.187  24.454  1.00  0.00    -0.744 OA
ENDBRANCH  65  69
ENDBRANCH  48  62
BRANCH  49  73
ATOM     73  C   UNL A   1      37.141  32.141  30.432  1.00  0.00     0.023 A 
ATOM     74  C   UNL A   1      36.278  32.741  29.503  1.00  0.00     0.031 A 
ATOM     75  C   UNL A   1      36.669  31.955  31.744  1.00  0.00     0.131 A 
ATOM     76  C   UNL A   1      35.007  33.178  29.907  1.00  0.00     0.055 A 
ATOM     77  C   UNL A   1      35.383  32.338  32.127  1.00  0.00     0.041 A 
ATOM     78  F   UNL A   1      37.452  31.382  32.673  1.00  0.00    -0.206 F 
ATOM     79  C   UNL A   1      34.547  32.966  31.209  1.00  0.00     0.022 A 
BRANCH  76  80
ATOM     80  S   UNL A   1      33.993  34.110  28.727  1.00  0.00     0.124 S 
ATOM     81  O   UNL A   1      32.952  34.649  29.594  1.00  0.00    -0.237 OA
ATOM     82  O   UNL A   1      34.952  35.074  28.199  1.00  0.00    -0.237 OA
ATOM     83  O   UNL A   1      33.551  33.089  27.779  1.00  0.00    -0.744 OA
ENDBRANCH  76  80
ENDBRANCH  49  73
BRANCH  61  84
ATOM     84  C   UNL A   1      43.297  35.417  30.701  1.00  0.00     0.023 A 
ATOM     85  C   UNL A   1      43.532  35.761  32.043  1.00  0.00     0.031 A 
ATOM     86  C   UNL A   1      43.423  36.426  29.729  1.00  0.00     0.131 A 
ATOM     87  C   UNL A   1      43.823  37.090  32.383  1.00  0.00     0.055 A 
ATOM     88  C   UNL A   1      43.781  37.732  30.066  1.00  0.00     0.041 A 
ATOM     89  F   UNL A   1      43.206  36.158  28.431  1.00  0.00    -0.206 F 
ATOM     90  C   UNL A   1      43.969  38.074  31.401  1.00  0.00     0.022 A 
BRANCH  87  91
ATOM     91  S   UNL A   1      43.907  37.542  34.138  1.00  0.00     0.124 S 
ATOM     92  O   UNL A   1      44.828  38.674  34.116  1.00  0.00    -0.237 OA
ATOM     93  O   UNL A   1      42.517  37.857  34.446  1.00  0.00    -0.237 OA
ATOM     94  O   UNL A   1      44.426  36.334  34.778  1.00  0.00    -0.744 OA
ENDBRANCH  87  91
ENDBRANCH  61  84
ENDBRANCH  35  36
ENDBRANCH  27  30
ENDBRANCH  25  26
ENDBRANCH  24  25
ENDBRANCH   1  24
TORSDOF 17
ENDMDL
MODEL 3
REMARK VINA RESULT:     -12.2      2.562      4.054
REMARK SMILES C[C@H]1CCC[C@]1(C(=O)NCCCCCCNC(=O)c1ccc(-c2c3nc(c(-c4cc(S(=O)(=O)[O-])ccc4F)c4ccc([nH]4)c(-c4cc(S(=O)(=O)[O-])ccc4F)c4nc(c(-c5cc(S(=O)(=O)[O-])ccc5F)c5ccc2[nH]5)C=C4)C=C3)cc1)c1ccc2c(c1)OCO2
REMARK SMILES IDX 13 1 12 2 11 3 10 4 9 5 7 6 8 7 6 9 1 10 2 11 3 12 4 13 5 14
REMARK SMILES IDX 82 15 83 16 87 17 84 18 86 19 85 20 88 21 90 22 89 23 14 24
REMARK SMILES IDX 15 25 16 26 17 27 18 29 19 30 20 31 81 32 21 33 80 34 22 35
REMARK SMILES IDX 23 36 24 37 74 38 25 39 79 40 73 41 75 42 26 43 78 44 72 45
REMARK SMILES IDX 71 46 27 48 59 49 39 50 58 51 40 52 43 53 57 54 76 55 41 56
REMARK SMILES IDX 42 57 56 59 77 60 44 61 28 62 29 63 37 64 30 65 36 66 38 67
REMARK SMILES IDX 35 68 31 69 32 70 33 71 34 72 60 73 61 74 69 75 62 76 68 77
REMARK SMILES IDX 70 78 67 79 63 80 64 81 65 82 66 83 45 84 46 85 54 86 47 87
REMARK SMILES IDX 53 88 55 89 52 90 48 91 49 92 50 93 51 94
REMARK H PARENT 9 8 16 28 75 47 43 58
REMARK Flexibility Score: inf
ROOT
ATOM      1  C   UNL A   1      31.351  29.908  25.224  1.00  0.00     0.002 C 
ENDROOT
BRANCH   1   2
ATOM      2  C   UNL A   1      30.408  29.616  24.051  1.00  0.00     0.002 C 
BRANCH   2   3
ATOM      3  C   UNL A   1      31.112  29.158  22.776  1.00  0.00     0.021 C 
BRANCH   3   4
ATOM      4  C   UNL A   1      30.725  27.751  22.347  1.00  0.00     0.116 C 
BRANCH   4   5
ATOM      5  N   UNL A   1      31.834  27.044  21.747  1.00  0.00    -0.355 N 
ATOM      6  C   UNL A   1      32.467  25.875  22.046  1.00  0.00     0.230 C 
ATOM      7  O   UNL A   1      33.265  25.521  21.170  1.00  0.00    -0.274 OA
ATOM      8  H   UNL A   1      32.208  27.501  20.959  1.00  0.00     0.163 HD
BRANCH   6   9
ATOM      9  C   UNL A   1      32.216  25.053  23.362  1.00  0.00     0.077 C 
ATOM     10  C   UNL A   1      33.749  26.826  24.584  1.00  0.00     0.009 C 
ATOM     11  C   UNL A   1      32.645  25.781  24.690  1.00  0.00     0.006 C 
ATOM     12  C   UNL A   1      31.374  26.273  25.373  1.00  0.00     0.005 C 
ATOM     13  C   UNL A   1      30.285  25.314  24.909  1.00  0.00     0.002 C 
ATOM     14  C   UNL A   1      30.682  24.816  23.515  1.00  0.00     0.022 C 
BRANCH   9  15
ATOM     15  C   UNL A   1      33.001  23.696  23.442  1.00  0.00    -0.028 A 
ATOM     16  C   UNL A   1      34.395  23.640  23.717  1.00  0.00     0.009 A 
ATOM     17  C   UNL A   1      32.272  22.487  23.536  1.00  0.00     0.055 A 
ATOM     18  C   UNL A   1      35.031  22.452  24.102  1.00  0.00     0.051 A 
ATOM     19  C   UNL A   1      32.908  21.355  23.990  1.00  0.00     0.166 A 
ATOM     20  C   UNL A   1      34.248  21.339  24.277  1.00  0.00     0.165 A 
ATOM     21  O   UNL A   1      32.289  20.189  24.324  1.00  0.00    -0.454 OA
ATOM     22  O   UNL A   1      34.635  20.155  24.829  1.00  0.00    -0.454 OA
ATOM     23  C   UNL A   1      33.340  19.576  25.093  1.00  0.00     0.468 C 
ENDBRANCH   9  15
ENDBRANCH   6   9
ENDBRANCH   4   5
ENDBRANCH   3   4
ENDBRANCH   2   3
ENDBRANCH   1   2
BRANCH   1  24
ATOM     24  C   UNL A   1      31.149  31.276  25.883  1.00  0.00     0.021 C 
BRANCH  24  25
ATOM     25  C   UNL A   1      32.299  31.704  26.786  1.00  0.00     0.116 C 
BRANCH  25  26
ATOM     26  N   UNL A   1      32.277  33.138  27.021  1.00  0.00    -0.352 N 
ATOM     27  C   UNL A   1      33.014  33.873  27.914  1.00  0.00     0.251 C 
ATOM     28  H   UNL A   1      31.647  33.650  26.465  1.00  0.00     0.163 HD
ATOM     29  O   UNL A   1      32.675  35.014  28.200  1.00  0.00    -0.269 OA
BRANCH  27  30
ATOM     30  C   UNL A   1      34.212  33.263  28.523  1.00  0.00     0.039 A 
ATOM     31  C   UNL A   1      35.449  33.890  28.373  1.00  0.00     0.014 A 
ATOM     32  C   UNL A   1      34.102  32.072  29.248  1.00  0.00     0.014 A 
ATOM     33  C   UNL A   1      36.573  33.345  28.995  1.00  0.00     0.010 A 
ATOM     34  C   UNL A   1      35.204  31.578  29.933  1.00  0.00     0.010 A 
ATOM     35  C   UNL A   1      36.453  32.204  29.806  1.00  0.00    -0.014 A 
BRANCH  35  36
ATOM     36  C   UNL A   1      37.625  31.634  30.515  1.00  0.00     0.031 A 
ATOM     37  C   UNL A   1      38.482  30.602  29.835  1.00  0.00     0.074 A 
ATOM     38  C   UNL A   1      37.878  31.999  31.787  1.00  0.00     0.049 A 
ATOM     39  N   UNL A   1      39.495  29.923  30.309  1.00  0.00    -0.248 NA
ATOM     40  C   UNL A   1      38.129  30.267  28.448  1.00  0.00     0.031 C 
ATOM     41  C   UNL A   1      37.096  32.969  32.558  1.00  0.00     0.029 A 
ATOM     42  N   UNL A   1      38.858  31.597  32.657  1.00  0.00    -0.354 N 
ATOM     43  C   UNL A   1      39.894  29.075  29.282  1.00  0.00     0.074 A 
ATOM     44  C   UNL A   1      38.965  29.272  28.191  1.00  0.00     0.031 C 
ATOM     45  C   UNL A   1      37.647  33.111  33.773  1.00  0.00     0.029 A 
ATOM     46  C   UNL A   1      38.786  32.205  33.890  1.00  0.00     0.049 A 
ATOM     47  H   UNL A   1      39.548  30.936  32.423  1.00  0.00     0.167 HD
ATOM     48  C   UNL A   1      40.956  28.231  29.243  1.00  0.00     0.034 A 
ATOM     49  C   UNL A   1      39.543  32.040  34.992  1.00  0.00     0.034 A 
ATOM     50  C   UNL A   1      41.871  28.051  30.345  1.00  0.00     0.049 A 
ATOM     51  C   UNL A   1      40.685  31.055  34.946  1.00  0.00     0.074 A 
ATOM     52  C   UNL A   1      43.000  27.253  30.406  1.00  0.00     0.029 A 
ATOM     53  N   UNL A   1      41.755  28.668  31.585  1.00  0.00    -0.354 N 
ATOM     54  N   UNL A   1      41.077  30.289  33.953  1.00  0.00    -0.248 NA
ATOM     55  C   UNL A   1      41.490  30.922  36.165  1.00  0.00     0.031 C 
ATOM     56  C   UNL A   1      43.519  27.327  31.702  1.00  0.00     0.029 A 
ATOM     57  C   UNL A   1      42.771  28.241  32.427  1.00  0.00     0.049 A 
ATOM     58  H   UNL A   1      41.054  29.314  31.830  1.00  0.00     0.167 HD
ATOM     59  C   UNL A   1      42.200  29.610  34.420  1.00  0.00     0.074 A 
ATOM     60  C   UNL A   1      42.426  30.067  35.776  1.00  0.00     0.031 C 
ATOM     61  C   UNL A   1      42.978  28.698  33.783  1.00  0.00     0.034 A 
BRANCH  48  62
ATOM     62  C   UNL A   1      41.156  27.427  27.978  1.00  0.00     0.023 A 
ATOM     63  C   UNL A   1      40.829  26.061  27.915  1.00  0.00     0.031 A 
ATOM     64  C   UNL A   1      41.723  28.019  26.836  1.00  0.00     0.131 A 
ATOM     65  C   UNL A   1      41.157  25.313  26.774  1.00  0.00     0.055 A 
ATOM     66  C   UNL A   1      41.958  27.290  25.668  1.00  0.00     0.041 A 
ATOM     67  F   UNL A   1      42.079  29.312  26.839  1.00  0.00    -0.206 F 
ATOM     68  C   UNL A   1      41.693  25.923  25.638  1.00  0.00     0.022 A 
BRANCH  65  69
ATOM     69  S   UNL A   1      41.038  23.505  26.864  1.00  0.00     0.124 S 
ATOM     70  O   UNL A   1      41.957  23.096  25.804  1.00  0.00    -0.237 OA
ATOM     71  O   UNL A   1      41.472  23.228  28.228  1.00  0.00    -0.237 OA
ATOM     72  O   UNL A   1      39.626  23.241  26.590  1.00  0.00    -0.744 OA
ENDBRANCH  65  69
ENDBRANCH  48  62
BRANCH  49  73
ATOM     73  C   UNL A   1      39.253  32.816  36.231  1.00  0.00     0.023 A 
ATOM     74  C   UNL A   1      39.828  34.079  36.442  1.00  0.00     0.031 A 
ATOM     75  C   UNL A   1      38.423  32.294  37.240  1.00  0.00     0.131 A 
ATOM     76  C   UNL A   1      39.606  34.757  37.650  1.00  0.00     0.055 A 
ATOM     77  C   UNL A   1      38.158  32.998  38.416  1.00  0.00     0.041 A 
ATOM     78  F   UNL A   1      37.843  31.092  37.089  1.00  0.00    -0.206 F 
ATOM     79  C   UNL A   1      38.762  34.232  38.632  1.00  0.00     0.022 A 
BRANCH  76  80
ATOM     80  S   UNL A   1      40.510  36.298  37.958  1.00  0.00     0.124 S 
ATOM     81  O   UNL A   1      39.438  37.187  38.393  1.00  0.00    -0.237 OA
ATOM     82  O   UNL A   1      41.463  35.890  38.986  1.00  0.00    -0.237 OA
ATOM     83  O   UNL A   1      41.095  36.615  36.658  1.00  0.00    -0.744 OA
ENDBRANCH  76  80
ENDBRANCH  49  73
BRANCH  61  84
ATOM     84  C   UNL A   1      44.180  28.175  34.534  1.00  0.00     0.023 A 
ATOM     85  C   UNL A   1      44.130  26.988  35.286  1.00  0.00     0.031 A 
ATOM     86  C   UNL A   1      45.394  28.884  34.501  1.00  0.00     0.131 A 
ATOM     87  C   UNL A   1      45.253  26.578  36.020  1.00  0.00     0.055 A 
ATOM     88  C   UNL A   1      46.529  28.434  35.177  1.00  0.00     0.041 A 
ATOM     89  F   UNL A   1      45.500  30.027  33.803  1.00  0.00    -0.206 F 
ATOM     90  C   UNL A   1      46.458  27.283  35.954  1.00  0.00     0.022 A 
BRANCH  87  91
ATOM     91  S   UNL A   1      45.089  25.165  37.146  1.00  0.00     0.124 S 
ATOM     92  O   UNL A   1      46.457  25.001  37.628  1.00  0.00    -0.237 OA
ATOM     93  O   UNL A   1      44.124  25.656  38.123  1.00  0.00    -0.237 OA
ATOM     94  O   UNL A   1      44.603  24.092  36.281  1.00  0.00    -0.744 OA
ENDBRANCH  87  91
ENDBRANCH  61  84
ENDBRANCH  35  36
ENDBRANCH  27  30
ENDBRANCH  25  26
ENDBRANCH  24  25
ENDBRANCH   1  24
TORSDOF 17
ENDMDL
