MODEL 1
REMARK VINA RESULT:     -11.0      0.000      0.000
REMARK SMILES C[C@@H](C(=O)NCCCCCCNC(=O)c1ccc(-c2c3nc(c(-c4cc(S(=O)(=O)[O-])ccc4F)c4ccc([nH]4)c(-c4cc(S(=O)(=O)[O-])ccc4F)c4nc(c(-c5cc(S(=O)(=O)[O-])ccc5F)c5ccc2[nH]5)C=C4)C=C3)cc1)[C@H](C)[S@@](=O)c1ccc(F)c(F)c1
REMARK SMILES IDX 8 1 7 2 6 3 5 4 3 5 4 6 2 8 1 9 78 10 79 11 80 12 81 13
REMARK SMILES IDX 82 14 83 15 89 16 84 17 87 18 85 19 88 20 86 21 9 22 10 23
REMARK SMILES IDX 11 24 12 25 13 26 14 28 15 29 16 30 77 31 17 32 76 33 18 34
REMARK SMILES IDX 19 35 20 36 70 37 21 38 75 39 69 40 71 41 22 42 74 43 68 44
REMARK SMILES IDX 67 45 23 47 55 48 35 49 54 50 36 51 39 52 53 53 72 54 37 55
REMARK SMILES IDX 38 56 52 58 73 59 40 60 24 61 25 62 33 63 26 64 32 65 34 66
REMARK SMILES IDX 31 67 27 68 28 69 29 70 30 71 56 72 57 73 65 74 58 75 64 76
REMARK SMILES IDX 66 77 63 78 59 79 60 80 61 81 62 82 41 83 42 84 50 85 43 86
REMARK SMILES IDX 49 87 51 88 48 89 44 90 45 91 46 92 47 93
REMARK H PARENT 5 7 12 27 71 46 39 57
REMARK Flexibility Score: inf
ROOT
ATOM      1  C   UNL A   1      31.965  26.912  26.664  1.00  0.00     0.002 C 
ENDROOT
BRANCH   1   2
ATOM      2  C   UNL A   1      30.702  26.333  26.012  1.00  0.00     0.021 C 
BRANCH   2   3
ATOM      3  C   UNL A   1      30.775  24.826  25.758  1.00  0.00     0.116 C 
BRANCH   3   4
ATOM      4  N   UNL A   1      31.380  24.161  26.900  1.00  0.00    -0.356 N 
ATOM      5  C   UNL A   1      32.427  23.287  26.935  1.00  0.00     0.224 C 
ATOM      6  O   UNL A   1      32.538  22.562  27.922  1.00  0.00    -0.275 OA
ATOM      7  H   UNL A   1      30.976  24.368  27.773  1.00  0.00     0.163 HD
BRANCH   5   8
ATOM      8  C   UNL A   1      33.394  23.250  25.760  1.00  0.00     0.091 C 
ATOM      9  C   UNL A   1      34.417  24.383  25.919  1.00  0.00     0.019 C 
BRANCH   8  10
ATOM     10  C   UNL A   1      32.724  23.303  24.361  1.00  0.00     0.093 C 
ATOM     11  C   UNL A   1      32.188  22.004  23.760  1.00  0.00     0.023 C 
BRANCH  10  12
ATOM     12  S   UNL A   1      33.840  24.143  23.118  1.00  0.00     0.057 S 
ATOM     13  O   UNL A   1      33.663  23.447  21.802  1.00  0.00    -0.254 OA
BRANCH  12  14
ATOM     14  C   UNL A   1      33.019  25.745  22.928  1.00  0.00     0.042 A 
ATOM     15  C   UNL A   1      31.692  25.772  22.470  1.00  0.00     0.021 A 
ATOM     16  C   UNL A   1      33.637  26.944  23.299  1.00  0.00     0.060 A 
ATOM     17  C   UNL A   1      31.004  26.985  22.359  1.00  0.00     0.043 A 
ATOM     18  C   UNL A   1      32.956  28.150  23.159  1.00  0.00     0.160 A 
ATOM     19  C   UNL A   1      31.647  28.171  22.696  1.00  0.00     0.158 A 
ATOM     20  F   UNL A   1      33.574  29.293  23.485  1.00  0.00    -0.204 F 
ATOM     21  F   UNL A   1      30.988  29.331  22.580  1.00  0.00    -0.204 F 
ENDBRANCH  12  14
ENDBRANCH  10  12
ENDBRANCH   8  10
ENDBRANCH   5   8
ENDBRANCH   3   4
ENDBRANCH   2   3
ENDBRANCH   1   2
BRANCH   1  22
ATOM     22  C   UNL A   1      31.742  28.210  27.449  1.00  0.00     0.002 C 
BRANCH  22  23
ATOM     23  C   UNL A   1      31.803  29.485  26.606  1.00  0.00     0.021 C 
BRANCH  23  24
ATOM     24  C   UNL A   1      33.188  30.119  26.523  1.00  0.00     0.116 C 
BRANCH  24  25
ATOM     25  N   UNL A   1      33.163  31.525  26.889  1.00  0.00    -0.352 N 
ATOM     26  C   UNL A   1      33.992  32.213  27.743  1.00  0.00     0.251 C 
ATOM     27  H   UNL A   1      32.452  32.061  26.468  1.00  0.00     0.163 HD
ATOM     28  O   UNL A   1      33.692  33.344  28.106  1.00  0.00    -0.269 OA
BRANCH  26  29
ATOM     29  C   UNL A   1      35.229  31.569  28.236  1.00  0.00     0.039 A 
ATOM     30  C   UNL A   1      36.435  32.267  28.155  1.00  0.00     0.014 A 
ATOM     31  C   UNL A   1      35.196  30.281  28.780  1.00  0.00     0.014 A 
ATOM     32  C   UNL A   1      37.600  31.696  28.676  1.00  0.00     0.010 A 
ATOM     33  C   UNL A   1      36.340  29.748  29.367  1.00  0.00     0.010 A 
ATOM     34  C   UNL A   1      37.556  30.449  29.319  1.00  0.00    -0.014 A 
BRANCH  34  35
ATOM     35  C   UNL A   1      38.772  29.859  29.940  1.00  0.00     0.031 A 
ATOM     36  C   UNL A   1      39.247  30.347  31.282  1.00  0.00     0.074 A 
ATOM     37  C   UNL A   1      39.477  28.925  29.271  1.00  0.00     0.049 A 
ATOM     38  N   UNL A   1      40.318  30.009  31.954  1.00  0.00    -0.248 NA
ATOM     39  C   UNL A   1      38.424  31.372  31.940  1.00  0.00     0.031 C 
ATOM     40  C   UNL A   1      39.136  28.398  27.947  1.00  0.00     0.029 A 
ATOM     41  N   UNL A   1      40.629  28.257  29.605  1.00  0.00    -0.354 N 
ATOM     42  C   UNL A   1      40.301  30.785  33.109  1.00  0.00     0.074 A 
ATOM     43  C   UNL A   1      39.150  31.657  33.009  1.00  0.00     0.031 C 
ATOM     44  C   UNL A   1      40.040  27.469  27.596  1.00  0.00     0.029 A 
ATOM     45  C   UNL A   1      41.055  27.371  28.640  1.00  0.00     0.049 A 
ATOM     46  H   UNL A   1      41.105  28.398  30.454  1.00  0.00     0.167 HD
ATOM     47  C   UNL A   1      41.153  30.755  34.164  1.00  0.00     0.034 A 
ATOM     48  C   UNL A   1      42.146  26.581  28.596  1.00  0.00     0.034 A 
ATOM     49  C   UNL A   1      42.293  29.874  34.248  1.00  0.00     0.049 A 
ATOM     50  C   UNL A   1      43.103  26.596  29.763  1.00  0.00     0.074 A 
ATOM     51  C   UNL A   1      43.191  29.726  35.289  1.00  0.00     0.029 A 
ATOM     52  N   UNL A   1      42.701  29.000  33.248  1.00  0.00    -0.354 N 
ATOM     53  N   UNL A   1      43.045  27.299  30.870  1.00  0.00    -0.248 NA
ATOM     54  C   UNL A   1      44.265  25.704  29.677  1.00  0.00     0.031 C 
ATOM     55  C   UNL A   1      44.184  28.825  34.890  1.00  0.00     0.029 A 
ATOM     56  C   UNL A   1      43.857  28.339  33.633  1.00  0.00     0.049 A 
ATOM     57  H   UNL A   1      42.236  28.869  32.389  1.00  0.00     0.167 HD
ATOM     58  C   UNL A   1      44.146  26.907  31.626  1.00  0.00     0.074 A 
ATOM     59  C   UNL A   1      44.839  25.895  30.855  1.00  0.00     0.031 C 
ATOM     60  C   UNL A   1      44.547  27.340  32.850  1.00  0.00     0.034 A 
BRANCH  47  61
ATOM     61  C   UNL A   1      40.895  31.725  35.294  1.00  0.00     0.023 A 
ATOM     62  C   UNL A   1      39.856  31.524  36.220  1.00  0.00     0.031 A 
ATOM     63  C   UNL A   1      41.686  32.878  35.438  1.00  0.00     0.131 A 
ATOM     64  C   UNL A   1      39.586  32.496  37.195  1.00  0.00     0.055 A 
ATOM     65  C   UNL A   1      41.468  33.800  36.465  1.00  0.00     0.041 A 
ATOM     66  F   UNL A   1      42.680  33.139  34.574  1.00  0.00    -0.206 F 
ATOM     67  C   UNL A   1      40.401  33.620  37.341  1.00  0.00     0.022 A 
BRANCH  64  68
ATOM     68  S   UNL A   1      38.062  32.347  38.166  1.00  0.00     0.124 S 
ATOM     69  O   UNL A   1      37.374  33.590  37.828  1.00  0.00    -0.237 OA
ATOM     70  O   UNL A   1      37.468  31.124  37.638  1.00  0.00    -0.237 OA
ATOM     71  O   UNL A   1      38.540  32.264  39.545  1.00  0.00    -0.744 OA
ENDBRANCH  64  68
ENDBRANCH  47  61
BRANCH  48  72
ATOM     72  C   UNL A   1      42.410  25.720  27.406  1.00  0.00     0.023 A 
ATOM     73  C   UNL A   1      41.960  24.391  27.359  1.00  0.00     0.031 A 
ATOM     74  C   UNL A   1      43.159  26.199  26.316  1.00  0.00     0.131 A 
ATOM     75  C   UNL A   1      42.306  23.573  26.272  1.00  0.00     0.055 A 
ATOM     76  C   UNL A   1      43.449  25.399  25.210  1.00  0.00     0.041 A 
ATOM     77  F   UNL A   1      43.614  27.463  26.308  1.00  0.00    -0.206 F 
ATOM     78  C   UNL A   1      43.035  24.072  25.191  1.00  0.00     0.022 A 
BRANCH  75  79
ATOM     79  S   UNL A   1      41.873  21.812  26.339  1.00  0.00     0.124 S 
ATOM     80  O   UNL A   1      42.717  21.259  25.286  1.00  0.00    -0.237 OA
ATOM     81  O   UNL A   1      42.241  21.461  27.707  1.00  0.00    -0.237 OA
ATOM     82  O   UNL A   1      40.439  21.803  26.060  1.00  0.00    -0.744 OA
ENDBRANCH  75  79
ENDBRANCH  48  72
BRANCH  60  83
ATOM     83  C   UNL A   1      45.768  26.682  33.448  1.00  0.00     0.023 A 
ATOM     84  C   UNL A   1      45.677  25.517  34.229  1.00  0.00     0.031 A 
ATOM     85  C   UNL A   1      47.043  27.237  33.239  1.00  0.00     0.131 A 
ATOM     86  C   UNL A   1      46.830  24.980  34.821  1.00  0.00     0.055 A 
ATOM     87  C   UNL A   1      48.195  26.659  33.774  1.00  0.00     0.041 A 
ATOM     88  F   UNL A   1      47.192  28.352  32.505  1.00  0.00    -0.206 F 
ATOM     89  C   UNL A   1      48.090  25.532  34.582  1.00  0.00     0.022 A 
BRANCH  86  90
ATOM     90  S   UNL A   1      46.648  23.606  35.994  1.00  0.00     0.124 S 
ATOM     91  O   UNL A   1      46.358  24.309  37.240  1.00  0.00    -0.237 OA
ATOM     92  O   UNL A   1      45.544  22.848  35.418  1.00  0.00    -0.237 OA
ATOM     93  O   UNL A   1      47.949  22.941  35.946  1.00  0.00    -0.744 OA
ENDBRANCH  86  90
ENDBRANCH  60  83
ENDBRANCH  34  35
ENDBRANCH  26  29
ENDBRANCH  24  25
ENDBRANCH  23  24
ENDBRANCH  22  23
ENDBRANCH   1  22
TORSDOF 19
ENDMDL
MODEL 2
REMARK VINA RESULT:     -10.9      2.338      3.405
REMARK SMILES C[C@@H](C(=O)NCCCCCCNC(=O)c1ccc(-c2c3nc(c(-c4cc(S(=O)(=O)[O-])ccc4F)c4ccc([nH]4)c(-c4cc(S(=O)(=O)[O-])ccc4F)c4nc(c(-c5cc(S(=O)(=O)[O-])ccc5F)c5ccc2[nH]5)C=C4)C=C3)cc1)[C@H](C)[S@@](=O)c1ccc(F)c(F)c1
REMARK SMILES IDX 8 1 7 2 6 3 5 4 3 5 4 6 2 8 1 9 78 10 79 11 80 12 81 13
REMARK SMILES IDX 82 14 83 15 89 16 84 17 87 18 85 19 88 20 86 21 9 22 10 23
REMARK SMILES IDX 11 24 12 25 13 26 14 28 15 29 16 30 77 31 17 32 76 33 18 34
REMARK SMILES IDX 19 35 20 36 70 37 21 38 75 39 69 40 71 41 22 42 74 43 68 44
REMARK SMILES IDX 67 45 23 47 55 48 35 49 54 50 36 51 39 52 53 53 72 54 37 55
REMARK SMILES IDX 38 56 52 58 73 59 40 60 24 61 25 62 33 63 26 64 32 65 34 66
REMARK SMILES IDX 31 67 27 68 28 69 29 70 30 71 56 72 57 73 65 74 58 75 64 76
REMARK SMILES IDX 66 77 63 78 59 79 60 80 61 81 62 82 41 83 42 84 50 85 43 86
REMARK SMILES IDX 49 87 51 88 48 89 44 90 45 91 46 92 47 93
REMARK H PARENT 5 7 12 27 71 46 39 57
REMARK Flexibility Score: inf
ROOT
ATOM      1  C   UNL A   1      32.347  26.137  26.487  1.00  0.00     0.002 C 
ENDROOT
BRANCH   1   2
ATOM      2  C   UNL A   1      31.075  25.336  26.178  1.00  0.00     0.021 C 
BRANCH   2   3
ATOM      3  C   UNL A   1      31.332  23.857  25.887  1.00  0.00     0.116 C 
BRANCH   3   4
ATOM      4  N   UNL A   1      32.286  23.323  26.845  1.00  0.00    -0.356 N 
ATOM      5  C   UNL A   1      33.283  22.412  26.655  1.00  0.00     0.224 C 
ATOM      6  O   UNL A   1      33.719  21.823  27.641  1.00  0.00    -0.275 OA
ATOM      7  H   UNL A   1      32.199  23.666  27.763  1.00  0.00     0.163 HD
BRANCH   5   8
ATOM      8  C   UNL A   1      33.798  22.170  25.243  1.00  0.00     0.091 C 
ATOM      9  C   UNL A   1      34.346  20.739  25.149  1.00  0.00     0.019 C 
BRANCH   8  10
ATOM     10  C   UNL A   1      34.851  23.198  24.747  1.00  0.00     0.093 C 
ATOM     11  C   UNL A   1      34.399  24.298  23.787  1.00  0.00     0.023 C 
BRANCH  10  12
ATOM     12  S   UNL A   1      36.345  22.330  24.032  1.00  0.00     0.057 S 
ATOM     13  O   UNL A   1      36.774  23.090  22.813  1.00  0.00    -0.254 OA
BRANCH  12  14
ATOM     14  C   UNL A   1      37.600  22.689  25.287  1.00  0.00     0.042 A 
ATOM     15  C   UNL A   1      38.538  21.695  25.606  1.00  0.00     0.021 A 
ATOM     16  C   UNL A   1      37.710  23.949  25.885  1.00  0.00     0.060 A 
ATOM     17  C   UNL A   1      39.555  21.950  26.532  1.00  0.00     0.043 A 
ATOM     18  C   UNL A   1      38.709  24.186  26.826  1.00  0.00     0.160 A 
ATOM     19  C   UNL A   1      39.627  23.196  27.145  1.00  0.00     0.158 A 
ATOM     20  F   UNL A   1      38.780  25.387  27.415  1.00  0.00    -0.204 F 
ATOM     21  F   UNL A   1      40.599  23.434  28.036  1.00  0.00    -0.204 F 
ENDBRANCH  12  14
ENDBRANCH  10  12
ENDBRANCH   8  10
ENDBRANCH   5   8
ENDBRANCH   3   4
ENDBRANCH   2   3
ENDBRANCH   1   2
BRANCH   1  22
ATOM     22  C   UNL A   1      32.104  27.594  26.892  1.00  0.00     0.002 C 
BRANCH  22  23
ATOM     23  C   UNL A   1      32.011  28.576  25.723  1.00  0.00     0.021 C 
BRANCH  23  24
ATOM     24  C   UNL A   1      33.151  29.586  25.657  1.00  0.00     0.116 C 
BRANCH  24  25
ATOM     25  N   UNL A   1      32.743  30.898  26.133  1.00  0.00    -0.352 N 
ATOM     26  C   UNL A   1      33.280  31.659  27.143  1.00  0.00     0.251 C 
ATOM     27  H   UNL A   1      31.972  31.296  25.668  1.00  0.00     0.163 HD
ATOM     28  O   UNL A   1      32.674  32.640  27.557  1.00  0.00    -0.269 OA
BRANCH  26  29
ATOM     29  C   UNL A   1      34.577  31.270  27.739  1.00  0.00     0.039 A 
ATOM     30  C   UNL A   1      35.568  32.240  27.897  1.00  0.00     0.014 A 
ATOM     31  C   UNL A   1      34.811  29.953  28.145  1.00  0.00     0.014 A 
ATOM     32  C   UNL A   1      36.774  31.902  28.517  1.00  0.00     0.010 A 
ATOM     33  C   UNL A   1      35.980  29.636  28.832  1.00  0.00     0.010 A 
ATOM     34  C   UNL A   1      36.976  30.607  29.022  1.00  0.00    -0.014 A 
BRANCH  34  35
ATOM     35  C   UNL A   1      38.225  30.250  29.747  1.00  0.00     0.031 A 
ATOM     36  C   UNL A   1      38.457  30.754  31.145  1.00  0.00     0.074 A 
ATOM     37  C   UNL A   1      39.170  29.517  29.125  1.00  0.00     0.049 A 
ATOM     38  N   UNL A   1      39.506  30.609  31.914  1.00  0.00    -0.248 NA
ATOM     39  C   UNL A   1      37.378  31.551  31.747  1.00  0.00     0.031 C 
ATOM     40  C   UNL A   1      39.075  29.001  27.758  1.00  0.00     0.029 A 
ATOM     41  N   UNL A   1      40.400  29.084  29.556  1.00  0.00    -0.354 N 
ATOM     42  C   UNL A   1      39.217  31.303  33.085  1.00  0.00     0.074 A 
ATOM     43  C   UNL A   1      37.923  31.923  32.894  1.00  0.00     0.031 C 
ATOM     44  C   UNL A   1      40.183  28.299  27.474  1.00  0.00     0.029 A 
ATOM     45  C   UNL A   1      41.092  28.357  28.613  1.00  0.00     0.049 A 
ATOM     46  H   UNL A   1      40.753  29.276  30.454  1.00  0.00     0.167 HD
ATOM     47  C   UNL A   1      39.953  31.395  34.220  1.00  0.00     0.034 A 
ATOM     48  C   UNL A   1      42.324  27.813  28.657  1.00  0.00     0.034 A 
ATOM     49  C   UNL A   1      41.240  30.764  34.394  1.00  0.00     0.049 A 
ATOM     50  C   UNL A   1      43.142  27.963  29.916  1.00  0.00     0.074 A 
ATOM     51  C   UNL A   1      42.047  30.750  35.518  1.00  0.00     0.029 A 
ATOM     52  N   UNL A   1      41.915  30.048  33.415  1.00  0.00    -0.354 N 
ATOM     53  N   UNL A   1      42.833  28.580  31.034  1.00  0.00    -0.248 NA
ATOM     54  C   UNL A   1      44.469  27.336  29.923  1.00  0.00     0.031 C 
ATOM     55  C   UNL A   1      43.240  30.096  35.195  1.00  0.00     0.029 A 
ATOM     56  C   UNL A   1      43.143  29.620  33.897  1.00  0.00     0.049 A 
ATOM     57  H   UNL A   1      41.572  29.869  32.509  1.00  0.00     0.167 HD
ATOM     58  C   UNL A   1      43.916  28.385  31.887  1.00  0.00     0.074 A 
ATOM     59  C   UNL A   1      44.875  27.580  31.160  1.00  0.00     0.031 C 
ATOM     60  C   UNL A   1      44.099  28.827  33.158  1.00  0.00     0.034 A 
BRANCH  47  61
ATOM     61  C   UNL A   1      39.392  32.230  35.349  1.00  0.00     0.023 A 
ATOM     62  C   UNL A   1      39.772  33.571  35.538  1.00  0.00     0.031 A 
ATOM     63  C   UNL A   1      38.478  31.673  36.261  1.00  0.00     0.131 A 
ATOM     64  C   UNL A   1      39.306  34.282  36.653  1.00  0.00     0.055 A 
ATOM     65  C   UNL A   1      37.949  32.414  37.320  1.00  0.00     0.041 A 
ATOM     66  F   UNL A   1      38.092  30.392  36.148  1.00  0.00    -0.206 F 
ATOM     67  C   UNL A   1      38.375  33.722  37.531  1.00  0.00     0.022 A 
BRANCH  64  68
ATOM     68  S   UNL A   1      40.051  35.893  37.026  1.00  0.00     0.124 S 
ATOM     69  O   UNL A   1      39.733  36.651  35.819  1.00  0.00    -0.237 OA
ATOM     70  O   UNL A   1      39.345  36.294  38.238  1.00  0.00    -0.237 OA
ATOM     71  O   UNL A   1      41.468  35.583  37.202  1.00  0.00    -0.744 OA
ENDBRANCH  64  68
ENDBRANCH  47  61
BRANCH  48  72
ATOM     72  C   UNL A   1      42.875  27.088  27.474  1.00  0.00     0.023 A 
ATOM     73  C   UNL A   1      42.932  25.686  27.446  1.00  0.00     0.031 A 
ATOM     74  C   UNL A   1      43.398  27.790  26.373  1.00  0.00     0.131 A 
ATOM     75  C   UNL A   1      43.545  25.032  26.365  1.00  0.00     0.055 A 
ATOM     76  C   UNL A   1      43.951  27.133  25.273  1.00  0.00     0.041 A 
ATOM     77  F   UNL A   1      43.368  29.132  26.347  1.00  0.00    -0.206 F 
ATOM     78  C   UNL A   1      44.041  25.745  25.272  1.00  0.00     0.022 A 
BRANCH  75  79
ATOM     79  S   UNL A   1      43.773  23.234  26.455  1.00  0.00     0.124 S 
ATOM     80  O   UNL A   1      43.398  22.957  27.837  1.00  0.00    -0.237 OA
ATOM     81  O   UNL A   1      42.849  22.760  25.431  1.00  0.00    -0.237 OA
ATOM     82  O   UNL A   1      45.189  23.055  26.145  1.00  0.00    -0.744 OA
ENDBRANCH  75  79
ENDBRANCH  48  72
BRANCH  60  83
ATOM     83  C   UNL A   1      45.369  28.404  33.858  1.00  0.00     0.023 A 
ATOM     84  C   UNL A   1      45.446  27.215  34.605  1.00  0.00     0.031 A 
ATOM     85  C   UNL A   1      46.517  29.212  33.785  1.00  0.00     0.131 A 
ATOM     86  C   UNL A   1      46.625  26.898  35.294  1.00  0.00     0.055 A 
ATOM     87  C   UNL A   1      47.709  28.856  34.417  1.00  0.00     0.041 A 
ATOM     88  F   UNL A   1      46.503  30.362  33.090  1.00  0.00    -0.206 F 
ATOM     89  C   UNL A   1      47.764  27.701  35.189  1.00  0.00     0.022 A 
BRANCH  86  90
ATOM     90  S   UNL A   1      46.622  25.472  36.417  1.00  0.00     0.124 S 
ATOM     91  O   UNL A   1      45.782  25.950  37.510  1.00  0.00    -0.237 OA
ATOM     92  O   UNL A   1      46.047  24.421  35.584  1.00  0.00    -0.237 OA
ATOM     93  O   UNL A   1      48.034  25.295  36.751  1.00  0.00    -0.744 OA
ENDBRANCH  86  90
ENDBRANCH  60  83
ENDBRANCH  34  35
ENDBRANCH  26  29
ENDBRANCH  24  25
ENDBRANCH  23  24
ENDBRANCH  22  23
ENDBRANCH   1  22
TORSDOF 19
ENDMDL
MODEL 3
REMARK VINA RESULT:     -10.9      1.655      7.814
REMARK SMILES C[C@@H](C(=O)NCCCCCCNC(=O)c1ccc(-c2c3nc(c(-c4cc(S(=O)(=O)[O-])ccc4F)c4ccc([nH]4)c(-c4cc(S(=O)(=O)[O-])ccc4F)c4nc(c(-c5cc(S(=O)(=O)[O-])ccc5F)c5ccc2[nH]5)C=C4)C=C3)cc1)[C@H](C)[S@@](=O)c1ccc(F)c(F)c1
REMARK SMILES IDX 8 1 7 2 6 3 5 4 3 5 4 6 2 8 1 9 78 10 79 11 80 12 81 13
REMARK SMILES IDX 82 14 83 15 89 16 84 17 87 18 85 19 88 20 86 21 9 22 10 23
REMARK SMILES IDX 11 24 12 25 13 26 14 28 15 29 16 30 77 31 17 32 76 33 18 34
REMARK SMILES IDX 19 35 20 36 70 37 21 38 75 39 69 40 71 41 22 42 74 43 68 44
REMARK SMILES IDX 67 45 23 47 55 48 35 49 54 50 36 51 39 52 53 53 72 54 37 55
REMARK SMILES IDX 38 56 52 58 73 59 40 60 24 61 25 62 33 63 26 64 32 65 34 66
REMARK SMILES IDX 31 67 27 68 28 69 29 70 30 71 56 72 57 73 65 74 58 75 64 76
REMARK SMILES IDX 66 77 63 78 59 79 60 80 61 81 62 82 41 83 42 84 50 85 43 86
REMARK SMILES IDX 49 87 51 88 48 89 44 90 45 91 46 92 47 93
REMARK H PARENT 5 7 12 27 71 46 39 57
REMARK Flexibility Score: inf
ROOT
ATOM      1  C   UNL A   1      31.875  26.796  26.711  1.00  0.00     0.002 C 
ENDROOT
BRANCH   1   2
ATOM      2  C   UNL A   1      30.555  26.237  26.163  1.00  0.00     0.021 C 
BRANCH   2   3
ATOM      3  C   UNL A   1      30.489  24.709  26.153  1.00  0.00     0.116 C 
BRANCH   3   4
ATOM      4  N   UNL A   1      31.779  24.155  26.530  1.00  0.00    -0.356 N 
ATOM      5  C   UNL A   1      32.312  22.934  26.242  1.00  0.00     0.224 C 
ATOM      6  O   UNL A   1      33.228  22.524  26.952  1.00  0.00    -0.275 OA
ATOM      7  H   UNL A   1      32.349  24.746  27.073  1.00  0.00     0.163 HD
BRANCH   5   8
ATOM      8  C   UNL A   1      31.750  22.144  25.068  1.00  0.00     0.091 C 
ATOM      9  C   UNL A   1      32.169  20.674  25.207  1.00  0.00     0.019 C 
BRANCH   8  10
ATOM     10  C   UNL A   1      32.129  22.697  23.668  1.00  0.00     0.093 C 
ATOM     11  C   UNL A   1      32.153  21.731  22.485  1.00  0.00     0.023 C 
BRANCH  10  12
ATOM     12  S   UNL A   1      33.750  23.629  23.736  1.00  0.00     0.057 S 
ATOM     13  O   UNL A   1      34.547  23.246  22.526  1.00  0.00    -0.254 OA
BRANCH  12  14
ATOM     14  C   UNL A   1      33.198  25.326  23.430  1.00  0.00     0.042 A 
ATOM     15  C   UNL A   1      34.059  26.384  23.760  1.00  0.00     0.021 A 
ATOM     16  C   UNL A   1      31.980  25.606  22.802  1.00  0.00     0.060 A 
ATOM     17  C   UNL A   1      33.693  27.707  23.491  1.00  0.00     0.043 A 
ATOM     18  C   UNL A   1      31.610  26.927  22.563  1.00  0.00     0.160 A 
ATOM     19  C   UNL A   1      32.461  27.970  22.901  1.00  0.00     0.158 A 
ATOM     20  F   UNL A   1      30.425  27.182  21.993  1.00  0.00    -0.204 F 
ATOM     21  F   UNL A   1      32.111  29.239  22.652  1.00  0.00    -0.204 F 
ENDBRANCH  12  14
ENDBRANCH  10  12
ENDBRANCH   8  10
ENDBRANCH   5   8
ENDBRANCH   3   4
ENDBRANCH   2   3
ENDBRANCH   1   2
BRANCH   1  22
ATOM     22  C   UNL A   1      31.780  28.213  27.288  1.00  0.00     0.002 C 
BRANCH  22  23
ATOM     23  C   UNL A   1      31.427  29.296  26.268  1.00  0.00     0.021 C 
BRANCH  23  24
ATOM     24  C   UNL A   1      32.582  30.226  25.912  1.00  0.00     0.116 C 
BRANCH  24  25
ATOM     25  N   UNL A   1      32.301  31.605  26.277  1.00  0.00    -0.352 N 
ATOM     26  C   UNL A   1      32.922  32.397  27.212  1.00  0.00     0.251 C 
ATOM     27  H   UNL A   1      31.561  32.031  25.787  1.00  0.00     0.163 HD
ATOM     28  O   UNL A   1      32.414  33.461  27.546  1.00  0.00    -0.269 OA
BRANCH  26  29
ATOM     29  C   UNL A   1      34.190  31.945  27.827  1.00  0.00     0.039 A 
ATOM     30  C   UNL A   1      35.238  32.856  27.967  1.00  0.00     0.014 A 
ATOM     31  C   UNL A   1      34.340  30.626  28.266  1.00  0.00     0.014 A 
ATOM     32  C   UNL A   1      36.417  32.459  28.604  1.00  0.00     0.010 A 
ATOM     33  C   UNL A   1      35.484  30.256  28.968  1.00  0.00     0.010 A 
ATOM     34  C   UNL A   1      36.536  31.168  29.142  1.00  0.00    -0.014 A 
BRANCH  34  35
ATOM     35  C   UNL A   1      37.757  30.753  29.884  1.00  0.00     0.031 A 
ATOM     36  C   UNL A   1      38.719  29.774  29.267  1.00  0.00     0.074 A 
ATOM     37  C   UNL A   1      37.968  31.215  31.132  1.00  0.00     0.049 A 
ATOM     38  N   UNL A   1      39.799  29.240  29.779  1.00  0.00    -0.248 NA
ATOM     39  C   UNL A   1      38.410  29.315  27.905  1.00  0.00     0.031 C 
ATOM     40  C   UNL A   1      37.088  32.140  31.850  1.00  0.00     0.029 A 
ATOM     41  N   UNL A   1      38.983  30.968  32.023  1.00  0.00    -0.354 N 
ATOM     42  C   UNL A   1      40.292  28.376  28.806  1.00  0.00     0.074 A 
ATOM     43  C   UNL A   1      39.355  28.410  27.704  1.00  0.00     0.031 C 
ATOM     44  C   UNL A   1      37.616  32.404  33.056  1.00  0.00     0.029 A 
ATOM     45  C   UNL A   1      38.841  31.629  33.223  1.00  0.00     0.049 A 
ATOM     46  H   UNL A   1      39.742  30.374  31.823  1.00  0.00     0.167 HD
ATOM     47  C   UNL A   1      41.432  27.642  28.823  1.00  0.00     0.034 A 
ATOM     48  C   UNL A   1      39.602  31.602  34.335  1.00  0.00     0.034 A 
ATOM     49  C   UNL A   1      42.358  27.625  29.930  1.00  0.00     0.049 A 
ATOM     50  C   UNL A   1      40.844  30.744  34.345  1.00  0.00     0.074 A 
ATOM     51  C   UNL A   1      43.566  26.958  30.033  1.00  0.00     0.029 A 
ATOM     52  N   UNL A   1      42.175  28.296  31.133  1.00  0.00    -0.354 N 
ATOM     53  N   UNL A   1      41.324  29.972  33.398  1.00  0.00    -0.248 NA
ATOM     54  C   UNL A   1      41.651  30.764  35.571  1.00  0.00     0.031 C 
ATOM     55  C   UNL A   1      44.072  27.160  31.321  1.00  0.00     0.029 A 
ATOM     56  C   UNL A   1      43.228  28.028  31.994  1.00  0.00     0.049 A 
ATOM     57  H   UNL A   1      41.408  28.877  31.343  1.00  0.00     0.167 HD
ATOM     58  C   UNL A   1      42.506  29.440  33.904  1.00  0.00     0.074 A 
ATOM     59  C   UNL A   1      42.674  29.994  35.232  1.00  0.00     0.031 C 
ATOM     60  C   UNL A   1      43.379  28.576  33.323  1.00  0.00     0.034 A 
BRANCH  47  61
ATOM     61  C   UNL A   1      41.721  26.776  27.618  1.00  0.00     0.023 A 
ATOM     62  C   UNL A   1      41.347  25.421  27.572  1.00  0.00     0.031 A 
ATOM     63  C   UNL A   1      42.399  27.307  26.506  1.00  0.00     0.131 A 
ATOM     64  C   UNL A   1      41.720  24.627  26.478  1.00  0.00     0.055 A 
ATOM     65  C   UNL A   1      42.691  26.532  25.381  1.00  0.00     0.041 A 
ATOM     66  F   UNL A   1      42.802  28.587  26.497  1.00  0.00    -0.206 F 
ATOM     67  C   UNL A   1      42.366  25.178  25.369  1.00  0.00     0.022 A 
BRANCH  64  68
ATOM     68  S   UNL A   1      41.488  22.832  26.592  1.00  0.00     0.124 S 
ATOM     69  O   UNL A   1      42.130  22.372  25.363  1.00  0.00    -0.237 OA
ATOM     70  O   UNL A   1      42.178  22.503  27.835  1.00  0.00    -0.237 OA
ATOM     71  O   UNL A   1      40.036  22.674  26.624  1.00  0.00    -0.744 OA
ENDBRANCH  64  68
ENDBRANCH  47  61
BRANCH  48  72
ATOM     72  C   UNL A   1      39.214  32.394  35.538  1.00  0.00     0.023 A 
ATOM     73  C   UNL A   1      39.624  33.727  35.692  1.00  0.00     0.031 A 
ATOM     74  C   UNL A   1      38.465  31.812  36.578  1.00  0.00     0.131 A 
ATOM     75  C   UNL A   1      39.329  34.419  36.878  1.00  0.00     0.055 A 
ATOM     76  C   UNL A   1      38.123  32.523  37.729  1.00  0.00     0.041 A 
ATOM     77  F   UNL A   1      38.046  30.540  36.483  1.00  0.00    -0.206 F 
ATOM     78  C   UNL A   1      38.569  33.831  37.890  1.00  0.00     0.022 A 
BRANCH  75  79
ATOM     79  S   UNL A   1      40.042  36.070  37.120  1.00  0.00     0.124 S 
ATOM     80  O   UNL A   1      41.435  35.750  37.412  1.00  0.00    -0.237 OA
ATOM     81  O   UNL A   1      39.785  36.702  35.831  1.00  0.00    -0.237 OA
ATOM     82  O   UNL A   1      39.276  36.609  38.241  1.00  0.00    -0.744 OA
ENDBRANCH  75  79
ENDBRANCH  48  72
BRANCH  60  83
ATOM     83  C   UNL A   1      44.619  28.217  34.107  1.00  0.00     0.023 A 
ATOM     84  C   UNL A   1      44.733  26.999  34.800  1.00  0.00     0.031 A 
ATOM     85  C   UNL A   1      45.698  29.115  34.170  1.00  0.00     0.131 A 
ATOM     86  C   UNL A   1      45.875  26.738  35.572  1.00  0.00     0.055 A 
ATOM     87  C   UNL A   1      46.860  28.821  34.884  1.00  0.00     0.041 A 
ATOM     88  F   UNL A   1      45.645  30.297  33.533  1.00  0.00    -0.206 F 
ATOM     89  C   UNL A   1      46.948  27.633  35.602  1.00  0.00     0.022 A 
BRANCH  86  90
ATOM     90  S   UNL A   1      45.899  25.258  36.622  1.00  0.00     0.124 S 
ATOM     91  O   UNL A   1      45.833  25.834  37.960  1.00  0.00    -0.237 OA
ATOM     92  O   UNL A   1      44.708  24.542  36.177  1.00  0.00    -0.237 OA
ATOM     93  O   UNL A   1      47.168  24.618  36.283  1.00  0.00    -0.744 OA
ENDBRANCH  86  90
ENDBRANCH  60  83
ENDBRANCH  34  35
ENDBRANCH  26  29
ENDBRANCH  24  25
ENDBRANCH  23  24
ENDBRANCH  22  23
ENDBRANCH   1  22
TORSDOF 19
ENDMDL
