MODEL 1
REMARK VINA RESULT:     -11.8      0.000      0.000
REMARK SMILES C[C@@H](C(=O)NCCCCCCNC(=O)c1ccc(-c2c3nc(c(-c4cc(S(=O)(=O)[O-])ccc4F)c4ccc([nH]4)c(-c4cc(S(=O)(=O)[O-])ccc4F)c4nc(c(-c5cc(S(=O)(=O)[O-])ccc5F)c5ccc2[nH]5)C=C4)C=C3)cc1)c1ccc(C[C@@H]2CCC[C@@H]2O)cc1
REMARK SMILES IDX 8 1 7 2 6 3 5 4 3 5 4 6 2 8 1 9 78 10 79 11 90 12 80 13
REMARK SMILES IDX 89 14 81 15 82 16 83 17 84 18 87 19 85 20 86 21 88 22 9 24
REMARK SMILES IDX 10 25 11 26 12 27 13 28 14 30 15 31 16 32 77 33 17 34 76 35
REMARK SMILES IDX 18 36 19 37 20 38 70 39 21 40 75 41 69 42 71 43 22 44 74 45
REMARK SMILES IDX 68 46 67 47 23 49 55 50 35 51 54 52 36 53 39 54 53 55 72 56
REMARK SMILES IDX 37 57 38 58 52 60 73 61 40 62 24 63 25 64 33 65 26 66 32 67
REMARK SMILES IDX 34 68 31 69 27 70 28 71 29 72 30 73 56 74 57 75 65 76 58 77
REMARK SMILES IDX 64 78 66 79 63 80 59 81 60 82 61 83 62 84 41 85 42 86 50 87
REMARK SMILES IDX 43 88 49 89 51 90 48 91 44 92 45 93 46 94 47 95
REMARK H PARENT 5 7 88 23 12 29 71 48 39 59
REMARK Flexibility Score: inf
ROOT
ATOM      1  C   UNL A   1      33.571  26.838  25.837  1.00  0.00     0.002 C 
ENDROOT
BRANCH   1   2
ATOM      2  C   UNL A   1      34.314  25.496  25.794  1.00  0.00     0.021 C 
BRANCH   2   3
ATOM      3  C   UNL A   1      33.587  24.410  24.997  1.00  0.00     0.116 C 
BRANCH   3   4
ATOM      4  N   UNL A   1      32.494  23.863  25.775  1.00  0.00    -0.356 N 
ATOM      5  C   UNL A   1      31.197  23.632  25.427  1.00  0.00     0.227 C 
ATOM      6  O   UNL A   1      30.427  23.330  26.341  1.00  0.00    -0.274 OA
ATOM      7  H   UNL A   1      32.726  23.620  26.701  1.00  0.00     0.163 HD
BRANCH   5   8
ATOM      8  C   UNL A   1      30.782  23.705  23.950  1.00  0.00     0.105 C 
ATOM      9  C   UNL A   1      31.801  23.062  23.001  1.00  0.00     0.023 C 
BRANCH   8  10
ATOM     10  C   UNL A   1      30.515  25.134  23.491  1.00  0.00    -0.036 A 
ATOM     11  C   UNL A   1      31.272  25.704  22.462  1.00  0.00     0.005 A 
ATOM     12  C   UNL A   1      29.542  25.919  24.127  1.00  0.00     0.005 A 
ATOM     13  C   UNL A   1      31.105  27.048  22.123  1.00  0.00     0.004 A 
ATOM     14  C   UNL A   1      29.392  27.264  23.801  1.00  0.00     0.004 A 
ATOM     15  C   UNL A   1      30.202  27.854  22.826  1.00  0.00    -0.048 A 
BRANCH  15  16
ATOM     16  C   UNL A   1      30.120  29.339  22.585  1.00  0.00     0.041 C 
BRANCH  16  17
ATOM     17  C   UNL A   1      28.775  30.039  22.888  1.00  0.00     0.022 C 
ATOM     18  C   UNL A   1      27.863  30.229  21.670  1.00  0.00     0.007 C 
ATOM     19  C   UNL A   1      28.817  31.450  23.489  1.00  0.00     0.117 C 
ATOM     20  C   UNL A   1      28.023  31.685  21.221  1.00  0.00     0.003 C 
ATOM     21  C   UNL A   1      28.853  32.387  22.290  1.00  0.00     0.032 C 
BRANCH  19  22
ATOM     22  O   UNL A   1      29.893  31.674  24.375  1.00  0.00    -0.393 OA
ATOM     23  H   UNL A   1      30.605  31.042  24.185  1.00  0.00     0.210 HD
ENDBRANCH  19  22
ENDBRANCH  16  17
ENDBRANCH  15  16
ENDBRANCH   8  10
ENDBRANCH   5   8
ENDBRANCH   3   4
ENDBRANCH   2   3
ENDBRANCH   1   2
BRANCH   1  24
ATOM     24  C   UNL A   1      33.629  27.650  24.540  1.00  0.00     0.002 C 
BRANCH  24  25
ATOM     25  C   UNL A   1      33.063  29.067  24.646  1.00  0.00     0.021 C 
BRANCH  25  26
ATOM     26  C   UNL A   1      32.432  29.395  25.994  1.00  0.00     0.116 C 
BRANCH  26  27
ATOM     27  N   UNL A   1      32.237  30.824  26.165  1.00  0.00    -0.352 N 
ATOM     28  C   UNL A   1      32.877  31.685  27.018  1.00  0.00     0.251 C 
ATOM     29  H   UNL A   1      31.552  31.232  25.588  1.00  0.00     0.163 HD
ATOM     30  O   UNL A   1      32.425  32.820  27.185  1.00  0.00    -0.269 OA
BRANCH  28  31
ATOM     31  C   UNL A   1      34.087  31.249  27.748  1.00  0.00     0.039 A 
ATOM     32  C   UNL A   1      35.011  32.213  28.161  1.00  0.00     0.014 A 
ATOM     33  C   UNL A   1      34.331  29.895  27.997  1.00  0.00     0.014 A 
ATOM     34  C   UNL A   1      36.162  31.820  28.846  1.00  0.00     0.010 A 
ATOM     35  C   UNL A   1      35.438  29.512  28.749  1.00  0.00     0.010 A 
ATOM     36  C   UNL A   1      36.379  30.468  29.160  1.00  0.00    -0.014 A 
BRANCH  36  37
ATOM     37  C   UNL A   1      37.614  30.036  29.866  1.00  0.00     0.031 A 
ATOM     38  C   UNL A   1      37.852  30.470  31.289  1.00  0.00     0.074 A 
ATOM     39  C   UNL A   1      38.531  29.290  29.222  1.00  0.00     0.049 A 
ATOM     40  N   UNL A   1      38.875  30.231  32.069  1.00  0.00    -0.248 NA
ATOM     41  C   UNL A   1      36.816  31.315  31.903  1.00  0.00     0.031 C 
ATOM     42  C   UNL A   1      38.429  28.841  27.832  1.00  0.00     0.029 A 
ATOM     43  N   UNL A   1      39.728  28.772  29.649  1.00  0.00    -0.354 N 
ATOM     44  C   UNL A   1      38.614  30.909  33.257  1.00  0.00     0.074 A 
ATOM     45  C   UNL A   1      37.369  31.622  33.066  1.00  0.00     0.031 C 
ATOM     46  C   UNL A   1      39.500  28.086  27.534  1.00  0.00     0.029 A 
ATOM     47  C   UNL A   1      40.384  28.031  28.694  1.00  0.00     0.049 A 
ATOM     48  H   UNL A   1      40.084  28.920  30.555  1.00  0.00     0.167 HD
ATOM     49  C   UNL A   1      39.331  30.915  34.408  1.00  0.00     0.034 A 
ATOM     50  C   UNL A   1      41.563  27.381  28.749  1.00  0.00     0.034 A 
ATOM     51  C   UNL A   1      40.559  30.178  34.588  1.00  0.00     0.049 A 
ATOM     52  C   UNL A   1      42.346  27.404  30.038  1.00  0.00     0.074 A 
ATOM     53  C   UNL A   1      41.337  30.061  35.725  1.00  0.00     0.029 A 
ATOM     54  N   UNL A   1      41.191  29.434  33.598  1.00  0.00    -0.354 N 
ATOM     55  N   UNL A   1      42.058  28.004  31.172  1.00  0.00    -0.248 NA
ATOM     56  C   UNL A   1      43.604  26.648  30.060  1.00  0.00     0.031 C 
ATOM     57  C   UNL A   1      42.472  29.308  35.406  1.00  0.00     0.029 A 
ATOM     58  C   UNL A   1      42.363  28.881  34.092  1.00  0.00     0.049 A 
ATOM     59  H   UNL A   1      40.855  29.315  32.680  1.00  0.00     0.167 HD
ATOM     60  C   UNL A   1      43.081  27.660  32.052  1.00  0.00     0.074 A 
ATOM     61  C   UNL A   1      43.982  26.793  31.321  1.00  0.00     0.031 C 
ATOM     62  C   UNL A   1      43.256  28.022  33.349  1.00  0.00     0.034 A 
BRANCH  49  63
ATOM     63  C   UNL A   1      38.817  31.769  35.545  1.00  0.00     0.023 A 
ATOM     64  C   UNL A   1      38.290  31.202  36.720  1.00  0.00     0.031 A 
ATOM     65  C   UNL A   1      38.819  33.170  35.439  1.00  0.00     0.131 A 
ATOM     66  C   UNL A   1      37.710  32.024  37.699  1.00  0.00     0.055 A 
ATOM     67  C   UNL A   1      38.322  33.988  36.457  1.00  0.00     0.041 A 
ATOM     68  F   UNL A   1      39.288  33.773  34.335  1.00  0.00    -0.206 F 
ATOM     69  C   UNL A   1      37.747  33.415  37.587  1.00  0.00     0.022 A 
BRANCH  66  70
ATOM     70  S   UNL A   1      36.765  31.245  39.037  1.00  0.00     0.124 S 
ATOM     71  O   UNL A   1      37.739  31.251  40.126  1.00  0.00    -0.237 OA
ATOM     72  O   UNL A   1      35.630  32.147  39.188  1.00  0.00    -0.237 OA
ATOM     73  O   UNL A   1      36.445  29.922  38.505  1.00  0.00    -0.744 OA
ENDBRANCH  66  70
ENDBRANCH  49  63
BRANCH  50  74
ATOM     74  C   UNL A   1      42.077  26.641  27.561  1.00  0.00     0.023 A 
ATOM     75  C   UNL A   1      41.847  25.263  27.414  1.00  0.00     0.031 A 
ATOM     76  C   UNL A   1      42.846  27.288  26.577  1.00  0.00     0.131 A 
ATOM     77  C   UNL A   1      42.424  24.566  26.341  1.00  0.00     0.055 A 
ATOM     78  C   UNL A   1      43.371  26.601  25.481  1.00  0.00     0.041 A 
ATOM     79  F   UNL A   1      43.090  28.605  26.664  1.00  0.00    -0.206 F 
ATOM     80  C   UNL A   1      43.174  25.228  25.367  1.00  0.00     0.022 A 
BRANCH  77  81
ATOM     81  S   UNL A   1      42.255  22.761  26.288  1.00  0.00     0.124 S 
ATOM     82  O   UNL A   1      40.811  22.595  26.400  1.00  0.00    -0.237 OA
ATOM     83  O   UNL A   1      42.840  22.441  24.990  1.00  0.00    -0.237 OA
ATOM     84  O   UNL A   1      43.028  22.314  27.445  1.00  0.00    -0.744 OA
ENDBRANCH  77  81
ENDBRANCH  50  74
BRANCH  62  85
ATOM     85  C   UNL A   1      44.440  27.424  34.073  1.00  0.00     0.023 A 
ATOM     86  C   UNL A   1      44.341  26.222  34.795  1.00  0.00     0.031 A 
ATOM     87  C   UNL A   1      45.681  28.084  34.057  1.00  0.00     0.131 A 
ATOM     88  C   UNL A   1      45.443  25.753  35.527  1.00  0.00     0.055 A 
ATOM     89  C   UNL A   1      46.793  27.577  34.731  1.00  0.00     0.041 A 
ATOM     90  F   UNL A   1      45.835  29.236  33.386  1.00  0.00    -0.206 F 
ATOM     91  C   UNL A   1      46.673  26.414  35.485  1.00  0.00     0.022 A 
BRANCH  88  92
ATOM     92  S   UNL A   1      45.215  24.329  36.628  1.00  0.00     0.124 S 
ATOM     93  O   UNL A   1      44.172  24.807  37.531  1.00  0.00    -0.237 OA
ATOM     94  O   UNL A   1      44.818  23.277  35.697  1.00  0.00    -0.237 OA
ATOM     95  O   UNL A   1      46.531  24.153  37.238  1.00  0.00    -0.744 OA
ENDBRANCH  88  92
ENDBRANCH  62  85
ENDBRANCH  36  37
ENDBRANCH  28  31
ENDBRANCH  26  27
ENDBRANCH  25  26
ENDBRANCH  24  25
ENDBRANCH   1  24
TORSDOF 20
ENDMDL
MODEL 2
REMARK VINA RESULT:     -11.7      5.035      9.768
REMARK SMILES C[C@@H](C(=O)NCCCCCCNC(=O)c1ccc(-c2c3nc(c(-c4cc(S(=O)(=O)[O-])ccc4F)c4ccc([nH]4)c(-c4cc(S(=O)(=O)[O-])ccc4F)c4nc(c(-c5cc(S(=O)(=O)[O-])ccc5F)c5ccc2[nH]5)C=C4)C=C3)cc1)c1ccc(C[C@@H]2CCC[C@@H]2O)cc1
REMARK SMILES IDX 8 1 7 2 6 3 5 4 3 5 4 6 2 8 1 9 78 10 79 11 90 12 80 13
REMARK SMILES IDX 89 14 81 15 82 16 83 17 84 18 87 19 85 20 86 21 88 22 9 24
REMARK SMILES IDX 10 25 11 26 12 27 13 28 14 30 15 31 16 32 77 33 17 34 76 35
REMARK SMILES IDX 18 36 19 37 20 38 70 39 21 40 75 41 69 42 71 43 22 44 74 45
REMARK SMILES IDX 68 46 67 47 23 49 55 50 35 51 54 52 36 53 39 54 53 55 72 56
REMARK SMILES IDX 37 57 38 58 52 60 73 61 40 62 24 63 25 64 33 65 26 66 32 67
REMARK SMILES IDX 34 68 31 69 27 70 28 71 29 72 30 73 56 74 57 75 65 76 58 77
REMARK SMILES IDX 64 78 66 79 63 80 59 81 60 82 61 83 62 84 41 85 42 86 50 87
REMARK SMILES IDX 43 88 49 89 51 90 48 91 44 92 45 93 46 94 47 95
REMARK H PARENT 5 7 88 23 12 29 71 48 39 59
REMARK Flexibility Score: inf
ROOT
ATOM      1  C   UNL A   1      34.634  21.838  24.406  1.00  0.00     0.002 C 
ENDROOT
BRANCH   1   2
ATOM      2  C   UNL A   1      33.182  21.635  23.953  1.00  0.00     0.021 C 
BRANCH   2   3
ATOM      3  C   UNL A   1      32.250  21.137  25.061  1.00  0.00     0.116 C 
BRANCH   3   4
ATOM      4  N   UNL A   1      32.879  21.300  26.356  1.00  0.00    -0.356 N 
ATOM      5  C   UNL A   1      32.753  22.299  27.274  1.00  0.00     0.227 C 
ATOM      6  O   UNL A   1      33.545  22.283  28.218  1.00  0.00    -0.274 OA
ATOM      7  H   UNL A   1      33.494  20.575  26.612  1.00  0.00     0.163 HD
BRANCH   5   8
ATOM      8  C   UNL A   1      31.628  23.334  27.122  1.00  0.00     0.105 C 
ATOM      9  C   UNL A   1      30.265  22.706  26.804  1.00  0.00     0.023 C 
BRANCH   8  10
ATOM     10  C   UNL A   1      31.944  24.386  26.066  1.00  0.00    -0.036 A 
ATOM     11  C   UNL A   1      31.069  24.607  24.997  1.00  0.00     0.005 A 
ATOM     12  C   UNL A   1      33.143  25.112  26.116  1.00  0.00     0.005 A 
ATOM     13  C   UNL A   1      31.417  25.486  23.969  1.00  0.00     0.004 A 
ATOM     14  C   UNL A   1      33.496  25.973  25.081  1.00  0.00     0.004 A 
ATOM     15  C   UNL A   1      32.656  26.136  23.975  1.00  0.00    -0.048 A 
BRANCH  15  16
ATOM     16  C   UNL A   1      33.117  26.962  22.802  1.00  0.00     0.041 C 
BRANCH  16  17
ATOM     17  C   UNL A   1      32.784  28.472  22.817  1.00  0.00     0.022 C 
ATOM     18  C   UNL A   1      33.094  29.183  24.140  1.00  0.00     0.007 C 
ATOM     19  C   UNL A   1      31.333  28.892  22.551  1.00  0.00     0.117 C 
ATOM     20  C   UNL A   1      31.764  29.325  24.887  1.00  0.00     0.003 C 
ATOM     21  C   UNL A   1      30.667  28.893  23.920  1.00  0.00     0.032 C 
BRANCH  19  22
ATOM     22  O   UNL A   1      30.650  28.073  21.625  1.00  0.00    -0.393 OA
ATOM     23  H   UNL A   1      29.735  28.381  21.535  1.00  0.00     0.210 HD
ENDBRANCH  19  22
ENDBRANCH  16  17
ENDBRANCH  15  16
ENDBRANCH   8  10
ENDBRANCH   5   8
ENDBRANCH   3   4
ENDBRANCH   2   3
ENDBRANCH   1   2
BRANCH   1  24
ATOM     24  C   UNL A   1      35.399  22.927  23.649  1.00  0.00     0.002 C 
BRANCH  24  25
ATOM     25  C   UNL A   1      36.396  23.718  24.499  1.00  0.00     0.021 C 
BRANCH  25  26
ATOM     26  C   UNL A   1      36.494  23.256  25.948  1.00  0.00     0.116 C 
BRANCH  26  27
ATOM     27  N   UNL A   1      37.551  22.276  26.131  1.00  0.00    -0.352 N 
ATOM     28  C   UNL A   1      38.874  22.480  26.423  1.00  0.00     0.251 C 
ATOM     29  H   UNL A   1      37.279  21.335  26.032  1.00  0.00     0.163 HD
ATOM     30  O   UNL A   1      39.668  21.542  26.319  1.00  0.00    -0.269 OA
BRANCH  28  31
ATOM     31  C   UNL A   1      39.348  23.817  26.842  1.00  0.00     0.039 A 
ATOM     32  C   UNL A   1      39.276  24.167  28.193  1.00  0.00     0.014 A 
ATOM     33  C   UNL A   1      39.831  24.736  25.905  1.00  0.00     0.014 A 
ATOM     34  C   UNL A   1      39.714  25.426  28.606  1.00  0.00     0.010 A 
ATOM     35  C   UNL A   1      40.341  25.960  26.329  1.00  0.00     0.010 A 
ATOM     36  C   UNL A   1      40.264  26.329  27.680  1.00  0.00    -0.014 A 
BRANCH  36  37
ATOM     37  C   UNL A   1      40.709  27.683  28.105  1.00  0.00     0.031 A 
ATOM     38  C   UNL A   1      42.161  28.066  27.982  1.00  0.00     0.074 A 
ATOM     39  C   UNL A   1      39.822  28.548  28.631  1.00  0.00     0.049 A 
ATOM     40  N   UNL A   1      42.758  29.179  28.323  1.00  0.00    -0.248 NA
ATOM     41  C   UNL A   1      43.067  27.046  27.430  1.00  0.00     0.031 C 
ATOM     42  C   UNL A   1      38.397  28.276  28.837  1.00  0.00     0.029 A 
ATOM     43  N   UNL A   1      39.982  29.832  29.087  1.00  0.00    -0.354 N 
ATOM     44  C   UNL A   1      44.108  28.986  28.047  1.00  0.00     0.074 A 
ATOM     45  C   UNL A   1      44.248  27.627  27.572  1.00  0.00     0.031 C 
ATOM     46  C   UNL A   1      37.809  29.373  29.344  1.00  0.00     0.029 A 
ATOM     47  C   UNL A   1      38.818  30.409  29.538  1.00  0.00     0.049 A 
ATOM     48  H   UNL A   1      40.851  30.296  29.092  1.00  0.00     0.167 HD
ATOM     49  C   UNL A   1      45.132  29.870  28.153  1.00  0.00     0.034 A 
ATOM     50  C   UNL A   1      38.591  31.636  30.049  1.00  0.00     0.034 A 
ATOM     51  C   UNL A   1      44.969  31.231  28.606  1.00  0.00     0.049 A 
ATOM     52  C   UNL A   1      39.745  32.601  30.161  1.00  0.00     0.074 A 
ATOM     53  C   UNL A   1      45.921  32.230  28.696  1.00  0.00     0.029 A 
ATOM     54  N   UNL A   1      43.773  31.782  29.050  1.00  0.00    -0.354 N 
ATOM     55  N   UNL A   1      41.008  32.424  29.842  1.00  0.00    -0.248 NA
ATOM     56  C   UNL A   1      39.439  33.937  30.686  1.00  0.00     0.031 C 
ATOM     57  C   UNL A   1      45.319  33.361  29.260  1.00  0.00     0.029 A 
ATOM     58  C   UNL A   1      43.971  33.097  29.443  1.00  0.00     0.049 A 
ATOM     59  H   UNL A   1      42.910  31.309  29.081  1.00  0.00     0.167 HD
ATOM     60  C   UNL A   1      41.635  33.642  30.090  1.00  0.00     0.074 A 
ATOM     61  C   UNL A   1      40.610  34.545  30.571  1.00  0.00     0.031 C 
ATOM     62  C   UNL A   1      42.939  33.986  29.927  1.00  0.00     0.034 A 
BRANCH  49  63
ATOM     63  C   UNL A   1      46.517  29.377  27.800  1.00  0.00     0.023 A 
ATOM     64  C   UNL A   1      46.860  29.000  26.489  1.00  0.00     0.031 A 
ATOM     65  C   UNL A   1      47.501  29.246  28.796  1.00  0.00     0.131 A 
ATOM     66  C   UNL A   1      48.116  28.432  26.226  1.00  0.00     0.055 A 
ATOM     67  C   UNL A   1      48.781  28.764  28.511  1.00  0.00     0.041 A 
ATOM     68  F   UNL A   1      47.230  29.568  30.071  1.00  0.00    -0.206 F 
ATOM     69  C   UNL A   1      49.088  28.336  27.223  1.00  0.00     0.022 A 
BRANCH  66  70
ATOM     70  S   UNL A   1      48.402  27.673  24.603  1.00  0.00     0.124 S 
ATOM     71  O   UNL A   1      47.278  28.198  23.832  1.00  0.00    -0.237 OA
ATOM     72  O   UNL A   1      49.720  28.184  24.244  1.00  0.00    -0.237 OA
ATOM     73  O   UNL A   1      48.342  26.239  24.881  1.00  0.00    -0.744 OA
ENDBRANCH  66  70
ENDBRANCH  49  63
BRANCH  50  74
ATOM     74  C   UNL A   1      37.221  32.036  30.481  1.00  0.00     0.023 A 
ATOM     75  C   UNL A   1      36.324  32.630  29.579  1.00  0.00     0.031 A 
ATOM     76  C   UNL A   1      36.804  31.873  31.814  1.00  0.00     0.131 A 
ATOM     77  C   UNL A   1      35.077  33.090  30.031  1.00  0.00     0.055 A 
ATOM     78  C   UNL A   1      35.540  32.282  32.246  1.00  0.00     0.041 A 
ATOM     79  F   UNL A   1      37.618  31.305  32.717  1.00  0.00    -0.206 F 
ATOM     80  C   UNL A   1      34.674  32.908  31.355  1.00  0.00     0.022 A 
BRANCH  77  81
ATOM     81  S   UNL A   1      34.023  34.012  28.878  1.00  0.00     0.124 S 
ATOM     82  O   UNL A   1      33.562  32.956  27.986  1.00  0.00    -0.237 OA
ATOM     83  O   UNL A   1      33.022  34.581  29.773  1.00  0.00    -0.237 OA
ATOM     84  O   UNL A   1      34.942  34.979  28.279  1.00  0.00    -0.744 OA
ENDBRANCH  77  81
ENDBRANCH  50  74
BRANCH  62  85
ATOM     85  C   UNL A   1      43.310  35.421  30.217  1.00  0.00     0.023 A 
ATOM     86  C   UNL A   1      43.223  36.425  29.237  1.00  0.00     0.031 A 
ATOM     87  C   UNL A   1      43.781  35.783  31.491  1.00  0.00     0.131 A 
ATOM     88  C   UNL A   1      43.665  37.725  29.525  1.00  0.00     0.055 A 
ATOM     89  C   UNL A   1      44.155  37.093  31.793  1.00  0.00     0.041 A 
ATOM     90  F   UNL A   1      43.888  34.867  32.467  1.00  0.00    -0.206 F 
ATOM     91  C   UNL A   1      44.114  38.069  30.802  1.00  0.00     0.022 A 
BRANCH  88  92
ATOM     92  S   UNL A   1      43.753  38.935  28.176  1.00  0.00     0.124 S 
ATOM     93  O   UNL A   1      44.974  39.665  28.502  1.00  0.00    -0.237 OA
ATOM     94  O   UNL A   1      43.819  38.079  26.995  1.00  0.00    -0.237 OA
ATOM     95  O   UNL A   1      42.516  39.699  28.319  1.00  0.00    -0.744 OA
ENDBRANCH  88  92
ENDBRANCH  62  85
ENDBRANCH  36  37
ENDBRANCH  28  31
ENDBRANCH  26  27
ENDBRANCH  25  26
ENDBRANCH  24  25
ENDBRANCH   1  24
TORSDOF 20
ENDMDL
MODEL 3
REMARK VINA RESULT:     -11.6      2.521      4.501
REMARK SMILES C[C@@H](C(=O)NCCCCCCNC(=O)c1ccc(-c2c3nc(c(-c4cc(S(=O)(=O)[O-])ccc4F)c4ccc([nH]4)c(-c4cc(S(=O)(=O)[O-])ccc4F)c4nc(c(-c5cc(S(=O)(=O)[O-])ccc5F)c5ccc2[nH]5)C=C4)C=C3)cc1)c1ccc(C[C@@H]2CCC[C@@H]2O)cc1
REMARK SMILES IDX 8 1 7 2 6 3 5 4 3 5 4 6 2 8 1 9 78 10 79 11 90 12 80 13
REMARK SMILES IDX 89 14 81 15 82 16 83 17 84 18 87 19 85 20 86 21 88 22 9 24
REMARK SMILES IDX 10 25 11 26 12 27 13 28 14 30 15 31 16 32 77 33 17 34 76 35
REMARK SMILES IDX 18 36 19 37 20 38 70 39 21 40 75 41 69 42 71 43 22 44 74 45
REMARK SMILES IDX 68 46 67 47 23 49 55 50 35 51 54 52 36 53 39 54 53 55 72 56
REMARK SMILES IDX 37 57 38 58 52 60 73 61 40 62 24 63 25 64 33 65 26 66 32 67
REMARK SMILES IDX 34 68 31 69 27 70 28 71 29 72 30 73 56 74 57 75 65 76 58 77
REMARK SMILES IDX 64 78 66 79 63 80 59 81 60 82 61 83 62 84 41 85 42 86 50 87
REMARK SMILES IDX 43 88 49 89 51 90 48 91 44 92 45 93 46 94 47 95
REMARK H PARENT 5 7 88 23 12 29 71 48 39 59
REMARK Flexibility Score: inf
ROOT
ATOM      1  C   UNL A   1      31.159  28.567  24.874  1.00  0.00     0.002 C 
ENDROOT
BRANCH   1   2
ATOM      2  C   UNL A   1      30.294  27.802  23.864  1.00  0.00     0.021 C 
BRANCH   2   3
ATOM      3  C   UNL A   1      30.803  27.885  22.423  1.00  0.00     0.116 C 
BRANCH   3   4
ATOM      4  N   UNL A   1      32.124  28.478  22.391  1.00  0.00    -0.356 N 
ATOM      5  C   UNL A   1      33.352  27.888  22.407  1.00  0.00     0.227 C 
ATOM      6  O   UNL A   1      34.321  28.636  22.559  1.00  0.00    -0.274 OA
ATOM      7  H   UNL A   1      32.135  29.462  22.351  1.00  0.00     0.163 HD
BRANCH   5   8
ATOM      8  C   UNL A   1      33.471  26.373  22.189  1.00  0.00     0.105 C 
ATOM      9  C   UNL A   1      32.548  25.845  21.083  1.00  0.00     0.023 C 
BRANCH   8  10
ATOM     10  C   UNL A   1      33.213  25.579  23.465  1.00  0.00    -0.036 A 
ATOM     11  C   UNL A   1      34.053  25.723  24.574  1.00  0.00     0.005 A 
ATOM     12  C   UNL A   1      32.162  24.652  23.530  1.00  0.00     0.005 A 
ATOM     13  C   UNL A   1      33.884  24.910  25.697  1.00  0.00     0.004 A 
ATOM     14  C   UNL A   1      32.009  23.829  24.642  1.00  0.00     0.004 A 
ATOM     15  C   UNL A   1      32.895  23.920  25.720  1.00  0.00    -0.048 A 
BRANCH  15  16
ATOM     16  C   UNL A   1      32.798  22.929  26.851  1.00  0.00     0.041 C 
BRANCH  16  17
ATOM     17  C   UNL A   1      33.670  21.655  26.763  1.00  0.00     0.022 C 
ATOM     18  C   UNL A   1      35.121  21.900  26.335  1.00  0.00     0.007 C 
ATOM     19  C   UNL A   1      33.227  20.547  25.800  1.00  0.00     0.117 C 
ATOM     20  C   UNL A   1      35.211  21.541  24.849  1.00  0.00     0.003 C 
ATOM     21  C   UNL A   1      33.882  20.895  24.471  1.00  0.00     0.032 C 
BRANCH  19  22
ATOM     22  O   UNL A   1      31.828  20.400  25.684  1.00  0.00    -0.393 OA
ATOM     23  H   UNL A   1      31.627  19.569  25.226  1.00  0.00     0.210 HD
ENDBRANCH  19  22
ENDBRANCH  16  17
ENDBRANCH  15  16
ENDBRANCH   8  10
ENDBRANCH   5   8
ENDBRANCH   3   4
ENDBRANCH   2   3
ENDBRANCH   1   2
BRANCH   1  24
ATOM     24  C   UNL A   1      31.497  27.792  26.152  1.00  0.00     0.002 C 
BRANCH  24  25
ATOM     25  C   UNL A   1      32.616  28.405  26.996  1.00  0.00     0.021 C 
BRANCH  25  26
ATOM     26  C   UNL A   1      33.578  29.295  26.217  1.00  0.00     0.116 C 
BRANCH  26  27
ATOM     27  N   UNL A   1      33.436  30.693  26.584  1.00  0.00    -0.352 N 
ATOM     28  C   UNL A   1      34.143  31.416  27.508  1.00  0.00     0.251 C 
ATOM     29  H   UNL A   1      32.736  31.190  26.103  1.00  0.00     0.163 HD
ATOM     30  O   UNL A   1      33.736  32.530  27.847  1.00  0.00    -0.269 OA
BRANCH  28  31
ATOM     31  C   UNL A   1      35.374  30.859  28.109  1.00  0.00     0.039 A 
ATOM     32  C   UNL A   1      36.592  31.504  27.877  1.00  0.00     0.014 A 
ATOM     33  C   UNL A   1      35.337  29.686  28.872  1.00  0.00     0.014 A 
ATOM     34  C   UNL A   1      37.765  30.989  28.432  1.00  0.00     0.010 A 
ATOM     35  C   UNL A   1      36.494  29.220  29.489  1.00  0.00     0.010 A 
ATOM     36  C   UNL A   1      37.725  29.851  29.255  1.00  0.00    -0.014 A 
BRANCH  36  37
ATOM     37  C   UNL A   1      38.972  29.279  29.829  1.00  0.00     0.031 A 
ATOM     38  C   UNL A   1      39.527  29.835  31.115  1.00  0.00     0.074 A 
ATOM     39  C   UNL A   1      39.619  28.292  29.182  1.00  0.00     0.049 A 
ATOM     40  N   UNL A   1      40.613  29.501  31.763  1.00  0.00    -0.248 NA
ATOM     41  C   UNL A   1      38.774  30.937  31.736  1.00  0.00     0.031 C 
ATOM     42  C   UNL A   1      39.200  27.699  27.910  1.00  0.00     0.029 A 
ATOM     43  N   UNL A   1      40.766  27.609  29.502  1.00  0.00    -0.354 N 
ATOM     44  C   UNL A   1      40.685  30.363  32.854  1.00  0.00     0.074 A 
ATOM     45  C   UNL A   1      39.568  31.275  32.740  1.00  0.00     0.031 C 
ATOM     46  C   UNL A   1      40.056  26.719  27.578  1.00  0.00     0.029 A 
ATOM     47  C   UNL A   1      41.106  26.639  28.589  1.00  0.00     0.049 A 
ATOM     48  H   UNL A   1      41.295  27.798  30.311  1.00  0.00     0.167 HD
ATOM     49  C   UNL A   1      41.583  30.374  33.870  1.00  0.00     0.034 A 
ATOM     50  C   UNL A   1      42.148  25.784  28.570  1.00  0.00     0.034 A 
ATOM     51  C   UNL A   1      42.678  29.441  33.979  1.00  0.00     0.049 A 
ATOM     52  C   UNL A   1      43.137  25.817  29.708  1.00  0.00     0.074 A 
ATOM     53  C   UNL A   1      43.612  29.320  34.993  1.00  0.00     0.029 A 
ATOM     54  N   UNL A   1      42.989  28.468  33.036  1.00  0.00    -0.354 N 
ATOM     55  N   UNL A   1      43.159  26.600  30.764  1.00  0.00    -0.248 NA
ATOM     56  C   UNL A   1      44.230  24.839  29.662  1.00  0.00     0.031 C 
ATOM     57  C   UNL A   1      44.527  28.325  34.631  1.00  0.00     0.029 A 
ATOM     58  C   UNL A   1      44.117  27.764  33.431  1.00  0.00     0.049 A 
ATOM     59  H   UNL A   1      42.483  28.302  32.209  1.00  0.00     0.167 HD
ATOM     60  C   UNL A   1      44.246  26.177  31.525  1.00  0.00     0.074 A 
ATOM     61  C   UNL A   1      44.842  25.066  30.814  1.00  0.00     0.031 C 
ATOM     62  C   UNL A   1      44.705  26.660  32.709  1.00  0.00     0.034 A 
BRANCH  49  63
ATOM     63  C   UNL A   1      41.430  31.450  34.922  1.00  0.00     0.023 A 
ATOM     64  C   UNL A   1      40.366  31.442  35.843  1.00  0.00     0.031 A 
ATOM     65  C   UNL A   1      42.341  32.519  34.985  1.00  0.00     0.131 A 
ATOM     66  C   UNL A   1      40.190  32.522  36.722  1.00  0.00     0.055 A 
ATOM     67  C   UNL A   1      42.211  33.545  35.924  1.00  0.00     0.041 A 
ATOM     68  F   UNL A   1      43.366  32.596  34.121  1.00  0.00    -0.206 F 
ATOM     69  C   UNL A   1      41.120  33.560  36.787  1.00  0.00     0.022 A 
BRANCH  66  70
ATOM     70  S   UNL A   1      38.643  32.628  37.664  1.00  0.00     0.124 S 
ATOM     71  O   UNL A   1      39.111  32.387  39.027  1.00  0.00    -0.237 OA
ATOM     72  O   UNL A   1      38.190  33.984  37.374  1.00  0.00    -0.237 OA
ATOM     73  O   UNL A   1      37.822  31.560  37.097  1.00  0.00    -0.744 OA
ENDBRANCH  66  70
ENDBRANCH  49  63
BRANCH  50  74
ATOM     74  C   UNL A   1      42.310  24.812  27.450  1.00  0.00     0.023 A 
ATOM     75  C   UNL A   1      41.564  23.624  27.411  1.00  0.00     0.031 A 
ATOM     76  C   UNL A   1      43.249  25.034  26.426  1.00  0.00     0.131 A 
ATOM     77  C   UNL A   1      41.804  22.677  26.403  1.00  0.00     0.055 A 
ATOM     78  C   UNL A   1      43.444  24.114  25.393  1.00  0.00     0.041 A 
ATOM     79  F   UNL A   1      43.984  26.157  26.410  1.00  0.00    -0.206 F 
ATOM     80  C   UNL A   1      42.730  22.920  25.387  1.00  0.00     0.022 A 
BRANCH  77  81
ATOM     81  S   UNL A   1      40.949  21.079  26.492  1.00  0.00     0.124 S 
ATOM     82  O   UNL A   1      41.841  20.223  25.721  1.00  0.00    -0.237 OA
ATOM     83  O   UNL A   1      40.909  20.838  27.930  1.00  0.00    -0.237 OA
ATOM     84  O   UNL A   1      39.654  21.353  25.872  1.00  0.00    -0.744 OA
ENDBRANCH  77  81
ENDBRANCH  50  74
BRANCH  62  85
ATOM     85  C   UNL A   1      45.876  25.939  33.334  1.00  0.00     0.023 A 
ATOM     86  C   UNL A   1      47.206  26.243  32.992  1.00  0.00     0.031 A 
ATOM     87  C   UNL A   1      45.654  24.915  34.272  1.00  0.00     0.131 A 
ATOM     88  C   UNL A   1      48.257  25.485  33.530  1.00  0.00     0.055 A 
ATOM     89  C   UNL A   1      46.707  24.211  34.855  1.00  0.00     0.041 A 
ATOM     90  F   UNL A   1      44.406  24.580  34.636  1.00  0.00    -0.206 F 
ATOM     91  C   UNL A   1      48.017  24.482  34.472  1.00  0.00     0.022 A 
BRANCH  88  92
ATOM     92  S   UNL A   1      49.936  25.750  32.894  1.00  0.00     0.124 S 
ATOM     93  O   UNL A   1      49.900  27.161  32.522  1.00  0.00    -0.237 OA
ATOM     94  O   UNL A   1      50.762  25.416  34.050  1.00  0.00    -0.237 OA
ATOM     95  O   UNL A   1      50.030  24.816  31.774  1.00  0.00    -0.744 OA
ENDBRANCH  88  92
ENDBRANCH  62  85
ENDBRANCH  36  37
ENDBRANCH  28  31
ENDBRANCH  26  27
ENDBRANCH  25  26
ENDBRANCH  24  25
ENDBRANCH   1  24
TORSDOF 20
ENDMDL
