MODEL 1
REMARK VINA RESULT:     -11.1      0.000      0.000
REMARK SMILES O=C(CCC(=O)Nc1ccc(Br)c([N+](=O)[O-])c1)NCCCCCCNC(=O)c1ccc(-c2c3nc(c(-c4cc(S(=O)(=O)[O-])ccc4F)c4ccc([nH]4)c(-c4cc(S(=O)(=O)[O-])ccc4F)c4nc(c(-c5cc(S(=O)(=O)[O-])ccc5F)c5ccc2[nH]5)C=C4)C=C3)cc1
REMARK SMILES IDX 21 1 20 2 19 3 18 4 1 5 2 6 3 8 4 9 5 10 6 11 7 12 8 14 9 15
REMARK SMILES IDX 17 16 10 17 13 18 11 19 12 20 14 21 15 22 16 23 22 24 23 25
REMARK SMILES IDX 24 26 25 27 26 28 27 30 28 31 29 32 90 33 30 34 89 35 31 36
REMARK SMILES IDX 32 37 33 38 83 39 34 40 88 41 82 42 84 43 35 44 87 45 81 46
REMARK SMILES IDX 80 47 36 49 68 50 48 51 67 52 49 53 52 54 66 55 85 56 50 57
REMARK SMILES IDX 51 58 65 60 86 61 53 62 37 63 38 64 46 65 39 66 45 67 47 68
REMARK SMILES IDX 44 69 40 70 41 71 42 72 43 73 69 74 70 75 78 76 71 77 77 78
REMARK SMILES IDX 79 79 76 80 72 81 73 82 74 83 75 84 54 85 55 86 63 87 56 88
REMARK SMILES IDX 62 89 64 90 61 91 57 92 58 93 59 94 60 95
REMARK H PARENT 18 7 7 13 25 29 84 48 52 59
REMARK Flexibility Score: inf
ROOT
ATOM      1  C   UNL A   1      32.995  29.708  26.871  1.00  0.00     0.002 C 
ENDROOT
BRANCH   1   2
ATOM      2  C   UNL A   1      32.719  28.314  27.445  1.00  0.00     0.021 C 
BRANCH   2   3
ATOM      3  C   UNL A   1      31.517  27.595  26.848  1.00  0.00     0.116 C 
BRANCH   3   4
ATOM      4  N   UNL A   1      31.719  26.167  26.694  1.00  0.00    -0.356 N 
ATOM      5  O   UNL A   1      33.659  26.294  25.462  1.00  0.00    -0.275 OA
ATOM      6  C   UNL A   1      32.832  25.637  26.087  1.00  0.00     0.220 C 
ATOM      7  H   UNL A   1      31.030  25.553  27.037  1.00  0.00     0.163 HD
BRANCH   6   8
ATOM      8  C   UNL A   1      33.024  24.157  26.340  1.00  0.00     0.110 C 
BRANCH   8   9
ATOM      9  C   UNL A   1      31.714  23.433  26.650  1.00  0.00     0.110 C 
BRANCH   9  10
ATOM     10  C   UNL A   1      31.220  22.587  25.504  1.00  0.00     0.224 C 
ATOM     11  O   UNL A   1      31.329  21.357  25.584  1.00  0.00    -0.275 OA
ATOM     12  N   UNL A   1      30.686  23.081  24.355  1.00  0.00    -0.326 N 
ATOM     13  H   UNL A   1      30.212  22.391  23.836  1.00  0.00     0.169 HD
BRANCH  12  14
ATOM     14  C   UNL A   1      30.647  24.342  23.726  1.00  0.00     0.048 A 
ATOM     15  C   UNL A   1      29.754  25.368  24.009  1.00  0.00     0.028 A 
ATOM     16  C   UNL A   1      31.692  24.618  22.833  1.00  0.00     0.113 A 
ATOM     17  C   UNL A   1      29.968  26.670  23.532  1.00  0.00     0.025 A 
ATOM     18  C   UNL A   1      31.893  25.920  22.325  1.00  0.00     0.285 A 
ATOM     19  C   UNL A   1      31.056  26.967  22.711  1.00  0.00     0.095 A 
ATOM     20  Br  UNL A   1      31.324  28.801  22.312  1.00  0.00    -0.043 Br
BRANCH  18  21
ATOM     21  N   UNL A   1      33.018  26.115  21.415  1.00  0.00     0.064 N 
ATOM     22  O   UNL A   1      34.048  26.605  21.899  1.00  0.00    -0.258 OA
ATOM     23  O   UNL A   1      32.902  25.720  20.250  1.00  0.00    -0.258 OA
ENDBRANCH  18  21
ENDBRANCH  12  14
ENDBRANCH   9  10
ENDBRANCH   8   9
ENDBRANCH   6   8
ENDBRANCH   3   4
ENDBRANCH   2   3
ENDBRANCH   1   2
BRANCH   1  24
ATOM     24  C   UNL A   1      31.788  30.439  26.276  1.00  0.00     0.002 C 
BRANCH  24  25
ATOM     25  C   UNL A   1      31.574  31.877  26.753  1.00  0.00     0.021 C 
BRANCH  25  26
ATOM     26  C   UNL A   1      32.819  32.602  27.259  1.00  0.00     0.116 C 
BRANCH  26  27
ATOM     27  N   UNL A   1      32.563  33.983  27.635  1.00  0.00    -0.352 N 
ATOM     28  C   UNL A   1      33.158  34.754  28.601  1.00  0.00     0.251 C 
ATOM     29  H   UNL A   1      31.856  34.433  27.116  1.00  0.00     0.163 HD
ATOM     30  O   UNL A   1      32.708  35.875  28.837  1.00  0.00    -0.269 OA
BRANCH  28  31
ATOM     31  C   UNL A   1      34.303  34.234  29.382  1.00  0.00     0.039 A 
ATOM     32  C   UNL A   1      34.043  33.414  30.484  1.00  0.00     0.014 A 
ATOM     33  C   UNL A   1      35.622  34.549  29.045  1.00  0.00     0.014 A 
ATOM     34  C   UNL A   1      35.104  32.863  31.206  1.00  0.00     0.010 A 
ATOM     35  C   UNL A   1      36.678  33.935  29.717  1.00  0.00     0.010 A 
ATOM     36  C   UNL A   1      36.432  33.086  30.806  1.00  0.00    -0.014 A 
BRANCH  36  37
ATOM     37  C   UNL A   1      37.561  32.425  31.514  1.00  0.00     0.031 A 
ATOM     38  C   UNL A   1      38.331  31.310  30.857  1.00  0.00     0.074 A 
ATOM     39  C   UNL A   1      37.867  32.806  32.770  1.00  0.00     0.049 A 
ATOM     40  N   UNL A   1      39.342  30.620  31.317  1.00  0.00    -0.248 NA
ATOM     41  C   UNL A   1      37.885  30.902  29.519  1.00  0.00     0.031 C 
ATOM     42  C   UNL A   1      37.165  33.844  33.530  1.00  0.00     0.029 A 
ATOM     43  N   UNL A   1      38.848  32.375  33.627  1.00  0.00    -0.354 N 
ATOM     44  C   UNL A   1      39.647  29.686  30.332  1.00  0.00     0.074 A 
ATOM     45  C   UNL A   1      38.667  29.860  29.280  1.00  0.00     0.031 C 
ATOM     46  C   UNL A   1      37.770  34.004  34.717  1.00  0.00     0.029 A 
ATOM     47  C   UNL A   1      38.868  33.049  34.828  1.00  0.00     0.049 A 
ATOM     48  H   UNL A   1      39.477  31.651  33.405  1.00  0.00     0.167 HD
ATOM     49  C   UNL A   1      40.660  28.783  30.299  1.00  0.00     0.034 A 
ATOM     50  C   UNL A   1      39.679  32.915  35.894  1.00  0.00     0.034 A 
ATOM     51  C   UNL A   1      41.629  28.627  31.359  1.00  0.00     0.049 A 
ATOM     52  C   UNL A   1      40.777  31.883  35.848  1.00  0.00     0.074 A 
ATOM     53  C   UNL A   1      42.735  27.796  31.401  1.00  0.00     0.029 A 
ATOM     54  N   UNL A   1      41.599  29.303  32.575  1.00  0.00    -0.354 N 
ATOM     55  N   UNL A   1      41.097  31.057  34.878  1.00  0.00    -0.248 NA
ATOM     56  C   UNL A   1      41.627  31.775  37.039  1.00  0.00     0.031 C 
ATOM     57  C   UNL A   1      43.320  27.903  32.668  1.00  0.00     0.029 A 
ATOM     58  C   UNL A   1      42.638  28.871  33.388  1.00  0.00     0.049 A 
ATOM     59  H   UNL A   1      40.937  29.988  32.822  1.00  0.00     0.167 HD
ATOM     60  C   UNL A   1      42.210  30.353  35.333  1.00  0.00     0.074 A 
ATOM     61  C   UNL A   1      42.514  30.871  36.653  1.00  0.00     0.031 C 
ATOM     62  C   UNL A   1      42.920  29.373  34.715  1.00  0.00     0.034 A 
BRANCH  49  63
ATOM     63  C   UNL A   1      40.739  27.870  29.094  1.00  0.00     0.023 A 
ATOM     64  C   UNL A   1      41.668  28.083  28.059  1.00  0.00     0.031 A 
ATOM     65  C   UNL A   1      39.845  26.794  28.956  1.00  0.00     0.131 A 
ATOM     66  C   UNL A   1      41.618  27.297  26.897  1.00  0.00     0.055 A 
ATOM     67  C   UNL A   1      39.862  25.956  27.839  1.00  0.00     0.041 A 
ATOM     68  F   UNL A   1      38.920  26.548  29.899  1.00  0.00    -0.206 F 
ATOM     69  C   UNL A   1      40.739  26.218  26.791  1.00  0.00     0.022 A 
BRANCH  66  70
ATOM     70  S   UNL A   1      42.589  27.820  25.456  1.00  0.00     0.124 S 
ATOM     71  O   UNL A   1      42.541  26.624  24.618  1.00  0.00    -0.237 OA
ATOM     72  O   UNL A   1      41.836  28.971  24.969  1.00  0.00    -0.237 OA
ATOM     73  O   UNL A   1      43.902  28.124  26.019  1.00  0.00    -0.744 OA
ENDBRANCH  66  70
ENDBRANCH  49  63
BRANCH  50  74
ATOM     74  C   UNL A   1      39.502  33.783  37.095  1.00  0.00     0.023 A 
ATOM     75  C   UNL A   1      38.918  33.276  38.267  1.00  0.00     0.031 A 
ATOM     76  C   UNL A   1      39.877  35.137  37.077  1.00  0.00     0.131 A 
ATOM     77  C   UNL A   1      38.685  34.128  39.358  1.00  0.00     0.055 A 
ATOM     78  C   UNL A   1      39.695  35.967  38.185  1.00  0.00     0.041 A 
ATOM     79  F   UNL A   1      40.440  35.672  35.982  1.00  0.00    -0.206 F 
ATOM     80  C   UNL A   1      39.083  35.466  39.331  1.00  0.00     0.022 A 
BRANCH  77  81
ATOM     81  S   UNL A   1      37.776  33.479  40.787  1.00  0.00     0.124 S 
ATOM     82  O   UNL A   1      36.471  33.193  40.204  1.00  0.00    -0.237 OA
ATOM     83  O   UNL A   1      38.581  32.321  41.159  1.00  0.00    -0.237 OA
ATOM     84  O   UNL A   1      37.806  34.587  41.740  1.00  0.00    -0.744 OA
ENDBRANCH  77  81
ENDBRANCH  50  74
BRANCH  62  85
ATOM     85  C   UNL A   1      44.119  28.827  35.457  1.00  0.00     0.023 A 
ATOM     86  C   UNL A   1      44.035  27.670  36.252  1.00  0.00     0.031 A 
ATOM     87  C   UNL A   1      45.353  29.500  35.405  1.00  0.00     0.131 A 
ATOM     88  C   UNL A   1      45.136  27.268  37.023  1.00  0.00     0.055 A 
ATOM     89  C   UNL A   1      46.468  29.049  36.112  1.00  0.00     0.041 A 
ATOM     90  F   UNL A   1      45.494  30.614  34.668  1.00  0.00    -0.206 F 
ATOM     91  C   UNL A   1      46.359  27.939  36.943  1.00  0.00     0.022 A 
BRANCH  88  92
ATOM     92  S   UNL A   1      44.910  25.937  38.236  1.00  0.00     0.124 S 
ATOM     93  O   UNL A   1      43.665  25.325  37.784  1.00  0.00    -0.237 OA
ATOM     94  O   UNL A   1      46.117  25.139  38.051  1.00  0.00    -0.237 OA
ATOM     95  O   UNL A   1      44.826  26.646  39.511  1.00  0.00    -0.744 OA
ENDBRANCH  88  92
ENDBRANCH  62  85
ENDBRANCH  36  37
ENDBRANCH  28  31
ENDBRANCH  26  27
ENDBRANCH  25  26
ENDBRANCH  24  25
ENDBRANCH   1  24
TORSDOF 20
ENDMDL
MODEL 2
REMARK VINA RESULT:     -11.0      1.695      2.588
REMARK SMILES O=C(CCC(=O)Nc1ccc(Br)c([N+](=O)[O-])c1)NCCCCCCNC(=O)c1ccc(-c2c3nc(c(-c4cc(S(=O)(=O)[O-])ccc4F)c4ccc([nH]4)c(-c4cc(S(=O)(=O)[O-])ccc4F)c4nc(c(-c5cc(S(=O)(=O)[O-])ccc5F)c5ccc2[nH]5)C=C4)C=C3)cc1
REMARK SMILES IDX 21 1 20 2 19 3 18 4 1 5 2 6 3 8 4 9 5 10 6 11 7 12 8 14 9 15
REMARK SMILES IDX 17 16 10 17 13 18 11 19 12 20 14 21 15 22 16 23 22 24 23 25
REMARK SMILES IDX 24 26 25 27 26 28 27 30 28 31 29 32 90 33 30 34 89 35 31 36
REMARK SMILES IDX 32 37 33 38 83 39 34 40 88 41 82 42 84 43 35 44 87 45 81 46
REMARK SMILES IDX 80 47 36 49 68 50 48 51 67 52 49 53 52 54 66 55 85 56 50 57
REMARK SMILES IDX 51 58 65 60 86 61 53 62 37 63 38 64 46 65 39 66 45 67 47 68
REMARK SMILES IDX 44 69 40 70 41 71 42 72 43 73 69 74 70 75 78 76 71 77 77 78
REMARK SMILES IDX 79 79 76 80 72 81 73 82 74 83 75 84 54 85 55 86 63 87 56 88
REMARK SMILES IDX 62 89 64 90 61 91 57 92 58 93 59 94 60 95
REMARK H PARENT 18 7 7 13 25 29 84 48 52 59
REMARK Flexibility Score: inf
ROOT
ATOM      1  C   UNL A   1      32.811  29.597  27.100  1.00  0.00     0.002 C 
ENDROOT
BRANCH   1   2
ATOM      2  C   UNL A   1      32.897  28.087  26.851  1.00  0.00     0.021 C 
BRANCH   2   3
ATOM      3  C   UNL A   1      31.653  27.462  26.233  1.00  0.00     0.116 C 
BRANCH   3   4
ATOM      4  N   UNL A   1      31.866  26.969  24.886  1.00  0.00    -0.356 N 
ATOM      5  O   UNL A   1      29.755  26.111  24.568  1.00  0.00    -0.275 OA
ATOM      6  C   UNL A   1      30.861  26.414  24.131  1.00  0.00     0.220 C 
ATOM      7  H   UNL A   1      32.768  27.035  24.497  1.00  0.00     0.163 HD
BRANCH   6   8
ATOM      8  C   UNL A   1      31.191  26.295  22.659  1.00  0.00     0.110 C 
BRANCH   8   9
ATOM      9  C   UNL A   1      32.688  26.136  22.398  1.00  0.00     0.110 C 
BRANCH   9  10
ATOM     10  C   UNL A   1      32.994  25.167  21.284  1.00  0.00     0.224 C 
ATOM     11  O   UNL A   1      32.985  25.581  20.117  1.00  0.00    -0.275 OA
ATOM     12  N   UNL A   1      33.252  23.843  21.461  1.00  0.00    -0.326 N 
ATOM     13  H   UNL A   1      33.655  23.430  20.663  1.00  0.00     0.169 HD
BRANCH  12  14
ATOM     14  C   UNL A   1      33.080  22.919  22.511  1.00  0.00     0.048 A 
ATOM     15  C   UNL A   1      31.998  22.063  22.677  1.00  0.00     0.028 A 
ATOM     16  C   UNL A   1      34.167  22.769  23.384  1.00  0.00     0.113 A 
ATOM     17  C   UNL A   1      32.048  20.997  23.587  1.00  0.00     0.025 A 
ATOM     18  C   UNL A   1      34.207  21.717  24.324  1.00  0.00     0.285 A 
ATOM     19  C   UNL A   1      33.164  20.793  24.398  1.00  0.00     0.095 A 
ATOM     20  Br  UNL A   1      33.166  19.202  25.431  1.00  0.00    -0.043 Br
BRANCH  18  21
ATOM     21  N   UNL A   1      35.388  21.629  25.178  1.00  0.00     0.064 N 
ATOM     22  O   UNL A   1      35.218  21.835  26.388  1.00  0.00    -0.258 OA
ATOM     23  O   UNL A   1      36.458  21.289  24.662  1.00  0.00    -0.258 OA
ENDBRANCH  18  21
ENDBRANCH  12  14
ENDBRANCH   9  10
ENDBRANCH   8   9
ENDBRANCH   6   8
ENDBRANCH   3   4
ENDBRANCH   2   3
ENDBRANCH   1   2
BRANCH   1  24
ATOM     24  C   UNL A   1      31.782  30.358  26.258  1.00  0.00     0.002 C 
BRANCH  24  25
ATOM     25  C   UNL A   1      31.591  31.835  26.609  1.00  0.00     0.021 C 
BRANCH  25  26
ATOM     26  C   UNL A   1      32.770  32.511  27.307  1.00  0.00     0.116 C 
BRANCH  26  27
ATOM     27  N   UNL A   1      32.510  33.899  27.651  1.00  0.00    -0.352 N 
ATOM     28  C   UNL A   1      33.113  34.697  28.590  1.00  0.00     0.251 C 
ATOM     29  H   UNL A   1      31.794  34.332  27.132  1.00  0.00     0.163 HD
ATOM     30  O   UNL A   1      32.659  35.822  28.804  1.00  0.00    -0.269 OA
BRANCH  28  31
ATOM     31  C   UNL A   1      34.272  34.204  29.369  1.00  0.00     0.039 A 
ATOM     32  C   UNL A   1      34.030  33.477  30.537  1.00  0.00     0.014 A 
ATOM     33  C   UNL A   1      35.586  34.454  28.963  1.00  0.00     0.014 A 
ATOM     34  C   UNL A   1      35.102  32.951  31.262  1.00  0.00     0.010 A 
ATOM     35  C   UNL A   1      36.649  33.861  29.643  1.00  0.00     0.010 A 
ATOM     36  C   UNL A   1      36.419  33.104  30.801  1.00  0.00    -0.014 A 
BRANCH  36  37
ATOM     37  C   UNL A   1      37.556  32.465  31.518  1.00  0.00     0.031 A 
ATOM     38  C   UNL A   1      38.322  31.332  30.887  1.00  0.00     0.074 A 
ATOM     39  C   UNL A   1      37.872  32.882  32.760  1.00  0.00     0.049 A 
ATOM     40  N   UNL A   1      39.338  30.657  31.358  1.00  0.00    -0.248 NA
ATOM     41  C   UNL A   1      37.864  30.885  29.564  1.00  0.00     0.031 C 
ATOM     42  C   UNL A   1      37.176  33.940  33.496  1.00  0.00     0.029 A 
ATOM     43  N   UNL A   1      38.861  32.477  33.621  1.00  0.00    -0.354 N 
ATOM     44  C   UNL A   1      39.635  29.696  30.397  1.00  0.00     0.074 A 
ATOM     45  C   UNL A   1      38.646  29.838  29.349  1.00  0.00     0.031 C 
ATOM     46  C   UNL A   1      37.791  34.135  34.673  1.00  0.00     0.029 A 
ATOM     47  C   UNL A   1      38.890  33.185  34.801  1.00  0.00     0.049 A 
ATOM     48  H   UNL A   1      39.490  31.748  33.414  1.00  0.00     0.167 HD
ATOM     49  C   UNL A   1      40.649  28.793  30.382  1.00  0.00     0.034 A 
ATOM     50  C   UNL A   1      39.711  33.083  35.864  1.00  0.00     0.034 A 
ATOM     51  C   UNL A   1      41.627  28.669  31.437  1.00  0.00     0.049 A 
ATOM     52  C   UNL A   1      40.809  32.051  35.838  1.00  0.00     0.074 A 
ATOM     53  C   UNL A   1      42.736  27.841  31.493  1.00  0.00     0.029 A 
ATOM     54  N   UNL A   1      41.608  29.379  32.633  1.00  0.00    -0.354 N 
ATOM     55  N   UNL A   1      41.123  31.197  34.890  1.00  0.00    -0.248 NA
ATOM     56  C   UNL A   1      41.670  31.978  37.024  1.00  0.00     0.031 C 
ATOM     57  C   UNL A   1      43.331  27.984  32.751  1.00  0.00     0.029 A 
ATOM     58  C   UNL A   1      42.654  28.972  33.449  1.00  0.00     0.049 A 
ATOM     59  H   UNL A   1      40.947  30.070  32.866  1.00  0.00     0.167 HD
ATOM     60  C   UNL A   1      42.241  30.509  35.355  1.00  0.00     0.074 A 
ATOM     61  C   UNL A   1      42.555  31.065  36.656  1.00  0.00     0.031 C 
ATOM     62  C   UNL A   1      42.946  29.512  34.759  1.00  0.00     0.034 A 
BRANCH  49  63
ATOM     63  C   UNL A   1      40.720  27.846  29.203  1.00  0.00     0.023 A 
ATOM     64  C   UNL A   1      41.661  28.012  28.170  1.00  0.00     0.031 A 
ATOM     65  C   UNL A   1      39.804  26.785  29.086  1.00  0.00     0.131 A 
ATOM     66  C   UNL A   1      41.604  27.196  27.029  1.00  0.00     0.055 A 
ATOM     67  C   UNL A   1      39.813  25.917  27.992  1.00  0.00     0.041 A 
ATOM     68  F   UNL A   1      38.866  26.584  30.026  1.00  0.00    -0.206 F 
ATOM     69  C   UNL A   1      40.704  26.132  26.945  1.00  0.00     0.022 A 
BRANCH  66  70
ATOM     70  S   UNL A   1      42.597  27.658  25.583  1.00  0.00     0.124 S 
ATOM     71  O   UNL A   1      43.907  27.896  26.187  1.00  0.00    -0.237 OA
ATOM     72  O   UNL A   1      42.490  26.477  24.735  1.00  0.00    -0.237 OA
ATOM     73  O   UNL A   1      41.929  28.855  25.076  1.00  0.00    -0.744 OA
ENDBRANCH  66  70
ENDBRANCH  49  63
BRANCH  50  74
ATOM     74  C   UNL A   1      39.543  33.984  37.041  1.00  0.00     0.023 A 
ATOM     75  C   UNL A   1      38.980  33.508  38.236  1.00  0.00     0.031 A 
ATOM     76  C   UNL A   1      39.905  35.341  36.978  1.00  0.00     0.131 A 
ATOM     77  C   UNL A   1      38.755  34.389  39.304  1.00  0.00     0.055 A 
ATOM     78  C   UNL A   1      39.731  36.201  38.063  1.00  0.00     0.041 A 
ATOM     79  F   UNL A   1      40.448  35.847  35.859  1.00  0.00    -0.206 F 
ATOM     80  C   UNL A   1      39.140  35.730  39.232  1.00  0.00     0.022 A 
BRANCH  77  81
ATOM     81  S   UNL A   1      37.872  33.776  40.765  1.00  0.00     0.124 S 
ATOM     82  O   UNL A   1      36.703  33.147  40.163  1.00  0.00    -0.237 OA
ATOM     83  O   UNL A   1      38.853  32.872  41.356  1.00  0.00    -0.237 OA
ATOM     84  O   UNL A   1      37.603  34.989  41.534  1.00  0.00    -0.744 OA
ENDBRANCH  77  81
ENDBRANCH  50  74
BRANCH  62  85
ATOM     85  C   UNL A   1      44.153  28.989  35.506  1.00  0.00     0.023 A 
ATOM     86  C   UNL A   1      44.051  27.936  36.433  1.00  0.00     0.031 A 
ATOM     87  C   UNL A   1      45.414  29.583  35.321  1.00  0.00     0.131 A 
ATOM     88  C   UNL A   1      45.169  27.565  37.196  1.00  0.00     0.055 A 
ATOM     89  C   UNL A   1      46.540  29.155  36.026  1.00  0.00     0.041 A 
ATOM     90  F   UNL A   1      45.574  30.595  34.454  1.00  0.00    -0.206 F 
ATOM     91  C   UNL A   1      46.417  28.154  36.985  1.00  0.00     0.022 A 
BRANCH  88  92
ATOM     92  S   UNL A   1      44.937  26.395  38.565  1.00  0.00     0.124 S 
ATOM     93  O   UNL A   1      45.682  27.039  39.641  1.00  0.00    -0.237 OA
ATOM     94  O   UNL A   1      43.486  26.376  38.716  1.00  0.00    -0.237 OA
ATOM     95  O   UNL A   1      45.524  25.156  38.059  1.00  0.00    -0.744 OA
ENDBRANCH  88  92
ENDBRANCH  62  85
ENDBRANCH  36  37
ENDBRANCH  28  31
ENDBRANCH  26  27
ENDBRANCH  25  26
ENDBRANCH  24  25
ENDBRANCH   1  24
TORSDOF 20
ENDMDL
MODEL 3
REMARK VINA RESULT:     -10.9      2.368      2.849
REMARK SMILES O=C(CCC(=O)Nc1ccc(Br)c([N+](=O)[O-])c1)NCCCCCCNC(=O)c1ccc(-c2c3nc(c(-c4cc(S(=O)(=O)[O-])ccc4F)c4ccc([nH]4)c(-c4cc(S(=O)(=O)[O-])ccc4F)c4nc(c(-c5cc(S(=O)(=O)[O-])ccc5F)c5ccc2[nH]5)C=C4)C=C3)cc1
REMARK SMILES IDX 21 1 20 2 19 3 18 4 1 5 2 6 3 8 4 9 5 10 6 11 7 12 8 14 9 15
REMARK SMILES IDX 17 16 10 17 13 18 11 19 12 20 14 21 15 22 16 23 22 24 23 25
REMARK SMILES IDX 24 26 25 27 26 28 27 30 28 31 29 32 90 33 30 34 89 35 31 36
REMARK SMILES IDX 32 37 33 38 83 39 34 40 88 41 82 42 84 43 35 44 87 45 81 46
REMARK SMILES IDX 80 47 36 49 68 50 48 51 67 52 49 53 52 54 66 55 85 56 50 57
REMARK SMILES IDX 51 58 65 60 86 61 53 62 37 63 38 64 46 65 39 66 45 67 47 68
REMARK SMILES IDX 44 69 40 70 41 71 42 72 43 73 69 74 70 75 78 76 71 77 77 78
REMARK SMILES IDX 79 79 76 80 72 81 73 82 74 83 75 84 54 85 55 86 63 87 56 88
REMARK SMILES IDX 62 89 64 90 61 91 57 92 58 93 59 94 60 95
REMARK H PARENT 18 7 7 13 25 29 84 48 52 59
REMARK Flexibility Score: inf
ROOT
ATOM      1  C   UNL A   1      33.427  28.810  25.722  1.00  0.00     0.002 C 
ENDROOT
BRANCH   1   2
ATOM      2  C   UNL A   1      33.569  27.446  26.406  1.00  0.00     0.021 C 
BRANCH   2   3
ATOM      3  C   UNL A   1      32.904  26.285  25.679  1.00  0.00     0.116 C 
BRANCH   3   4
ATOM      4  N   UNL A   1      33.360  24.985  26.132  1.00  0.00    -0.356 N 
ATOM      5  O   UNL A   1      31.428  24.381  27.227  1.00  0.00    -0.275 OA
ATOM      6  C   UNL A   1      32.542  24.101  26.795  1.00  0.00     0.220 C 
ATOM      7  H   UNL A   1      34.294  24.726  25.960  1.00  0.00     0.163 HD
BRANCH   6   8
ATOM      8  C   UNL A   1      33.088  22.691  26.863  1.00  0.00     0.110 C 
BRANCH   8   9
ATOM      9  C   UNL A   1      34.184  22.429  25.832  1.00  0.00     0.110 C 
BRANCH   9  10
ATOM     10  C   UNL A   1      33.758  21.473  24.746  1.00  0.00     0.224 C 
ATOM     11  O   UNL A   1      34.326  20.377  24.662  1.00  0.00    -0.275 OA
ATOM     12  N   UNL A   1      32.803  21.740  23.815  1.00  0.00    -0.326 N 
ATOM     13  H   UNL A   1      32.498  20.928  23.348  1.00  0.00     0.169 HD
BRANCH  12  14
ATOM     14  C   UNL A   1      32.144  22.898  23.356  1.00  0.00     0.048 A 
ATOM     15  C   UNL A   1      30.923  23.378  23.813  1.00  0.00     0.028 A 
ATOM     16  C   UNL A   1      32.859  23.698  22.452  1.00  0.00     0.113 A 
ATOM     17  C   UNL A   1      30.487  24.673  23.497  1.00  0.00     0.025 A 
ATOM     18  C   UNL A   1      32.407  24.989  22.106  1.00  0.00     0.285 A 
ATOM     19  C   UNL A   1      31.238  25.505  22.666  1.00  0.00     0.095 A 
ATOM     20  Br  UNL A   1      30.621  27.289  22.492  1.00  0.00    -0.043 Br
BRANCH  18  21
ATOM     21  N   UNL A   1      33.228  25.755  21.172  1.00  0.00     0.064 N 
ATOM     22  O   UNL A   1      33.011  25.578  19.965  1.00  0.00    -0.258 OA
ATOM     23  O   UNL A   1      34.027  26.576  21.635  1.00  0.00    -0.258 OA
ENDBRANCH  18  21
ENDBRANCH  12  14
ENDBRANCH   9  10
ENDBRANCH   8   9
ENDBRANCH   6   8
ENDBRANCH   3   4
ENDBRANCH   2   3
ENDBRANCH   1   2
BRANCH   1  24
ATOM     24  C   UNL A   1      32.010  29.200  25.290  1.00  0.00     0.002 C 
BRANCH  24  25
ATOM     25  C   UNL A   1      31.578  30.629  25.626  1.00  0.00     0.021 C 
BRANCH  25  26
ATOM     26  C   UNL A   1      31.990  31.141  27.005  1.00  0.00     0.116 C 
BRANCH  26  27
ATOM     27  N   UNL A   1      32.145  32.586  27.054  1.00  0.00    -0.352 N 
ATOM     28  C   UNL A   1      33.143  33.342  27.613  1.00  0.00     0.251 C 
ATOM     29  H   UNL A   1      31.425  33.099  26.619  1.00  0.00     0.163 HD
ATOM     30  O   UNL A   1      33.022  34.567  27.646  1.00  0.00    -0.269 OA
BRANCH  28  31
ATOM     31  C   UNL A   1      34.335  32.697  28.208  1.00  0.00     0.039 A 
ATOM     32  C   UNL A   1      35.485  33.468  28.402  1.00  0.00     0.014 A 
ATOM     33  C   UNL A   1      34.333  31.347  28.569  1.00  0.00     0.014 A 
ATOM     34  C   UNL A   1      36.606  32.902  29.013  1.00  0.00     0.010 A 
ATOM     35  C   UNL A   1      35.423  30.806  29.249  1.00  0.00     0.010 A 
ATOM     36  C   UNL A   1      36.573  31.577  29.478  1.00  0.00    -0.014 A 
BRANCH  36  37
ATOM     37  C   UNL A   1      37.730  31.000  30.213  1.00  0.00     0.031 A 
ATOM     38  C   UNL A   1      38.666  30.034  29.536  1.00  0.00     0.074 A 
ATOM     39  C   UNL A   1      37.914  31.318  31.510  1.00  0.00     0.049 A 
ATOM     40  N   UNL A   1      39.725  29.433  30.014  1.00  0.00    -0.248 NA
ATOM     41  C   UNL A   1      38.351  29.679  28.145  1.00  0.00     0.031 C 
ATOM     42  C   UNL A   1      37.050  32.207  32.290  1.00  0.00     0.029 A 
ATOM     43  N   UNL A   1      38.888  30.940  32.400  1.00  0.00    -0.354 N 
ATOM     44  C   UNL A   1      40.197  28.618  28.991  1.00  0.00     0.074 A 
ATOM     45  C   UNL A   1      39.266  28.756  27.889  1.00  0.00     0.031 C 
ATOM     46  C   UNL A   1      37.561  32.346  33.524  1.00  0.00     0.029 A 
ATOM     47  C   UNL A   1      38.757  31.519  33.642  1.00  0.00     0.049 A 
ATOM     48  H   UNL A   1      39.612  30.313  32.172  1.00  0.00     0.167 HD
ATOM     49  C   UNL A   1      41.311  27.843  28.964  1.00  0.00     0.034 A 
ATOM     50  C   UNL A   1      39.515  31.400  34.749  1.00  0.00     0.034 A 
ATOM     51  C   UNL A   1      42.228  27.721  30.073  1.00  0.00     0.049 A 
ATOM     52  C   UNL A   1      40.729  30.508  34.706  1.00  0.00     0.074 A 
ATOM     53  C   UNL A   1      43.422  27.023  30.133  1.00  0.00     0.029 A 
ATOM     54  N   UNL A   1      42.047  28.295  31.327  1.00  0.00    -0.354 N 
ATOM     55  N   UNL A   1      41.203  29.800  33.706  1.00  0.00    -0.248 NA
ATOM     56  C   UNL A   1      41.516  30.410  35.941  1.00  0.00     0.031 C 
ATOM     57  C   UNL A   1      43.914  27.101  31.440  1.00  0.00     0.029 A 
ATOM     58  C   UNL A   1      43.081  27.927  32.177  1.00  0.00     0.049 A 
ATOM     59  H   UNL A   1      41.293  28.878  31.576  1.00  0.00     0.167 HD
ATOM     60  C   UNL A   1      42.365  29.198  34.186  1.00  0.00     0.074 A 
ATOM     61  C   UNL A   1      42.526  29.647  35.554  1.00  0.00     0.031 C 
ATOM     62  C   UNL A   1      43.221  28.356  33.551  1.00  0.00     0.034 A 
BRANCH  49  63
ATOM     63  C   UNL A   1      41.570  27.039  27.708  1.00  0.00     0.023 A 
ATOM     64  C   UNL A   1      41.292  25.662  27.635  1.00  0.00     0.031 A 
ATOM     65  C   UNL A   1      42.144  27.649  26.578  1.00  0.00     0.131 A 
ATOM     66  C   UNL A   1      41.673  24.927  26.502  1.00  0.00     0.055 A 
ATOM     67  C   UNL A   1      42.435  26.930  25.417  1.00  0.00     0.041 A 
ATOM     68  F   UNL A   1      42.454  28.956  26.589  1.00  0.00    -0.206 F 
ATOM     69  C   UNL A   1      42.218  25.556  25.381  1.00  0.00     0.022 A 
BRANCH  66  70
ATOM     70  S   UNL A   1      41.616  23.115  26.585  1.00  0.00     0.124 S 
ATOM     71  O   UNL A   1      42.369  22.851  27.809  1.00  0.00    -0.237 OA
ATOM     72  O   UNL A   1      40.183  22.847  26.647  1.00  0.00    -0.237 OA
ATOM     73  O   UNL A   1      42.278  22.693  25.353  1.00  0.00    -0.744 OA
ENDBRANCH  66  70
ENDBRANCH  49  63
BRANCH  50  74
ATOM     74  C   UNL A   1      39.165  32.148  35.991  1.00  0.00     0.023 A 
ATOM     75  C   UNL A   1      38.330  31.575  36.964  1.00  0.00     0.031 A 
ATOM     76  C   UNL A   1      39.626  33.458  36.208  1.00  0.00     0.131 A 
ATOM     77  C   UNL A   1      37.945  32.324  38.086  1.00  0.00     0.055 A 
ATOM     78  C   UNL A   1      39.287  34.179  37.354  1.00  0.00     0.041 A 
ATOM     79  F   UNL A   1      40.428  34.053  35.310  1.00  0.00    -0.206 F 
ATOM     80  C   UNL A   1      38.430  33.616  38.296  1.00  0.00     0.022 A 
BRANCH  77  81
ATOM     81  S   UNL A   1      36.733  31.612  39.232  1.00  0.00     0.124 S 
ATOM     82  O   UNL A   1      35.524  32.345  38.878  1.00  0.00    -0.237 OA
ATOM     83  O   UNL A   1      36.758  30.200  38.863  1.00  0.00    -0.237 OA
ATOM     84  O   UNL A   1      37.287  31.919  40.549  1.00  0.00    -0.744 OA
ENDBRANCH  77  81
ENDBRANCH  50  74
BRANCH  62  85
ATOM     85  C   UNL A   1      44.432  27.899  34.333  1.00  0.00     0.023 A 
ATOM     86  C   UNL A   1      45.641  28.618  34.316  1.00  0.00     0.031 A 
ATOM     87  C   UNL A   1      44.390  26.701  35.069  1.00  0.00     0.131 A 
ATOM     88  C   UNL A   1      46.776  28.094  34.953  1.00  0.00     0.055 A 
ATOM     89  C   UNL A   1      45.502  26.226  35.767  1.00  0.00     0.041 A 
ATOM     90  F   UNL A   1      43.267  25.967  35.119  1.00  0.00    -0.206 F 
ATOM     91  C   UNL A   1      46.710  26.913  35.694  1.00  0.00     0.022 A 
BRANCH  88  92
ATOM     92  S   UNL A   1      48.377  28.908  34.685  1.00  0.00     0.124 S 
ATOM     93  O   UNL A   1      48.172  29.559  33.395  1.00  0.00    -0.237 OA
ATOM     94  O   UNL A   1      48.471  29.795  35.840  1.00  0.00    -0.237 OA
ATOM     95  O   UNL A   1      49.328  27.799  34.677  1.00  0.00    -0.744 OA
ENDBRANCH  88  92
ENDBRANCH  62  85
ENDBRANCH  36  37
ENDBRANCH  28  31
ENDBRANCH  26  27
ENDBRANCH  25  26
ENDBRANCH  24  25
ENDBRANCH   1  24
TORSDOF 20
ENDMDL
