MODEL 1
REMARK VINA RESULT:     -11.7      0.000      0.000
REMARK SMILES Cc1c(Cl)cc2c(c1C)O[C@@H](C(F)(F)F)C(C(=O)NCCCCCCNC(=O)c1ccc(-c3c4nc(c(-c5cc(S(=O)(=O)[O-])ccc5F)c5ccc([nH]5)c(-c5cc(S(=O)(=O)[O-])ccc5F)c5nc(c(-c6cc(S(=O)(=O)[O-])ccc6F)c6ccc3[nH]6)C=C5)C=C4)cc1)=C2
REMARK SMILES IDX 23 1 22 2 21 3 20 4 19 5 17 6 18 7 16 9 1 10 2 11 3 12 8 13
REMARK SMILES IDX 4 14 5 15 7 16 9 17 6 18 10 19 92 20 11 21 12 22 13 23 14 24
REMARK SMILES IDX 15 25 24 26 25 27 26 28 27 29 28 31 29 32 30 33 91 34 31 35
REMARK SMILES IDX 90 36 32 37 33 38 34 39 84 40 35 41 89 42 83 43 85 44 36 45
REMARK SMILES IDX 88 46 82 47 81 48 37 50 69 51 49 52 68 53 50 54 53 55 67 56
REMARK SMILES IDX 86 57 51 58 52 59 66 61 87 62 54 63 38 64 39 65 47 66 40 67
REMARK SMILES IDX 46 68 48 69 45 70 41 71 42 72 43 73 44 74 70 75 71 76 79 77
REMARK SMILES IDX 72 78 78 79 80 80 77 81 73 82 74 83 75 84 76 85 55 86 56 87
REMARK SMILES IDX 64 88 57 89 63 90 65 91 62 92 58 93 59 94 60 95 61 96
REMARK H PARENT 19 8 26 30 85 49 53 60
REMARK Flexibility Score: inf
ROOT
ATOM      1  C   UNL A   1      32.474  29.320  24.166  1.00  0.00     0.002 C 
ENDROOT
BRANCH   1   2
ATOM      2  C   UNL A   1      32.005  28.840  22.786  1.00  0.00     0.002 C 
BRANCH   2   3
ATOM      3  C   UNL A   1      30.552  28.363  22.730  1.00  0.00     0.021 C 
BRANCH   3   4
ATOM      4  C   UNL A   1      30.338  26.981  23.340  1.00  0.00     0.116 C 
BRANCH   4   5
ATOM      5  N   UNL A   1      30.409  27.016  24.790  1.00  0.00    -0.352 N 
ATOM      6  C   UNL A   1      30.977  26.288  25.781  1.00  0.00     0.251 C 
ATOM      7  O   UNL A   1      30.788  26.717  26.925  1.00  0.00    -0.270 OA
ATOM      8  H   UNL A   1      29.906  27.781  25.155  1.00  0.00     0.163 HD
BRANCH   6   9
ATOM      9  C   UNL A   1      31.789  25.049  25.587  1.00  0.00     0.067 C 
ATOM     10  C   UNL A   1      36.454  20.495  25.000  1.00  0.00     0.046 C 
ATOM     11  C   UNL A   1      35.581  21.708  25.192  1.00  0.00    -0.026 A 
ATOM     12  C   UNL A   1      36.131  22.930  25.639  1.00  0.00     0.045 A 
ATOM     13  C   UNL A   1      34.207  21.672  24.864  1.00  0.00    -0.004 A 
ATOM     14  Cl  UNL A   1      37.822  23.106  25.973  1.00  0.00    -0.084 Cl
ATOM     15  C   UNL A   1      35.336  24.068  25.817  1.00  0.00     0.032 A 
ATOM     16  C   UNL A   1      33.424  22.823  25.075  1.00  0.00     0.131 A 
ATOM     17  C   UNL A   1      33.511  20.442  24.328  1.00  0.00     0.049 C 
ATOM     18  C   UNL A   1      33.972  24.015  25.544  1.00  0.00     0.019 A 
ATOM     19  O   UNL A   1      32.101  22.724  24.747  1.00  0.00    -0.475 OA
ATOM     20  C   UNL A   1      33.123  25.192  25.693  1.00  0.00     0.025 C 
ATOM     21  C   UNL A   1      31.202  23.693  25.332  1.00  0.00     0.314 C 
BRANCH  21  22
ATOM     22  C   UNL A   1      30.518  23.087  26.570  1.00  0.00     0.429 C 
ATOM     23  F   UNL A   1      29.983  21.868  26.328  1.00  0.00    -0.167 F 
ATOM     24  F   UNL A   1      31.414  22.926  27.575  1.00  0.00    -0.167 F 
ATOM     25  F   UNL A   1      29.515  23.861  27.042  1.00  0.00    -0.167 F 
ENDBRANCH  21  22
ENDBRANCH   6   9
ENDBRANCH   4   5
ENDBRANCH   3   4
ENDBRANCH   2   3
ENDBRANCH   1   2
BRANCH   1  26
ATOM     26  C   UNL A   1      33.741  28.643  24.692  1.00  0.00     0.021 C 
BRANCH  26  27
ATOM     27  C   UNL A   1      33.951  28.794  26.196  1.00  0.00     0.116 C 
BRANCH  27  28
ATOM     28  N   UNL A   1      33.837  30.181  26.611  1.00  0.00    -0.352 N 
ATOM     29  C   UNL A   1      34.562  30.859  27.556  1.00  0.00     0.251 C 
ATOM     30  H   UNL A   1      33.143  30.706  26.151  1.00  0.00     0.163 HD
ATOM     31  O   UNL A   1      34.159  31.941  27.980  1.00  0.00    -0.269 OA
BRANCH  29  32
ATOM     32  C   UNL A   1      35.818  30.274  28.064  1.00  0.00     0.039 A 
ATOM     33  C   UNL A   1      36.981  30.388  27.302  1.00  0.00     0.014 A 
ATOM     34  C   UNL A   1      35.840  29.610  29.295  1.00  0.00     0.014 A 
ATOM     35  C   UNL A   1      38.179  29.874  27.798  1.00  0.00     0.010 A 
ATOM     36  C   UNL A   1      37.048  29.167  29.822  1.00  0.00     0.010 A 
ATOM     37  C   UNL A   1      38.227  29.281  29.072  1.00  0.00    -0.014 A 
BRANCH  37  38
ATOM     38  C   UNL A   1      39.497  28.736  29.611  1.00  0.00     0.031 A 
ATOM     39  C   UNL A   1      40.121  29.367  30.825  1.00  0.00     0.074 A 
ATOM     40  C   UNL A   1      40.089  27.690  29.003  1.00  0.00     0.049 A 
ATOM     41  N   UNL A   1      41.238  29.061  31.430  1.00  0.00    -0.248 NA
ATOM     42  C   UNL A   1      39.406  30.506  31.426  1.00  0.00     0.031 C 
ATOM     43  C   UNL A   1      39.582  27.009  27.810  1.00  0.00     0.029 A 
ATOM     44  N   UNL A   1      41.239  27.009  29.309  1.00  0.00    -0.354 N 
ATOM     45  C   UNL A   1      41.357  29.961  32.483  1.00  0.00     0.074 A 
ATOM     46  C   UNL A   1      40.235  30.869  32.392  1.00  0.00     0.031 C 
ATOM     47  C   UNL A   1      40.392  25.979  27.514  1.00  0.00     0.029 A 
ATOM     48  C   UNL A   1      41.500  25.954  28.464  1.00  0.00     0.049 A 
ATOM     49  H   UNL A   1      41.825  27.252  30.063  1.00  0.00     0.167 HD
ATOM     50  C   UNL A   1      42.297  30.004  33.457  1.00  0.00     0.034 A 
ATOM     51  C   UNL A   1      42.516  25.070  28.457  1.00  0.00     0.034 A 
ATOM     52  C   UNL A   1      43.398  29.082  33.549  1.00  0.00     0.049 A 
ATOM     53  C   UNL A   1      43.585  25.179  29.515  1.00  0.00     0.074 A 
ATOM     54  C   UNL A   1      44.386  29.017  34.515  1.00  0.00     0.029 A 
ATOM     55  N   UNL A   1      43.658  28.064  32.642  1.00  0.00    -0.354 N 
ATOM     56  N   UNL A   1      43.671  26.027  30.513  1.00  0.00    -0.248 NA
ATOM     57  C   UNL A   1      44.693  24.217  29.442  1.00  0.00     0.031 C 
ATOM     58  C   UNL A   1      45.278  28.002  34.159  1.00  0.00     0.029 A 
ATOM     59  C   UNL A   1      44.810  27.389  33.007  1.00  0.00     0.049 A 
ATOM     60  H   UNL A   1      43.104  27.852  31.856  1.00  0.00     0.167 HD
ATOM     61  C   UNL A   1      44.835  25.691  31.196  1.00  0.00     0.074 A 
ATOM     62  C   UNL A   1      45.410  24.554  30.506  1.00  0.00     0.031 C 
ATOM     63  C   UNL A   1      45.378  26.270  32.295  1.00  0.00     0.034 A 
BRANCH  50  64
ATOM     64  C   UNL A   1      42.174  31.084  34.499  1.00  0.00     0.023 A 
ATOM     65  C   UNL A   1      42.779  32.340  34.323  1.00  0.00     0.031 A 
ATOM     66  C   UNL A   1      41.428  30.865  35.669  1.00  0.00     0.131 A 
ATOM     67  C   UNL A   1      42.664  33.317  35.323  1.00  0.00     0.055 A 
ATOM     68  C   UNL A   1      41.263  31.864  36.631  1.00  0.00     0.041 A 
ATOM     69  F   UNL A   1      40.845  29.677  35.896  1.00  0.00    -0.206 F 
ATOM     70  C   UNL A   1      41.889  33.096  36.464  1.00  0.00     0.022 A 
BRANCH  67  71
ATOM     71  S   UNL A   1      43.610  34.853  35.148  1.00  0.00     0.124 S 
ATOM     72  O   UNL A   1      42.597  35.859  35.456  1.00  0.00    -0.237 OA
ATOM     73  O   UNL A   1      44.669  34.688  36.137  1.00  0.00    -0.237 OA
ATOM     74  O   UNL A   1      44.050  34.826  33.754  1.00  0.00    -0.744 OA
ENDBRANCH  67  71
ENDBRANCH  50  64
BRANCH  51  75
ATOM     75  C   UNL A   1      42.575  24.006  27.415  1.00  0.00     0.023 A 
ATOM     76  C   UNL A   1      41.957  22.764  27.619  1.00  0.00     0.031 A 
ATOM     77  C   UNL A   1      43.254  24.217  26.201  1.00  0.00     0.131 A 
ATOM     78  C   UNL A   1      42.046  21.769  26.633  1.00  0.00     0.055 A 
ATOM     79  C   UNL A   1      43.305  23.240  25.207  1.00  0.00     0.041 A 
ATOM     80  F   UNL A   1      43.856  25.392  25.956  1.00  0.00    -0.206 F 
ATOM     81  C   UNL A   1      42.704  22.003  25.424  1.00  0.00     0.022 A 
BRANCH  78  82
ATOM     82  S   UNL A   1      41.315  20.142  26.967  1.00  0.00     0.124 S 
ATOM     83  O   UNL A   1      40.852  20.302  28.340  1.00  0.00    -0.237 OA
ATOM     84  O   UNL A   1      40.278  20.060  25.943  1.00  0.00    -0.237 OA
ATOM     85  O   UNL A   1      42.437  19.223  26.788  1.00  0.00    -0.744 OA
ENDBRANCH  78  82
ENDBRANCH  51  75
BRANCH  63  86
ATOM     86  C   UNL A   1      46.660  25.686  32.827  1.00  0.00     0.023 A 
ATOM     87  C   UNL A   1      46.649  24.653  33.779  1.00  0.00     0.031 A 
ATOM     88  C   UNL A   1      47.901  26.124  32.334  1.00  0.00     0.131 A 
ATOM     89  C   UNL A   1      47.859  24.105  34.226  1.00  0.00     0.055 A 
ATOM     90  C   UNL A   1      49.100  25.542  32.746  1.00  0.00     0.041 A 
ATOM     91  F   UNL A   1      47.964  27.106  31.419  1.00  0.00    -0.206 F 
ATOM     92  C   UNL A   1      49.084  24.529  33.701  1.00  0.00     0.022 A 
BRANCH  89  93
ATOM     93  S   UNL A   1      47.814  22.847  35.531  1.00  0.00     0.124 S 
ATOM     94  O   UNL A   1      47.729  21.613  34.756  1.00  0.00    -0.237 OA
ATOM     95  O   UNL A   1      49.073  23.073  36.232  1.00  0.00    -0.237 OA
ATOM     96  O   UNL A   1      46.613  23.186  36.292  1.00  0.00    -0.744 OA
ENDBRANCH  89  93
ENDBRANCH  63  86
ENDBRANCH  37  38
ENDBRANCH  29  32
ENDBRANCH  27  28
ENDBRANCH  26  27
ENDBRANCH   1  26
TORSDOF 17
ENDMDL
MODEL 2
REMARK VINA RESULT:     -11.6      3.422      4.501
REMARK SMILES Cc1c(Cl)cc2c(c1C)O[C@@H](C(F)(F)F)C(C(=O)NCCCCCCNC(=O)c1ccc(-c3c4nc(c(-c5cc(S(=O)(=O)[O-])ccc5F)c5ccc([nH]5)c(-c5cc(S(=O)(=O)[O-])ccc5F)c5nc(c(-c6cc(S(=O)(=O)[O-])ccc6F)c6ccc3[nH]6)C=C5)C=C4)cc1)=C2
REMARK SMILES IDX 23 1 22 2 21 3 20 4 19 5 17 6 18 7 16 9 1 10 2 11 3 12 8 13
REMARK SMILES IDX 4 14 5 15 7 16 9 17 6 18 10 19 92 20 11 21 12 22 13 23 14 24
REMARK SMILES IDX 15 25 24 26 25 27 26 28 27 29 28 31 29 32 30 33 91 34 31 35
REMARK SMILES IDX 90 36 32 37 33 38 34 39 84 40 35 41 89 42 83 43 85 44 36 45
REMARK SMILES IDX 88 46 82 47 81 48 37 50 69 51 49 52 68 53 50 54 53 55 67 56
REMARK SMILES IDX 86 57 51 58 52 59 66 61 87 62 54 63 38 64 39 65 47 66 40 67
REMARK SMILES IDX 46 68 48 69 45 70 41 71 42 72 43 73 44 74 70 75 71 76 79 77
REMARK SMILES IDX 72 78 78 79 80 80 77 81 73 82 74 83 75 84 76 85 55 86 56 87
REMARK SMILES IDX 64 88 57 89 63 90 65 91 62 92 58 93 59 94 60 95 61 96
REMARK H PARENT 19 8 26 30 85 49 53 60
REMARK Flexibility Score: inf
ROOT
ATOM      1  C   UNL A   1      31.501  30.874  26.007  1.00  0.00     0.002 C 
ENDROOT
BRANCH   1   2
ATOM      2  C   UNL A   1      32.125  29.860  26.974  1.00  0.00     0.002 C 
BRANCH   2   3
ATOM      3  C   UNL A   1      32.645  28.580  26.318  1.00  0.00     0.021 C 
BRANCH   3   4
ATOM      4  C   UNL A   1      32.966  28.739  24.835  1.00  0.00     0.116 C 
BRANCH   4   5
ATOM      5  N   UNL A   1      31.843  28.353  23.997  1.00  0.00    -0.352 N 
ATOM      6  C   UNL A   1      31.265  27.207  23.567  1.00  0.00     0.251 C 
ATOM      7  O   UNL A   1      30.267  27.356  22.853  1.00  0.00    -0.270 OA
ATOM      8  H   UNL A   1      31.373  29.143  23.644  1.00  0.00     0.163 HD
BRANCH   6   9
ATOM      9  C   UNL A   1      31.735  25.827  23.891  1.00  0.00     0.067 C 
ATOM     10  C   UNL A   1      35.065  20.273  24.853  1.00  0.00     0.046 C 
ATOM     11  C   UNL A   1      34.532  21.650  24.551  1.00  0.00    -0.026 A 
ATOM     12  C   UNL A   1      35.404  22.694  24.171  1.00  0.00     0.045 A 
ATOM     13  C   UNL A   1      33.143  21.912  24.576  1.00  0.00    -0.004 A 
ATOM     14  Cl  UNL A   1      37.111  22.450  24.014  1.00  0.00    -0.084 Cl
ATOM     15  C   UNL A   1      34.925  23.977  23.881  1.00  0.00     0.032 A 
ATOM     16  C   UNL A   1      32.689  23.217  24.305  1.00  0.00     0.131 A 
ATOM     17  C   UNL A   1      32.105  20.868  24.917  1.00  0.00     0.049 C 
ATOM     18  C   UNL A   1      33.562  24.247  23.958  1.00  0.00     0.019 A 
ATOM     19  O   UNL A   1      31.337  23.410  24.352  1.00  0.00    -0.475 OA
ATOM     20  C   UNL A   1      33.031  25.567  23.636  1.00  0.00     0.025 C 
ATOM     21  C   UNL A   1      30.870  24.769  24.510  1.00  0.00     0.314 C 
BRANCH  21  22
ATOM     22  C   UNL A   1      30.547  25.040  25.989  1.00  0.00     0.429 C 
ATOM     23  F   UNL A   1      30.173  23.923  26.655  1.00  0.00    -0.167 F 
ATOM     24  F   UNL A   1      31.638  25.528  26.630  1.00  0.00    -0.167 F 
ATOM     25  F   UNL A   1      29.548  25.937  26.148  1.00  0.00    -0.167 F 
ENDBRANCH  21  22
ENDBRANCH   6   9
ENDBRANCH   4   5
ENDBRANCH   3   4
ENDBRANCH   2   3
ENDBRANCH   1   2
BRANCH   1  26
ATOM     26  C   UNL A   1      31.413  32.307  26.536  1.00  0.00     0.021 C 
BRANCH  26  27
ATOM     27  C   UNL A   1      32.673  32.788  27.250  1.00  0.00     0.116 C 
BRANCH  27  28
ATOM     28  N   UNL A   1      32.549  34.172  27.672  1.00  0.00    -0.352 N 
ATOM     29  C   UNL A   1      33.164  34.813  28.715  1.00  0.00     0.251 C 
ATOM     30  H   UNL A   1      31.938  34.727  27.134  1.00  0.00     0.163 HD
ATOM     31  O   UNL A   1      32.743  35.902  29.102  1.00  0.00    -0.269 OA
BRANCH  29  32
ATOM     32  C   UNL A   1      34.323  34.179  29.373  1.00  0.00     0.039 A 
ATOM     33  C   UNL A   1      34.106  33.284  30.421  1.00  0.00     0.014 A 
ATOM     34  C   UNL A   1      35.624  34.475  28.951  1.00  0.00     0.014 A 
ATOM     35  C   UNL A   1      35.196  32.649  31.018  1.00  0.00     0.010 A 
ATOM     36  C   UNL A   1      36.702  33.784  29.494  1.00  0.00     0.010 A 
ATOM     37  C   UNL A   1      36.500  32.877  30.543  1.00  0.00    -0.014 A 
BRANCH  37  38
ATOM     38  C   UNL A   1      37.665  32.203  31.167  1.00  0.00     0.031 A 
ATOM     39  C   UNL A   1      38.150  32.653  32.518  1.00  0.00     0.074 A 
ATOM     40  C   UNL A   1      38.289  31.203  30.515  1.00  0.00     0.049 A 
ATOM     41  N   UNL A   1      39.164  32.217  33.216  1.00  0.00    -0.248 NA
ATOM     42  C   UNL A   1      37.408  33.752  33.158  1.00  0.00     0.031 C 
ATOM     43  C   UNL A   1      37.916  30.694  29.193  1.00  0.00     0.029 A 
ATOM     44  N   UNL A   1      39.361  30.428  30.877  1.00  0.00    -0.354 N 
ATOM     45  C   UNL A   1      39.180  32.980  34.378  1.00  0.00     0.074 A 
ATOM     46  C   UNL A   1      38.117  33.954  34.258  1.00  0.00     0.031 C 
ATOM     47  C   UNL A   1      38.716  29.662  28.878  1.00  0.00     0.029 A 
ATOM     48  C   UNL A   1      39.687  29.465  29.949  1.00  0.00     0.049 A 
ATOM     49  H   UNL A   1      39.852  30.549  31.722  1.00  0.00     0.167 HD
ATOM     50  C   UNL A   1      39.985  32.858  35.459  1.00  0.00     0.034 A 
ATOM     51  C   UNL A   1      40.660  28.532  29.962  1.00  0.00     0.034 A 
ATOM     52  C   UNL A   1      41.026  31.872  35.576  1.00  0.00     0.049 A 
ATOM     53  C   UNL A   1      41.583  28.458  31.150  1.00  0.00     0.074 A 
ATOM     54  C   UNL A   1      41.875  31.641  36.643  1.00  0.00     0.029 A 
ATOM     55  N   UNL A   1      41.362  30.953  34.591  1.00  0.00    -0.354 N 
ATOM     56  N   UNL A   1      41.572  29.179  32.248  1.00  0.00    -0.248 NA
ATOM     57  C   UNL A   1      42.652  27.451  31.101  1.00  0.00     0.031 C 
ATOM     58  C   UNL A   1      42.765  30.626  36.280  1.00  0.00     0.029 A 
ATOM     59  C   UNL A   1      42.428  30.177  35.013  1.00  0.00     0.049 A 
ATOM     60  H   UNL A   1      40.908  30.865  33.721  1.00  0.00     0.167 HD
ATOM     61  C   UNL A   1      42.622  28.702  33.025  1.00  0.00     0.074 A 
ATOM     62  C   UNL A   1      43.236  27.622  32.280  1.00  0.00     0.031 C 
ATOM     63  C   UNL A   1      43.039  29.118  34.247  1.00  0.00     0.034 A 
BRANCH  50  64
ATOM     64  C   UNL A   1      39.770  33.816  36.602  1.00  0.00     0.023 A 
ATOM     65  C   UNL A   1      39.230  33.384  37.825  1.00  0.00     0.031 A 
ATOM     66  C   UNL A   1      40.129  35.169  36.476  1.00  0.00     0.131 A 
ATOM     67  C   UNL A   1      39.022  34.305  38.862  1.00  0.00     0.055 A 
ATOM     68  C   UNL A   1      39.979  36.068  37.534  1.00  0.00     0.041 A 
ATOM     69  F   UNL A   1      40.630  35.638  35.322  1.00  0.00    -0.206 F 
ATOM     70  C   UNL A   1      39.417  35.640  38.732  1.00  0.00     0.022 A 
BRANCH  67  71
ATOM     71  S   UNL A   1      38.153  33.752  40.353  1.00  0.00     0.124 S 
ATOM     72  O   UNL A   1      39.134  32.846  40.946  1.00  0.00    -0.237 OA
ATOM     73  O   UNL A   1      37.923  35.002  41.067  1.00  0.00    -0.237 OA
ATOM     74  O   UNL A   1      36.953  33.104  39.827  1.00  0.00    -0.744 OA
ENDBRANCH  67  71
ENDBRANCH  50  64
BRANCH  51  75
ATOM     75  C   UNL A   1      40.812  27.595  28.814  1.00  0.00     0.023 A 
ATOM     76  C   UNL A   1      41.797  27.807  27.837  1.00  0.00     0.031 A 
ATOM     77  C   UNL A   1      39.973  26.475  28.675  1.00  0.00     0.131 A 
ATOM     78  C   UNL A   1      41.906  26.925  26.752  1.00  0.00     0.055 A 
ATOM     79  C   UNL A   1      40.111  25.577  27.616  1.00  0.00     0.041 A 
ATOM     80  F   UNL A   1      39.019  26.225  29.586  1.00  0.00    -0.206 F 
ATOM     81  C   UNL A   1      41.079  25.804  26.641  1.00  0.00     0.022 A 
BRANCH  78  82
ATOM     82  S   UNL A   1      43.129  27.279  25.459  1.00  0.00     0.124 S 
ATOM     83  O   UNL A   1      42.370  28.141  24.562  1.00  0.00    -0.237 OA
ATOM     84  O   UNL A   1      44.197  27.920  26.219  1.00  0.00    -0.237 OA
ATOM     85  O   UNL A   1      43.454  25.956  24.929  1.00  0.00    -0.744 OA
ENDBRANCH  78  82
ENDBRANCH  51  75
BRANCH  63  86
ATOM     86  C   UNL A   1      44.215  28.406  34.860  1.00  0.00     0.023 A 
ATOM     87  C   UNL A   1      44.040  27.254  35.643  1.00  0.00     0.031 A 
ATOM     88  C   UNL A   1      45.526  28.848  34.608  1.00  0.00     0.131 A 
ATOM     89  C   UNL A   1      45.158  26.592  36.169  1.00  0.00     0.055 A 
ATOM     90  C   UNL A   1      46.637  28.158  35.093  1.00  0.00     0.041 A 
ATOM     91  F   UNL A   1      45.746  29.942  33.860  1.00  0.00    -0.206 F 
ATOM     92  C   UNL A   1      46.457  27.026  35.882  1.00  0.00     0.022 A 
BRANCH  89  93
ATOM     93  S   UNL A   1      44.894  25.171  37.262  1.00  0.00     0.124 S 
ATOM     94  O   UNL A   1      46.260  24.723  37.512  1.00  0.00    -0.237 OA
ATOM     95  O   UNL A   1      44.202  25.770  38.399  1.00  0.00    -0.237 OA
ATOM     96  O   UNL A   1      44.081  24.264  36.454  1.00  0.00    -0.744 OA
ENDBRANCH  89  93
ENDBRANCH  63  86
ENDBRANCH  37  38
ENDBRANCH  29  32
ENDBRANCH  27  28
ENDBRANCH  26  27
ENDBRANCH   1  26
TORSDOF 17
ENDMDL
MODEL 3
REMARK VINA RESULT:     -11.6      3.540      8.299
REMARK SMILES Cc1c(Cl)cc2c(c1C)O[C@@H](C(F)(F)F)C(C(=O)NCCCCCCNC(=O)c1ccc(-c3c4nc(c(-c5cc(S(=O)(=O)[O-])ccc5F)c5ccc([nH]5)c(-c5cc(S(=O)(=O)[O-])ccc5F)c5nc(c(-c6cc(S(=O)(=O)[O-])ccc6F)c6ccc3[nH]6)C=C5)C=C4)cc1)=C2
REMARK SMILES IDX 23 1 22 2 21 3 20 4 19 5 17 6 18 7 16 9 1 10 2 11 3 12 8 13
REMARK SMILES IDX 4 14 5 15 7 16 9 17 6 18 10 19 92 20 11 21 12 22 13 23 14 24
REMARK SMILES IDX 15 25 24 26 25 27 26 28 27 29 28 31 29 32 30 33 91 34 31 35
REMARK SMILES IDX 90 36 32 37 33 38 34 39 84 40 35 41 89 42 83 43 85 44 36 45
REMARK SMILES IDX 88 46 82 47 81 48 37 50 69 51 49 52 68 53 50 54 53 55 67 56
REMARK SMILES IDX 86 57 51 58 52 59 66 61 87 62 54 63 38 64 39 65 47 66 40 67
REMARK SMILES IDX 46 68 48 69 45 70 41 71 42 72 43 73 44 74 70 75 71 76 79 77
REMARK SMILES IDX 72 78 78 79 80 80 77 81 73 82 74 83 75 84 76 85 55 86 56 87
REMARK SMILES IDX 64 88 57 89 63 90 65 91 62 92 58 93 59 94 60 95 61 96
REMARK H PARENT 19 8 26 30 85 49 53 60
REMARK Flexibility Score: inf
ROOT
ATOM      1  C   UNL A   1      31.733  30.488  26.225  1.00  0.00     0.002 C 
ENDROOT
BRANCH   1   2
ATOM      2  C   UNL A   1      31.053  30.142  24.894  1.00  0.00     0.002 C 
BRANCH   2   3
ATOM      3  C   UNL A   1      31.047  28.653  24.543  1.00  0.00     0.021 C 
BRANCH   3   4
ATOM      4  C   UNL A   1      32.261  28.210  23.733  1.00  0.00     0.116 C 
BRANCH   4   5
ATOM      5  N   UNL A   1      31.874  27.630  22.458  1.00  0.00    -0.352 N 
ATOM      6  C   UNL A   1      31.807  26.398  21.899  1.00  0.00     0.251 C 
ATOM      7  O   UNL A   1      31.376  26.368  20.741  1.00  0.00    -0.270 OA
ATOM      8  H   UNL A   1      31.580  28.325  21.824  1.00  0.00     0.163 HD
BRANCH   6   9
ATOM      9  C   UNL A   1      32.200  25.123  22.570  1.00  0.00     0.067 C 
ATOM     10  C   UNL A   1      35.255  19.958  25.187  1.00  0.00     0.046 C 
ATOM     11  C   UNL A   1      34.797  21.234  24.527  1.00  0.00    -0.026 A 
ATOM     12  C   UNL A   1      35.732  22.203  24.102  1.00  0.00     0.045 A 
ATOM     13  C   UNL A   1      33.428  21.460  24.259  1.00  0.00    -0.004 A 
ATOM     14  Cl  UNL A   1      37.439  21.976  24.294  1.00  0.00    -0.084 Cl
ATOM     15  C   UNL A   1      35.324  23.390  23.482  1.00  0.00     0.032 A 
ATOM     16  C   UNL A   1      33.041  22.674  23.657  1.00  0.00     0.131 A 
ATOM     17  C   UNL A   1      32.336  20.479  24.618  1.00  0.00     0.049 C 
ATOM     18  C   UNL A   1      33.971  23.635  23.267  1.00  0.00     0.019 A 
ATOM     19  O   UNL A   1      31.704  22.837  23.430  1.00  0.00    -0.475 OA
ATOM     20  C   UNL A   1      33.517  24.851  22.600  1.00  0.00     0.025 C 
ATOM     21  C   UNL A   1      31.229  24.188  23.229  1.00  0.00     0.314 C 
BRANCH  21  22
ATOM     22  C   UNL A   1      30.656  24.740  24.546  1.00  0.00     0.429 C 
ATOM     23  F   UNL A   1      31.562  25.456  25.250  1.00  0.00    -0.167 F 
ATOM     24  F   UNL A   1      29.613  25.569  24.298  1.00  0.00    -0.167 F 
ATOM     25  F   UNL A   1      30.212  23.764  25.370  1.00  0.00    -0.167 F 
ENDBRANCH  21  22
ENDBRANCH   6   9
ENDBRANCH   4   5
ENDBRANCH   3   4
ENDBRANCH   2   3
ENDBRANCH   1   2
BRANCH   1  26
ATOM     26  C   UNL A   1      31.600  31.950  26.660  1.00  0.00     0.021 C 
BRANCH  26  27
ATOM     27  C   UNL A   1      32.881  32.550  27.232  1.00  0.00     0.116 C 
BRANCH  27  28
ATOM     28  N   UNL A   1      32.683  33.928  27.646  1.00  0.00    -0.352 N 
ATOM     29  C   UNL A   1      33.212  34.587  28.725  1.00  0.00     0.251 C 
ATOM     30  H   UNL A   1      32.087  34.462  27.073  1.00  0.00     0.163 HD
ATOM     31  O   UNL A   1      32.730  35.659  29.086  1.00  0.00    -0.269 OA
BRANCH  29  32
ATOM     32  C   UNL A   1      34.350  33.992  29.451  1.00  0.00     0.039 A 
ATOM     33  C   UNL A   1      34.103  33.112  30.504  1.00  0.00     0.014 A 
ATOM     34  C   UNL A   1      35.664  34.312  29.089  1.00  0.00     0.014 A 
ATOM     35  C   UNL A   1      35.175  32.513  31.166  1.00  0.00     0.010 A 
ATOM     36  C   UNL A   1      36.729  33.657  29.697  1.00  0.00     0.010 A 
ATOM     37  C   UNL A   1      36.495  32.763  30.752  1.00  0.00    -0.014 A 
BRANCH  37  38
ATOM     38  C   UNL A   1      37.643  32.128  31.445  1.00  0.00     0.031 A 
ATOM     39  C   UNL A   1      38.380  30.997  30.781  1.00  0.00     0.074 A 
ATOM     40  C   UNL A   1      38.010  32.559  32.667  1.00  0.00     0.049 A 
ATOM     41  N   UNL A   1      39.385  30.293  31.231  1.00  0.00    -0.248 NA
ATOM     42  C   UNL A   1      37.912  30.591  29.446  1.00  0.00     0.031 C 
ATOM     43  C   UNL A   1      37.358  33.638  33.413  1.00  0.00     0.029 A 
ATOM     44  N   UNL A   1      39.025  32.152  33.495  1.00  0.00    -0.354 N 
ATOM     45  C   UNL A   1      39.674  29.367  30.235  1.00  0.00     0.074 A 
ATOM     46  C   UNL A   1      38.693  29.553  29.187  1.00  0.00     0.031 C 
ATOM     47  C   UNL A   1      38.019  33.837  34.565  1.00  0.00     0.029 A 
ATOM     48  C   UNL A   1      39.110  32.872  34.664  1.00  0.00     0.049 A 
ATOM     49  H   UNL A   1      39.637  31.413  33.273  1.00  0.00     0.167 HD
ATOM     50  C   UNL A   1      40.684  28.468  30.182  1.00  0.00     0.034 A 
ATOM     51  C   UNL A   1      39.968  32.765  35.697  1.00  0.00     0.034 A 
ATOM     52  C   UNL A   1      41.667  28.306  31.222  1.00  0.00     0.049 A 
ATOM     53  C   UNL A   1      41.046  31.714  35.643  1.00  0.00     0.074 A 
ATOM     54  C   UNL A   1      42.752  27.449  31.252  1.00  0.00     0.029 A 
ATOM     55  N   UNL A   1      41.684  29.015  32.415  1.00  0.00    -0.354 N 
ATOM     56  N   UNL A   1      41.313  30.858  34.684  1.00  0.00    -0.248 NA
ATOM     57  C   UNL A   1      41.933  31.609  36.810  1.00  0.00     0.031 C 
ATOM     58  C   UNL A   1      43.387  27.594  32.488  1.00  0.00     0.029 A 
ATOM     59  C   UNL A   1      42.740  28.590  33.202  1.00  0.00     0.049 A 
ATOM     60  H   UNL A   1      41.040  29.718  32.664  1.00  0.00     0.167 HD
ATOM     61  C   UNL A   1      42.409  30.124  35.126  1.00  0.00     0.074 A 
ATOM     62  C   UNL A   1      42.763  30.646  36.430  1.00  0.00     0.031 C 
ATOM     63  C   UNL A   1      43.064  29.110  34.508  1.00  0.00     0.034 A 
BRANCH  50  64
ATOM     64  C   UNL A   1      40.777  27.591  28.962  1.00  0.00     0.023 A 
ATOM     65  C   UNL A   1      41.722  27.841  27.953  1.00  0.00     0.031 A 
ATOM     66  C   UNL A   1      39.928  26.481  28.814  1.00  0.00     0.131 A 
ATOM     67  C   UNL A   1      41.769  27.018  26.818  1.00  0.00     0.055 A 
ATOM     68  C   UNL A   1      40.021  25.628  27.713  1.00  0.00     0.041 A 
ATOM     69  F   UNL A   1      38.993  26.209  29.739  1.00  0.00    -0.206 F 
ATOM     70  C   UNL A   1      40.940  25.898  26.704  1.00  0.00     0.022 A 
BRANCH  67  71
ATOM     71  S   UNL A   1      42.870  27.480  25.455  1.00  0.00     0.124 S 
ATOM     72  O   UNL A   1      44.034  27.989  26.177  1.00  0.00    -0.237 OA
ATOM     73  O   UNL A   1      43.055  26.215  24.754  1.00  0.00    -0.237 OA
ATOM     74  O   UNL A   1      42.105  28.491  24.726  1.00  0.00    -0.744 OA
ENDBRANCH  67  71
ENDBRANCH  50  64
BRANCH  51  75
ATOM     75  C   UNL A   1      39.844  33.676  36.870  1.00  0.00     0.023 A 
ATOM     76  C   UNL A   1      39.343  33.208  38.095  1.00  0.00     0.031 A 
ATOM     77  C   UNL A   1      40.222  35.027  36.782  1.00  0.00     0.131 A 
ATOM     78  C   UNL A   1      39.212  34.089  39.179  1.00  0.00     0.055 A 
ATOM     79  C   UNL A   1      40.128  35.891  37.875  1.00  0.00     0.041 A 
ATOM     80  F   UNL A   1      40.713  35.522  35.635  1.00  0.00    -0.206 F 
ATOM     81  C   UNL A   1      39.614  35.424  39.081  1.00  0.00     0.022 A 
BRANCH  78  82
ATOM     82  S   UNL A   1      38.476  33.475  40.719  1.00  0.00     0.124 S 
ATOM     83  O   UNL A   1      39.091  32.158  40.836  1.00  0.00    -0.237 OA
ATOM     84  O   UNL A   1      38.911  34.478  41.685  1.00  0.00    -0.237 OA
ATOM     85  O   UNL A   1      37.043  33.472  40.432  1.00  0.00    -0.744 OA
ENDBRANCH  78  82
ENDBRANCH  51  75
BRANCH  63  86
ATOM     86  C   UNL A   1      44.234  28.495  35.231  1.00  0.00     0.023 A 
ATOM     87  C   UNL A   1      44.045  27.513  36.217  1.00  0.00     0.031 A 
ATOM     88  C   UNL A   1      45.550  28.851  34.887  1.00  0.00     0.131 A 
ATOM     89  C   UNL A   1      45.156  26.934  36.844  1.00  0.00     0.055 A 
ATOM     90  C   UNL A   1      46.652  28.236  35.480  1.00  0.00     0.041 A 
ATOM     91  F   UNL A   1      45.782  29.782  33.947  1.00  0.00    -0.206 F 
ATOM     92  C   UNL A   1      46.459  27.275  36.468  1.00  0.00     0.022 A 
BRANCH  89  93
ATOM     93  S   UNL A   1      44.877  25.747  38.185  1.00  0.00     0.124 S 
ATOM     94  O   UNL A   1      43.845  26.417  38.971  1.00  0.00    -0.237 OA
ATOM     95  O   UNL A   1      44.453  24.551  37.466  1.00  0.00    -0.237 OA
ATOM     96  O   UNL A   1      46.184  25.647  38.833  1.00  0.00    -0.744 OA
ENDBRANCH  89  93
ENDBRANCH  63  86
ENDBRANCH  37  38
ENDBRANCH  29  32
ENDBRANCH  27  28
ENDBRANCH  26  27
ENDBRANCH   1  26
TORSDOF 17
ENDMDL
