MODEL 1
REMARK VINA RESULT:     -12.0      0.000      0.000
REMARK SMILES C[C@H](C(=O)NCCCCCCNC(=O)c1ccc(-c2c3nc(c(-c4cc(S(=O)(=O)[O-])ccc4F)c4ccc([nH]4)c(-c4cc(S(=O)(=O)[O-])ccc4F)c4nc(c(-c5cc(S(=O)(=O)[O-])ccc5F)c5ccc2[nH]5)C=C4)C=C3)cc1)c1ccc2c3cc(Cl)ccc3n(C(=O)c3ccc(Cl)cc3)c2c1
REMARK SMILES IDX 8 1 7 2 6 3 5 4 3 5 4 6 2 8 1 9 78 10 79 11 100 12 80 13
REMARK SMILES IDX 99 14 81 15 89 16 82 17 88 18 83 19 87 20 84 21 86 22 85 23
REMARK SMILES IDX 90 24 91 25 92 26 93 27 98 28 94 29 97 30 95 31 96 32 9 33
REMARK SMILES IDX 10 34 11 35 12 36 13 37 14 39 15 40 16 41 77 42 17 43 76 44
REMARK SMILES IDX 18 45 19 46 20 47 70 48 21 49 75 50 69 51 71 52 22 53 74 54
REMARK SMILES IDX 68 55 67 56 23 58 55 59 35 60 54 61 36 62 39 63 53 64 72 65
REMARK SMILES IDX 37 66 38 67 52 69 73 70 40 71 24 72 25 73 33 74 26 75 32 76
REMARK SMILES IDX 34 77 31 78 27 79 28 80 29 81 30 82 56 83 57 84 65 85 58 86
REMARK SMILES IDX 64 87 66 88 63 89 59 90 60 91 61 92 62 93 41 94 42 95 50 96
REMARK SMILES IDX 43 97 49 98 51 99 48 100 44 101 45 102 46 103 47 104
REMARK H PARENT 5 7 12 38 71 57 39 68
REMARK Flexibility Score: inf
ROOT
ATOM      1  C   UNL A   1      38.826  23.771  26.594  1.00  0.00     0.002 C 
ENDROOT
BRANCH   1   2
ATOM      2  C   UNL A   1      37.581  23.130  25.967  1.00  0.00     0.021 C 
BRANCH   2   3
ATOM      3  C   UNL A   1      36.559  24.153  25.482  1.00  0.00     0.116 C 
BRANCH   3   4
ATOM      4  N   UNL A   1      35.220  23.760  25.880  1.00  0.00    -0.356 N 
ATOM      5  C   UNL A   1      34.060  23.759  25.167  1.00  0.00     0.227 C 
ATOM      6  O   UNL A   1      33.035  23.381  25.742  1.00  0.00    -0.274 OA
ATOM      7  H   UNL A   1      35.137  23.446  26.809  1.00  0.00     0.163 HD
BRANCH   5   8
ATOM      8  C   UNL A   1      34.028  24.176  23.697  1.00  0.00     0.105 C 
ATOM      9  C   UNL A   1      33.909  22.958  22.767  1.00  0.00     0.023 C 
BRANCH   8  10
ATOM     10  C   UNL A   1      33.063  25.314  23.368  1.00  0.00    -0.034 A 
ATOM     11  C   UNL A   1      32.493  25.492  22.103  1.00  0.00     0.005 A 
ATOM     12  C   UNL A   1      32.708  26.207  24.392  1.00  0.00     0.032 A 
ATOM     13  C   UNL A   1      31.611  26.544  21.842  1.00  0.00     0.011 A 
ATOM     14  C   UNL A   1      31.853  27.295  24.121  1.00  0.00     0.057 A 
ATOM     15  C   UNL A   1      31.279  27.451  22.866  1.00  0.00     0.008 A 
ATOM     16  N   UNL A   1      31.405  28.339  24.947  1.00  0.00    -0.276 N 
ATOM     17  C   UNL A   1      30.445  28.596  22.916  1.00  0.00     0.009 A 
ATOM     18  C   UNL A   1      30.597  29.188  24.178  1.00  0.00     0.057 A 
ATOM     19  C   UNL A   1      29.621  29.202  21.943  1.00  0.00     0.031 A 
ATOM     20  C   UNL A   1      30.045  30.461  24.427  1.00  0.00     0.029 A 
ATOM     21  C   UNL A   1      29.026  30.427  22.220  1.00  0.00     0.041 A 
ATOM     22  C   UNL A   1      29.257  31.062  23.433  1.00  0.00     0.023 A 
ATOM     23  Cl  UNL A   1      28.030  31.170  21.029  1.00  0.00    -0.084 Cl
BRANCH  16  24
ATOM     24  C   UNL A   1      31.819  28.471  26.300  1.00  0.00     0.262 C 
ATOM     25  O   UNL A   1      31.132  27.868  27.130  1.00  0.00    -0.268 OA
BRANCH  24  26
ATOM     26  C   UNL A   1      32.924  29.292  26.883  1.00  0.00     0.040 A 
ATOM     27  C   UNL A   1      32.612  30.633  27.195  1.00  0.00     0.015 A 
ATOM     28  C   UNL A   1      34.253  28.877  26.994  1.00  0.00     0.015 A 
ATOM     29  C   UNL A   1      33.591  31.534  27.614  1.00  0.00     0.021 A 
ATOM     30  C   UNL A   1      35.235  29.776  27.447  1.00  0.00     0.021 A 
ATOM     31  C   UNL A   1      34.903  31.099  27.745  1.00  0.00     0.041 A 
ATOM     32  Cl  UNL A   1      36.120  32.206  28.245  1.00  0.00    -0.084 Cl
ENDBRANCH  24  26
ENDBRANCH  16  24
ENDBRANCH   8  10
ENDBRANCH   5   8
ENDBRANCH   3   4
ENDBRANCH   2   3
ENDBRANCH   1   2
BRANCH   1  33
ATOM     33  C   UNL A   1      39.953  22.785  26.926  1.00  0.00     0.002 C 
BRANCH  33  34
ATOM     34  C   UNL A   1      39.763  21.382  26.348  1.00  0.00     0.021 C 
BRANCH  34  35
ATOM     35  C   UNL A   1      40.417  20.275  27.166  1.00  0.00     0.116 C 
BRANCH  35  36
ATOM     36  N   UNL A   1      41.344  19.490  26.368  1.00  0.00    -0.352 N 
ATOM     37  C   UNL A   1      42.502  19.888  25.746  1.00  0.00     0.251 C 
ATOM     38  H   UNL A   1      41.109  18.541  26.256  1.00  0.00     0.163 HD
ATOM     39  O   UNL A   1      43.045  19.153  24.932  1.00  0.00    -0.269 OA
BRANCH  37  40
ATOM     40  C   UNL A   1      43.067  21.221  26.053  1.00  0.00     0.039 A 
ATOM     41  C   UNL A   1      43.142  22.174  25.037  1.00  0.00     0.014 A 
ATOM     42  C   UNL A   1      43.508  21.528  27.344  1.00  0.00     0.014 A 
ATOM     43  C   UNL A   1      43.605  23.457  25.330  1.00  0.00     0.010 A 
ATOM     44  C   UNL A   1      43.894  22.829  27.651  1.00  0.00     0.010 A 
ATOM     45  C   UNL A   1      43.952  23.807  26.646  1.00  0.00    -0.014 A 
BRANCH  45  46
ATOM     46  C   UNL A   1      44.379  25.188  26.988  1.00  0.00     0.031 A 
ATOM     47  C   UNL A   1      43.397  26.150  27.601  1.00  0.00     0.074 A 
ATOM     48  C   UNL A   1      45.629  25.593  26.690  1.00  0.00     0.049 A 
ATOM     49  N   UNL A   1      43.554  27.413  27.901  1.00  0.00    -0.248 NA
ATOM     50  C   UNL A   1      42.052  25.627  27.882  1.00  0.00     0.031 C 
ATOM     51  C   UNL A   1      46.655  24.762  26.055  1.00  0.00     0.029 A 
ATOM     52  N   UNL A   1      46.248  26.805  26.868  1.00  0.00    -0.354 N 
ATOM     53  C   UNL A   1      42.326  27.840  28.395  1.00  0.00     0.074 A 
ATOM     54  C   UNL A   1      41.420  26.717  28.289  1.00  0.00     0.031 C 
ATOM     55  C   UNL A   1      47.780  25.481  25.918  1.00  0.00     0.029 A 
ATOM     56  C   UNL A   1      47.543  26.838  26.402  1.00  0.00     0.049 A 
ATOM     57  H   UNL A   1      45.807  27.577  27.289  1.00  0.00     0.167 HD
ATOM     58  C   UNL A   1      41.993  29.050  28.911  1.00  0.00     0.034 A 
ATOM     59  C   UNL A   1      48.432  27.850  26.350  1.00  0.00     0.034 A 
ATOM     60  C   UNL A   1      42.915  30.157  29.011  1.00  0.00     0.049 A 
ATOM     61  C   UNL A   1      48.031  29.197  26.899  1.00  0.00     0.074 A 
ATOM     62  C   UNL A   1      42.704  31.405  29.570  1.00  0.00     0.029 A 
ATOM     63  N   UNL A   1      44.218  30.154  28.528  1.00  0.00    -0.354 N 
ATOM     64  N   UNL A   1      46.884  29.568  27.420  1.00  0.00    -0.248 NA
ATOM     65  C   UNL A   1      49.047  30.256  26.862  1.00  0.00     0.031 C 
ATOM     66  C   UNL A   1      43.845  32.183  29.349  1.00  0.00     0.029 A 
ATOM     67  C   UNL A   1      44.807  31.393  28.738  1.00  0.00     0.049 A 
ATOM     68  H   UNL A   1      44.659  29.386  28.099  1.00  0.00     0.167 HD
ATOM     69  C   UNL A   1      47.052  30.897  27.800  1.00  0.00     0.074 A 
ATOM     70  C   UNL A   1      48.414  31.255  27.462  1.00  0.00     0.031 C 
ATOM     71  C   UNL A   1      46.163  31.743  28.381  1.00  0.00     0.034 A 
BRANCH  58  72
ATOM     72  C   UNL A   1      40.565  29.243  29.369  1.00  0.00     0.023 A 
ATOM     73  C   UNL A   1      40.225  29.302  30.733  1.00  0.00     0.031 A 
ATOM     74  C   UNL A   1      39.521  29.335  28.432  1.00  0.00     0.131 A 
ATOM     75  C   UNL A   1      38.877  29.357  31.120  1.00  0.00     0.055 A 
ATOM     76  C   UNL A   1      38.189  29.484  28.822  1.00  0.00     0.041 A 
ATOM     77  F   UNL A   1      39.775  29.263  27.116  1.00  0.00    -0.206 F 
ATOM     78  C   UNL A   1      37.859  29.477  30.173  1.00  0.00     0.022 A 
BRANCH  75  79
ATOM     79  S   UNL A   1      38.469  29.097  32.869  1.00  0.00     0.124 S 
ATOM     80  O   UNL A   1      39.796  29.054  33.478  1.00  0.00    -0.237 OA
ATOM     81  O   UNL A   1      37.659  30.270  33.180  1.00  0.00    -0.237 OA
ATOM     82  O   UNL A   1      37.752  27.824  32.866  1.00  0.00    -0.744 OA
ENDBRANCH  75  79
ENDBRANCH  58  72
BRANCH  59  83
ATOM     83  C   UNL A   1      49.776  27.640  25.738  1.00  0.00     0.023 A 
ATOM     84  C   UNL A   1      50.020  27.946  24.391  1.00  0.00     0.031 A 
ATOM     85  C   UNL A   1      50.833  27.095  26.490  1.00  0.00     0.131 A 
ATOM     86  C   UNL A   1      51.274  27.666  23.825  1.00  0.00     0.055 A 
ATOM     87  C   UNL A   1      52.095  26.872  25.939  1.00  0.00     0.041 A 
ATOM     88  F   UNL A   1      50.655  26.784  27.785  1.00  0.00    -0.206 F 
ATOM     89  C   UNL A   1      52.317  27.146  24.594  1.00  0.00     0.022 A 
BRANCH  86  90
ATOM     90  S   UNL A   1      51.496  27.907  22.041  1.00  0.00     0.124 S 
ATOM     91  O   UNL A   1      50.771  29.152  21.817  1.00  0.00    -0.237 OA
ATOM     92  O   UNL A   1      52.949  27.978  21.923  1.00  0.00    -0.237 OA
ATOM     93  O   UNL A   1      50.884  26.714  21.458  1.00  0.00    -0.744 OA
ENDBRANCH  86  90
ENDBRANCH  59  83
BRANCH  71  94
ATOM     94  C   UNL A   1      46.656  33.129  28.730  1.00  0.00     0.023 A 
ATOM     95  C   UNL A   1      46.506  34.215  27.850  1.00  0.00     0.031 A 
ATOM     96  C   UNL A   1      47.288  33.362  29.964  1.00  0.00     0.131 A 
ATOM     97  C   UNL A   1      47.032  35.470  28.193  1.00  0.00     0.055 A 
ATOM     98  C   UNL A   1      47.748  34.628  30.329  1.00  0.00     0.041 A 
ATOM     99  F   UNL A   1      47.464  32.361  30.842  1.00  0.00    -0.206 F 
ATOM    100  C   UNL A   1      47.634  35.688  29.435  1.00  0.00     0.022 A 
BRANCH  97 101
ATOM    101  S   UNL A   1      47.010  36.793  26.952  1.00  0.00     0.124 S 
ATOM    102  O   UNL A   1      46.516  36.093  25.771  1.00  0.00    -0.237 OA
ATOM    103  O   UNL A   1      46.098  37.764  27.547  1.00  0.00    -0.237 OA
ATOM    104  O   UNL A   1      48.407  37.220  26.881  1.00  0.00    -0.744 OA
ENDBRANCH  97 101
ENDBRANCH  71  94
ENDBRANCH  45  46
ENDBRANCH  37  40
ENDBRANCH  35  36
ENDBRANCH  34  35
ENDBRANCH  33  34
ENDBRANCH   1  33
TORSDOF 19
ENDMDL
MODEL 2
REMARK VINA RESULT:     -11.9      3.430      8.481
REMARK SMILES C[C@H](C(=O)NCCCCCCNC(=O)c1ccc(-c2c3nc(c(-c4cc(S(=O)(=O)[O-])ccc4F)c4ccc([nH]4)c(-c4cc(S(=O)(=O)[O-])ccc4F)c4nc(c(-c5cc(S(=O)(=O)[O-])ccc5F)c5ccc2[nH]5)C=C4)C=C3)cc1)c1ccc2c3cc(Cl)ccc3n(C(=O)c3ccc(Cl)cc3)c2c1
REMARK SMILES IDX 8 1 7 2 6 3 5 4 3 5 4 6 2 8 1 9 78 10 79 11 100 12 80 13
REMARK SMILES IDX 99 14 81 15 89 16 82 17 88 18 83 19 87 20 84 21 86 22 85 23
REMARK SMILES IDX 90 24 91 25 92 26 93 27 98 28 94 29 97 30 95 31 96 32 9 33
REMARK SMILES IDX 10 34 11 35 12 36 13 37 14 39 15 40 16 41 77 42 17 43 76 44
REMARK SMILES IDX 18 45 19 46 20 47 70 48 21 49 75 50 69 51 71 52 22 53 74 54
REMARK SMILES IDX 68 55 67 56 23 58 55 59 35 60 54 61 36 62 39 63 53 64 72 65
REMARK SMILES IDX 37 66 38 67 52 69 73 70 40 71 24 72 25 73 33 74 26 75 32 76
REMARK SMILES IDX 34 77 31 78 27 79 28 80 29 81 30 82 56 83 57 84 65 85 58 86
REMARK SMILES IDX 64 87 66 88 63 89 59 90 60 91 61 92 62 93 41 94 42 95 50 96
REMARK SMILES IDX 43 97 49 98 51 99 48 100 44 101 45 102 46 103 47 104
REMARK H PARENT 5 7 12 38 71 57 39 68
REMARK Flexibility Score: inf
ROOT
ATOM      1  C   UNL A   1      34.753  22.806  22.940  1.00  0.00     0.002 C 
ENDROOT
BRANCH   1   2
ATOM      2  C   UNL A   1      33.390  23.309  22.450  1.00  0.00     0.021 C 
BRANCH   2   3
ATOM      3  C   UNL A   1      32.326  22.217  22.405  1.00  0.00     0.116 C 
BRANCH   3   4
ATOM      4  N   UNL A   1      32.511  21.284  23.501  1.00  0.00    -0.356 N 
ATOM      5  C   UNL A   1      31.981  21.290  24.754  1.00  0.00     0.227 C 
ATOM      6  O   UNL A   1      32.305  20.374  25.518  1.00  0.00    -0.274 OA
ATOM      7  H   UNL A   1      33.113  20.529  23.307  1.00  0.00     0.163 HD
BRANCH   5   8
ATOM      8  C   UNL A   1      30.994  22.370  25.196  1.00  0.00     0.105 C 
ATOM      9  C   UNL A   1      30.059  21.860  26.305  1.00  0.00     0.023 C 
BRANCH   8  10
ATOM     10  C   UNL A   1      31.615  23.737  25.479  1.00  0.00    -0.034 A 
ATOM     11  C   UNL A   1      32.783  23.907  26.230  1.00  0.00     0.005 A 
ATOM     12  C   UNL A   1      30.999  24.876  24.935  1.00  0.00     0.032 A 
ATOM     13  C   UNL A   1      33.321  25.175  26.465  1.00  0.00     0.011 A 
ATOM     14  C   UNL A   1      31.515  26.161  25.206  1.00  0.00     0.057 A 
ATOM     15  C   UNL A   1      32.685  26.315  25.937  1.00  0.00     0.008 A 
ATOM     16  N   UNL A   1      31.053  27.433  24.832  1.00  0.00    -0.276 N 
ATOM     17  C   UNL A   1      32.969  27.702  26.003  1.00  0.00     0.009 A 
ATOM     18  C   UNL A   1      31.911  28.391  25.393  1.00  0.00     0.057 A 
ATOM     19  C   UNL A   1      34.029  28.418  26.602  1.00  0.00     0.031 A 
ATOM     20  C   UNL A   1      31.829  29.794  25.504  1.00  0.00     0.029 A 
ATOM     21  C   UNL A   1      33.974  29.805  26.649  1.00  0.00     0.041 A 
ATOM     22  C   UNL A   1      32.877  30.483  26.134  1.00  0.00     0.023 A 
ATOM     23  Cl  UNL A   1      35.261  30.676  27.389  1.00  0.00    -0.084 Cl
BRANCH  16  24
ATOM     24  C   UNL A   1      29.865  27.621  24.076  1.00  0.00     0.262 C 
ATOM     25  O   UNL A   1      29.066  26.680  24.096  1.00  0.00    -0.268 OA
BRANCH  24  26
ATOM     26  C   UNL A   1      29.465  28.761  23.197  1.00  0.00     0.040 A 
ATOM     27  C   UNL A   1      28.095  29.098  23.190  1.00  0.00     0.015 A 
ATOM     28  C   UNL A   1      30.310  29.401  22.287  1.00  0.00     0.015 A 
ATOM     29  C   UNL A   1      27.579  30.051  22.310  1.00  0.00     0.021 A 
ATOM     30  C   UNL A   1      29.798  30.384  21.422  1.00  0.00     0.021 A 
ATOM     31  C   UNL A   1      28.437  30.697  21.430  1.00  0.00     0.041 A 
ATOM     32  Cl  UNL A   1      27.809  31.860  20.330  1.00  0.00    -0.084 Cl
ENDBRANCH  24  26
ENDBRANCH  16  24
ENDBRANCH   8  10
ENDBRANCH   5   8
ENDBRANCH   3   4
ENDBRANCH   2   3
ENDBRANCH   1   2
BRANCH   1  33
ATOM     33  C   UNL A   1      35.499  23.778  23.862  1.00  0.00     0.002 C 
BRANCH  33  34
ATOM     34  C   UNL A   1      36.890  23.309  24.291  1.00  0.00     0.021 C 
BRANCH  34  35
ATOM     35  C   UNL A   1      37.025  23.035  25.784  1.00  0.00     0.116 C 
BRANCH  35  36
ATOM     36  N   UNL A   1      38.149  22.162  26.073  1.00  0.00    -0.352 N 
ATOM     37  C   UNL A   1      39.420  22.492  26.478  1.00  0.00     0.251 C 
ATOM     38  H   UNL A   1      37.978  21.199  25.964  1.00  0.00     0.163 HD
ATOM     39  O   UNL A   1      40.307  21.649  26.463  1.00  0.00    -0.269 OA
BRANCH  37  40
ATOM     40  C   UNL A   1      39.705  23.879  26.905  1.00  0.00     0.039 A 
ATOM     41  C   UNL A   1      39.696  24.183  28.267  1.00  0.00     0.014 A 
ATOM     42  C   UNL A   1      39.994  24.871  25.962  1.00  0.00     0.014 A 
ATOM     43  C   UNL A   1      40.034  25.470  28.688  1.00  0.00     0.010 A 
ATOM     44  C   UNL A   1      40.408  26.129  26.387  1.00  0.00     0.010 A 
ATOM     45  C   UNL A   1      40.427  26.444  27.755  1.00  0.00    -0.014 A 
BRANCH  45  46
ATOM     46  C   UNL A   1      40.859  27.798  28.191  1.00  0.00     0.031 A 
ATOM     47  C   UNL A   1      42.316  28.169  28.161  1.00  0.00     0.074 A 
ATOM     48  C   UNL A   1      39.947  28.666  28.672  1.00  0.00     0.049 A 
ATOM     49  N   UNL A   1      42.899  29.267  28.568  1.00  0.00    -0.248 NA
ATOM     50  C   UNL A   1      43.243  27.158  27.632  1.00  0.00     0.031 C 
ATOM     51  C   UNL A   1      38.511  28.401  28.790  1.00  0.00     0.029 A 
ATOM     52  N   UNL A   1      40.090  29.940  29.161  1.00  0.00    -0.354 N 
ATOM     53  C   UNL A   1      44.260  29.075  28.356  1.00  0.00     0.074 A 
ATOM     54  C   UNL A   1      44.417  27.729  27.848  1.00  0.00     0.031 C 
ATOM     55  C   UNL A   1      37.904  29.485  29.296  1.00  0.00     0.029 A 
ATOM     56  C   UNL A   1      38.909  30.502  29.590  1.00  0.00     0.049 A 
ATOM     57  H   UNL A   1      40.955  30.407  29.202  1.00  0.00     0.167 HD
ATOM     58  C   UNL A   1      45.280  29.949  28.545  1.00  0.00     0.034 A 
ATOM     59  C   UNL A   1      38.665  31.693  30.175  1.00  0.00     0.034 A 
ATOM     60  C   UNL A   1      45.100  31.290  29.049  1.00  0.00     0.049 A 
ATOM     61  C   UNL A   1      39.818  32.637  30.408  1.00  0.00     0.074 A 
ATOM     62  C   UNL A   1      46.052  32.279  29.224  1.00  0.00     0.029 A 
ATOM     63  N   UNL A   1      43.890  31.825  29.475  1.00  0.00    -0.354 N 
ATOM     64  N   UNL A   1      41.093  32.464  30.144  1.00  0.00    -0.248 NA
ATOM     65  C   UNL A   1      39.498  33.939  31.005  1.00  0.00     0.031 C 
ATOM     66  C   UNL A   1      45.436  33.377  29.833  1.00  0.00     0.029 A 
ATOM     67  C   UNL A   1      44.080  33.114  29.952  1.00  0.00     0.049 A 
ATOM     68  H   UNL A   1      43.025  31.358  29.444  1.00  0.00     0.167 HD
ATOM     69  C   UNL A   1      41.723  33.649  30.517  1.00  0.00     0.074 A 
ATOM     70  C   UNL A   1      40.684  34.531  31.009  1.00  0.00     0.031 C 
ATOM     71  C   UNL A   1      43.038  33.980  30.455  1.00  0.00     0.034 A 
BRANCH  58  72
ATOM     72  C   UNL A   1      46.679  29.463  28.238  1.00  0.00     0.023 A 
ATOM     73  C   UNL A   1      47.502  28.901  29.231  1.00  0.00     0.031 A 
ATOM     74  C   UNL A   1      47.213  29.595  26.944  1.00  0.00     0.131 A 
ATOM     75  C   UNL A   1      48.836  28.576  28.937  1.00  0.00     0.055 A 
ATOM     76  C   UNL A   1      48.511  29.183  26.635  1.00  0.00     0.041 A 
ATOM     77  F   UNL A   1      46.487  30.145  25.958  1.00  0.00    -0.206 F 
ATOM     78  C   UNL A   1      49.337  28.688  27.639  1.00  0.00     0.022 A 
BRANCH  75  79
ATOM     79  S   UNL A   1      49.950  28.170  30.310  1.00  0.00     0.124 S 
ATOM     80  O   UNL A   1      49.302  26.989  30.876  1.00  0.00    -0.237 OA
ATOM     81  O   UNL A   1      51.218  27.940  29.629  1.00  0.00    -0.237 OA
ATOM     82  O   UNL A   1      49.900  29.362  31.154  1.00  0.00    -0.744 OA
ENDBRANCH  75  79
ENDBRANCH  58  72
BRANCH  59  83
ATOM     83  C   UNL A   1      37.281  32.051  30.602  1.00  0.00     0.023 A 
ATOM     84  C   UNL A   1      36.417  32.761  29.756  1.00  0.00     0.031 A 
ATOM     85  C   UNL A   1      36.815  31.713  31.886  1.00  0.00     0.131 A 
ATOM     86  C   UNL A   1      35.149  33.149  30.217  1.00  0.00     0.055 A 
ATOM     87  C   UNL A   1      35.532  32.050  32.318  1.00  0.00     0.041 A 
ATOM     88  F   UNL A   1      37.600  31.032  32.737  1.00  0.00    -0.206 F 
ATOM     89  C   UNL A   1      34.695  32.784  31.486  1.00  0.00     0.022 A 
BRANCH  86  90
ATOM     90  S   UNL A   1      34.130  34.218  29.162  1.00  0.00     0.124 S 
ATOM     91  O   UNL A   1      33.310  34.912  30.148  1.00  0.00    -0.237 OA
ATOM     92  O   UNL A   1      35.139  35.025  28.484  1.00  0.00    -0.237 OA
ATOM     93  O   UNL A   1      33.415  33.272  28.309  1.00  0.00    -0.744 OA
ENDBRANCH  86  90
ENDBRANCH  59  83
BRANCH  71  94
ATOM     94  C   UNL A   1      43.420  35.376  30.888  1.00  0.00     0.023 A 
ATOM     95  C   UNL A   1      43.438  36.456  29.989  1.00  0.00     0.031 A 
ATOM     96  C   UNL A   1      43.775  35.626  32.226  1.00  0.00     0.131 A 
ATOM     97  C   UNL A   1      43.856  37.722  30.425  1.00  0.00     0.055 A 
ATOM     98  C   UNL A   1      44.124  36.902  32.670  1.00  0.00     0.041 A 
ATOM     99  F   UNL A   1      43.781  34.632  33.129  1.00  0.00    -0.206 F 
ATOM    100  C   UNL A   1      44.180  37.957  31.764  1.00  0.00     0.022 A 
BRANCH  97 101
ATOM    101  S   UNL A   1      44.071  39.041  29.197  1.00  0.00     0.124 S 
ATOM    102  O   UNL A   1      44.786  38.348  28.131  1.00  0.00    -0.237 OA
ATOM    103  O   UNL A   1      42.692  39.418  28.901  1.00  0.00    -0.237 OA
ATOM    104  O   UNL A   1      44.848  40.052  29.912  1.00  0.00    -0.744 OA
ENDBRANCH  97 101
ENDBRANCH  71  94
ENDBRANCH  45  46
ENDBRANCH  37  40
ENDBRANCH  35  36
ENDBRANCH  34  35
ENDBRANCH  33  34
ENDBRANCH   1  33
TORSDOF 19
ENDMDL
MODEL 3
REMARK VINA RESULT:     -11.7      2.435      8.217
REMARK SMILES C[C@H](C(=O)NCCCCCCNC(=O)c1ccc(-c2c3nc(c(-c4cc(S(=O)(=O)[O-])ccc4F)c4ccc([nH]4)c(-c4cc(S(=O)(=O)[O-])ccc4F)c4nc(c(-c5cc(S(=O)(=O)[O-])ccc5F)c5ccc2[nH]5)C=C4)C=C3)cc1)c1ccc2c3cc(Cl)ccc3n(C(=O)c3ccc(Cl)cc3)c2c1
REMARK SMILES IDX 8 1 7 2 6 3 5 4 3 5 4 6 2 8 1 9 78 10 79 11 100 12 80 13
REMARK SMILES IDX 99 14 81 15 89 16 82 17 88 18 83 19 87 20 84 21 86 22 85 23
REMARK SMILES IDX 90 24 91 25 92 26 93 27 98 28 94 29 97 30 95 31 96 32 9 33
REMARK SMILES IDX 10 34 11 35 12 36 13 37 14 39 15 40 16 41 77 42 17 43 76 44
REMARK SMILES IDX 18 45 19 46 20 47 70 48 21 49 75 50 69 51 71 52 22 53 74 54
REMARK SMILES IDX 68 55 67 56 23 58 55 59 35 60 54 61 36 62 39 63 53 64 72 65
REMARK SMILES IDX 37 66 38 67 52 69 73 70 40 71 24 72 25 73 33 74 26 75 32 76
REMARK SMILES IDX 34 77 31 78 27 79 28 80 29 81 30 82 56 83 57 84 65 85 58 86
REMARK SMILES IDX 64 87 66 88 63 89 59 90 60 91 61 92 62 93 41 94 42 95 50 96
REMARK SMILES IDX 43 97 49 98 51 99 48 100 44 101 45 102 46 103 47 104
REMARK H PARENT 5 7 12 38 71 57 39 68
REMARK Flexibility Score: inf
ROOT
ATOM      1  C   UNL A   1      34.944  23.155  22.521  1.00  0.00     0.002 C 
ENDROOT
BRANCH   1   2
ATOM      2  C   UNL A   1      33.445  23.457  22.404  1.00  0.00     0.021 C 
BRANCH   2   3
ATOM      3  C   UNL A   1      32.577  22.203  22.403  1.00  0.00     0.116 C 
BRANCH   3   4
ATOM      4  N   UNL A   1      32.864  21.385  23.566  1.00  0.00    -0.356 N 
ATOM      5  C   UNL A   1      32.340  21.434  24.821  1.00  0.00     0.227 C 
ATOM      6  O   UNL A   1      32.763  20.623  25.650  1.00  0.00    -0.274 OA
ATOM      7  H   UNL A   1      33.544  20.687  23.426  1.00  0.00     0.163 HD
BRANCH   5   8
ATOM      8  C   UNL A   1      31.243  22.433  25.187  1.00  0.00     0.105 C 
ATOM      9  C   UNL A   1      30.300  21.866  26.262  1.00  0.00     0.023 C 
BRANCH   8  10
ATOM     10  C   UNL A   1      31.728  23.855  25.465  1.00  0.00    -0.034 A 
ATOM     11  C   UNL A   1      32.875  24.139  26.215  1.00  0.00     0.005 A 
ATOM     12  C   UNL A   1      31.005  24.927  24.918  1.00  0.00     0.032 A 
ATOM     13  C   UNL A   1      33.289  25.454  26.445  1.00  0.00     0.011 A 
ATOM     14  C   UNL A   1      31.395  26.256  25.185  1.00  0.00     0.057 A 
ATOM     15  C   UNL A   1      32.545  26.526  25.914  1.00  0.00     0.008 A 
ATOM     16  N   UNL A   1      30.811  27.477  24.807  1.00  0.00    -0.276 N 
ATOM     17  C   UNL A   1      32.693  27.934  25.975  1.00  0.00     0.009 A 
ATOM     18  C   UNL A   1      31.573  28.515  25.364  1.00  0.00     0.057 A 
ATOM     19  C   UNL A   1      33.679  28.751  26.570  1.00  0.00     0.031 A 
ATOM     20  C   UNL A   1      31.356  29.904  25.470  1.00  0.00     0.029 A 
ATOM     21  C   UNL A   1      33.490  30.126  26.613  1.00  0.00     0.041 A 
ATOM     22  C   UNL A   1      32.332  30.694  26.097  1.00  0.00     0.023 A 
ATOM     23  Cl  UNL A   1      34.688  31.120  27.349  1.00  0.00    -0.084 Cl
BRANCH  16  24
ATOM     24  C   UNL A   1      29.610  27.546  24.052  1.00  0.00     0.262 C 
ATOM     25  O   UNL A   1      28.859  26.572  24.153  1.00  0.00    -0.268 OA
BRANCH  24  26
ATOM     26  C   UNL A   1      29.147  28.593  23.091  1.00  0.00     0.040 A 
ATOM     27  C   UNL A   1      30.152  29.264  22.362  1.00  0.00     0.015 A 
ATOM     28  C   UNL A   1      27.831  29.050  22.981  1.00  0.00     0.015 A 
ATOM     29  C   UNL A   1      29.858  30.351  21.538  1.00  0.00     0.021 A 
ATOM     30  C   UNL A   1      27.529  30.125  22.127  1.00  0.00     0.021 A 
ATOM     31  C   UNL A   1      28.541  30.776  21.419  1.00  0.00     0.041 A 
ATOM     32  Cl  UNL A   1      28.170  32.125  20.421  1.00  0.00    -0.084 Cl
ENDBRANCH  24  26
ENDBRANCH  16  24
ENDBRANCH   8  10
ENDBRANCH   5   8
ENDBRANCH   3   4
ENDBRANCH   2   3
ENDBRANCH   1   2
BRANCH   1  33
ATOM     33  C   UNL A   1      35.553  23.467  23.894  1.00  0.00     0.002 C 
BRANCH  33  34
ATOM     34  C   UNL A   1      36.808  22.660  24.231  1.00  0.00     0.021 C 
BRANCH  34  35
ATOM     35  C   UNL A   1      36.973  22.351  25.714  1.00  0.00     0.116 C 
BRANCH  35  36
ATOM     36  N   UNL A   1      37.994  21.345  25.946  1.00  0.00    -0.352 N 
ATOM     37  C   UNL A   1      39.305  21.512  26.320  1.00  0.00     0.251 C 
ATOM     38  H   UNL A   1      37.708  20.412  25.816  1.00  0.00     0.163 HD
ATOM     39  O   UNL A   1      40.086  20.572  26.255  1.00  0.00    -0.269 OA
BRANCH  37  40
ATOM     40  C   UNL A   1      39.763  22.843  26.775  1.00  0.00     0.039 A 
ATOM     41  C   UNL A   1      40.741  22.919  27.768  1.00  0.00     0.014 A 
ATOM     42  C   UNL A   1      39.238  24.010  26.210  1.00  0.00     0.014 A 
ATOM     43  C   UNL A   1      41.233  24.166  28.155  1.00  0.00     0.010 A 
ATOM     44  C   UNL A   1      39.786  25.244  26.540  1.00  0.00     0.010 A 
ATOM     45  C   UNL A   1      40.787  25.337  27.520  1.00  0.00    -0.014 A 
BRANCH  45  46
ATOM     46  C   UNL A   1      41.353  26.666  27.870  1.00  0.00     0.031 A 
ATOM     47  C   UNL A   1      42.777  26.994  27.515  1.00  0.00     0.074 A 
ATOM     48  C   UNL A   1      40.604  27.549  28.560  1.00  0.00     0.049 A 
ATOM     49  N   UNL A   1      43.475  28.064  27.798  1.00  0.00    -0.248 NA
ATOM     50  C   UNL A   1      43.524  25.969  26.772  1.00  0.00     0.031 C 
ATOM     51  C   UNL A   1      39.225  27.323  28.998  1.00  0.00     0.029 A 
ATOM     52  N   UNL A   1      40.899  28.805  29.026  1.00  0.00    -0.354 N 
ATOM     53  C   UNL A   1      44.745  27.837  27.278  1.00  0.00     0.074 A 
ATOM     54  C   UNL A   1      44.736  26.499  26.725  1.00  0.00     0.031 C 
ATOM     55  C   UNL A   1      38.786  28.413  29.647  1.00  0.00     0.029 A 
ATOM     56  C   UNL A   1      39.867  29.392  29.723  1.00  0.00     0.049 A 
ATOM     57  H   UNL A   1      41.766  29.245  28.877  1.00  0.00     0.167 HD
ATOM     58  C   UNL A   1      45.811  28.675  27.245  1.00  0.00     0.034 A 
ATOM     59  C   UNL A   1      39.802  30.574  30.367  1.00  0.00     0.034 A 
ATOM     60  C   UNL A   1      45.796  30.008  27.800  1.00  0.00     0.049 A 
ATOM     61  C   UNL A   1      41.010  31.478  30.348  1.00  0.00     0.074 A 
ATOM     62  C   UNL A   1      46.797  30.963  27.771  1.00  0.00     0.029 A 
ATOM     63  N   UNL A   1      44.734  30.568  28.500  1.00  0.00    -0.354 N 
ATOM     64  N   UNL A   1      42.186  31.273  29.798  1.00  0.00    -0.248 NA
ATOM     65  C   UNL A   1      40.879  32.773  31.025  1.00  0.00     0.031 C 
ATOM     66  C   UNL A   1      46.374  32.064  28.523  1.00  0.00     0.029 A 
ATOM     67  C   UNL A   1      45.072  31.839  28.943  1.00  0.00     0.049 A 
ATOM     68  H   UNL A   1      43.868  30.128  28.658  1.00  0.00     0.167 HD
ATOM     69  C   UNL A   1      42.924  32.430  30.039  1.00  0.00     0.074 A 
ATOM     70  C   UNL A   1      42.055  33.330  30.769  1.00  0.00     0.031 C 
ATOM     71  C   UNL A   1      44.201  32.723  29.685  1.00  0.00     0.034 A 
BRANCH  58  72
ATOM     72  C   UNL A   1      47.086  28.156  26.620  1.00  0.00     0.023 A 
ATOM     73  C   UNL A   1      47.313  28.223  25.233  1.00  0.00     0.031 A 
ATOM     74  C   UNL A   1      48.077  27.553  27.416  1.00  0.00     0.131 A 
ATOM     75  C   UNL A   1      48.452  27.620  24.677  1.00  0.00     0.055 A 
ATOM     76  C   UNL A   1      49.252  27.037  26.866  1.00  0.00     0.041 A 
ATOM     77  F   UNL A   1      47.911  27.436  28.742  1.00  0.00    -0.206 F 
ATOM     78  C   UNL A   1      49.437  27.052  25.488  1.00  0.00     0.022 A 
BRANCH  75  79
ATOM     79  S   UNL A   1      48.541  27.439  22.875  1.00  0.00     0.124 S 
ATOM     80  O   UNL A   1      49.819  28.081  22.576  1.00  0.00    -0.237 OA
ATOM     81  O   UNL A   1      48.498  25.991  22.701  1.00  0.00    -0.237 OA
ATOM     82  O   UNL A   1      47.363  28.162  22.399  1.00  0.00    -0.744 OA
ENDBRANCH  75  79
ENDBRANCH  58  72
BRANCH  59  83
ATOM     83  C   UNL A   1      38.565  30.963  31.105  1.00  0.00     0.023 A 
ATOM     84  C   UNL A   1      37.611  31.816  30.530  1.00  0.00     0.031 A 
ATOM     85  C   UNL A   1      38.336  30.508  32.417  1.00  0.00     0.131 A 
ATOM     86  C   UNL A   1      36.496  32.223  31.279  1.00  0.00     0.055 A 
ATOM     87  C   UNL A   1      37.197  30.869  33.136  1.00  0.00     0.041 A 
ATOM     88  F   UNL A   1      39.216  29.688  33.015  1.00  0.00    -0.206 F 
ATOM     89  C   UNL A   1      36.274  31.743  32.571  1.00  0.00     0.022 A 
BRANCH  86  90
ATOM     90  S   UNL A   1      35.380  33.466  30.571  1.00  0.00     0.124 S 
ATOM     91  O   UNL A   1      34.141  32.708  30.433  1.00  0.00    -0.237 OA
ATOM     92  O   UNL A   1      35.389  34.503  31.598  1.00  0.00    -0.237 OA
ATOM     93  O   UNL A   1      36.031  33.831  29.314  1.00  0.00    -0.744 OA
ENDBRANCH  86  90
ENDBRANCH  59  83
BRANCH  71  94
ATOM     94  C   UNL A   1      44.720  34.096  30.044  1.00  0.00     0.023 A 
ATOM     95  C   UNL A   1      44.611  35.186  29.163  1.00  0.00     0.031 A 
ATOM     96  C   UNL A   1      45.336  34.312  31.290  1.00  0.00     0.131 A 
ATOM     97  C   UNL A   1      45.160  36.428  29.517  1.00  0.00     0.055 A 
ATOM     98  C   UNL A   1      45.819  35.567  31.664  1.00  0.00     0.041 A 
ATOM     99  F   UNL A   1      45.473  33.307  32.169  1.00  0.00    -0.206 F 
ATOM    100  C   UNL A   1      45.745  36.631  30.770  1.00  0.00     0.022 A 
BRANCH  97 101
ATOM    101  S   UNL A   1      45.191  37.753  28.279  1.00  0.00     0.124 S 
ATOM    102  O   UNL A   1      46.363  37.397  27.485  1.00  0.00    -0.237 OA
ATOM    103  O   UNL A   1      43.900  37.593  27.618  1.00  0.00    -0.237 OA
ATOM    104  O   UNL A   1      45.330  38.968  29.079  1.00  0.00    -0.744 OA
ENDBRANCH  97 101
ENDBRANCH  71  94
ENDBRANCH  45  46
ENDBRANCH  37  40
ENDBRANCH  35  36
ENDBRANCH  34  35
ENDBRANCH  33  34
ENDBRANCH   1  33
TORSDOF 19
ENDMDL
