MODEL 1
REMARK VINA RESULT:     -11.9      0.000      0.000
REMARK SMILES CC(C)c1cc2c(cc1Cl)C=C(C(=O)NCCCCCCNC(=O)c1ccc(-c3c4nc(c(-c5cc(S(=O)(=O)[O-])ccc5F)c5ccc([nH]5)c(-c5cc(S(=O)(=O)[O-])ccc5F)c5nc(c(-c6cc(S(=O)(=O)[O-])ccc6F)c6ccc3[nH]6)C=C5)C=C4)cc1)[C@@H](C(F)(F)F)O2
REMARK SMILES IDX 19 1 18 2 17 3 16 4 15 5 13 6 14 7 12 9 4 10 5 11 9 12 6 13
REMARK SMILES IDX 8 14 10 15 7 16 93 17 11 18 88 19 2 20 1 21 3 22 89 23 90 24
REMARK SMILES IDX 91 25 92 26 20 27 21 28 22 29 23 30 24 32 25 33 26 34 87 35
REMARK SMILES IDX 27 36 86 37 28 38 29 39 30 40 80 41 31 42 85 43 79 44 81 45
REMARK SMILES IDX 32 46 84 47 78 48 77 49 33 51 65 52 45 53 64 54 46 55 49 56
REMARK SMILES IDX 63 57 82 58 47 59 48 60 62 62 83 63 50 64 34 65 35 66 43 67
REMARK SMILES IDX 36 68 42 69 44 70 41 71 37 72 38 73 39 74 40 75 66 76 67 77
REMARK SMILES IDX 75 78 68 79 74 80 76 81 73 82 69 83 70 84 71 85 72 86 51 87
REMARK SMILES IDX 52 88 60 89 53 90 59 91 61 92 58 93 54 94 55 95 56 96 57 97
REMARK H PARENT 15 8 22 31 81 50 49 61
REMARK Flexibility Score: inf
ROOT
ATOM      1  C   UNL A   1      32.489  26.742  26.390  1.00  0.00     0.002 C 
ENDROOT
BRANCH   1   2
ATOM      2  C   UNL A   1      33.946  26.613  25.929  1.00  0.00     0.002 C 
BRANCH   2   3
ATOM      3  C   UNL A   1      34.445  25.183  25.697  1.00  0.00     0.021 C 
BRANCH   3   4
ATOM      4  C   UNL A   1      33.452  24.099  26.109  1.00  0.00     0.116 C 
BRANCH   4   5
ATOM      5  N   UNL A   1      32.929  23.378  24.960  1.00  0.00    -0.352 N 
ATOM      6  C   UNL A   1      32.206  23.663  23.851  1.00  0.00     0.251 C 
ATOM      7  O   UNL A   1      32.010  22.704  23.095  1.00  0.00    -0.270 OA
ATOM      8  H   UNL A   1      33.164  22.423  24.998  1.00  0.00     0.163 HD
BRANCH   6   9
ATOM      9  C   UNL A   1      31.650  25.004  23.495  1.00  0.00     0.067 C 
ATOM     10  C   UNL A   1      28.614  29.027  22.954  1.00  0.00    -0.023 A 
ATOM     11  C   UNL A   1      29.990  28.783  22.790  1.00  0.00     0.052 A 
ATOM     12  C   UNL A   1      27.817  27.966  23.421  1.00  0.00     0.045 A 
ATOM     13  C   UNL A   1      30.537  27.531  23.058  1.00  0.00     0.128 A 
ATOM     14  C   UNL A   1      28.378  26.710  23.702  1.00  0.00     0.032 A 
ATOM     15  Cl  UNL A   1      26.117  28.138  23.695  1.00  0.00    -0.084 Cl
ATOM     16  C   UNL A   1      29.743  26.489  23.521  1.00  0.00     0.019 A 
ATOM     17  O   UNL A   1      31.883  27.417  22.888  1.00  0.00    -0.475 OA
ATOM     18  C   UNL A   1      30.367  25.213  23.848  1.00  0.00     0.025 C 
ATOM     19  C   UNL A   1      32.411  26.071  22.756  1.00  0.00     0.314 C 
BRANCH  10  20
ATOM     20  C   UNL A   1      28.072  30.418  22.653  1.00  0.00     0.014 C 
ATOM     21  C   UNL A   1      28.784  31.471  23.507  1.00  0.00     0.012 C 
ATOM     22  C   UNL A   1      28.179  30.766  21.162  1.00  0.00     0.012 C 
ENDBRANCH  10  20
BRANCH  19  23
ATOM     23  C   UNL A   1      32.583  25.743  21.262  1.00  0.00     0.429 C 
ATOM     24  F   UNL A   1      31.378  25.661  20.648  1.00  0.00    -0.167 F 
ATOM     25  F   UNL A   1      33.288  26.692  20.601  1.00  0.00    -0.167 F 
ATOM     26  F   UNL A   1      33.224  24.568  21.062  1.00  0.00    -0.167 F 
ENDBRANCH  19  23
ENDBRANCH   6   9
ENDBRANCH   4   5
ENDBRANCH   3   4
ENDBRANCH   2   3
ENDBRANCH   1   2
BRANCH   1  27
ATOM     27  C   UNL A   1      31.907  28.158  26.374  1.00  0.00     0.021 C 
BRANCH  27  28
ATOM     28  C   UNL A   1      32.826  29.228  25.797  1.00  0.00     0.116 C 
BRANCH  28  29
ATOM     29  N   UNL A   1      32.440  30.571  26.197  1.00  0.00    -0.352 N 
ATOM     30  C   UNL A   1      33.066  31.427  27.072  1.00  0.00     0.251 C 
ATOM     31  H   UNL A   1      31.615  30.915  25.785  1.00  0.00     0.163 HD
ATOM     32  O   UNL A   1      32.515  32.469  27.411  1.00  0.00    -0.269 OA
BRANCH  30  33
ATOM     33  C   UNL A   1      34.390  31.065  27.625  1.00  0.00     0.039 A 
ATOM     34  C   UNL A   1      34.667  29.748  28.004  1.00  0.00     0.014 A 
ATOM     35  C   UNL A   1      35.356  32.061  27.792  1.00  0.00     0.014 A 
ATOM     36  C   UNL A   1      35.843  29.462  28.689  1.00  0.00     0.010 A 
ATOM     37  C   UNL A   1      36.571  31.753  28.412  1.00  0.00     0.010 A 
ATOM     38  C   UNL A   1      36.806  30.461  28.907  1.00  0.00    -0.014 A 
BRANCH  38  39
ATOM     39  C   UNL A   1      38.056  30.127  29.639  1.00  0.00     0.031 A 
ATOM     40  C   UNL A   1      38.300  30.647  31.029  1.00  0.00     0.074 A 
ATOM     41  C   UNL A   1      38.951  29.303  29.060  1.00  0.00     0.049 A 
ATOM     42  N   UNL A   1      39.314  30.423  31.825  1.00  0.00    -0.248 NA
ATOM     43  C   UNL A   1      37.277  31.537  31.602  1.00  0.00     0.031 C 
ATOM     44  C   UNL A   1      38.814  28.738  27.717  1.00  0.00     0.029 A 
ATOM     45  N   UNL A   1      40.133  28.780  29.522  1.00  0.00    -0.354 N 
ATOM     46  C   UNL A   1      39.061  31.146  32.984  1.00  0.00     0.074 A 
ATOM     47  C   UNL A   1      37.813  31.848  32.776  1.00  0.00     0.031 C 
ATOM     48  C   UNL A   1      39.839  27.907  27.485  1.00  0.00     0.029 A 
ATOM     49  C   UNL A   1      40.744  27.930  28.631  1.00  0.00     0.049 A 
ATOM     50  H   UNL A   1      40.506  28.993  30.408  1.00  0.00     0.167 HD
ATOM     51  C   UNL A   1      39.794  31.205  34.121  1.00  0.00     0.034 A 
ATOM     52  C   UNL A   1      41.908  27.251  28.715  1.00  0.00     0.034 A 
ATOM     53  C   UNL A   1      41.028  30.488  34.318  1.00  0.00     0.049 A 
ATOM     54  C   UNL A   1      42.718  27.356  29.980  1.00  0.00     0.074 A 
ATOM     55  C   UNL A   1      41.835  30.469  35.443  1.00  0.00     0.029 A 
ATOM     56  N   UNL A   1      41.634  29.664  33.381  1.00  0.00    -0.354 N 
ATOM     57  N   UNL A   1      42.441  28.013  31.082  1.00  0.00    -0.248 NA
ATOM     58  C   UNL A   1      43.995  26.631  30.020  1.00  0.00     0.031 C 
ATOM     59  C   UNL A   1      42.951  29.679  35.168  1.00  0.00     0.029 A 
ATOM     60  C   UNL A   1      42.814  29.149  33.894  1.00  0.00     0.049 A 
ATOM     61  H   UNL A   1      41.278  29.472  32.483  1.00  0.00     0.167 HD
ATOM     62  C   UNL A   1      43.502  27.772  31.949  1.00  0.00     0.074 A 
ATOM     63  C   UNL A   1      44.411  26.881  31.256  1.00  0.00     0.031 C 
ATOM     64  C   UNL A   1      43.708  28.253  33.201  1.00  0.00     0.034 A 
BRANCH  51  65
ATOM     65  C   UNL A   1      39.292  32.054  35.263  1.00  0.00     0.023 A 
ATOM     66  C   UNL A   1      39.727  33.385  35.399  1.00  0.00     0.031 A 
ATOM     67  C   UNL A   1      38.492  31.508  36.284  1.00  0.00     0.131 A 
ATOM     68  C   UNL A   1      39.389  34.115  36.545  1.00  0.00     0.055 A 
ATOM     69  C   UNL A   1      38.126  32.251  37.406  1.00  0.00     0.041 A 
ATOM     70  F   UNL A   1      38.050  30.242  36.199  1.00  0.00    -0.206 F 
ATOM     71  C   UNL A   1      38.586  33.557  37.546  1.00  0.00     0.022 A 
BRANCH  68  72
ATOM     72  S   UNL A   1      40.022  35.794  36.813  1.00  0.00     0.124 S 
ATOM     73  O   UNL A   1      39.610  36.469  35.585  1.00  0.00    -0.237 OA
ATOM     74  O   UNL A   1      39.306  36.201  38.020  1.00  0.00    -0.237 OA
ATOM     75  O   UNL A   1      41.460  35.605  36.966  1.00  0.00    -0.744 OA
ENDBRANCH  68  72
ENDBRANCH  51  65
BRANCH  52  76
ATOM     76  C   UNL A   1      42.324  26.386  27.573  1.00  0.00     0.023 A 
ATOM     77  C   UNL A   1      41.807  25.086  27.427  1.00  0.00     0.031 A 
ATOM     78  C   UNL A   1      43.334  26.799  26.688  1.00  0.00     0.131 A 
ATOM     79  C   UNL A   1      42.358  24.218  26.475  1.00  0.00     0.055 A 
ATOM     80  C   UNL A   1      43.828  25.956  25.690  1.00  0.00     0.041 A 
ATOM     81  F   UNL A   1      43.868  28.025  26.795  1.00  0.00    -0.206 F 
ATOM     82  C   UNL A   1      43.355  24.651  25.595  1.00  0.00     0.022 A 
BRANCH  79  83
ATOM     83  S   UNL A   1      41.914  22.458  26.456  1.00  0.00     0.124 S 
ATOM     84  O   UNL A   1      42.628  21.978  25.277  1.00  0.00    -0.237 OA
ATOM     85  O   UNL A   1      42.437  22.004  27.742  1.00  0.00    -0.237 OA
ATOM     86  O   UNL A   1      40.458  22.473  26.351  1.00  0.00    -0.744 OA
ENDBRANCH  79  83
ENDBRANCH  52  76
BRANCH  64  87
ATOM     87  C   UNL A   1      44.966  27.847  33.930  1.00  0.00     0.023 A 
ATOM     88  C   UNL A   1      44.956  26.727  34.783  1.00  0.00     0.031 A 
ATOM     89  C   UNL A   1      46.116  28.654  33.904  1.00  0.00     0.131 A 
ATOM     90  C   UNL A   1      46.059  26.468  35.605  1.00  0.00     0.055 A 
ATOM     91  C   UNL A   1      47.230  28.365  34.691  1.00  0.00     0.041 A 
ATOM     92  F   UNL A   1      46.170  29.738  33.114  1.00  0.00    -0.206 F 
ATOM     93  C   UNL A   1      47.199  27.276  35.559  1.00  0.00     0.022 A 
BRANCH  90  94
ATOM     94  S   UNL A   1      46.023  25.126  36.826  1.00  0.00     0.124 S 
ATOM     95  O   UNL A   1      46.807  25.693  37.920  1.00  0.00    -0.237 OA
ATOM     96  O   UNL A   1      44.593  24.990  37.090  1.00  0.00    -0.237 OA
ATOM     97  O   UNL A   1      46.643  24.002  36.133  1.00  0.00    -0.744 OA
ENDBRANCH  90  94
ENDBRANCH  64  87
ENDBRANCH  38  39
ENDBRANCH  30  33
ENDBRANCH  28  29
ENDBRANCH  27  28
ENDBRANCH   1  27
TORSDOF 18
ENDMDL
MODEL 2
REMARK VINA RESULT:     -11.6      1.947      2.281
REMARK SMILES CC(C)c1cc2c(cc1Cl)C=C(C(=O)NCCCCCCNC(=O)c1ccc(-c3c4nc(c(-c5cc(S(=O)(=O)[O-])ccc5F)c5ccc([nH]5)c(-c5cc(S(=O)(=O)[O-])ccc5F)c5nc(c(-c6cc(S(=O)(=O)[O-])ccc6F)c6ccc3[nH]6)C=C5)C=C4)cc1)[C@@H](C(F)(F)F)O2
REMARK SMILES IDX 19 1 18 2 17 3 16 4 15 5 13 6 14 7 12 9 4 10 5 11 9 12 6 13
REMARK SMILES IDX 8 14 10 15 7 16 93 17 11 18 88 19 2 20 1 21 3 22 89 23 90 24
REMARK SMILES IDX 91 25 92 26 20 27 21 28 22 29 23 30 24 32 25 33 26 34 87 35
REMARK SMILES IDX 27 36 86 37 28 38 29 39 30 40 80 41 31 42 85 43 79 44 81 45
REMARK SMILES IDX 32 46 84 47 78 48 77 49 33 51 65 52 45 53 64 54 46 55 49 56
REMARK SMILES IDX 63 57 82 58 47 59 48 60 62 62 83 63 50 64 34 65 35 66 43 67
REMARK SMILES IDX 36 68 42 69 44 70 41 71 37 72 38 73 39 74 40 75 66 76 67 77
REMARK SMILES IDX 75 78 68 79 74 80 76 81 73 82 69 83 70 84 71 85 72 86 51 87
REMARK SMILES IDX 52 88 60 89 53 90 59 91 61 92 58 93 54 94 55 95 56 96 57 97
REMARK H PARENT 15 8 22 31 81 50 49 61
REMARK Flexibility Score: inf
ROOT
ATOM      1  C   UNL A   1      32.366  26.704  26.491  1.00  0.00     0.002 C 
ENDROOT
BRANCH   1   2
ATOM      2  C   UNL A   1      33.808  26.441  26.039  1.00  0.00     0.002 C 
BRANCH   2   3
ATOM      3  C   UNL A   1      34.191  24.968  25.864  1.00  0.00     0.021 C 
BRANCH   3   4
ATOM      4  C   UNL A   1      33.082  23.985  26.231  1.00  0.00     0.116 C 
BRANCH   4   5
ATOM      5  N   UNL A   1      32.543  23.314  25.060  1.00  0.00    -0.352 N 
ATOM      6  C   UNL A   1      31.934  23.666  23.903  1.00  0.00     0.251 C 
ATOM      7  O   UNL A   1      31.663  22.725  23.148  1.00  0.00    -0.270 OA
ATOM      8  H   UNL A   1      32.650  22.338  25.125  1.00  0.00     0.163 HD
BRANCH   6   9
ATOM      9  C   UNL A   1      31.579  25.060  23.496  1.00  0.00     0.067 C 
ATOM     10  C   UNL A   1      29.133  29.432  22.721  1.00  0.00    -0.023 A 
ATOM     11  C   UNL A   1      30.471  29.006  22.639  1.00  0.00     0.052 A 
ATOM     12  C   UNL A   1      28.178  28.494  23.158  1.00  0.00     0.045 A 
ATOM     13  C   UNL A   1      30.833  27.700  22.957  1.00  0.00     0.128 A 
ATOM     14  C   UNL A   1      28.553  27.182  23.489  1.00  0.00     0.032 A 
ATOM     15  Cl  UNL A   1      26.504  28.892  23.332  1.00  0.00    -0.084 Cl
ATOM     16  C   UNL A   1      29.886  26.781  23.390  1.00  0.00     0.019 A 
ATOM     17  O   UNL A   1      32.161  27.408  22.866  1.00  0.00    -0.475 OA
ATOM     18  C   UNL A   1      30.317  25.443  23.772  1.00  0.00     0.025 C 
ATOM     19  C   UNL A   1      32.513  26.001  22.785  1.00  0.00     0.314 C 
BRANCH  10  20
ATOM     20  C   UNL A   1      28.796  30.874  22.368  1.00  0.00     0.014 C 
ATOM     21  C   UNL A   1      27.969  30.936  21.081  1.00  0.00     0.012 C 
ATOM     22  C   UNL A   1      28.070  31.591  23.514  1.00  0.00     0.012 C 
ENDBRANCH  10  20
BRANCH  19  23
ATOM     23  C   UNL A   1      32.721  25.620  21.308  1.00  0.00     0.429 C 
ATOM     24  F   UNL A   1      33.546  26.505  20.698  1.00  0.00    -0.167 F 
ATOM     25  F   UNL A   1      33.291  24.400  21.164  1.00  0.00    -0.167 F 
ATOM     26  F   UNL A   1      31.561  25.596  20.613  1.00  0.00    -0.167 F 
ENDBRANCH  19  23
ENDBRANCH   6   9
ENDBRANCH   4   5
ENDBRANCH   3   4
ENDBRANCH   2   3
ENDBRANCH   1   2
BRANCH   1  27
ATOM     27  C   UNL A   1      31.976  28.176  26.653  1.00  0.00     0.021 C 
BRANCH  27  28
ATOM     28  C   UNL A   1      32.996  29.177  26.124  1.00  0.00     0.116 C 
BRANCH  28  29
ATOM     29  N   UNL A   1      32.691  30.543  26.514  1.00  0.00    -0.352 N 
ATOM     30  C   UNL A   1      33.410  31.394  27.321  1.00  0.00     0.251 C 
ATOM     31  H   UNL A   1      31.852  30.910  26.152  1.00  0.00     0.163 HD
ATOM     32  O   UNL A   1      32.924  32.465  27.669  1.00  0.00    -0.269 OA
BRANCH  30  33
ATOM     33  C   UNL A   1      34.754  30.992  27.790  1.00  0.00     0.039 A 
ATOM     34  C   UNL A   1      34.987  29.695  28.256  1.00  0.00     0.014 A 
ATOM     35  C   UNL A   1      35.788  31.933  27.788  1.00  0.00     0.014 A 
ATOM     36  C   UNL A   1      36.201  29.389  28.862  1.00  0.00     0.010 A 
ATOM     37  C   UNL A   1      37.033  31.597  28.327  1.00  0.00     0.010 A 
ATOM     38  C   UNL A   1      37.236  30.337  28.911  1.00  0.00    -0.014 A 
BRANCH  38  39
ATOM     39  C   UNL A   1      38.525  29.982  29.562  1.00  0.00     0.031 A 
ATOM     40  C   UNL A   1      38.882  30.528  30.916  1.00  0.00     0.074 A 
ATOM     41  C   UNL A   1      39.352  29.117  28.942  1.00  0.00     0.049 A 
ATOM     42  N   UNL A   1      39.944  30.291  31.644  1.00  0.00    -0.248 NA
ATOM     43  C   UNL A   1      37.930  31.463  31.536  1.00  0.00     0.031 C 
ATOM     44  C   UNL A   1      39.102  28.523  27.628  1.00  0.00     0.029 A 
ATOM     45  N   UNL A   1      40.547  28.568  29.334  1.00  0.00    -0.354 N 
ATOM     46  C   UNL A   1      39.796  31.051  32.798  1.00  0.00     0.074 A 
ATOM     47  C   UNL A   1      38.558  31.786  32.660  1.00  0.00     0.031 C 
ATOM     48  C   UNL A   1      40.083  27.655  27.346  1.00  0.00     0.029 A 
ATOM     49  C   UNL A   1      41.068  27.677  28.424  1.00  0.00     0.049 A 
ATOM     50  H   UNL A   1      40.989  28.791  30.185  1.00  0.00     0.167 HD
ATOM     51  C   UNL A   1      40.610  31.114  33.879  1.00  0.00     0.034 A 
ATOM     52  C   UNL A   1      42.214  26.965  28.444  1.00  0.00     0.034 A 
ATOM     53  C   UNL A   1      41.833  30.364  34.007  1.00  0.00     0.049 A 
ATOM     54  C   UNL A   1      43.115  27.075  29.645  1.00  0.00     0.074 A 
ATOM     55  C   UNL A   1      42.718  30.348  35.072  1.00  0.00     0.029 A 
ATOM     56  N   UNL A   1      42.346  29.499  33.051  1.00  0.00    -0.354 N 
ATOM     57  N   UNL A   1      42.938  27.768  30.746  1.00  0.00    -0.248 NA
ATOM     58  C   UNL A   1      44.370  26.312  29.614  1.00  0.00     0.031 C 
ATOM     59  C   UNL A   1      43.787  29.516  34.740  1.00  0.00     0.029 A 
ATOM     60  C   UNL A   1      43.544  28.961  33.494  1.00  0.00     0.049 A 
ATOM     61  H   UNL A   1      41.922  29.297  32.186  1.00  0.00     0.167 HD
ATOM     62  C   UNL A   1      44.050  27.515  31.543  1.00  0.00     0.074 A 
ATOM     63  C   UNL A   1      44.880  26.580  30.811  1.00  0.00     0.031 C 
ATOM     64  C   UNL A   1      44.359  28.020  32.763  1.00  0.00     0.034 A 
BRANCH  51  65
ATOM     65  C   UNL A   1      40.216  32.007  35.031  1.00  0.00     0.023 A 
ATOM     66  C   UNL A   1      39.317  31.543  36.009  1.00  0.00     0.031 A 
ATOM     67  C   UNL A   1      40.626  33.351  35.086  1.00  0.00     0.131 A 
ATOM     68  C   UNL A   1      38.831  32.426  36.982  1.00  0.00     0.055 A 
ATOM     69  C   UNL A   1      40.167  34.217  36.079  1.00  0.00     0.041 A 
ATOM     70  F   UNL A   1      41.484  33.840  34.175  1.00  0.00    -0.206 F 
ATOM     71  C   UNL A   1      39.256  33.759  37.025  1.00  0.00     0.022 A 
BRANCH  68  72
ATOM     72  S   UNL A   1      37.585  31.900  38.192  1.00  0.00     0.124 S 
ATOM     73  O   UNL A   1      36.498  32.840  37.930  1.00  0.00    -0.237 OA
ATOM     74  O   UNL A   1      37.329  30.521  37.786  1.00  0.00    -0.237 OA
ATOM     75  O   UNL A   1      38.254  32.067  39.477  1.00  0.00    -0.744 OA
ENDBRANCH  68  72
ENDBRANCH  51  65
BRANCH  52  76
ATOM     76  C   UNL A   1      42.522  26.060  27.299  1.00  0.00     0.023 A 
ATOM     77  C   UNL A   1      41.999  24.754  27.250  1.00  0.00     0.031 A 
ATOM     78  C   UNL A   1      43.440  26.442  26.306  1.00  0.00     0.131 A 
ATOM     79  C   UNL A   1      42.459  23.853  26.282  1.00  0.00     0.055 A 
ATOM     80  C   UNL A   1      43.839  25.563  25.296  1.00  0.00     0.041 A 
ATOM     81  F   UNL A   1      43.976  27.671  26.317  1.00  0.00    -0.206 F 
ATOM     82  C   UNL A   1      43.365  24.255  25.294  1.00  0.00     0.022 A 
BRANCH  79  83
ATOM     83  S   UNL A   1      42.023  22.094  26.369  1.00  0.00     0.124 S 
ATOM     84  O   UNL A   1      42.407  21.754  27.735  1.00  0.00    -0.237 OA
ATOM     85  O   UNL A   1      40.587  22.129  26.104  1.00  0.00    -0.237 OA
ATOM     86  O   UNL A   1      42.832  21.487  25.316  1.00  0.00    -0.744 OA
ENDBRANCH  79  83
ENDBRANCH  52  76
BRANCH  64  87
ATOM     87  C   UNL A   1      45.653  27.593  33.412  1.00  0.00     0.023 A 
ATOM     88  C   UNL A   1      46.850  28.273  33.113  1.00  0.00     0.031 A 
ATOM     89  C   UNL A   1      45.727  26.428  34.193  1.00  0.00     0.131 A 
ATOM     90  C   UNL A   1      48.073  27.758  33.559  1.00  0.00     0.055 A 
ATOM     91  C   UNL A   1      46.944  25.944  34.674  1.00  0.00     0.041 A 
ATOM     92  F   UNL A   1      44.614  25.740  34.497  1.00  0.00    -0.206 F 
ATOM     93  C   UNL A   1      48.126  26.602  34.344  1.00  0.00     0.022 A 
BRANCH  90  94
ATOM     94  S   UNL A   1      49.645  28.518  33.066  1.00  0.00     0.124 S 
ATOM     95  O   UNL A   1      49.466  28.673  31.625  1.00  0.00    -0.237 OA
ATOM     96  O   UNL A   1      49.640  29.761  33.833  1.00  0.00    -0.237 OA
ATOM     97  O   UNL A   1      50.650  27.538  33.466  1.00  0.00    -0.744 OA
ENDBRANCH  90  94
ENDBRANCH  64  87
ENDBRANCH  38  39
ENDBRANCH  30  33
ENDBRANCH  28  29
ENDBRANCH  27  28
ENDBRANCH   1  27
TORSDOF 18
ENDMDL
MODEL 3
REMARK VINA RESULT:     -11.5      2.317      4.140
REMARK SMILES CC(C)c1cc2c(cc1Cl)C=C(C(=O)NCCCCCCNC(=O)c1ccc(-c3c4nc(c(-c5cc(S(=O)(=O)[O-])ccc5F)c5ccc([nH]5)c(-c5cc(S(=O)(=O)[O-])ccc5F)c5nc(c(-c6cc(S(=O)(=O)[O-])ccc6F)c6ccc3[nH]6)C=C5)C=C4)cc1)[C@@H](C(F)(F)F)O2
REMARK SMILES IDX 19 1 18 2 17 3 16 4 15 5 13 6 14 7 12 9 4 10 5 11 9 12 6 13
REMARK SMILES IDX 8 14 10 15 7 16 93 17 11 18 88 19 2 20 1 21 3 22 89 23 90 24
REMARK SMILES IDX 91 25 92 26 20 27 21 28 22 29 23 30 24 32 25 33 26 34 87 35
REMARK SMILES IDX 27 36 86 37 28 38 29 39 30 40 80 41 31 42 85 43 79 44 81 45
REMARK SMILES IDX 32 46 84 47 78 48 77 49 33 51 65 52 45 53 64 54 46 55 49 56
REMARK SMILES IDX 63 57 82 58 47 59 48 60 62 62 83 63 50 64 34 65 35 66 43 67
REMARK SMILES IDX 36 68 42 69 44 70 41 71 37 72 38 73 39 74 40 75 66 76 67 77
REMARK SMILES IDX 75 78 68 79 74 80 76 81 73 82 69 83 70 84 71 85 72 86 51 87
REMARK SMILES IDX 52 88 60 89 53 90 59 91 61 92 58 93 54 94 55 95 56 96 57 97
REMARK H PARENT 15 8 22 31 81 50 49 61
REMARK Flexibility Score: inf
ROOT
ATOM      1  C   UNL A   1      30.832  29.528  24.263  1.00  0.00     0.002 C 
ENDROOT
BRANCH   1   2
ATOM      2  C   UNL A   1      30.266  28.415  23.372  1.00  0.00     0.002 C 
BRANCH   2   3
ATOM      3  C   UNL A   1      29.952  27.092  24.079  1.00  0.00     0.021 C 
BRANCH   3   4
ATOM      4  C   UNL A   1      30.427  25.852  23.325  1.00  0.00     0.116 C 
BRANCH   4   5
ATOM      5  N   UNL A   1      31.730  26.054  22.713  1.00  0.00    -0.352 N 
ATOM      6  C   UNL A   1      32.901  25.381  22.621  1.00  0.00     0.251 C 
ATOM      7  O   UNL A   1      33.772  25.940  21.945  1.00  0.00    -0.270 OA
ATOM      8  H   UNL A   1      31.772  26.914  22.236  1.00  0.00     0.163 HD
BRANCH   6   9
ATOM      9  C   UNL A   1      33.199  24.063  23.258  1.00  0.00     0.067 C 
ATOM     10  C   UNL A   1      33.523  19.105  24.264  1.00  0.00    -0.023 A 
ATOM     11  C   UNL A   1      34.133  20.269  24.766  1.00  0.00     0.052 A 
ATOM     12  C   UNL A   1      32.624  19.252  23.192  1.00  0.00     0.045 A 
ATOM     13  C   UNL A   1      33.839  21.522  24.236  1.00  0.00     0.128 A 
ATOM     14  C   UNL A   1      32.343  20.518  22.654  1.00  0.00     0.032 A 
ATOM     15  Cl  UNL A   1      31.828  17.901  22.461  1.00  0.00    -0.084 Cl
ATOM     16  C   UNL A   1      32.951  21.660  23.175  1.00  0.00     0.019 A 
ATOM     17  O   UNL A   1      34.507  22.575  24.783  1.00  0.00    -0.475 OA
ATOM     18  C   UNL A   1      32.720  22.983  22.610  1.00  0.00     0.025 C 
ATOM     19  C   UNL A   1      33.942  23.893  24.555  1.00  0.00     0.314 C 
BRANCH  10  20
ATOM     20  C   UNL A   1      33.888  17.760  24.877  1.00  0.00     0.014 C 
ATOM     21  C   UNL A   1      32.716  17.201  25.690  1.00  0.00     0.012 C 
ATOM     22  C   UNL A   1      34.344  16.749  23.817  1.00  0.00     0.012 C 
ENDBRANCH  10  20
BRANCH  19  23
ATOM     23  C   UNL A   1      33.094  24.294  25.776  1.00  0.00     0.429 C 
ATOM     24  F   UNL A   1      33.079  25.639  25.928  1.00  0.00    -0.167 F 
ATOM     25  F   UNL A   1      31.802  23.905  25.659  1.00  0.00    -0.167 F 
ATOM     26  F   UNL A   1      33.562  23.758  26.927  1.00  0.00    -0.167 F 
ENDBRANCH  19  23
ENDBRANCH   6   9
ENDBRANCH   4   5
ENDBRANCH   3   4
ENDBRANCH   2   3
ENDBRANCH   1   2
BRANCH   1  27
ATOM     27  C   UNL A   1      31.489  29.069  25.568  1.00  0.00     0.021 C 
BRANCH  27  28
ATOM     28  C   UNL A   1      32.734  29.850  25.973  1.00  0.00     0.116 C 
BRANCH  28  29
ATOM     29  N   UNL A   1      32.436  31.225  26.337  1.00  0.00    -0.352 N 
ATOM     30  C   UNL A   1      33.115  32.059  27.194  1.00  0.00     0.251 C 
ATOM     31  H   UNL A   1      31.637  31.612  25.913  1.00  0.00     0.163 HD
ATOM     32  O   UNL A   1      32.632  33.144  27.504  1.00  0.00    -0.269 OA
BRANCH  30  33
ATOM     33  C   UNL A   1      34.410  31.624  27.763  1.00  0.00     0.039 A 
ATOM     34  C   UNL A   1      34.606  30.297  28.151  1.00  0.00     0.014 A 
ATOM     35  C   UNL A   1      35.430  32.564  27.934  1.00  0.00     0.014 A 
ATOM     36  C   UNL A   1      35.757  29.946  28.849  1.00  0.00     0.010 A 
ATOM     37  C   UNL A   1      36.619  32.190  28.568  1.00  0.00     0.010 A 
ATOM     38  C   UNL A   1      36.774  30.890  29.072  1.00  0.00    -0.014 A 
BRANCH  38  39
ATOM     39  C   UNL A   1      37.995  30.487  29.819  1.00  0.00     0.031 A 
ATOM     40  C   UNL A   1      38.247  30.988  31.214  1.00  0.00     0.074 A 
ATOM     41  C   UNL A   1      38.855  29.622  29.246  1.00  0.00     0.049 A 
ATOM     42  N   UNL A   1      39.237  30.707  32.022  1.00  0.00    -0.248 NA
ATOM     43  C   UNL A   1      37.264  31.926  31.779  1.00  0.00     0.031 C 
ATOM     44  C   UNL A   1      38.706  29.071  27.899  1.00  0.00     0.029 A 
ATOM     45  N   UNL A   1      40.001  29.036  29.721  1.00  0.00    -0.354 N 
ATOM     46  C   UNL A   1      39.006  31.437  33.182  1.00  0.00     0.074 A 
ATOM     47  C   UNL A   1      37.800  32.204  32.961  1.00  0.00     0.031 C 
ATOM     48  C   UNL A   1      39.690  28.190  27.675  1.00  0.00     0.029 A 
ATOM     49  C   UNL A   1      40.580  28.160  28.833  1.00  0.00     0.049 A 
ATOM     50  H   UNL A   1      40.373  29.225  30.613  1.00  0.00     0.167 HD
ATOM     51  C   UNL A   1      39.726  31.452  34.329  1.00  0.00     0.034 A 
ATOM     52  C   UNL A   1      41.706  27.422  28.929  1.00  0.00     0.034 A 
ATOM     53  C   UNL A   1      40.920  30.672  34.538  1.00  0.00     0.049 A 
ATOM     54  C   UNL A   1      42.503  27.478  30.205  1.00  0.00     0.074 A 
ATOM     55  C   UNL A   1      41.709  30.606  35.673  1.00  0.00     0.029 A 
ATOM     56  N   UNL A   1      41.494  29.823  33.604  1.00  0.00    -0.354 N 
ATOM     57  N   UNL A   1      42.246  28.143  31.307  1.00  0.00    -0.248 NA
ATOM     58  C   UNL A   1      43.741  26.688  30.258  1.00  0.00     0.031 C 
ATOM     59  C   UNL A   1      42.787  29.761  35.408  1.00  0.00     0.029 A 
ATOM     60  C   UNL A   1      42.639  29.245  34.130  1.00  0.00     0.049 A 
ATOM     61  H   UNL A   1      41.142  29.654  32.700  1.00  0.00     0.167 HD
ATOM     62  C   UNL A   1      43.281  27.844  32.187  1.00  0.00     0.074 A 
ATOM     63  C   UNL A   1      44.152  26.911  31.500  1.00  0.00     0.031 C 
ATOM     64  C   UNL A   1      43.495  28.308  33.443  1.00  0.00     0.034 A 
BRANCH  51  65
ATOM     65  C   UNL A   1      39.254  32.321  35.469  1.00  0.00     0.023 A 
ATOM     66  C   UNL A   1      39.722  33.643  35.591  1.00  0.00     0.031 A 
ATOM     67  C   UNL A   1      38.449  31.801  36.499  1.00  0.00     0.131 A 
ATOM     68  C   UNL A   1      39.409  34.388  36.736  1.00  0.00     0.055 A 
ATOM     69  C   UNL A   1      38.110  32.560  37.619  1.00  0.00     0.041 A 
ATOM     70  F   UNL A   1      37.977  30.545  36.427  1.00  0.00    -0.206 F 
ATOM     71  C   UNL A   1      38.601  33.856  37.747  1.00  0.00     0.022 A 
BRANCH  68  72
ATOM     72  S   UNL A   1      40.084  36.053  36.987  1.00  0.00     0.124 S 
ATOM     73  O   UNL A   1      41.496  35.770  37.232  1.00  0.00    -0.237 OA
ATOM     74  O   UNL A   1      39.789  36.698  35.711  1.00  0.00    -0.237 OA
ATOM     75  O   UNL A   1      39.345  36.561  38.138  1.00  0.00    -0.744 OA
ENDBRANCH  68  72
ENDBRANCH  51  65
BRANCH  52  76
ATOM     76  C   UNL A   1      42.093  26.542  27.788  1.00  0.00     0.023 A 
ATOM     77  C   UNL A   1      41.650  25.208  27.723  1.00  0.00     0.031 A 
ATOM     78  C   UNL A   1      43.007  26.983  26.817  1.00  0.00     0.131 A 
ATOM     79  C   UNL A   1      42.184  24.340  26.762  1.00  0.00     0.055 A 
ATOM     80  C   UNL A   1      43.480  26.134  25.813  1.00  0.00     0.041 A 
ATOM     81  F   UNL A   1      43.468  28.242  26.844  1.00  0.00    -0.206 F 
ATOM     82  C   UNL A   1      43.085  24.800  25.795  1.00  0.00     0.022 A 
BRANCH  79  83
ATOM     83  S   UNL A   1      41.853  22.557  26.833  1.00  0.00     0.124 S 
ATOM     84  O   UNL A   1      42.094  22.149  25.453  1.00  0.00    -0.237 OA
ATOM     85  O   UNL A   1      42.844  22.108  27.809  1.00  0.00    -0.237 OA
ATOM     86  O   UNL A   1      40.466  22.484  27.282  1.00  0.00    -0.744 OA
ENDBRANCH  79  83
ENDBRANCH  52  76
BRANCH  64  87
ATOM     87  C   UNL A   1      44.720  27.834  34.187  1.00  0.00     0.023 A 
ATOM     88  C   UNL A   1      44.663  26.663  34.966  1.00  0.00     0.031 A 
ATOM     89  C   UNL A   1      45.884  28.619  34.249  1.00  0.00     0.131 A 
ATOM     90  C   UNL A   1      45.733  26.332  35.806  1.00  0.00     0.055 A 
ATOM     91  C   UNL A   1      46.966  28.261  35.054  1.00  0.00     0.041 A 
ATOM     92  F   UNL A   1      45.982  29.750  33.532  1.00  0.00    -0.206 F 
ATOM     93  C   UNL A   1      46.887  27.121  35.849  1.00  0.00     0.022 A 
BRANCH  90  94
ATOM     94  S   UNL A   1      45.634  24.918  36.938  1.00  0.00     0.124 S 
ATOM     95  O   UNL A   1      45.716  25.570  38.243  1.00  0.00    -0.237 OA
ATOM     96  O   UNL A   1      44.330  24.349  36.607  1.00  0.00    -0.237 OA
ATOM     97  O   UNL A   1      46.786  24.097  36.580  1.00  0.00    -0.744 OA
ENDBRANCH  90  94
ENDBRANCH  64  87
ENDBRANCH  38  39
ENDBRANCH  30  33
ENDBRANCH  28  29
ENDBRANCH  27  28
ENDBRANCH   1  27
TORSDOF 18
ENDMDL
