MODEL 1
REMARK VINA RESULT:     -11.7      0.000      0.000
REMARK SMILES C[C@@H]1Oc2ccccc2N(CC(=O)NCCCCCCNC(=O)c2ccc(-c3c4nc(c(-c5cc(S(=O)(=O)[O-])ccc5F)c5ccc([nH]5)c(-c5cc(S(=O)(=O)[O-])ccc5F)c5nc(c(-c6cc(S(=O)(=O)[O-])ccc6F)c6ccc3[nH]6)C=C5)C=C4)cc2)C1=O
REMARK SMILES IDX 18 1 17 2 16 3 15 4 14 5 12 6 13 7 11 9 10 10 1 11 2 12 3 13
REMARK SMILES IDX 87 14 4 15 88 16 5 17 9 18 6 19 8 20 7 21 19 22 20 23 21 24
REMARK SMILES IDX 22 25 23 27 24 28 25 29 86 30 26 31 85 32 27 33 28 34 29 35
REMARK SMILES IDX 79 36 30 37 84 38 78 39 80 40 31 41 83 42 77 43 76 44 32 46
REMARK SMILES IDX 64 47 44 48 63 49 45 50 48 51 62 52 81 53 46 54 47 55 61 57
REMARK SMILES IDX 82 58 49 59 33 60 34 61 42 62 35 63 41 64 43 65 40 66 36 67
REMARK SMILES IDX 37 68 38 69 39 70 65 71 66 72 74 73 67 74 73 75 75 76 72 77
REMARK SMILES IDX 68 78 69 79 70 80 71 81 50 82 51 83 59 84 52 85 58 86 60 87
REMARK SMILES IDX 57 88 53 89 54 90 55 91 56 92
REMARK H PARENT 14 8 21 26 80 45 48 56
REMARK Flexibility Score: inf
ROOT
ATOM      1  C   UNL A   1      35.489  21.135  24.974  1.00  0.00     0.002 C 
ENDROOT
BRANCH   1   2
ATOM      2  C   UNL A   1      34.155  20.380  24.892  1.00  0.00     0.002 C 
BRANCH   2   3
ATOM      3  C   UNL A   1      33.056  20.869  25.843  1.00  0.00     0.021 C 
BRANCH   3   4
ATOM      4  C   UNL A   1      31.793  21.381  25.155  1.00  0.00     0.116 C 
BRANCH   4   5
ATOM      5  N   UNL A   1      31.003  22.197  26.054  1.00  0.00    -0.355 N 
ATOM      6  C   UNL A   1      31.179  23.494  26.433  1.00  0.00     0.240 C 
ATOM      7  O   UNL A   1      30.308  24.001  27.149  1.00  0.00    -0.273 OA
ATOM      8  H   UNL A   1      30.222  21.748  26.452  1.00  0.00     0.163 HD
BRANCH   6   9
ATOM      9  C   UNL A   1      32.358  24.339  25.922  1.00  0.00     0.225 C 
BRANCH   9  10
ATOM     10  N   UNL A   1      32.039  25.463  25.036  1.00  0.00    -0.296 N 
ATOM     11  C   UNL A   1      32.929  26.652  22.073  1.00  0.00     0.064 C 
ATOM     12  C   UNL A   1      31.605  26.417  22.793  1.00  0.00     0.259 C 
ATOM     13  O   UNL A   1      31.183  27.644  23.355  1.00  0.00    -0.479 OA
ATOM     14  C   UNL A   1      31.733  25.195  23.707  1.00  0.00     0.268 C 
ATOM     15  C   UNL A   1      31.551  27.829  24.659  1.00  0.00     0.144 A 
ATOM     16  O   UNL A   1      31.659  24.053  23.250  1.00  0.00    -0.270 OA
ATOM     17  C   UNL A   1      31.466  29.153  25.103  1.00  0.00     0.049 A 
ATOM     18  C   UNL A   1      31.942  26.797  25.524  1.00  0.00     0.087 A 
ATOM     19  C   UNL A   1      31.759  29.468  26.425  1.00  0.00     0.004 A 
ATOM     20  C   UNL A   1      32.188  27.129  26.865  1.00  0.00     0.030 A 
ATOM     21  C   UNL A   1      32.107  28.453  27.309  1.00  0.00     0.002 A 
ENDBRANCH   9  10
ENDBRANCH   6   9
ENDBRANCH   4   5
ENDBRANCH   3   4
ENDBRANCH   2   3
ENDBRANCH   1   2
BRANCH   1  22
ATOM     22  C   UNL A   1      36.751  20.270  24.957  1.00  0.00     0.021 C 
BRANCH  22  23
ATOM     23  C   UNL A   1      38.052  20.999  25.281  1.00  0.00     0.116 C 
BRANCH  23  24
ATOM     24  N   UNL A   1      39.101  20.106  25.745  1.00  0.00    -0.352 N 
ATOM     25  C   UNL A   1      40.279  20.391  26.394  1.00  0.00     0.251 C 
ATOM     26  H   UNL A   1      38.943  19.150  25.568  1.00  0.00     0.163 HD
ATOM     27  O   UNL A   1      41.108  19.501  26.568  1.00  0.00    -0.269 OA
BRANCH  25  28
ATOM     28  C   UNL A   1      40.566  21.773  26.844  1.00  0.00     0.039 A 
ATOM     29  C   UNL A   1      40.086  22.874  26.131  1.00  0.00     0.014 A 
ATOM     30  C   UNL A   1      41.344  21.967  27.988  1.00  0.00     0.014 A 
ATOM     31  C   UNL A   1      40.533  24.152  26.454  1.00  0.00     0.010 A 
ATOM     32  C   UNL A   1      41.722  23.260  28.361  1.00  0.00     0.010 A 
ATOM     33  C   UNL A   1      41.366  24.360  27.566  1.00  0.00    -0.014 A 
BRANCH  33  34
ATOM     34  C   UNL A   1      41.865  25.729  27.872  1.00  0.00     0.031 A 
ATOM     35  C   UNL A   1      43.222  26.176  27.395  1.00  0.00     0.074 A 
ATOM     36  C   UNL A   1      41.075  26.587  28.547  1.00  0.00     0.049 A 
ATOM     37  N   UNL A   1      43.814  27.331  27.563  1.00  0.00    -0.248 NA
ATOM     38  C   UNL A   1      44.020  25.202  26.632  1.00  0.00     0.031 C 
ATOM     39  C   UNL A   1      39.738  26.270  29.047  1.00  0.00     0.029 A 
ATOM     40  N   UNL A   1      41.266  27.897  28.913  1.00  0.00    -0.354 N 
ATOM     41  C   UNL A   1      45.053  27.221  26.938  1.00  0.00     0.074 A 
ATOM     42  C   UNL A   1      45.145  25.873  26.426  1.00  0.00     0.031 C 
ATOM     43  C   UNL A   1      39.211  27.363  29.612  1.00  0.00     0.029 A 
ATOM     44  C   UNL A   1      40.196  28.442  29.584  1.00  0.00     0.049 A 
ATOM     45  H   UNL A   1      42.090  28.398  28.714  1.00  0.00     0.167 HD
ATOM     46  C   UNL A   1      46.014  28.165  26.790  1.00  0.00     0.034 A 
ATOM     47  C   UNL A   1      40.026  29.665  30.131  1.00  0.00     0.034 A 
ATOM     48  C   UNL A   1      45.901  29.510  27.296  1.00  0.00     0.049 A 
ATOM     49  C   UNL A   1      41.127  30.683  29.994  1.00  0.00     0.074 A 
ATOM     50  C   UNL A   1      46.816  30.543  27.183  1.00  0.00     0.029 A 
ATOM     51  N   UNL A   1      44.817  30.014  28.000  1.00  0.00    -0.354 N 
ATOM     52  N   UNL A   1      42.277  30.573  29.372  1.00  0.00    -0.248 NA
ATOM     53  C   UNL A   1      40.916  31.992  30.629  1.00  0.00     0.031 C 
ATOM     54  C   UNL A   1      46.315  31.647  27.871  1.00  0.00     0.029 A 
ATOM     55  C   UNL A   1      45.052  31.334  28.349  1.00  0.00     0.049 A 
ATOM     56  H   UNL A   1      44.001  29.508  28.220  1.00  0.00     0.167 HD
ATOM     57  C   UNL A   1      42.917  31.800  29.523  1.00  0.00     0.074 A 
ATOM     58  C   UNL A   1      42.014  32.647  30.274  1.00  0.00     0.031 C 
ATOM     59  C   UNL A   1      44.143  32.182  29.083  1.00  0.00     0.034 A 
BRANCH  46  60
ATOM     60  C   UNL A   1      47.274  27.806  26.038  1.00  0.00     0.023 A 
ATOM     61  C   UNL A   1      47.344  27.994  24.646  1.00  0.00     0.031 A 
ATOM     62  C   UNL A   1      48.346  27.156  26.676  1.00  0.00     0.131 A 
ATOM     63  C   UNL A   1      48.446  27.506  23.931  1.00  0.00     0.055 A 
ATOM     64  C   UNL A   1      49.461  26.709  25.966  1.00  0.00     0.041 A 
ATOM     65  F   UNL A   1      48.326  26.950  28.003  1.00  0.00    -0.206 F 
ATOM     66  C   UNL A   1      49.508  26.872  24.584  1.00  0.00     0.022 A 
BRANCH  63  67
ATOM     67  S   UNL A   1      48.517  27.612  22.121  1.00  0.00     0.124 S 
ATOM     68  O   UNL A   1      49.668  28.488  21.917  1.00  0.00    -0.237 OA
ATOM     69  O   UNL A   1      48.719  26.216  21.741  1.00  0.00    -0.237 OA
ATOM     70  O   UNL A   1      47.226  28.186  21.753  1.00  0.00    -0.744 OA
ENDBRANCH  63  67
ENDBRANCH  46  60
BRANCH  47  71
ATOM     71  C   UNL A   1      38.735  29.976  30.811  1.00  0.00     0.023 A 
ATOM     72  C   UNL A   1      37.728  30.704  30.150  1.00  0.00     0.031 A 
ATOM     73  C   UNL A   1      38.542  29.667  32.168  1.00  0.00     0.131 A 
ATOM     74  C   UNL A   1      36.620  31.174  30.868  1.00  0.00     0.055 A 
ATOM     75  C   UNL A   1      37.398  30.068  32.859  1.00  0.00     0.041 A 
ATOM     76  F   UNL A   1      39.478  28.984  32.845  1.00  0.00    -0.206 F 
ATOM     77  C   UNL A   1      36.440  30.845  32.213  1.00  0.00     0.022 A 
BRANCH  74  78
ATOM     78  S   UNL A   1      35.461  32.351  30.117  1.00  0.00     0.124 S 
ATOM     79  O   UNL A   1      34.414  32.435  31.129  1.00  0.00    -0.237 OA
ATOM     80  O   UNL A   1      36.298  33.541  29.975  1.00  0.00    -0.237 OA
ATOM     81  O   UNL A   1      35.078  31.709  28.865  1.00  0.00    -0.744 OA
ENDBRANCH  74  78
ENDBRANCH  47  71
BRANCH  59  82
ATOM     82  C   UNL A   1      44.617  33.586  29.381  1.00  0.00     0.023 A 
ATOM     83  C   UNL A   1      44.541  34.578  28.384  1.00  0.00     0.031 A 
ATOM     84  C   UNL A   1      45.299  33.890  30.571  1.00  0.00     0.131 A 
ATOM     85  C   UNL A   1      45.184  35.808  28.574  1.00  0.00     0.055 A 
ATOM     86  C   UNL A   1      45.894  35.136  30.777  1.00  0.00     0.041 A 
ATOM     87  F   UNL A   1      45.408  32.973  31.547  1.00  0.00    -0.206 F 
ATOM     88  C   UNL A   1      45.852  36.094  29.769  1.00  0.00     0.022 A 
BRANCH  85  89
ATOM     89  S   UNL A   1      45.260  37.041  27.245  1.00  0.00     0.124 S 
ATOM     90  O   UNL A   1      43.845  37.250  26.946  1.00  0.00    -0.237 OA
ATOM     91  O   UNL A   1      45.930  38.159  27.903  1.00  0.00    -0.237 OA
ATOM     92  O   UNL A   1      46.025  36.379  26.194  1.00  0.00    -0.744 OA
ENDBRANCH  85  89
ENDBRANCH  59  82
ENDBRANCH  33  34
ENDBRANCH  25  28
ENDBRANCH  23  24
ENDBRANCH  22  23
ENDBRANCH   1  22
TORSDOF 17
ENDMDL
MODEL 2
REMARK VINA RESULT:     -11.7      5.587     11.024
REMARK SMILES C[C@@H]1Oc2ccccc2N(CC(=O)NCCCCCCNC(=O)c2ccc(-c3c4nc(c(-c5cc(S(=O)(=O)[O-])ccc5F)c5ccc([nH]5)c(-c5cc(S(=O)(=O)[O-])ccc5F)c5nc(c(-c6cc(S(=O)(=O)[O-])ccc6F)c6ccc3[nH]6)C=C5)C=C4)cc2)C1=O
REMARK SMILES IDX 18 1 17 2 16 3 15 4 14 5 12 6 13 7 11 9 10 10 1 11 2 12 3 13
REMARK SMILES IDX 87 14 4 15 88 16 5 17 9 18 6 19 8 20 7 21 19 22 20 23 21 24
REMARK SMILES IDX 22 25 23 27 24 28 25 29 86 30 26 31 85 32 27 33 28 34 29 35
REMARK SMILES IDX 79 36 30 37 84 38 78 39 80 40 31 41 83 42 77 43 76 44 32 46
REMARK SMILES IDX 64 47 44 48 63 49 45 50 48 51 62 52 81 53 46 54 47 55 61 57
REMARK SMILES IDX 82 58 49 59 33 60 34 61 42 62 35 63 41 64 43 65 40 66 36 67
REMARK SMILES IDX 37 68 38 69 39 70 65 71 66 72 74 73 67 74 73 75 75 76 72 77
REMARK SMILES IDX 68 78 69 79 70 80 71 81 50 82 51 83 59 84 52 85 58 86 60 87
REMARK SMILES IDX 57 88 53 89 54 90 55 91 56 92
REMARK H PARENT 14 8 21 26 80 45 48 56
REMARK Flexibility Score: inf
ROOT
ATOM      1  C   UNL A   1      32.013  29.626  27.155  1.00  0.00     0.002 C 
ENDROOT
BRANCH   1   2
ATOM      2  C   UNL A   1      32.004  28.705  25.928  1.00  0.00     0.002 C 
BRANCH   2   3
ATOM      3  C   UNL A   1      32.311  27.228  26.204  1.00  0.00     0.021 C 
BRANCH   3   4
ATOM      4  C   UNL A   1      31.125  26.283  26.035  1.00  0.00     0.116 C 
BRANCH   4   5
ATOM      5  N   UNL A   1      31.272  25.106  26.866  1.00  0.00    -0.355 N 
ATOM      6  C   UNL A   1      31.775  23.879  26.556  1.00  0.00     0.240 C 
ATOM      7  O   UNL A   1      31.879  23.058  27.475  1.00  0.00    -0.273 OA
ATOM      8  H   UNL A   1      30.961  25.208  27.795  1.00  0.00     0.163 HD
BRANCH   6   9
ATOM      9  C   UNL A   1      32.288  23.541  25.147  1.00  0.00     0.225 C 
BRANCH   9  10
ATOM     10  N   UNL A   1      33.552  22.804  25.054  1.00  0.00    -0.296 N 
ATOM     11  C   UNL A   1      36.477  23.021  23.512  1.00  0.00     0.064 C 
ATOM     12  C   UNL A   1      36.023  22.717  24.937  1.00  0.00     0.259 C 
ATOM     13  O   UNL A   1      36.020  21.313  25.110  1.00  0.00    -0.479 OA
ATOM     14  C   UNL A   1      34.741  23.499  25.239  1.00  0.00     0.268 C 
ATOM     15  C   UNL A   1      34.812  20.715  24.884  1.00  0.00     0.144 A 
ATOM     16  O   UNL A   1      34.785  24.694  25.534  1.00  0.00    -0.270 OA
ATOM     17  C   UNL A   1      34.877  19.331  24.694  1.00  0.00     0.049 A 
ATOM     18  C   UNL A   1      33.583  21.391  24.880  1.00  0.00     0.087 A 
ATOM     19  C   UNL A   1      33.713  18.593  24.510  1.00  0.00     0.004 A 
ATOM     20  C   UNL A   1      32.418  20.623  24.739  1.00  0.00     0.030 A 
ATOM     21  C   UNL A   1      32.482  19.239  24.546  1.00  0.00     0.002 A 
ENDBRANCH   9  10
ENDBRANCH   6   9
ENDBRANCH   4   5
ENDBRANCH   3   4
ENDBRANCH   2   3
ENDBRANCH   1   2
BRANCH   1  22
ATOM     22  C   UNL A   1      31.926  31.127  26.868  1.00  0.00     0.021 C 
BRANCH  22  23
ATOM     23  C   UNL A   1      33.147  31.947  27.275  1.00  0.00     0.116 C 
BRANCH  23  24
ATOM     24  N   UNL A   1      32.822  33.328  27.592  1.00  0.00    -0.352 N 
ATOM     25  C   UNL A   1      33.353  34.162  28.546  1.00  0.00     0.251 C 
ATOM     26  H   UNL A   1      32.113  33.727  27.036  1.00  0.00     0.163 HD
ATOM     27  O   UNL A   1      32.833  35.256  28.756  1.00  0.00    -0.269 OA
BRANCH  25  28
ATOM     28  C   UNL A   1      34.521  33.728  29.348  1.00  0.00     0.039 A 
ATOM     29  C   UNL A   1      35.816  34.121  29.002  1.00  0.00     0.014 A 
ATOM     30  C   UNL A   1      34.315  32.899  30.453  1.00  0.00     0.014 A 
ATOM     31  C   UNL A   1      36.907  33.543  29.644  1.00  0.00     0.010 A 
ATOM     32  C   UNL A   1      35.413  32.385  31.151  1.00  0.00     0.010 A 
ATOM     33  C   UNL A   1      36.719  32.658  30.718  1.00  0.00    -0.014 A 
BRANCH  33  34
ATOM     34  C   UNL A   1      37.897  32.019  31.367  1.00  0.00     0.031 A 
ATOM     35  C   UNL A   1      38.334  32.437  32.747  1.00  0.00     0.074 A 
ATOM     36  C   UNL A   1      38.550  31.028  30.728  1.00  0.00     0.049 A 
ATOM     37  N   UNL A   1      39.329  31.986  33.467  1.00  0.00    -0.248 NA
ATOM     38  C   UNL A   1      37.555  33.499  33.404  1.00  0.00     0.031 C 
ATOM     39  C   UNL A   1      38.209  30.531  29.396  1.00  0.00     0.029 A 
ATOM     40  N   UNL A   1      39.616  30.252  31.112  1.00  0.00    -0.354 N 
ATOM     41  C   UNL A   1      39.303  32.712  34.654  1.00  0.00     0.074 A 
ATOM     42  C   UNL A   1      38.221  33.663  34.539  1.00  0.00     0.031 C 
ATOM     43  C   UNL A   1      39.017  29.507  29.091  1.00  0.00     0.029 A 
ATOM     44  C   UNL A   1      39.982  29.318  30.171  1.00  0.00     0.049 A 
ATOM     45  H   UNL A   1      40.074  30.355  31.977  1.00  0.00     0.167 HD
ATOM     46  C   UNL A   1      40.097  32.581  35.744  1.00  0.00     0.034 A 
ATOM     47  C   UNL A   1      40.990  28.418  30.165  1.00  0.00     0.034 A 
ATOM     48  C   UNL A   1      41.165  31.618  35.848  1.00  0.00     0.049 A 
ATOM     49  C   UNL A   1      41.889  28.323  31.369  1.00  0.00     0.074 A 
ATOM     50  C   UNL A   1      42.014  31.400  36.919  1.00  0.00     0.029 A 
ATOM     51  N   UNL A   1      41.527  30.713  34.861  1.00  0.00    -0.354 N 
ATOM     52  N   UNL A   1      41.830  28.995  32.495  1.00  0.00    -0.248 NA
ATOM     53  C   UNL A   1      42.991  27.353  31.310  1.00  0.00     0.031 C 
ATOM     54  C   UNL A   1      42.929  30.411  36.557  1.00  0.00     0.029 A 
ATOM     55  C   UNL A   1      42.604  29.953  35.289  1.00  0.00     0.049 A 
ATOM     56  H   UNL A   1      41.085  30.624  33.986  1.00  0.00     0.167 HD
ATOM     57  C   UNL A   1      42.871  28.516  33.284  1.00  0.00     0.074 A 
ATOM     58  C   UNL A   1      43.529  27.480  32.517  1.00  0.00     0.031 C 
ATOM     59  C   UNL A   1      43.247  28.907  34.529  1.00  0.00     0.034 A 
BRANCH  46  60
ATOM     60  C   UNL A   1      39.850  33.480  36.933  1.00  0.00     0.023 A 
ATOM     61  C   UNL A   1      39.225  32.970  38.086  1.00  0.00     0.031 A 
ATOM     62  C   UNL A   1      40.108  34.861  36.873  1.00  0.00     0.131 A 
ATOM     63  C   UNL A   1      38.847  33.841  39.117  1.00  0.00     0.055 A 
ATOM     64  C   UNL A   1      39.768  35.718  37.921  1.00  0.00     0.041 A 
ATOM     65  F   UNL A   1      40.701  35.397  35.794  1.00  0.00    -0.206 F 
ATOM     66  C   UNL A   1      39.122  35.210  39.044  1.00  0.00     0.022 A 
BRANCH  63  67
ATOM     67  S   UNL A   1      37.923  33.246  40.561  1.00  0.00     0.124 S 
ATOM     68  O   UNL A   1      38.124  34.334  41.515  1.00  0.00    -0.237 OA
ATOM     69  O   UNL A   1      36.569  33.124  40.028  1.00  0.00    -0.237 OA
ATOM     70  O   UNL A   1      38.581  31.989  40.905  1.00  0.00    -0.744 OA
ENDBRANCH  63  67
ENDBRANCH  46  60
BRANCH  47  71
ATOM     71  C   UNL A   1      41.146  27.521  28.982  1.00  0.00     0.023 A 
ATOM     72  C   UNL A   1      42.155  27.754  28.028  1.00  0.00     0.031 A 
ATOM     73  C   UNL A   1      40.214  26.503  28.722  1.00  0.00     0.131 A 
ATOM     74  C   UNL A   1      42.152  27.042  26.822  1.00  0.00     0.055 A 
ATOM     75  C   UNL A   1      40.265  25.741  27.553  1.00  0.00     0.041 A 
ATOM     76  F   UNL A   1      39.228  26.249  29.595  1.00  0.00    -0.206 F 
ATOM     77  C   UNL A   1      41.225  26.024  26.586  1.00  0.00     0.022 A 
BRANCH  74  78
ATOM     78  S   UNL A   1      43.255  27.519  25.462  1.00  0.00     0.124 S 
ATOM     79  O   UNL A   1      43.743  26.225  24.997  1.00  0.00    -0.237 OA
ATOM     80  O   UNL A   1      42.333  28.206  24.560  1.00  0.00    -0.237 OA
ATOM     81  O   UNL A   1      44.247  28.374  26.105  1.00  0.00    -0.744 OA
ENDBRANCH  74  78
ENDBRANCH  47  71
BRANCH  59  82
ATOM     82  C   UNL A   1      44.428  28.225  35.180  1.00  0.00     0.023 A 
ATOM     83  C   UNL A   1      44.216  27.293  36.215  1.00  0.00     0.031 A 
ATOM     84  C   UNL A   1      45.746  28.625  34.905  1.00  0.00     0.131 A 
ATOM     85  C   UNL A   1      45.300  26.834  36.972  1.00  0.00     0.055 A 
ATOM     86  C   UNL A   1      46.830  28.125  35.630  1.00  0.00     0.041 A 
ATOM     87  F   UNL A   1      45.998  29.520  33.936  1.00  0.00    -0.206 F 
ATOM     88  C   UNL A   1      46.607  27.238  36.679  1.00  0.00     0.022 A 
BRANCH  85  89
ATOM     89  S   UNL A   1      45.048  25.774  38.423  1.00  0.00     0.124 S 
ATOM     90  O   UNL A   1      46.305  25.950  39.148  1.00  0.00    -0.237 OA
ATOM     91  O   UNL A   1      43.878  26.383  39.047  1.00  0.00    -0.237 OA
ATOM     92  O   UNL A   1      44.840  24.445  37.857  1.00  0.00    -0.744 OA
ENDBRANCH  85  89
ENDBRANCH  59  82
ENDBRANCH  33  34
ENDBRANCH  25  28
ENDBRANCH  23  24
ENDBRANCH  22  23
ENDBRANCH   1  22
TORSDOF 17
ENDMDL
MODEL 3
REMARK VINA RESULT:     -11.6      1.819      2.113
REMARK SMILES C[C@@H]1Oc2ccccc2N(CC(=O)NCCCCCCNC(=O)c2ccc(-c3c4nc(c(-c5cc(S(=O)(=O)[O-])ccc5F)c5ccc([nH]5)c(-c5cc(S(=O)(=O)[O-])ccc5F)c5nc(c(-c6cc(S(=O)(=O)[O-])ccc6F)c6ccc3[nH]6)C=C5)C=C4)cc2)C1=O
REMARK SMILES IDX 18 1 17 2 16 3 15 4 14 5 12 6 13 7 11 9 10 10 1 11 2 12 3 13
REMARK SMILES IDX 87 14 4 15 88 16 5 17 9 18 6 19 8 20 7 21 19 22 20 23 21 24
REMARK SMILES IDX 22 25 23 27 24 28 25 29 86 30 26 31 85 32 27 33 28 34 29 35
REMARK SMILES IDX 79 36 30 37 84 38 78 39 80 40 31 41 83 42 77 43 76 44 32 46
REMARK SMILES IDX 64 47 44 48 63 49 45 50 48 51 62 52 81 53 46 54 47 55 61 57
REMARK SMILES IDX 82 58 49 59 33 60 34 61 42 62 35 63 41 64 43 65 40 66 36 67
REMARK SMILES IDX 37 68 38 69 39 70 65 71 66 72 74 73 67 74 73 75 75 76 72 77
REMARK SMILES IDX 68 78 69 79 70 80 71 81 50 82 51 83 59 84 52 85 58 86 60 87
REMARK SMILES IDX 57 88 53 89 54 90 55 91 56 92
REMARK H PARENT 14 8 21 26 80 45 48 56
REMARK Flexibility Score: inf
ROOT
ATOM      1  C   UNL A   1      35.014  21.487  24.252  1.00  0.00     0.002 C 
ENDROOT
BRANCH   1   2
ATOM      2  C   UNL A   1      34.482  20.839  25.537  1.00  0.00     0.002 C 
BRANCH   2   3
ATOM      3  C   UNL A   1      33.044  20.310  25.468  1.00  0.00     0.021 C 
BRANCH   3   4
ATOM      4  C   UNL A   1      32.014  21.316  24.962  1.00  0.00     0.116 C 
BRANCH   4   5
ATOM      5  N   UNL A   1      31.423  22.054  26.059  1.00  0.00    -0.355 N 
ATOM      6  C   UNL A   1      31.561  23.366  26.398  1.00  0.00     0.240 C 
ATOM      7  O   UNL A   1      30.874  23.787  27.336  1.00  0.00    -0.273 OA
ATOM      8  H   UNL A   1      30.833  21.530  26.648  1.00  0.00     0.163 HD
BRANCH   6   9
ATOM      9  C   UNL A   1      32.458  24.325  25.599  1.00  0.00     0.225 C 
BRANCH   9  10
ATOM     10  N   UNL A   1      31.818  25.506  25.011  1.00  0.00    -0.296 N 
ATOM     11  C   UNL A   1      31.296  26.854  22.028  1.00  0.00     0.064 C 
ATOM     12  C   UNL A   1      30.442  26.600  23.267  1.00  0.00     0.259 C 
ATOM     13  O   UNL A   1      30.382  27.800  24.015  1.00  0.00    -0.479 OA
ATOM     14  C   UNL A   1      30.923  25.323  23.963  1.00  0.00     0.268 C 
ATOM     15  C   UNL A   1      31.315  27.899  25.008  1.00  0.00     0.144 A 
ATOM     16  O   UNL A   1      30.596  24.213  23.541  1.00  0.00    -0.270 OA
ATOM     17  C   UNL A   1      31.504  29.195  25.501  1.00  0.00     0.049 A 
ATOM     18  C   UNL A   1      32.015  26.809  25.548  1.00  0.00     0.087 A 
ATOM     19  C   UNL A   1      32.386  29.424  26.550  1.00  0.00     0.004 A 
ATOM     20  C   UNL A   1      32.865  27.055  26.636  1.00  0.00     0.030 A 
ATOM     21  C   UNL A   1      33.056  28.352  27.127  1.00  0.00     0.002 A 
ENDBRANCH   9  10
ENDBRANCH   6   9
ENDBRANCH   4   5
ENDBRANCH   3   4
ENDBRANCH   2   3
ENDBRANCH   1   2
BRANCH   1  22
ATOM     22  C   UNL A   1      36.412  22.104  24.340  1.00  0.00     0.021 C 
BRANCH  22  23
ATOM     23  C   UNL A   1      37.054  22.080  25.724  1.00  0.00     0.116 C 
BRANCH  23  24
ATOM     24  N   UNL A   1      38.205  21.195  25.799  1.00  0.00    -0.352 N 
ATOM     25  C   UNL A   1      39.495  21.456  26.197  1.00  0.00     0.251 C 
ATOM     26  H   UNL A   1      38.034  20.265  25.522  1.00  0.00     0.163 HD
ATOM     27  O   UNL A   1      40.364  20.602  26.043  1.00  0.00    -0.269 OA
BRANCH  25  28
ATOM     28  C   UNL A   1      39.844  22.777  26.769  1.00  0.00     0.039 A 
ATOM     29  C   UNL A   1      39.321  23.955  26.229  1.00  0.00     0.014 A 
ATOM     30  C   UNL A   1      40.723  22.837  27.854  1.00  0.00     0.014 A 
ATOM     31  C   UNL A   1      39.816  25.186  26.651  1.00  0.00     0.010 A 
ATOM     32  C   UNL A   1      41.154  24.078  28.333  1.00  0.00     0.010 A 
ATOM     33  C   UNL A   1      40.748  25.262  27.699  1.00  0.00    -0.014 A 
BRANCH  33  34
ATOM     34  C   UNL A   1      41.295  26.585  28.110  1.00  0.00     0.031 A 
ATOM     35  C   UNL A   1      42.720  26.958  27.792  1.00  0.00     0.074 A 
ATOM     36  C   UNL A   1      40.493  27.469  28.734  1.00  0.00     0.049 A 
ATOM     37  N   UNL A   1      43.361  28.065  28.066  1.00  0.00    -0.248 NA
ATOM     38  C   UNL A   1      43.531  25.960  27.077  1.00  0.00     0.031 C 
ATOM     39  C   UNL A   1      39.094  27.223  29.081  1.00  0.00     0.029 A 
ATOM     40  N   UNL A   1      40.725  28.751  29.169  1.00  0.00    -0.354 N 
ATOM     41  C   UNL A   1      44.649  27.896  27.568  1.00  0.00     0.074 A 
ATOM     42  C   UNL A   1      44.711  26.563  27.014  1.00  0.00     0.031 C 
ATOM     43  C   UNL A   1      38.579  28.329  29.633  1.00  0.00     0.029 A 
ATOM     44  C   UNL A   1      39.626  29.342  29.748  1.00  0.00     0.049 A 
ATOM     45  H   UNL A   1      41.594  29.203  29.076  1.00  0.00     0.167 HD
ATOM     46  C   UNL A   1      45.676  28.780  27.556  1.00  0.00     0.034 A 
ATOM     47  C   UNL A   1      39.475  30.554  30.324  1.00  0.00     0.034 A 
ATOM     48  C   UNL A   1      45.594  30.112  28.102  1.00  0.00     0.049 A 
ATOM     49  C   UNL A   1      40.645  31.503  30.342  1.00  0.00     0.074 A 
ATOM     50  C   UNL A   1      46.577  31.086  28.124  1.00  0.00     0.029 A 
ATOM     51  N   UNL A   1      44.475  30.661  28.711  1.00  0.00    -0.354 N 
ATOM     52  N   UNL A   1      41.844  31.338  29.836  1.00  0.00    -0.248 NA
ATOM     53  C   UNL A   1      40.448  32.800  31.003  1.00  0.00     0.031 C 
ATOM     54  C   UNL A   1      46.075  32.197  28.801  1.00  0.00     0.029 A 
ATOM     55  C   UNL A   1      44.752  31.951  29.134  1.00  0.00     0.049 A 
ATOM     56  H   UNL A   1      43.611  30.203  28.825  1.00  0.00     0.167 HD
ATOM     57  C   UNL A   1      42.539  32.515  30.101  1.00  0.00     0.074 A 
ATOM     58  C   UNL A   1      41.616  33.394  30.789  1.00  0.00     0.031 C 
ATOM     59  C   UNL A   1      43.825  32.832  29.804  1.00  0.00     0.034 A 
BRANCH  46  60
ATOM     60  C   UNL A   1      46.983  28.364  26.924  1.00  0.00     0.023 A 
ATOM     61  C   UNL A   1      47.092  28.266  25.524  1.00  0.00     0.031 A 
ATOM     62  C   UNL A   1      48.071  27.938  27.706  1.00  0.00     0.131 A 
ATOM     63  C   UNL A   1      48.249  27.722  24.951  1.00  0.00     0.055 A 
ATOM     64  C   UNL A   1      49.239  27.436  27.129  1.00  0.00     0.041 A 
ATOM     65  F   UNL A   1      48.017  28.010  29.046  1.00  0.00    -0.206 F 
ATOM     66  C   UNL A   1      49.325  27.314  25.745  1.00  0.00     0.022 A 
BRANCH  63  67
ATOM     67  S   UNL A   1      48.378  27.457  23.161  1.00  0.00     0.124 S 
ATOM     68  O   UNL A   1      48.304  26.001  23.068  1.00  0.00    -0.237 OA
ATOM     69  O   UNL A   1      47.208  28.175  22.661  1.00  0.00    -0.237 OA
ATOM     70  O   UNL A   1      49.671  28.037  22.812  1.00  0.00    -0.744 OA
ENDBRANCH  63  67
ENDBRANCH  46  60
BRANCH  47  71
ATOM     71  C   UNL A   1      38.141  30.926  30.880  1.00  0.00     0.023 A 
ATOM     72  C   UNL A   1      37.167  31.541  30.070  1.00  0.00     0.031 A 
ATOM     73  C   UNL A   1      37.870  30.794  32.252  1.00  0.00     0.131 A 
ATOM     74  C   UNL A   1      36.012  32.078  30.654  1.00  0.00     0.055 A 
ATOM     75  C   UNL A   1      36.681  31.259  32.816  1.00  0.00     0.041 A 
ATOM     76  F   UNL A   1      38.771  30.225  33.067  1.00  0.00    -0.206 F 
ATOM     77  C   UNL A   1      35.754  31.925  32.018  1.00  0.00     0.022 A 
BRANCH  74  78
ATOM     78  S   UNL A   1      34.886  33.123  29.688  1.00  0.00     0.124 S 
ATOM     79  O   UNL A   1      35.808  34.056  29.049  1.00  0.00    -0.237 OA
ATOM     80  O   UNL A   1      34.263  32.144  28.799  1.00  0.00    -0.237 OA
ATOM     81  O   UNL A   1      34.001  33.699  30.693  1.00  0.00    -0.744 OA
ENDBRANCH  74  78
ENDBRANCH  47  71
BRANCH  59  82
ATOM     82  C   UNL A   1      44.351  34.191  30.205  1.00  0.00     0.023 A 
ATOM     83  C   UNL A   1      44.856  34.392  31.505  1.00  0.00     0.031 A 
ATOM     84  C   UNL A   1      44.189  35.311  29.373  1.00  0.00     0.131 A 
ATOM     85  C   UNL A   1      45.129  35.690  31.953  1.00  0.00     0.055 A 
ATOM     86  C   UNL A   1      44.512  36.598  29.808  1.00  0.00     0.041 A 
ATOM     87  F   UNL A   1      43.702  35.172  28.130  1.00  0.00    -0.206 F 
ATOM     88  C   UNL A   1      44.968  36.793  31.108  1.00  0.00     0.022 A 
BRANCH  85  89
ATOM     89  S   UNL A   1      45.609  36.005  33.674  1.00  0.00     0.124 S 
ATOM     90  O   UNL A   1      47.056  36.172  33.559  1.00  0.00    -0.237 OA
ATOM     91  O   UNL A   1      44.864  37.223  33.981  1.00  0.00    -0.237 OA
ATOM     92  O   UNL A   1      45.177  34.807  34.385  1.00  0.00    -0.744 OA
ENDBRANCH  85  89
ENDBRANCH  59  82
ENDBRANCH  33  34
ENDBRANCH  25  28
ENDBRANCH  23  24
ENDBRANCH  22  23
ENDBRANCH   1  22
TORSDOF 17
ENDMDL
