MODEL 1
REMARK VINA RESULT:     -12.3      0.000      0.000
REMARK SMILES Cc1n[nH]c(C[N@H+]2CCC[C@H](c3cccc(C(=O)NCCCCCCNC(=O)c4ccc(-c5c6nc(c(-c7cc(S(=O)(=O)[O-])ccc7F)c7ccc([nH]7)c(-c7cc(S(=O)(=O)[O-])ccc7F)c7nc(c(-c8cc(S(=O)(=O)[O-])ccc8F)c8ccc5[nH]8)C=C7)C=C6)cc4)c3)C2)n1
REMARK SMILES IDX 22 1 21 2 20 3 19 4 17 5 18 6 16 8 12 9 13 10 92 11 14 12
REMARK SMILES IDX 15 13 11 14 7 15 8 16 93 17 9 19 10 20 6 21 5 22 1 23 2 24
REMARK SMILES IDX 3 25 94 26 4 27 23 29 24 30 25 31 26 32 27 33 28 35 29 36
REMARK SMILES IDX 30 37 91 38 31 39 90 40 32 41 33 42 34 43 84 44 35 45 89 46
REMARK SMILES IDX 83 47 85 48 36 49 88 50 82 51 81 52 37 54 69 55 49 56 68 57
REMARK SMILES IDX 50 58 53 59 67 60 86 61 51 62 52 63 66 65 87 66 54 67 38 68
REMARK SMILES IDX 39 69 47 70 40 71 46 72 48 73 45 74 41 75 42 76 43 77 44 78
REMARK SMILES IDX 70 79 71 80 79 81 72 82 78 83 80 84 77 85 73 86 74 87 75 88
REMARK SMILES IDX 76 89 55 90 56 91 64 92 57 93 63 94 65 95 62 96 58 97 59 98
REMARK SMILES IDX 60 99 61 100
REMARK H PARENT 19 7 7 18 4 28 26 34 85 53 53 64
REMARK Flexibility Score: inf
ROOT
ATOM      1  C   UNL A   1      34.050  28.278  26.468  1.00  0.00     0.002 C 
ENDROOT
BRANCH   1   2
ATOM      2  C   UNL A   1      33.979  27.934  24.983  1.00  0.00     0.021 C 
BRANCH   2   3
ATOM      3  C   UNL A   1      33.892  26.459  24.621  1.00  0.00     0.116 C 
BRANCH   3   4
ATOM      4  N   UNL A   1      33.547  26.167  23.235  1.00  0.00    -0.352 N 
ATOM      5  C   UNL A   1      33.654  25.001  22.500  1.00  0.00     0.251 C 
ATOM      6  O   UNL A   1      33.266  24.998  21.332  1.00  0.00    -0.269 OA
ATOM      7  H   UNL A   1      33.175  26.931  22.737  1.00  0.00     0.163 HD
BRANCH   5   8
ATOM      8  C   UNL A   1      34.280  23.769  23.058  1.00  0.00     0.040 A 
ATOM      9  C   UNL A   1      34.088  21.776  24.451  1.00  0.00    -0.039 A 
ATOM     10  C   UNL A   1      35.487  21.698  24.483  1.00  0.00     0.004 A 
ATOM     11  C   UNL A   1      33.518  22.748  23.621  1.00  0.00     0.018 A 
ATOM     12  C   UNL A   1      36.274  22.603  23.766  1.00  0.00     0.001 A 
ATOM     13  C   UNL A   1      35.673  23.662  23.087  1.00  0.00     0.014 A 
BRANCH   9  14
ATOM     14  C   UNL A   1      33.179  21.012  25.419  1.00  0.00     0.074 C 
ATOM     15  N   UNL A   1      31.838  22.888  26.346  1.00  0.00    -0.328 N 
ATOM     16  C   UNL A   1      32.417  22.709  27.684  1.00  0.00     0.262 C 
ATOM     17  C   UNL A   1      31.774  21.606  25.618  1.00  0.00     0.270 C 
ATOM     18  H   UNL A   1      32.471  23.513  25.845  1.00  0.00     0.348 HD
ATOM     19  C   UNL A   1      33.802  22.054  27.627  1.00  0.00     0.062 C 
ATOM     20  C   UNL A   1      33.768  20.759  26.823  1.00  0.00     0.020 C 
BRANCH  15  21
ATOM     21  C   UNL A   1      30.529  23.565  26.360  1.00  0.00     0.340 C 
BRANCH  21  22
ATOM     22  C   UNL A   1      30.520  24.913  25.723  1.00  0.00     0.179 A 
ATOM     23  C   UNL A   1      29.711  27.357  23.316  1.00  0.00     0.092 C 
ATOM     24  C   UNL A   1      30.180  26.585  24.485  1.00  0.00     0.147 A 
ATOM     25  N   UNL A   1      30.533  27.148  25.648  1.00  0.00    -0.159 NA
ATOM     26  N   UNL A   1      30.215  25.220  24.480  1.00  0.00    -0.211 NA
ATOM     27  N   UNL A   1      30.762  26.066  26.409  1.00  0.00    -0.258 N 
ATOM     28  H   UNL A   1      31.067  26.101  27.345  1.00  0.00     0.192 HD
ENDBRANCH  21  22
ENDBRANCH  15  21
ENDBRANCH   9  14
ENDBRANCH   5   8
ENDBRANCH   3   4
ENDBRANCH   2   3
ENDBRANCH   1   2
BRANCH   1  29
ATOM     29  C   UNL A   1      32.894  29.095  27.055  1.00  0.00     0.002 C 
BRANCH  29  30
ATOM     30  C   UNL A   1      33.113  30.599  27.270  1.00  0.00     0.021 C 
BRANCH  30  31
ATOM     31  C   UNL A   1      34.549  31.016  27.562  1.00  0.00     0.116 C 
BRANCH  31  32
ATOM     32  N   UNL A   1      34.659  31.946  28.680  1.00  0.00    -0.352 N 
ATOM     33  C   UNL A   1      35.540  31.895  29.747  1.00  0.00     0.251 C 
ATOM     34  H   UNL A   1      34.029  32.702  28.676  1.00  0.00     0.163 HD
ATOM     35  O   UNL A   1      35.278  32.478  30.787  1.00  0.00    -0.269 OA
BRANCH  33  36
ATOM     36  C   UNL A   1      36.791  31.117  29.609  1.00  0.00     0.039 A 
ATOM     37  C   UNL A   1      38.037  31.739  29.715  1.00  0.00     0.014 A 
ATOM     38  C   UNL A   1      36.706  29.745  29.387  1.00  0.00     0.014 A 
ATOM     39  C   UNL A   1      39.188  30.952  29.688  1.00  0.00     0.010 A 
ATOM     40  C   UNL A   1      37.829  28.957  29.494  1.00  0.00     0.010 A 
ATOM     41  C   UNL A   1      39.079  29.552  29.610  1.00  0.00    -0.014 A 
BRANCH  41  42
ATOM     42  C   UNL A   1      40.255  28.705  29.818  1.00  0.00     0.031 A 
ATOM     43  C   UNL A   1      40.596  28.488  31.250  1.00  0.00     0.074 A 
ATOM     44  C   UNL A   1      40.871  27.990  28.848  1.00  0.00     0.049 A 
ATOM     45  N   UNL A   1      41.615  28.953  31.893  1.00  0.00    -0.248 NA
ATOM     46  C   UNL A   1      39.610  27.816  32.113  1.00  0.00     0.031 C 
ATOM     47  C   UNL A   1      40.485  27.868  27.439  1.00  0.00     0.029 A 
ATOM     48  N   UNL A   1      41.921  27.124  28.943  1.00  0.00    -0.354 N 
ATOM     49  C   UNL A   1      41.541  28.402  33.167  1.00  0.00     0.074 A 
ATOM     50  C   UNL A   1      40.195  27.916  33.309  1.00  0.00     0.031 C 
ATOM     51  C   UNL A   1      41.129  26.821  26.878  1.00  0.00     0.029 A 
ATOM     52  C   UNL A   1      42.096  26.302  27.829  1.00  0.00     0.049 A 
ATOM     53  H   UNL A   1      42.508  27.083  29.733  1.00  0.00     0.167 HD
ATOM     54  C   UNL A   1      42.673  28.143  33.880  1.00  0.00     0.034 A 
ATOM     55  C   UNL A   1      42.961  25.260  27.688  1.00  0.00     0.034 A 
ATOM     56  C   UNL A   1      43.805  28.870  33.343  1.00  0.00     0.049 A 
ATOM     57  C   UNL A   1      44.055  25.482  28.663  1.00  0.00     0.074 A 
ATOM     58  C   UNL A   1      44.050  30.203  33.064  1.00  0.00     0.029 A 
ATOM     59  N   UNL A   1      44.745  28.170  32.620  1.00  0.00    -0.354 N 
ATOM     60  N   UNL A   1      44.883  26.488  28.590  1.00  0.00    -0.248 NA
ATOM     61  C   UNL A   1      43.933  24.876  29.979  1.00  0.00     0.031 C 
ATOM     62  C   UNL A   1      44.737  30.192  31.813  1.00  0.00     0.029 A 
ATOM     63  C   UNL A   1      44.964  28.862  31.453  1.00  0.00     0.049 A 
ATOM     64  H   UNL A   1      45.180  27.328  32.890  1.00  0.00     0.167 HD
ATOM     65  C   UNL A   1      45.024  26.927  29.896  1.00  0.00     0.074 A 
ATOM     66  C   UNL A   1      44.504  25.833  30.717  1.00  0.00     0.031 C 
ATOM     67  C   UNL A   1      45.281  28.238  30.181  1.00  0.00     0.034 A 
BRANCH  54  68
ATOM     68  C   UNL A   1      42.844  26.953  34.801  1.00  0.00     0.023 A 
ATOM     69  C   UNL A   1      43.596  25.865  34.322  1.00  0.00     0.031 A 
ATOM     70  C   UNL A   1      42.086  26.705  35.970  1.00  0.00     0.131 A 
ATOM     71  C   UNL A   1      43.499  24.598  34.924  1.00  0.00     0.055 A 
ATOM     72  C   UNL A   1      42.052  25.463  36.609  1.00  0.00     0.041 A 
ATOM     73  F   UNL A   1      41.259  27.610  36.506  1.00  0.00    -0.206 F 
ATOM     74  C   UNL A   1      42.735  24.389  36.068  1.00  0.00     0.022 A 
BRANCH  71  75
ATOM     75  S   UNL A   1      44.242  23.183  34.072  1.00  0.00     0.124 S 
ATOM     76  O   UNL A   1      43.289  22.962  32.990  1.00  0.00    -0.237 OA
ATOM     77  O   UNL A   1      45.544  23.715  33.686  1.00  0.00    -0.237 OA
ATOM     78  O   UNL A   1      44.272  22.147  35.102  1.00  0.00    -0.744 OA
ENDBRANCH  71  75
ENDBRANCH  54  68
BRANCH  55  79
ATOM     79  C   UNL A   1      42.736  23.966  26.980  1.00  0.00     0.023 A 
ATOM     80  C   UNL A   1      43.722  23.338  26.187  1.00  0.00     0.031 A 
ATOM     81  C   UNL A   1      41.596  23.192  27.295  1.00  0.00     0.131 A 
ATOM     82  C   UNL A   1      43.549  22.000  25.755  1.00  0.00     0.055 A 
ATOM     83  C   UNL A   1      41.430  21.873  26.865  1.00  0.00     0.041 A 
ATOM     84  F   UNL A   1      40.639  23.663  28.111  1.00  0.00    -0.206 F 
ATOM     85  C   UNL A   1      42.412  21.267  26.101  1.00  0.00     0.022 A 
BRANCH  82  86
ATOM     86  S   UNL A   1      44.857  21.148  24.808  1.00  0.00     0.124 S 
ATOM     87  O   UNL A   1      46.067  21.559  25.510  1.00  0.00    -0.237 OA
ATOM     88  O   UNL A   1      44.476  19.746  24.935  1.00  0.00    -0.237 OA
ATOM     89  O   UNL A   1      44.715  21.698  23.459  1.00  0.00    -0.744 OA
ENDBRANCH  82  86
ENDBRANCH  55  79
BRANCH  67  90
ATOM     90  C   UNL A   1      45.738  29.153  29.057  1.00  0.00     0.023 A 
ATOM     91  C   UNL A   1      44.909  30.038  28.329  1.00  0.00     0.031 A 
ATOM     92  C   UNL A   1      47.119  29.193  28.792  1.00  0.00     0.131 A 
ATOM     93  C   UNL A   1      45.472  30.907  27.372  1.00  0.00     0.055 A 
ATOM     94  C   UNL A   1      47.675  30.070  27.861  1.00  0.00     0.041 A 
ATOM     95  F   UNL A   1      47.965  28.394  29.462  1.00  0.00    -0.206 F 
ATOM     96  C   UNL A   1      46.852  30.926  27.143  1.00  0.00     0.022 A 
BRANCH  93  97
ATOM     97  S   UNL A   1      44.420  32.020  26.380  1.00  0.00     0.124 S 
ATOM     98  O   UNL A   1      45.304  32.464  25.308  1.00  0.00    -0.237 OA
ATOM     99  O   UNL A   1      43.321  31.145  25.982  1.00  0.00    -0.237 OA
ATOM    100  O   UNL A   1      44.045  33.069  27.332  1.00  0.00    -0.744 OA
ENDBRANCH  93  97
ENDBRANCH  67  90
ENDBRANCH  41  42
ENDBRANCH  33  36
ENDBRANCH  31  32
ENDBRANCH  30  31
ENDBRANCH  29  30
ENDBRANCH   1  29
TORSDOF 19
ENDMDL
MODEL 2
REMARK VINA RESULT:     -12.2      1.288      2.747
REMARK SMILES Cc1n[nH]c(C[N@H+]2CCC[C@H](c3cccc(C(=O)NCCCCCCNC(=O)c4ccc(-c5c6nc(c(-c7cc(S(=O)(=O)[O-])ccc7F)c7ccc([nH]7)c(-c7cc(S(=O)(=O)[O-])ccc7F)c7nc(c(-c8cc(S(=O)(=O)[O-])ccc8F)c8ccc5[nH]8)C=C7)C=C6)cc4)c3)C2)n1
REMARK SMILES IDX 22 1 21 2 20 3 19 4 17 5 18 6 16 8 12 9 13 10 92 11 14 12
REMARK SMILES IDX 15 13 11 14 7 15 8 16 93 17 9 19 10 20 6 21 5 22 1 23 2 24
REMARK SMILES IDX 3 25 94 26 4 27 23 29 24 30 25 31 26 32 27 33 28 35 29 36
REMARK SMILES IDX 30 37 91 38 31 39 90 40 32 41 33 42 34 43 84 44 35 45 89 46
REMARK SMILES IDX 83 47 85 48 36 49 88 50 82 51 81 52 37 54 69 55 49 56 68 57
REMARK SMILES IDX 50 58 53 59 67 60 86 61 51 62 52 63 66 65 87 66 54 67 38 68
REMARK SMILES IDX 39 69 47 70 40 71 46 72 48 73 45 74 41 75 42 76 43 77 44 78
REMARK SMILES IDX 70 79 71 80 79 81 72 82 78 83 80 84 77 85 73 86 74 87 75 88
REMARK SMILES IDX 76 89 55 90 56 91 64 92 57 93 63 94 65 95 62 96 58 97 59 98
REMARK SMILES IDX 60 99 61 100
REMARK H PARENT 19 7 7 18 4 28 26 34 85 53 53 64
REMARK Flexibility Score: inf
ROOT
ATOM      1  C   UNL A   1      32.576  28.247  27.083  1.00  0.00     0.002 C 
ENDROOT
BRANCH   1   2
ATOM      2  C   UNL A   1      32.639  26.946  26.289  1.00  0.00     0.021 C 
BRANCH   2   3
ATOM      3  C   UNL A   1      31.543  25.924  26.552  1.00  0.00     0.116 C 
BRANCH   3   4
ATOM      4  N   UNL A   1      30.304  26.120  25.811  1.00  0.00    -0.352 N 
ATOM      5  C   UNL A   1      30.052  26.136  24.451  1.00  0.00     0.251 C 
ATOM      6  O   UNL A   1      28.895  26.299  24.064  1.00  0.00    -0.269 OA
ATOM      7  H   UNL A   1      29.510  26.268  26.375  1.00  0.00     0.163 HD
BRANCH   5   8
ATOM      8  C   UNL A   1      31.144  26.023  23.444  1.00  0.00     0.040 A 
ATOM      9  C   UNL A   1      32.937  24.704  22.446  1.00  0.00    -0.039 A 
ATOM     10  C   UNL A   1      33.464  25.884  21.903  1.00  0.00     0.004 A 
ATOM     11  C   UNL A   1      31.704  24.794  23.102  1.00  0.00     0.018 A 
ATOM     12  C   UNL A   1      32.812  27.108  22.074  1.00  0.00     0.001 A 
ATOM     13  C   UNL A   1      31.675  27.185  22.877  1.00  0.00     0.014 A 
BRANCH   9  14
ATOM     14  C   UNL A   1      33.726  23.395  22.543  1.00  0.00     0.074 C 
ATOM     15  N   UNL A   1      32.815  22.481  24.666  1.00  0.00    -0.328 N 
ATOM     16  C   UNL A   1      34.111  22.619  25.342  1.00  0.00     0.262 C 
ATOM     17  C   UNL A   1      32.993  22.227  23.223  1.00  0.00     0.270 C 
ATOM     18  H   UNL A   1      32.337  23.375  24.781  1.00  0.00     0.348 HD
ATOM     19  C   UNL A   1      34.975  23.715  24.708  1.00  0.00     0.062 C 
ATOM     20  C   UNL A   1      35.116  23.505  23.204  1.00  0.00     0.020 C 
BRANCH  15  21
ATOM     21  C   UNL A   1      31.936  21.472  25.285  1.00  0.00     0.340 C 
BRANCH  21  22
ATOM     22  C   UNL A   1      32.348  20.059  25.048  1.00  0.00     0.179 A 
ATOM     23  C   UNL A   1      33.488  17.280  23.206  1.00  0.00     0.092 C 
ATOM     24  C   UNL A   1      33.039  18.242  24.232  1.00  0.00     0.147 A 
ATOM     25  N   UNL A   1      33.243  18.071  25.545  1.00  0.00    -0.159 NA
ATOM     26  N   UNL A   1      32.443  19.425  23.899  1.00  0.00    -0.211 NA
ATOM     27  N   UNL A   1      32.778  19.229  26.040  1.00  0.00    -0.258 N 
ATOM     28  H   UNL A   1      32.750  19.450  27.000  1.00  0.00     0.192 HD
ENDBRANCH  21  22
ENDBRANCH  15  21
ENDBRANCH   9  14
ENDBRANCH   5   8
ENDBRANCH   3   4
ENDBRANCH   2   3
ENDBRANCH   1   2
BRANCH   1  29
ATOM     29  C   UNL A   1      32.560  29.556  26.287  1.00  0.00     0.002 C 
BRANCH  29  30
ATOM     30  C   UNL A   1      33.037  30.833  26.994  1.00  0.00     0.021 C 
BRANCH  30  31
ATOM     31  C   UNL A   1      34.360  30.712  27.739  1.00  0.00     0.116 C 
BRANCH  31  32
ATOM     32  N   UNL A   1      34.559  31.766  28.728  1.00  0.00    -0.352 N 
ATOM     33  C   UNL A   1      35.522  31.833  29.720  1.00  0.00     0.251 C 
ATOM     34  H   UNL A   1      33.930  32.522  28.685  1.00  0.00     0.163 HD
ATOM     35  O   UNL A   1      35.344  32.536  30.702  1.00  0.00    -0.269 OA
BRANCH  33  36
ATOM     36  C   UNL A   1      36.758  31.033  29.576  1.00  0.00     0.039 A 
ATOM     37  C   UNL A   1      38.010  31.651  29.523  1.00  0.00     0.014 A 
ATOM     38  C   UNL A   1      36.655  29.645  29.510  1.00  0.00     0.014 A 
ATOM     39  C   UNL A   1      39.154  30.855  29.498  1.00  0.00     0.010 A 
ATOM     40  C   UNL A   1      37.781  28.863  29.619  1.00  0.00     0.010 A 
ATOM     41  C   UNL A   1      39.038  29.455  29.579  1.00  0.00    -0.014 A 
BRANCH  41  42
ATOM     42  C   UNL A   1      40.225  28.624  29.791  1.00  0.00     0.031 A 
ATOM     43  C   UNL A   1      40.581  28.437  31.223  1.00  0.00     0.074 A 
ATOM     44  C   UNL A   1      40.839  27.899  28.828  1.00  0.00     0.049 A 
ATOM     45  N   UNL A   1      41.601  28.923  31.848  1.00  0.00    -0.248 NA
ATOM     46  C   UNL A   1      39.610  27.770  32.107  1.00  0.00     0.031 C 
ATOM     47  C   UNL A   1      40.442  27.748  27.425  1.00  0.00     0.029 A 
ATOM     48  N   UNL A   1      41.899  27.046  28.928  1.00  0.00    -0.354 N 
ATOM     49  C   UNL A   1      41.544  28.394  33.132  1.00  0.00     0.074 A 
ATOM     50  C   UNL A   1      40.205  27.896  33.295  1.00  0.00     0.031 C 
ATOM     51  C   UNL A   1      41.092  26.698  26.877  1.00  0.00     0.029 A 
ATOM     52  C   UNL A   1      42.073  26.205  27.827  1.00  0.00     0.049 A 
ATOM     53  H   UNL A   1      42.493  27.024  29.713  1.00  0.00     0.167 HD
ATOM     54  C   UNL A   1      42.686  28.160  33.840  1.00  0.00     0.034 A 
ATOM     55  C   UNL A   1      42.947  25.171  27.697  1.00  0.00     0.034 A 
ATOM     56  C   UNL A   1      43.804  28.888  33.279  1.00  0.00     0.049 A 
ATOM     57  C   UNL A   1      44.048  25.421  28.657  1.00  0.00     0.074 A 
ATOM     58  C   UNL A   1      44.033  30.219  32.974  1.00  0.00     0.029 A 
ATOM     59  N   UNL A   1      44.745  28.186  32.560  1.00  0.00    -0.354 N 
ATOM     60  N   UNL A   1      44.864  26.435  28.559  1.00  0.00    -0.248 NA
ATOM     61  C   UNL A   1      43.944  24.837  29.984  1.00  0.00     0.031 C 
ATOM     62  C   UNL A   1      44.709  30.193  31.717  1.00  0.00     0.029 A 
ATOM     63  C   UNL A   1      44.947  28.859  31.379  1.00  0.00     0.049 A 
ATOM     64  H   UNL A   1      45.192  27.353  32.840  1.00  0.00     0.167 HD
ATOM     65  C   UNL A   1      45.012  26.898  29.855  1.00  0.00     0.074 A 
ATOM     66  C   UNL A   1      44.512  25.813  30.700  1.00  0.00     0.031 C 
ATOM     67  C   UNL A   1      45.259  28.216  30.115  1.00  0.00     0.034 A 
BRANCH  54  68
ATOM     68  C   UNL A   1      42.877  26.988  34.780  1.00  0.00     0.023 A 
ATOM     69  C   UNL A   1      43.647  25.905  34.317  1.00  0.00     0.031 A 
ATOM     70  C   UNL A   1      42.124  26.746  35.954  1.00  0.00     0.131 A 
ATOM     71  C   UNL A   1      43.573  24.647  34.940  1.00  0.00     0.055 A 
ATOM     72  C   UNL A   1      42.113  25.514  36.612  1.00  0.00     0.041 A 
ATOM     73  F   UNL A   1      41.283  27.645  36.475  1.00  0.00    -0.206 F 
ATOM     74  C   UNL A   1      42.813  24.444  36.089  1.00  0.00     0.022 A 
BRANCH  71  75
ATOM     75  S   UNL A   1      44.340  23.230  34.111  1.00  0.00     0.124 S 
ATOM     76  O   UNL A   1      43.345  22.919  33.090  1.00  0.00    -0.237 OA
ATOM     77  O   UNL A   1      45.594  23.805  33.636  1.00  0.00    -0.237 OA
ATOM     78  O   UNL A   1      44.471  22.243  35.180  1.00  0.00    -0.744 OA
ENDBRANCH  71  75
ENDBRANCH  54  68
BRANCH  55  79
ATOM     79  C   UNL A   1      42.729  23.862  27.014  1.00  0.00     0.023 A 
ATOM     80  C   UNL A   1      43.657  23.300  26.108  1.00  0.00     0.031 A 
ATOM     81  C   UNL A   1      41.689  23.013  27.456  1.00  0.00     0.131 A 
ATOM     82  C   UNL A   1      43.526  21.952  25.693  1.00  0.00     0.055 A 
ATOM     83  C   UNL A   1      41.564  21.684  27.042  1.00  0.00     0.041 A 
ATOM     84  F   UNL A   1      40.804  23.420  28.381  1.00  0.00    -0.206 F 
ATOM     85  C   UNL A   1      42.489  21.144  26.166  1.00  0.00     0.022 A 
BRANCH  82  86
ATOM     86  S   UNL A   1      44.768  21.187  24.596  1.00  0.00     0.124 S 
ATOM     87  O   UNL A   1      44.230  19.846  24.402  1.00  0.00    -0.237 OA
ATOM     88  O   UNL A   1      44.750  22.070  23.435  1.00  0.00    -0.237 OA
ATOM     89  O   UNL A   1      46.001  21.244  25.384  1.00  0.00    -0.744 OA
ENDBRANCH  82  86
ENDBRANCH  55  79
BRANCH  67  90
ATOM     90  C   UNL A   1      45.695  29.116  28.971  1.00  0.00     0.023 A 
ATOM     91  C   UNL A   1      44.866  30.033  28.285  1.00  0.00     0.031 A 
ATOM     92  C   UNL A   1      47.063  29.104  28.639  1.00  0.00     0.131 A 
ATOM     93  C   UNL A   1      45.416  30.883  27.301  1.00  0.00     0.055 A 
ATOM     94  C   UNL A   1      47.606  29.961  27.683  1.00  0.00     0.041 A 
ATOM     95  F   UNL A   1      47.909  28.271  29.268  1.00  0.00    -0.206 F 
ATOM     96  C   UNL A   1      46.783  30.850  27.006  1.00  0.00     0.022 A 
BRANCH  93  97
ATOM     97  S   UNL A   1      44.360  32.038  26.362  1.00  0.00     0.124 S 
ATOM     98  O   UNL A   1      45.247  32.543  25.320  1.00  0.00    -0.237 OA
ATOM     99  O   UNL A   1      43.270  31.177  25.913  1.00  0.00    -0.237 OA
ATOM    100  O   UNL A   1      43.972  33.033  27.365  1.00  0.00    -0.744 OA
ENDBRANCH  93  97
ENDBRANCH  67  90
ENDBRANCH  41  42
ENDBRANCH  33  36
ENDBRANCH  31  32
ENDBRANCH  30  31
ENDBRANCH  29  30
ENDBRANCH   1  29
TORSDOF 19
ENDMDL
MODEL 3
REMARK VINA RESULT:     -11.9      3.612      7.706
REMARK SMILES Cc1n[nH]c(C[N@H+]2CCC[C@H](c3cccc(C(=O)NCCCCCCNC(=O)c4ccc(-c5c6nc(c(-c7cc(S(=O)(=O)[O-])ccc7F)c7ccc([nH]7)c(-c7cc(S(=O)(=O)[O-])ccc7F)c7nc(c(-c8cc(S(=O)(=O)[O-])ccc8F)c8ccc5[nH]8)C=C7)C=C6)cc4)c3)C2)n1
REMARK SMILES IDX 22 1 21 2 20 3 19 4 17 5 18 6 16 8 12 9 13 10 92 11 14 12
REMARK SMILES IDX 15 13 11 14 7 15 8 16 93 17 9 19 10 20 6 21 5 22 1 23 2 24
REMARK SMILES IDX 3 25 94 26 4 27 23 29 24 30 25 31 26 32 27 33 28 35 29 36
REMARK SMILES IDX 30 37 91 38 31 39 90 40 32 41 33 42 34 43 84 44 35 45 89 46
REMARK SMILES IDX 83 47 85 48 36 49 88 50 82 51 81 52 37 54 69 55 49 56 68 57
REMARK SMILES IDX 50 58 53 59 67 60 86 61 51 62 52 63 66 65 87 66 54 67 38 68
REMARK SMILES IDX 39 69 47 70 40 71 46 72 48 73 45 74 41 75 42 76 43 77 44 78
REMARK SMILES IDX 70 79 71 80 79 81 72 82 78 83 80 84 77 85 73 86 74 87 75 88
REMARK SMILES IDX 76 89 55 90 56 91 64 92 57 93 63 94 65 95 62 96 58 97 59 98
REMARK SMILES IDX 60 99 61 100
REMARK H PARENT 19 7 7 18 4 28 26 34 85 53 53 64
REMARK Flexibility Score: inf
ROOT
ATOM      1  C   UNL A   1      32.377  29.240  25.659  1.00  0.00     0.002 C 
ENDROOT
BRANCH   1   2
ATOM      2  C   UNL A   1      32.020  29.372  24.182  1.00  0.00     0.021 C 
BRANCH   2   3
ATOM      3  C   UNL A   1      33.075  28.934  23.176  1.00  0.00     0.116 C 
BRANCH   3   4
ATOM      4  N   UNL A   1      32.654  27.919  22.219  1.00  0.00    -0.352 N 
ATOM      5  C   UNL A   1      32.294  26.596  22.398  1.00  0.00     0.251 C 
ATOM      6  O   UNL A   1      31.946  25.937  21.419  1.00  0.00    -0.269 OA
ATOM      7  H   UNL A   1      32.620  28.228  21.285  1.00  0.00     0.163 HD
BRANCH   5   8
ATOM      8  C   UNL A   1      32.374  25.929  23.729  1.00  0.00     0.040 A 
ATOM      9  C   UNL A   1      33.465  24.310  25.190  1.00  0.00    -0.039 A 
ATOM     10  C   UNL A   1      32.331  24.332  26.014  1.00  0.00     0.004 A 
ATOM     11  C   UNL A   1      33.505  25.219  24.127  1.00  0.00     0.018 A 
ATOM     12  C   UNL A   1      31.258  25.183  25.737  1.00  0.00     0.001 A 
ATOM     13  C   UNL A   1      31.261  25.951  24.574  1.00  0.00     0.014 A 
BRANCH   9  14
ATOM     14  C   UNL A   1      34.540  23.221  25.265  1.00  0.00     0.074 C 
ATOM     15  N   UNL A   1      33.125  21.186  25.075  1.00  0.00    -0.328 N 
ATOM     16  C   UNL A   1      33.450  20.769  26.445  1.00  0.00     0.262 C 
ATOM     17  C   UNL A   1      34.241  21.939  24.469  1.00  0.00     0.270 C 
ATOM     18  H   UNL A   1      32.319  21.808  25.152  1.00  0.00     0.348 HD
ATOM     19  C   UNL A   1      33.838  21.960  27.331  1.00  0.00     0.062 C 
ATOM     20  C   UNL A   1      34.946  22.787  26.689  1.00  0.00     0.020 C 
BRANCH  15  21
ATOM     21  C   UNL A   1      32.695  20.073  24.211  1.00  0.00     0.340 C 
BRANCH  21  22
ATOM     22  C   UNL A   1      33.044  18.718  24.724  1.00  0.00     0.179 A 
ATOM     23  C   UNL A   1      32.472  15.407  25.788  1.00  0.00     0.092 C 
ATOM     24  C   UNL A   1      33.026  16.712  25.372  1.00  0.00     0.147 A 
ATOM     25  N   UNL A   1      34.301  16.888  25.001  1.00  0.00    -0.159 NA
ATOM     26  N   UNL A   1      32.243  17.826  25.267  1.00  0.00    -0.211 NA
ATOM     27  N   UNL A   1      34.289  18.174  24.613  1.00  0.00    -0.258 N 
ATOM     28  H   UNL A   1      35.081  18.662  24.290  1.00  0.00     0.192 HD
ENDBRANCH  21  22
ENDBRANCH  15  21
ENDBRANCH   9  14
ENDBRANCH   5   8
ENDBRANCH   3   4
ENDBRANCH   2   3
ENDBRANCH   1   2
BRANCH   1  29
ATOM     29  C   UNL A   1      31.535  30.040  26.659  1.00  0.00     0.002 C 
BRANCH  29  30
ATOM     30  C   UNL A   1      31.560  31.572  26.555  1.00  0.00     0.021 C 
BRANCH  30  31
ATOM     31  C   UNL A   1      32.757  32.252  27.206  1.00  0.00     0.116 C 
BRANCH  31  32
ATOM     32  N   UNL A   1      32.470  33.610  27.656  1.00  0.00    -0.352 N 
ATOM     33  C   UNL A   1      33.097  34.325  28.662  1.00  0.00     0.251 C 
ATOM     34  H   UNL A   1      31.741  34.075  27.187  1.00  0.00     0.163 HD
ATOM     35  O   UNL A   1      32.526  35.262  29.197  1.00  0.00    -0.269 OA
BRANCH  33  36
ATOM     36  C   UNL A   1      34.459  33.928  29.084  1.00  0.00     0.039 A 
ATOM     37  C   UNL A   1      34.658  33.162  30.235  1.00  0.00     0.014 A 
ATOM     38  C   UNL A   1      35.544  34.320  28.303  1.00  0.00     0.014 A 
ATOM     39  C   UNL A   1      35.945  32.718  30.535  1.00  0.00     0.010 A 
ATOM     40  C   UNL A   1      36.787  33.775  28.524  1.00  0.00     0.010 A 
ATOM     41  C   UNL A   1      37.007  33.000  29.657  1.00  0.00    -0.014 A 
BRANCH  41  42
ATOM     42  C   UNL A   1      38.306  32.347  29.832  1.00  0.00     0.031 A 
ATOM     43  C   UNL A   1      38.329  30.924  29.401  1.00  0.00     0.074 A 
ATOM     44  C   UNL A   1      39.455  32.991  30.144  1.00  0.00     0.049 A 
ATOM     45  N   UNL A   1      38.425  29.878  30.152  1.00  0.00    -0.248 NA
ATOM     46  C   UNL A   1      38.047  30.613  27.989  1.00  0.00     0.031 C 
ATOM     47  C   UNL A   1      39.660  34.431  30.320  1.00  0.00     0.029 A 
ATOM     48  N   UNL A   1      40.721  32.495  30.264  1.00  0.00    -0.354 N 
ATOM     49  C   UNL A   1      38.494  28.794  29.284  1.00  0.00     0.074 A 
ATOM     50  C   UNL A   1      38.031  29.278  28.011  1.00  0.00     0.031 C 
ATOM     51  C   UNL A   1      40.981  34.712  30.289  1.00  0.00     0.029 A 
ATOM     52  C   UNL A   1      41.725  33.465  30.262  1.00  0.00     0.049 A 
ATOM     53  H   UNL A   1      40.912  31.533  30.345  1.00  0.00     0.167 HD
ATOM     54  C   UNL A   1      39.194  27.675  29.622  1.00  0.00     0.034 A 
ATOM     55  C   UNL A   1      43.072  33.272  30.230  1.00  0.00     0.034 A 
ATOM     56  C   UNL A   1      39.442  27.627  31.048  1.00  0.00     0.049 A 
ATOM     57  C   UNL A   1      43.318  31.909  30.755  1.00  0.00     0.074 A 
ATOM     58  C   UNL A   1      38.635  27.699  32.170  1.00  0.00     0.029 A 
ATOM     59  N   UNL A   1      40.713  27.906  31.499  1.00  0.00    -0.354 N 
ATOM     60  N   UNL A   1      43.058  31.560  31.986  1.00  0.00    -0.248 NA
ATOM     61  C   UNL A   1      43.391  30.811  29.804  1.00  0.00     0.031 C 
ATOM     62  C   UNL A   1      39.355  28.526  33.084  1.00  0.00     0.029 A 
ATOM     63  C   UNL A   1      40.597  28.822  32.516  1.00  0.00     0.049 A 
ATOM     64  H   UNL A   1      41.552  27.520  31.155  1.00  0.00     0.167 HD
ATOM     65  C   UNL A   1      42.491  30.301  31.885  1.00  0.00     0.074 A 
ATOM     66  C   UNL A   1      42.820  29.848  30.533  1.00  0.00     0.031 C 
ATOM     67  C   UNL A   1      41.571  29.861  32.795  1.00  0.00     0.034 A 
BRANCH  54  68
ATOM     68  C   UNL A   1      39.985  26.837  28.639  1.00  0.00     0.023 A 
ATOM     69  C   UNL A   1      41.111  27.431  28.039  1.00  0.00     0.031 A 
ATOM     70  C   UNL A   1      39.541  25.631  28.045  1.00  0.00     0.131 A 
ATOM     71  C   UNL A   1      41.673  26.895  26.868  1.00  0.00     0.055 A 
ATOM     72  C   UNL A   1      40.150  25.063  26.924  1.00  0.00     0.041 A 
ATOM     73  F   UNL A   1      38.440  24.986  28.447  1.00  0.00    -0.206 F 
ATOM     74  C   UNL A   1      41.203  25.711  26.306  1.00  0.00     0.022 A 
BRANCH  71  75
ATOM     75  S   UNL A   1      42.910  27.877  25.981  1.00  0.00     0.124 S 
ATOM     76  O   UNL A   1      44.090  27.026  26.093  1.00  0.00    -0.237 OA
ATOM     77  O   UNL A   1      42.314  27.982  24.654  1.00  0.00    -0.237 OA
ATOM     78  O   UNL A   1      42.962  29.123  26.742  1.00  0.00    -0.744 OA
ENDBRANCH  71  75
ENDBRANCH  54  68
BRANCH  55  79
ATOM     79  C   UNL A   1      44.100  34.076  29.507  1.00  0.00     0.023 A 
ATOM     80  C   UNL A   1      44.501  33.803  28.180  1.00  0.00     0.031 A 
ATOM     81  C   UNL A   1      44.524  35.311  30.050  1.00  0.00     0.131 A 
ATOM     82  C   UNL A   1      45.279  34.743  27.458  1.00  0.00     0.055 A 
ATOM     83  C   UNL A   1      45.292  36.233  29.334  1.00  0.00     0.041 A 
ATOM     84  F   UNL A   1      44.128  35.706  31.271  1.00  0.00    -0.206 F 
ATOM     85  C   UNL A   1      45.664  35.957  28.030  1.00  0.00     0.022 A 
BRANCH  82  86
ATOM     86  S   UNL A   1      45.725  34.442  25.714  1.00  0.00     0.124 S 
ATOM     87  O   UNL A   1      46.733  35.467  25.470  1.00  0.00    -0.237 OA
ATOM     88  O   UNL A   1      46.195  33.062  25.742  1.00  0.00    -0.237 OA
ATOM     89  O   UNL A   1      44.464  34.642  24.999  1.00  0.00    -0.744 OA
ENDBRANCH  82  86
ENDBRANCH  55  79
BRANCH  67  90
ATOM     90  C   UNL A   1      41.414  30.624  34.100  1.00  0.00     0.023 A 
ATOM     91  C   UNL A   1      40.477  31.655  34.342  1.00  0.00     0.031 A 
ATOM     92  C   UNL A   1      42.200  30.195  35.185  1.00  0.00     0.131 A 
ATOM     93  C   UNL A   1      40.366  32.221  35.630  1.00  0.00     0.055 A 
ATOM     94  C   UNL A   1      42.071  30.740  36.462  1.00  0.00     0.041 A 
ATOM     95  F   UNL A   1      43.095  29.205  35.029  1.00  0.00    -0.206 F 
ATOM     96  C   UNL A   1      41.157  31.760  36.687  1.00  0.00     0.022 A 
BRANCH  93  97
ATOM     97  S   UNL A   1      39.204  33.589  35.957  1.00  0.00     0.124 S 
ATOM     98  O   UNL A   1      39.552  34.020  37.306  1.00  0.00    -0.237 OA
ATOM     99  O   UNL A   1      39.514  34.531  34.885  1.00  0.00    -0.237 OA
ATOM    100  O   UNL A   1      37.890  32.952  35.843  1.00  0.00    -0.744 OA
ENDBRANCH  93  97
ENDBRANCH  67  90
ENDBRANCH  41  42
ENDBRANCH  33  36
ENDBRANCH  31  32
ENDBRANCH  30  31
ENDBRANCH  29  30
ENDBRANCH   1  29
TORSDOF 19
ENDMDL
