MODEL 1
REMARK VINA RESULT:     -12.3      0.000      0.000
REMARK SMILES O=C(CC1(CC(=O)Nc2ccc3ccccc3n2)CCCCC1)NCCCCCCNC(=O)c1ccc(-c2c3nc(c(-c4cc(S(=O)(=O)[O-])ccc4F)c4ccc([nH]4)c(-c4cc(S(=O)(=O)[O-])ccc4F)c4nc(c(-c5cc(S(=O)(=O)[O-])ccc5F)c5ccc2[nH]5)C=C4)C=C3)cc1
REMARK SMILES IDX 27 1 26 2 25 3 24 4 1 5 2 6 3 8 4 9 19 10 23 11 20 12 22 13
REMARK SMILES IDX 21 14 5 15 6 16 7 17 8 18 9 20 10 21 18 22 11 23 17 24 12 25
REMARK SMILES IDX 16 26 13 27 15 28 14 29 28 30 29 31 30 32 31 33 32 34 33 36
REMARK SMILES IDX 34 37 35 38 96 39 36 40 95 41 37 42 38 43 39 44 89 45 40 46
REMARK SMILES IDX 94 47 88 48 90 49 41 50 93 51 87 52 86 53 42 55 74 56 54 57
REMARK SMILES IDX 73 58 55 59 58 60 72 61 91 62 56 63 57 64 71 66 92 67 59 68
REMARK SMILES IDX 43 69 44 70 52 71 45 72 51 73 53 74 50 75 46 76 47 77 48 78
REMARK SMILES IDX 49 79 75 80 76 81 84 82 77 83 83 84 85 85 82 86 78 87 79 88
REMARK SMILES IDX 80 89 81 90 60 91 61 92 69 93 62 94 68 95 70 96 67 97 63 98
REMARK SMILES IDX 64 99 65 100 66 101
REMARK H PARENT 24 7 8 19 31 35 90 54 58 65
REMARK Flexibility Score: inf
ROOT
ATOM      1  C   UNL A   1      31.790  29.116  27.045  1.00  0.00     0.002 C 
ENDROOT
BRANCH   1   2
ATOM      2  C   UNL A   1      32.226  27.717  26.597  1.00  0.00     0.021 C 
BRANCH   2   3
ATOM      3  C   UNL A   1      31.128  26.650  26.589  1.00  0.00     0.116 C 
BRANCH   3   4
ATOM      4  N   UNL A   1      31.497  25.457  25.850  1.00  0.00    -0.356 N 
ATOM      5  O   UNL A   1      30.274  24.008  27.140  1.00  0.00    -0.275 OA
ATOM      6  C   UNL A   1      30.953  24.230  26.140  1.00  0.00     0.220 C 
ATOM      7  H   UNL A   1      32.156  25.529  25.122  1.00  0.00     0.163 HD
BRANCH   6   8
ATOM      8  C   UNL A   1      31.230  23.135  25.111  1.00  0.00     0.107 C 
BRANCH   8   9
ATOM      9  C   UNL A   1      32.730  22.722  24.945  1.00  0.00    -0.012 C 
ATOM     10  C   UNL A   1      33.391  22.689  26.366  1.00  0.00     0.008 C 
ATOM     11  C   UNL A   1      32.857  21.270  24.478  1.00  0.00     0.008 C 
ATOM     12  C   UNL A   1      34.835  22.155  26.381  1.00  0.00     0.001 C 
ATOM     13  C   UNL A   1      34.307  20.834  24.277  1.00  0.00     0.001 C 
ATOM     14  C   UNL A   1      35.036  20.850  25.607  1.00  0.00     0.000 C 
BRANCH   9  15
ATOM     15  C   UNL A   1      33.509  23.737  24.054  1.00  0.00     0.108 C 
BRANCH  15  16
ATOM     16  C   UNL A   1      33.213  23.976  22.571  1.00  0.00     0.226 C 
ATOM     17  O   UNL A   1      33.849  23.318  21.737  1.00  0.00    -0.275 OA
ATOM     18  N   UNL A   1      32.100  24.654  22.159  1.00  0.00    -0.311 N 
ATOM     19  H   UNL A   1      31.546  24.194  21.488  1.00  0.00     0.171 HD
BRANCH  18  20
ATOM     20  C   UNL A   1      31.637  25.912  22.560  1.00  0.00     0.133 A 
ATOM     21  C   UNL A   1      32.533  26.963  22.629  1.00  0.00     0.048 A 
ATOM     22  N   UNL A   1      30.360  26.061  22.928  1.00  0.00    -0.231 NA
ATOM     23  C   UNL A   1      32.030  28.249  22.835  1.00  0.00     0.014 A 
ATOM     24  C   UNL A   1      29.859  27.299  23.140  1.00  0.00     0.073 A 
ATOM     25  C   UNL A   1      30.653  28.444  23.005  1.00  0.00     0.000 A 
ATOM     26  C   UNL A   1      28.494  27.470  23.374  1.00  0.00     0.029 A 
ATOM     27  C   UNL A   1      30.051  29.718  22.982  1.00  0.00     0.010 A 
ATOM     28  C   UNL A   1      27.884  28.722  23.292  1.00  0.00     0.002 A 
ATOM     29  C   UNL A   1      28.664  29.848  23.071  1.00  0.00     0.001 A 
ENDBRANCH  18  20
ENDBRANCH  15  16
ENDBRANCH   9  15
ENDBRANCH   8   9
ENDBRANCH   6   8
ENDBRANCH   3   4
ENDBRANCH   2   3
ENDBRANCH   1   2
BRANCH   1  30
ATOM     30  C   UNL A   1      32.226  30.267  26.135  1.00  0.00     0.002 C 
BRANCH  30  31
ATOM     31  C   UNL A   1      31.835  31.665  26.608  1.00  0.00     0.021 C 
BRANCH  31  32
ATOM     32  C   UNL A   1      32.877  32.373  27.463  1.00  0.00     0.116 C 
BRANCH  32  33
ATOM     33  N   UNL A   1      32.590  33.787  27.655  1.00  0.00    -0.352 N 
ATOM     34  C   UNL A   1      33.176  34.668  28.535  1.00  0.00     0.251 C 
ATOM     35  H   UNL A   1      31.883  34.162  27.082  1.00  0.00     0.163 HD
ATOM     36  O   UNL A   1      32.713  35.797  28.677  1.00  0.00    -0.269 OA
BRANCH  34  37
ATOM     37  C   UNL A   1      34.343  34.228  29.332  1.00  0.00     0.039 A 
ATOM     38  C   UNL A   1      34.134  33.494  30.501  1.00  0.00     0.014 A 
ATOM     39  C   UNL A   1      35.642  34.501  28.897  1.00  0.00     0.014 A 
ATOM     40  C   UNL A   1      35.230  32.967  31.193  1.00  0.00     0.010 A 
ATOM     41  C   UNL A   1      36.725  33.908  29.540  1.00  0.00     0.010 A 
ATOM     42  C   UNL A   1      36.532  33.133  30.695  1.00  0.00    -0.014 A 
BRANCH  42  43
ATOM     43  C   UNL A   1      37.714  32.524  31.363  1.00  0.00     0.031 A 
ATOM     44  C   UNL A   1      38.454  31.402  30.684  1.00  0.00     0.074 A 
ATOM     45  C   UNL A   1      38.066  32.915  32.606  1.00  0.00     0.049 A 
ATOM     46  N   UNL A   1      39.413  30.642  31.147  1.00  0.00    -0.248 NA
ATOM     47  C   UNL A   1      38.038  31.071  29.311  1.00  0.00     0.031 C 
ATOM     48  C   UNL A   1      37.410  33.971  33.380  1.00  0.00     0.029 A 
ATOM     49  N   UNL A   1      39.052  32.457  33.446  1.00  0.00    -0.354 N 
ATOM     50  C   UNL A   1      39.694  29.728  30.137  1.00  0.00     0.074 A 
ATOM     51  C   UNL A   1      38.772  30.000  29.055  1.00  0.00     0.031 C 
ATOM     52  C   UNL A   1      38.019  34.089  34.571  1.00  0.00     0.029 A 
ATOM     53  C   UNL A   1      39.073  33.084  34.673  1.00  0.00     0.049 A 
ATOM     54  H   UNL A   1      39.685  31.748  33.195  1.00  0.00     0.167 HD
ATOM     55  C   UNL A   1      40.644  28.761  30.110  1.00  0.00     0.034 A 
ATOM     56  C   UNL A   1      39.837  32.859  35.762  1.00  0.00     0.034 A 
ATOM     57  C   UNL A   1      41.578  28.525  31.182  1.00  0.00     0.049 A 
ATOM     58  C   UNL A   1      40.875  31.762  35.709  1.00  0.00     0.074 A 
ATOM     59  C   UNL A   1      42.623  27.618  31.226  1.00  0.00     0.029 A 
ATOM     60  N   UNL A   1      41.580  29.193  32.398  1.00  0.00    -0.354 N 
ATOM     61  N   UNL A   1      41.160  30.941  34.724  1.00  0.00    -0.248 NA
ATOM     62  C   UNL A   1      41.702  31.567  36.908  1.00  0.00     0.031 C 
ATOM     63  C   UNL A   1      43.211  27.689  32.492  1.00  0.00     0.029 A 
ATOM     64  C   UNL A   1      42.588  28.697  33.209  1.00  0.00     0.049 A 
ATOM     65  H   UNL A   1      40.956  29.912  32.649  1.00  0.00     0.167 HD
ATOM     66  C   UNL A   1      42.230  30.169  35.172  1.00  0.00     0.074 A 
ATOM     67  C   UNL A   1      42.543  30.625  36.510  1.00  0.00     0.031 C 
ATOM     68  C   UNL A   1      42.898  29.176  34.534  1.00  0.00     0.034 A 
BRANCH  55  69
ATOM     69  C   UNL A   1      40.708  27.869  28.894  1.00  0.00     0.023 A 
ATOM     70  C   UNL A   1      41.667  28.057  27.885  1.00  0.00     0.031 A 
ATOM     71  C   UNL A   1      39.802  26.803  28.753  1.00  0.00     0.131 A 
ATOM     72  C   UNL A   1      41.665  27.226  26.755  1.00  0.00     0.055 A 
ATOM     73  C   UNL A   1      39.853  25.933  27.663  1.00  0.00     0.041 A 
ATOM     74  F   UNL A   1      38.850  26.587  29.675  1.00  0.00    -0.206 F 
ATOM     75  C   UNL A   1      40.782  26.149  26.649  1.00  0.00     0.022 A 
BRANCH  72  76
ATOM     76  S   UNL A   1      42.762  27.639  25.371  1.00  0.00     0.124 S 
ATOM     77  O   UNL A   1      42.880  26.350  24.694  1.00  0.00    -0.237 OA
ATOM     78  O   UNL A   1      42.006  28.665  24.662  1.00  0.00    -0.237 OA
ATOM     79  O   UNL A   1      43.982  28.105  26.027  1.00  0.00    -0.744 OA
ENDBRANCH  72  76
ENDBRANCH  55  69
BRANCH  56  80
ATOM     80  C   UNL A   1      39.651  33.657  37.012  1.00  0.00     0.023 A 
ATOM     81  C   UNL A   1      39.059  33.085  38.150  1.00  0.00     0.031 A 
ATOM     82  C   UNL A   1      39.977  35.025  37.060  1.00  0.00     0.131 A 
ATOM     83  C   UNL A   1      38.745  33.890  39.257  1.00  0.00     0.055 A 
ATOM     84  C   UNL A   1      39.726  35.806  38.189  1.00  0.00     0.041 A 
ATOM     85  F   UNL A   1      40.546  35.626  36.002  1.00  0.00    -0.206 F 
ATOM     86  C   UNL A   1      39.087  35.243  39.290  1.00  0.00     0.022 A 
BRANCH  83  87
ATOM     87  S   UNL A   1      37.761  33.169  40.600  1.00  0.00     0.124 S 
ATOM     88  O   UNL A   1      37.943  34.154  41.661  1.00  0.00    -0.237 OA
ATOM     89  O   UNL A   1      36.432  33.106  40.002  1.00  0.00    -0.237 OA
ATOM     90  O   UNL A   1      38.401  31.875  40.833  1.00  0.00    -0.744 OA
ENDBRANCH  83  87
ENDBRANCH  56  80
BRANCH  68  91
ATOM     91  C   UNL A   1      44.086  28.572  35.243  1.00  0.00     0.023 A 
ATOM     92  C   UNL A   1      43.949  27.532  36.177  1.00  0.00     0.031 A 
ATOM     93  C   UNL A   1      45.382  29.044  34.960  1.00  0.00     0.131 A 
ATOM     94  C   UNL A   1      45.084  27.029  36.831  1.00  0.00     0.055 A 
ATOM     95  C   UNL A   1      46.512  28.499  35.570  1.00  0.00     0.041 A 
ATOM     96  F   UNL A   1      45.569  30.036  34.076  1.00  0.00    -0.206 F 
ATOM     97  C   UNL A   1      46.366  27.493  36.520  1.00  0.00     0.022 A 
BRANCH  94  98
ATOM     98  S   UNL A   1      44.861  25.809  38.155  1.00  0.00     0.124 S 
ATOM     99  O   UNL A   1      44.068  26.555  39.125  1.00  0.00    -0.237 OA
ATOM    100  O   UNL A   1      44.170  24.724  37.466  1.00  0.00    -0.237 OA
ATOM    101  O   UNL A   1      46.227  25.503  38.574  1.00  0.00    -0.744 OA
ENDBRANCH  94  98
ENDBRANCH  68  91
ENDBRANCH  42  43
ENDBRANCH  34  37
ENDBRANCH  32  33
ENDBRANCH  31  32
ENDBRANCH  30  31
ENDBRANCH   1  30
TORSDOF 20
ENDMDL
MODEL 2
REMARK VINA RESULT:     -12.0      1.543      7.420
REMARK SMILES O=C(CC1(CC(=O)Nc2ccc3ccccc3n2)CCCCC1)NCCCCCCNC(=O)c1ccc(-c2c3nc(c(-c4cc(S(=O)(=O)[O-])ccc4F)c4ccc([nH]4)c(-c4cc(S(=O)(=O)[O-])ccc4F)c4nc(c(-c5cc(S(=O)(=O)[O-])ccc5F)c5ccc2[nH]5)C=C4)C=C3)cc1
REMARK SMILES IDX 27 1 26 2 25 3 24 4 1 5 2 6 3 8 4 9 19 10 23 11 20 12 22 13
REMARK SMILES IDX 21 14 5 15 6 16 7 17 8 18 9 20 10 21 18 22 11 23 17 24 12 25
REMARK SMILES IDX 16 26 13 27 15 28 14 29 28 30 29 31 30 32 31 33 32 34 33 36
REMARK SMILES IDX 34 37 35 38 96 39 36 40 95 41 37 42 38 43 39 44 89 45 40 46
REMARK SMILES IDX 94 47 88 48 90 49 41 50 93 51 87 52 86 53 42 55 74 56 54 57
REMARK SMILES IDX 73 58 55 59 58 60 72 61 91 62 56 63 57 64 71 66 92 67 59 68
REMARK SMILES IDX 43 69 44 70 52 71 45 72 51 73 53 74 50 75 46 76 47 77 48 78
REMARK SMILES IDX 49 79 75 80 76 81 84 82 77 83 83 84 85 85 82 86 78 87 79 88
REMARK SMILES IDX 80 89 81 90 60 91 61 92 69 93 62 94 68 95 70 96 67 97 63 98
REMARK SMILES IDX 64 99 65 100 66 101
REMARK H PARENT 24 7 8 19 31 35 90 54 58 65
REMARK Flexibility Score: inf
ROOT
ATOM      1  C   UNL A   1      31.791  29.297  27.198  1.00  0.00     0.002 C 
ENDROOT
BRANCH   1   2
ATOM      2  C   UNL A   1      32.177  27.913  26.664  1.00  0.00     0.021 C 
BRANCH   2   3
ATOM      3  C   UNL A   1      31.030  26.910  26.526  1.00  0.00     0.116 C 
BRANCH   3   4
ATOM      4  N   UNL A   1      31.415  25.692  25.839  1.00  0.00    -0.356 N 
ATOM      5  O   UNL A   1      30.054  24.306  27.061  1.00  0.00    -0.275 OA
ATOM      6  C   UNL A   1      30.813  24.487  26.110  1.00  0.00     0.220 C 
ATOM      7  H   UNL A   1      32.128  25.729  25.161  1.00  0.00     0.163 HD
BRANCH   6   8
ATOM      8  C   UNL A   1      31.132  23.363  25.126  1.00  0.00     0.107 C 
BRANCH   8   9
ATOM      9  C   UNL A   1      32.639  22.958  25.022  1.00  0.00    -0.012 C 
ATOM     10  C   UNL A   1      33.262  23.011  26.459  1.00  0.00     0.008 C 
ATOM     11  C   UNL A   1      32.792  21.484  24.639  1.00  0.00     0.008 C 
ATOM     12  C   UNL A   1      34.711  22.494  26.541  1.00  0.00     0.001 C 
ATOM     13  C   UNL A   1      34.251  21.053  24.501  1.00  0.00     0.001 C 
ATOM     14  C   UNL A   1      34.944  21.150  25.847  1.00  0.00     0.000 C 
BRANCH   9  15
ATOM     15  C   UNL A   1      33.432  23.930  24.096  1.00  0.00     0.108 C 
BRANCH  15  16
ATOM     16  C   UNL A   1      33.123  24.141  22.611  1.00  0.00     0.226 C 
ATOM     17  O   UNL A   1      33.759  23.476  21.784  1.00  0.00    -0.275 OA
ATOM     18  N   UNL A   1      32.000  24.800  22.197  1.00  0.00    -0.311 N 
ATOM     19  H   UNL A   1      31.445  24.322  21.538  1.00  0.00     0.171 HD
BRANCH  18  20
ATOM     20  C   UNL A   1      31.525  26.059  22.579  1.00  0.00     0.133 A 
ATOM     21  C   UNL A   1      32.414  27.117  22.642  1.00  0.00     0.048 A 
ATOM     22  N   UNL A   1      30.245  26.204  22.937  1.00  0.00    -0.231 NA
ATOM     23  C   UNL A   1      31.902  28.401  22.830  1.00  0.00     0.014 A 
ATOM     24  C   UNL A   1      29.735  27.441  23.132  1.00  0.00     0.073 A 
ATOM     25  C   UNL A   1      30.523  28.590  22.988  1.00  0.00     0.000 A 
ATOM     26  C   UNL A   1      28.367  27.607  23.355  1.00  0.00     0.029 A 
ATOM     27  C   UNL A   1      29.913  29.860  22.946  1.00  0.00     0.010 A 
ATOM     28  C   UNL A   1      27.750  28.854  23.254  1.00  0.00     0.002 A 
ATOM     29  C   UNL A   1      28.525  29.982  23.024  1.00  0.00     0.001 A 
ENDBRANCH  18  20
ENDBRANCH  15  16
ENDBRANCH   9  15
ENDBRANCH   8   9
ENDBRANCH   6   8
ENDBRANCH   3   4
ENDBRANCH   2   3
ENDBRANCH   1   2
BRANCH   1  30
ATOM     30  C   UNL A   1      31.778  30.424  26.162  1.00  0.00     0.002 C 
BRANCH  30  31
ATOM     31  C   UNL A   1      31.644  31.835  26.727  1.00  0.00     0.021 C 
BRANCH  31  32
ATOM     32  C   UNL A   1      32.935  32.445  27.256  1.00  0.00     0.116 C 
BRANCH  32  33
ATOM     33  N   UNL A   1      32.788  33.841  27.642  1.00  0.00    -0.352 N 
ATOM     34  C   UNL A   1      33.474  34.538  28.611  1.00  0.00     0.251 C 
ATOM     35  H   UNL A   1      32.109  34.353  27.147  1.00  0.00     0.163 HD
ATOM     36  O   UNL A   1      33.124  35.675  28.916  1.00  0.00    -0.269 OA
BRANCH  34  37
ATOM     37  C   UNL A   1      34.609  33.888  29.304  1.00  0.00     0.039 A 
ATOM     38  C   UNL A   1      34.353  32.942  30.298  1.00  0.00     0.014 A 
ATOM     39  C   UNL A   1      35.925  34.182  28.937  1.00  0.00     0.014 A 
ATOM     40  C   UNL A   1      35.414  32.233  30.870  1.00  0.00     0.010 A 
ATOM     41  C   UNL A   1      36.971  33.419  29.448  1.00  0.00     0.010 A 
ATOM     42  C   UNL A   1      36.729  32.435  30.419  1.00  0.00    -0.014 A 
BRANCH  42  43
ATOM     43  C   UNL A   1      37.872  31.646  30.951  1.00  0.00     0.031 A 
ATOM     44  C   UNL A   1      38.458  32.002  32.293  1.00  0.00     0.074 A 
ATOM     45  C   UNL A   1      38.436  30.678  30.200  1.00  0.00     0.049 A 
ATOM     46  N   UNL A   1      39.536  31.541  32.875  1.00  0.00    -0.248 NA
ATOM     47  C   UNL A   1      37.754  33.036  33.068  1.00  0.00     0.031 C 
ATOM     48  C   UNL A   1      37.978  30.259  28.873  1.00  0.00     0.029 A 
ATOM     49  N   UNL A   1      39.529  29.878  30.436  1.00  0.00    -0.354 N 
ATOM     50  C   UNL A   1      39.654  32.248  34.067  1.00  0.00     0.074 A 
ATOM     51  C   UNL A   1      38.565  33.199  34.103  1.00  0.00     0.031 C 
ATOM     52  C   UNL A   1      38.773  29.275  28.421  1.00  0.00     0.029 A 
ATOM     53  C   UNL A   1      39.830  29.026  29.396  1.00  0.00     0.049 A 
ATOM     54  H   UNL A   1      40.049  29.912  31.271  1.00  0.00     0.167 HD
ATOM     55  C   UNL A   1      40.579  32.105  35.048  1.00  0.00     0.034 A 
ATOM     56  C   UNL A   1      40.853  28.160  29.238  1.00  0.00     0.034 A 
ATOM     57  C   UNL A   1      41.639  31.128  35.014  1.00  0.00     0.049 A 
ATOM     58  C   UNL A   1      41.879  28.035  30.340  1.00  0.00     0.074 A 
ATOM     59  C   UNL A   1      42.584  30.854  35.987  1.00  0.00     0.029 A 
ATOM     60  N   UNL A   1      41.898  30.270  33.954  1.00  0.00    -0.354 N 
ATOM     61  N   UNL A   1      41.944  28.677  31.485  1.00  0.00    -0.248 NA
ATOM     62  C   UNL A   1      42.962  27.064  30.136  1.00  0.00     0.031 C 
ATOM     63  C   UNL A   1      43.456  29.881  35.488  1.00  0.00     0.029 A 
ATOM     64  C   UNL A   1      43.006  29.489  34.238  1.00  0.00     0.049 A 
ATOM     65  H   UNL A   1      41.373  30.225  33.123  1.00  0.00     0.167 HD
ATOM     66  C   UNL A   1      43.047  28.149  32.152  1.00  0.00     0.074 A 
ATOM     67  C   UNL A   1      43.612  27.134  31.288  1.00  0.00     0.031 C 
ATOM     68  C   UNL A   1      43.546  28.468  33.373  1.00  0.00     0.034 A 
BRANCH  55  69
ATOM     69  C   UNL A   1      40.503  33.038  36.231  1.00  0.00     0.023 A 
ATOM     70  C   UNL A   1      39.902  32.656  37.442  1.00  0.00     0.031 A 
ATOM     71  C   UNL A   1      41.056  34.329  36.148  1.00  0.00     0.131 A 
ATOM     72  C   UNL A   1      39.821  33.570  38.503  1.00  0.00     0.055 A 
ATOM     73  C   UNL A   1      41.039  35.208  37.232  1.00  0.00     0.041 A 
ATOM     74  F   UNL A   1      41.625  34.757  35.010  1.00  0.00    -0.206 F 
ATOM     75  C   UNL A   1      40.409  34.834  38.415  1.00  0.00     0.022 A 
BRANCH  72  76
ATOM     76  S   UNL A   1      38.840  33.125  39.961  1.00  0.00     0.124 S 
ATOM     77  O   UNL A   1      39.879  32.693  40.894  1.00  0.00    -0.237 OA
ATOM     78  O   UNL A   1      38.171  34.378  40.288  1.00  0.00    -0.237 OA
ATOM     79  O   UNL A   1      37.966  32.059  39.475  1.00  0.00    -0.744 OA
ENDBRANCH  72  76
ENDBRANCH  55  69
BRANCH  56  80
ATOM     80  C   UNL A   1      40.992  27.354  27.987  1.00  0.00     0.023 A 
ATOM     81  C   UNL A   1      40.698  25.981  27.979  1.00  0.00     0.031 A 
ATOM     82  C   UNL A   1      41.504  27.923  26.806  1.00  0.00     0.131 A 
ATOM     83  C   UNL A   1      40.988  25.208  26.842  1.00  0.00     0.055 A 
ATOM     84  C   UNL A   1      41.725  27.163  25.655  1.00  0.00     0.041 A 
ATOM     85  F   UNL A   1      41.801  29.231  26.754  1.00  0.00    -0.206 F 
ATOM     86  C   UNL A   1      41.485  25.792  25.676  1.00  0.00     0.022 A 
BRANCH  83  87
ATOM     87  S   UNL A   1      40.828  23.405  26.958  1.00  0.00     0.124 S 
ATOM     88  O   UNL A   1      39.393  23.223  26.769  1.00  0.00    -0.237 OA
ATOM     89  O   UNL A   1      41.682  22.955  25.865  1.00  0.00    -0.237 OA
ATOM     90  O   UNL A   1      41.324  23.105  28.300  1.00  0.00    -0.744 OA
ENDBRANCH  83  87
ENDBRANCH  56  80
BRANCH  68  91
ATOM     91  C   UNL A   1      44.712  27.656  33.880  1.00  0.00     0.023 A 
ATOM     92  C   UNL A   1      44.535  26.442  34.565  1.00  0.00     0.031 A 
ATOM     93  C   UNL A   1      46.027  28.107  33.658  1.00  0.00     0.131 A 
ATOM     94  C   UNL A   1      45.653  25.743  35.044  1.00  0.00     0.055 A 
ATOM     95  C   UNL A   1      47.136  27.378  34.085  1.00  0.00     0.041 A 
ATOM     96  F   UNL A   1      46.252  29.261  33.011  1.00  0.00    -0.206 F 
ATOM     97  C   UNL A   1      46.953  26.193  34.792  1.00  0.00     0.022 A 
BRANCH  94  98
ATOM     98  S   UNL A   1      45.390  24.271  36.070  1.00  0.00     0.124 S 
ATOM     99  O   UNL A   1      44.032  23.884  35.703  1.00  0.00    -0.237 OA
ATOM    100  O   UNL A   1      46.451  23.379  35.615  1.00  0.00    -0.237 OA
ATOM    101  O   UNL A   1      45.545  24.771  37.435  1.00  0.00    -0.744 OA
ENDBRANCH  94  98
ENDBRANCH  68  91
ENDBRANCH  42  43
ENDBRANCH  34  37
ENDBRANCH  32  33
ENDBRANCH  31  32
ENDBRANCH  30  31
ENDBRANCH   1  30
TORSDOF 20
ENDMDL
MODEL 3
REMARK VINA RESULT:     -11.7      5.602     11.165
REMARK SMILES O=C(CC1(CC(=O)Nc2ccc3ccccc3n2)CCCCC1)NCCCCCCNC(=O)c1ccc(-c2c3nc(c(-c4cc(S(=O)(=O)[O-])ccc4F)c4ccc([nH]4)c(-c4cc(S(=O)(=O)[O-])ccc4F)c4nc(c(-c5cc(S(=O)(=O)[O-])ccc5F)c5ccc2[nH]5)C=C4)C=C3)cc1
REMARK SMILES IDX 27 1 26 2 25 3 24 4 1 5 2 6 3 8 4 9 19 10 23 11 20 12 22 13
REMARK SMILES IDX 21 14 5 15 6 16 7 17 8 18 9 20 10 21 18 22 11 23 17 24 12 25
REMARK SMILES IDX 16 26 13 27 15 28 14 29 28 30 29 31 30 32 31 33 32 34 33 36
REMARK SMILES IDX 34 37 35 38 96 39 36 40 95 41 37 42 38 43 39 44 89 45 40 46
REMARK SMILES IDX 94 47 88 48 90 49 41 50 93 51 87 52 86 53 42 55 74 56 54 57
REMARK SMILES IDX 73 58 55 59 58 60 72 61 91 62 56 63 57 64 71 66 92 67 59 68
REMARK SMILES IDX 43 69 44 70 52 71 45 72 51 73 53 74 50 75 46 76 47 77 48 78
REMARK SMILES IDX 49 79 75 80 76 81 84 82 77 83 83 84 85 85 82 86 78 87 79 88
REMARK SMILES IDX 80 89 81 90 60 91 61 92 69 93 62 94 68 95 70 96 67 97 63 98
REMARK SMILES IDX 64 99 65 100 66 101
REMARK H PARENT 24 7 8 19 31 35 90 54 58 65
REMARK Flexibility Score: inf
ROOT
ATOM      1  C   UNL A   1      37.842  23.513  26.378  1.00  0.00     0.002 C 
ENDROOT
BRANCH   1   2
ATOM      2  C   UNL A   1      37.308  23.724  24.956  1.00  0.00     0.021 C 
BRANCH   2   3
ATOM      3  C   UNL A   1      36.752  22.478  24.264  1.00  0.00     0.116 C 
BRANCH   3   4
ATOM      4  N   UNL A   1      35.519  22.729  23.541  1.00  0.00    -0.356 N 
ATOM      5  O   UNL A   1      34.224  21.326  24.813  1.00  0.00    -0.275 OA
ATOM      6  C   UNL A   1      34.322  22.191  23.945  1.00  0.00     0.220 C 
ATOM      7  H   UNL A   1      35.541  23.299  22.739  1.00  0.00     0.163 HD
BRANCH   6   8
ATOM      8  C   UNL A   1      33.084  22.760  23.252  1.00  0.00     0.107 C 
BRANCH   8   9
ATOM      9  C   UNL A   1      32.407  23.978  23.961  1.00  0.00    -0.012 C 
ATOM     10  C   UNL A   1      31.278  23.434  24.902  1.00  0.00     0.008 C 
ATOM     11  C   UNL A   1      33.368  24.655  24.942  1.00  0.00     0.008 C 
ATOM     12  C   UNL A   1      30.614  24.508  25.783  1.00  0.00     0.001 C 
ATOM     13  C   UNL A   1      32.754  25.868  25.638  1.00  0.00     0.001 C 
ATOM     14  C   UNL A   1      31.598  25.424  26.514  1.00  0.00     0.000 C 
BRANCH   9  15
ATOM     15  C   UNL A   1      31.771  24.961  22.932  1.00  0.00     0.108 C 
BRANCH  15  16
ATOM     16  C   UNL A   1      32.554  26.045  22.186  1.00  0.00     0.226 C 
ATOM     17  O   UNL A   1      33.681  25.760  21.761  1.00  0.00    -0.275 OA
ATOM     18  N   UNL A   1      31.952  27.184  21.732  1.00  0.00    -0.311 N 
ATOM     19  H   UNL A   1      32.098  27.392  20.780  1.00  0.00     0.171 HD
BRANCH  18  20
ATOM     20  C   UNL A   1      31.154  28.097  22.429  1.00  0.00     0.133 A 
ATOM     21  C   UNL A   1      31.578  28.545  23.667  1.00  0.00     0.048 A 
ATOM     22  N   UNL A   1      29.974  28.469  21.922  1.00  0.00    -0.231 NA
ATOM     23  C   UNL A   1      30.882  29.598  24.263  1.00  0.00     0.014 A 
ATOM     24  C   UNL A   1      29.282  29.481  22.492  1.00  0.00     0.073 A 
ATOM     25  C   UNL A   1      29.761  30.147  23.627  1.00  0.00     0.000 A 
ATOM     26  C   UNL A   1      28.129  29.973  21.880  1.00  0.00     0.029 A 
ATOM     27  C   UNL A   1      29.155  31.349  24.045  1.00  0.00     0.010 A 
ATOM     28  C   UNL A   1      27.562  31.193  22.250  1.00  0.00     0.002 A 
ATOM     29  C   UNL A   1      28.093  31.895  23.323  1.00  0.00     0.001 A 
ENDBRANCH  18  20
ENDBRANCH  15  16
ENDBRANCH   9  15
ENDBRANCH   8   9
ENDBRANCH   6   8
ENDBRANCH   3   4
ENDBRANCH   2   3
ENDBRANCH   1   2
BRANCH   1  30
ATOM     30  C   UNL A   1      39.320  23.125  26.476  1.00  0.00     0.002 C 
BRANCH  30  31
ATOM     31  C   UNL A   1      39.596  21.671  26.850  1.00  0.00     0.021 C 
BRANCH  31  32
ATOM     32  C   UNL A   1      39.511  20.681  25.697  1.00  0.00     0.116 C 
BRANCH  32  33
ATOM     33  N   UNL A   1      40.396  19.536  25.864  1.00  0.00    -0.352 N 
ATOM     34  C   UNL A   1      41.747  19.530  26.126  1.00  0.00     0.251 C 
ATOM     35  H   UNL A   1      39.973  18.652  25.776  1.00  0.00     0.163 HD
ATOM     36  O   UNL A   1      42.377  18.476  26.088  1.00  0.00    -0.269 OA
BRANCH  34  37
ATOM     37  C   UNL A   1      42.435  20.808  26.415  1.00  0.00     0.039 A 
ATOM     38  C   UNL A   1      42.774  21.656  25.359  1.00  0.00     0.014 A 
ATOM     39  C   UNL A   1      42.702  21.186  27.734  1.00  0.00     0.014 A 
ATOM     40  C   UNL A   1      43.310  22.920  25.630  1.00  0.00     0.010 A 
ATOM     41  C   UNL A   1      43.159  22.474  28.003  1.00  0.00     0.010 A 
ATOM     42  C   UNL A   1      43.467  23.356  26.956  1.00  0.00    -0.014 A 
BRANCH  42  43
ATOM     43  C   UNL A   1      43.964  24.720  27.281  1.00  0.00     0.031 A 
ATOM     44  C   UNL A   1      43.006  25.750  27.820  1.00  0.00     0.074 A 
ATOM     45  C   UNL A   1      45.242  25.058  27.013  1.00  0.00     0.049 A 
ATOM     46  N   UNL A   1      43.196  27.027  28.034  1.00  0.00    -0.248 NA
ATOM     47  C   UNL A   1      41.643  25.287  28.131  1.00  0.00     0.031 C 
ATOM     48  C   UNL A   1      46.259  24.158  26.463  1.00  0.00     0.029 A 
ATOM     49  N   UNL A   1      45.904  26.255  27.149  1.00  0.00    -0.354 N 
ATOM     50  C   UNL A   1      41.974  27.523  28.475  1.00  0.00     0.074 A 
ATOM     51  C   UNL A   1      41.038  26.419  28.454  1.00  0.00     0.031 C 
ATOM     52  C   UNL A   1      47.415  24.829  26.324  1.00  0.00     0.029 A 
ATOM     53  C   UNL A   1      47.213  26.219  26.720  1.00  0.00     0.049 A 
ATOM     54  H   UNL A   1      45.482  27.062  27.519  1.00  0.00     0.167 HD
ATOM     55  C   UNL A   1      41.665  28.781  28.875  1.00  0.00     0.034 A 
ATOM     56  C   UNL A   1      48.136  27.200  26.634  1.00  0.00     0.034 A 
ATOM     57  C   UNL A   1      42.617  29.863  28.923  1.00  0.00     0.049 A 
ATOM     58  C   UNL A   1      47.758  28.596  27.069  1.00  0.00     0.074 A 
ATOM     59  C   UNL A   1      42.425  31.156  29.378  1.00  0.00     0.029 A 
ATOM     60  N   UNL A   1      43.936  29.782  28.500  1.00  0.00    -0.354 N 
ATOM     61  N   UNL A   1      46.609  29.035  27.533  1.00  0.00    -0.248 NA
ATOM     62  C   UNL A   1      48.800  29.628  26.981  1.00  0.00     0.031 C 
ATOM     63  C   UNL A   1      43.604  31.875  29.166  1.00  0.00     0.029 A 
ATOM     64  C   UNL A   1      44.559  31.010  28.655  1.00  0.00     0.049 A 
ATOM     65  H   UNL A   1      44.366  28.973  28.141  1.00  0.00     0.167 HD
ATOM     66  C   UNL A   1      46.812  30.380  27.834  1.00  0.00     0.074 A 
ATOM     67  C   UNL A   1      48.190  30.678  27.508  1.00  0.00     0.031 C 
ATOM     68  C   UNL A   1      45.940  31.287  28.342  1.00  0.00     0.034 A 
BRANCH  55  69
ATOM     69  C   UNL A   1      40.237  29.066  29.269  1.00  0.00     0.023 A 
ATOM     70  C   UNL A   1      39.823  29.061  30.612  1.00  0.00     0.031 A 
ATOM     71  C   UNL A   1      39.278  29.362  28.285  1.00  0.00     0.131 A 
ATOM     72  C   UNL A   1      38.476  29.295  30.930  1.00  0.00     0.055 A 
ATOM     73  C   UNL A   1      37.956  29.667  28.611  1.00  0.00     0.041 A 
ATOM     74  F   UNL A   1      39.611  29.360  26.984  1.00  0.00    -0.206 F 
ATOM     75  C   UNL A   1      37.546  29.624  29.941  1.00  0.00     0.022 A 
BRANCH  72  76
ATOM     76  S   UNL A   1      37.933  29.055  32.643  1.00  0.00     0.124 S 
ATOM     77  O   UNL A   1      36.577  29.599  32.601  1.00  0.00    -0.237 OA
ATOM     78  O   UNL A   1      38.036  27.610  32.808  1.00  0.00    -0.237 OA
ATOM     79  O   UNL A   1      38.889  29.841  33.419  1.00  0.00    -0.744 OA
ENDBRANCH  72  76
ENDBRANCH  55  69
BRANCH  56  80
ATOM     80  C   UNL A   1      49.502  26.925  26.094  1.00  0.00     0.023 A 
ATOM     81  C   UNL A   1      49.921  27.486  24.876  1.00  0.00     0.031 A 
ATOM     82  C   UNL A   1      50.375  26.030  26.739  1.00  0.00     0.131 A 
ATOM     83  C   UNL A   1      51.142  27.091  24.305  1.00  0.00     0.055 A 
ATOM     84  C   UNL A   1      51.619  25.693  26.201  1.00  0.00     0.041 A 
ATOM     85  F   UNL A   1      50.028  25.464  27.906  1.00  0.00    -0.206 F 
ATOM     86  C   UNL A   1      52.000  26.209  24.965  1.00  0.00     0.022 A 
BRANCH  83  87
ATOM     87  S   UNL A   1      51.530  27.645  22.622  1.00  0.00     0.124 S 
ATOM     88  O   UNL A   1      52.985  27.729  22.667  1.00  0.00    -0.237 OA
ATOM     89  O   UNL A   1      50.973  26.567  21.813  1.00  0.00    -0.237 OA
ATOM     90  O   UNL A   1      50.833  28.926  22.517  1.00  0.00    -0.744 OA
ENDBRANCH  83  87
ENDBRANCH  56  80
BRANCH  68  91
ATOM     91  C   UNL A   1      46.472  32.664  28.652  1.00  0.00     0.023 A 
ATOM     92  C   UNL A   1      46.489  33.692  27.694  1.00  0.00     0.031 A 
ATOM     93  C   UNL A   1      46.958  32.951  29.941  1.00  0.00     0.131 A 
ATOM     94  C   UNL A   1      47.026  34.945  28.026  1.00  0.00     0.055 A 
ATOM     95  C   UNL A   1      47.435  34.216  30.282  1.00  0.00     0.041 A 
ATOM     96  F   UNL A   1      46.966  32.005  30.893  1.00  0.00    -0.206 F 
ATOM     97  C   UNL A   1      47.481  35.219  29.319  1.00  0.00     0.022 A 
BRANCH  94  98
ATOM     98  S   UNL A   1      47.192  36.197  26.724  1.00  0.00     0.124 S 
ATOM     99  O   UNL A   1      48.591  36.051  26.339  1.00  0.00    -0.237 OA
ATOM    100  O   UNL A   1      46.211  35.755  25.739  1.00  0.00    -0.237 OA
ATOM    101  O   UNL A   1      46.864  37.448  27.406  1.00  0.00    -0.744 OA
ENDBRANCH  94  98
ENDBRANCH  68  91
ENDBRANCH  42  43
ENDBRANCH  34  37
ENDBRANCH  32  33
ENDBRANCH  31  32
ENDBRANCH  30  31
ENDBRANCH   1  30
TORSDOF 20
ENDMDL
