MODEL 1
REMARK VINA RESULT:     -11.4      0.000      0.000
REMARK SMILES C[C@@H](NC(=O)N1CC[N@@H+]2CCCC[C@H]2C1)C(=O)NCCCCCCNC(=O)c1ccc(-c2c3nc(c(-c4cc(S(=O)(=O)[O-])ccc4F)c4ccc([nH]4)c(-c4cc(S(=O)(=O)[O-])ccc4F)c4nc(c(-c5cc(S(=O)(=O)[O-])ccc5F)c5ccc2[nH]5)C=C4)C=C3)cc1
REMARK SMILES IDX 22 1 21 2 20 3 19 4 18 5 16 6 17 7 2 9 1 10 3 11 4 12 5 14
REMARK SMILES IDX 6 15 7 16 15 17 8 18 14 19 9 20 13 21 10 22 12 24 11 25
REMARK SMILES IDX 23 26 24 27 25 28 26 29 27 31 28 32 29 33 90 34 30 35 89 36
REMARK SMILES IDX 31 37 32 38 33 39 83 40 34 41 88 42 82 43 84 44 35 45 87 46
REMARK SMILES IDX 81 47 80 48 36 50 68 51 48 52 67 53 49 54 52 55 66 56 85 57
REMARK SMILES IDX 50 58 51 59 65 61 86 62 53 63 37 64 38 65 46 66 39 67 45 68
REMARK SMILES IDX 47 69 44 70 40 71 41 72 42 73 43 74 69 75 70 76 78 77 71 78
REMARK SMILES IDX 77 79 79 80 76 81 72 82 73 83 74 84 75 85 54 86 55 87 63 88
REMARK SMILES IDX 56 89 62 90 64 91 61 92 57 93 58 94 59 95 60 96
REMARK H PARENT 18 8 3 13 9 23 25 30 84 49 52 60
REMARK Flexibility Score: inf
ROOT
ATOM      1  C   UNL A   1      32.143  28.860  24.101  1.00  0.00     0.002 C 
ENDROOT
BRANCH   1   2
ATOM      2  C   UNL A   1      30.970  29.127  23.153  1.00  0.00     0.002 C 
BRANCH   2   3
ATOM      3  C   UNL A   1      30.505  27.892  22.377  1.00  0.00     0.021 C 
BRANCH   3   4
ATOM      4  C   UNL A   1      30.676  26.591  23.160  1.00  0.00     0.116 C 
BRANCH   4   5
ATOM      5  N   UNL A   1      31.825  25.839  22.691  1.00  0.00    -0.354 N 
ATOM      6  C   UNL A   1      32.079  24.505  22.784  1.00  0.00     0.242 C 
ATOM      7  O   UNL A   1      33.210  24.119  22.460  1.00  0.00    -0.273 OA
ATOM      8  H   UNL A   1      32.521  26.370  22.241  1.00  0.00     0.163 HD
BRANCH   6   9
ATOM      9  C   UNL A   1      31.091  23.516  23.428  1.00  0.00     0.170 C 
ATOM     10  C   UNL A   1      31.766  22.140  23.422  1.00  0.00     0.041 C 
BRANCH   9  11
ATOM     11  N   UNL A   1      30.614  23.832  24.769  1.00  0.00    -0.326 N 
ATOM     12  C   UNL A   1      31.224  24.218  25.910  1.00  0.00     0.318 C 
ATOM     13  H   UNL A   1      29.637  23.744  24.862  1.00  0.00     0.166 HD
ATOM     14  O   UNL A   1      30.490  24.372  26.888  1.00  0.00    -0.249 OA
BRANCH  12  15
ATOM     15  N   UNL A   1      32.581  24.250  26.011  1.00  0.00    -0.313 N 
ATOM     16  C   UNL A   1      33.455  25.419  25.949  1.00  0.00     0.183 C 
ATOM     17  C   UNL A   1      33.265  23.065  26.532  1.00  0.00     0.186 C 
ATOM     18  C   UNL A   1      34.769  25.129  25.187  1.00  0.00     0.284 C 
ATOM     19  C   UNL A   1      34.473  22.743  25.628  1.00  0.00     0.203 C 
ATOM     20  N   UNL A   1      35.448  23.859  25.543  1.00  0.00    -0.330 N 
ATOM     21  C   UNL A   1      35.192  21.469  26.087  1.00  0.00     0.067 C 
ATOM     22  C   UNL A   1      36.470  23.546  24.523  1.00  0.00     0.262 C 
ATOM     23  H   UNL A   1      35.892  23.971  26.455  1.00  0.00     0.348 HD
ATOM     24  C   UNL A   1      36.275  21.081  25.082  1.00  0.00     0.012 C 
ATOM     25  C   UNL A   1      37.221  22.248  24.828  1.00  0.00     0.062 C 
ENDBRANCH  12  15
ENDBRANCH   9  11
ENDBRANCH   6   9
ENDBRANCH   4   5
ENDBRANCH   3   4
ENDBRANCH   2   3
ENDBRANCH   1   2
BRANCH   1  26
ATOM     26  C   UNL A   1      31.907  29.203  25.563  1.00  0.00     0.021 C 
BRANCH  26  27
ATOM     27  C   UNL A   1      33.119  29.793  26.261  1.00  0.00     0.116 C 
BRANCH  27  28
ATOM     28  N   UNL A   1      32.902  31.145  26.769  1.00  0.00    -0.352 N 
ATOM     29  C   UNL A   1      33.730  31.889  27.582  1.00  0.00     0.251 C 
ATOM     30  H   UNL A   1      32.061  31.578  26.499  1.00  0.00     0.163 HD
ATOM     31  O   UNL A   1      33.381  32.974  28.013  1.00  0.00    -0.269 OA
BRANCH  29  32
ATOM     32  C   UNL A   1      35.033  31.299  27.947  1.00  0.00     0.039 A 
ATOM     33  C   UNL A   1      36.168  32.110  27.975  1.00  0.00     0.014 A 
ATOM     34  C   UNL A   1      35.085  29.979  28.397  1.00  0.00     0.014 A 
ATOM     35  C   UNL A   1      37.344  31.613  28.536  1.00  0.00     0.010 A 
ATOM     36  C   UNL A   1      36.215  29.533  29.063  1.00  0.00     0.010 A 
ATOM     37  C   UNL A   1      37.363  30.338  29.127  1.00  0.00    -0.014 A 
BRANCH  37  38
ATOM     38  C   UNL A   1      38.584  29.788  29.769  1.00  0.00     0.031 A 
ATOM     39  C   UNL A   1      38.977  30.294  31.134  1.00  0.00     0.074 A 
ATOM     40  C   UNL A   1      39.369  28.914  29.109  1.00  0.00     0.049 A 
ATOM     41  N   UNL A   1      40.073  30.083  31.813  1.00  0.00    -0.248 NA
ATOM     42  C   UNL A   1      38.032  31.212  31.790  1.00  0.00     0.031 C 
ATOM     43  C   UNL A   1      39.124  28.401  27.758  1.00  0.00     0.029 A 
ATOM     44  N   UNL A   1      40.542  28.307  29.483  1.00  0.00    -0.354 N 
ATOM     45  C   UNL A   1      39.958  30.863  32.960  1.00  0.00     0.074 A 
ATOM     46  C   UNL A   1      38.734  31.621  32.833  1.00  0.00     0.031 C 
ATOM     47  C   UNL A   1      40.097  27.534  27.432  1.00  0.00     0.029 A 
ATOM     48  C   UNL A   1      41.057  27.459  28.528  1.00  0.00     0.049 A 
ATOM     49  H   UNL A   1      40.973  28.462  30.353  1.00  0.00     0.167 HD
ATOM     50  C   UNL A   1      40.773  30.909  34.042  1.00  0.00     0.034 A 
ATOM     51  C   UNL A   1      42.179  26.712  28.542  1.00  0.00     0.034 A 
ATOM     52  C   UNL A   1      41.964  30.110  34.170  1.00  0.00     0.049 A 
ATOM     53  C   UNL A   1      43.048  26.744  29.777  1.00  0.00     0.074 A 
ATOM     54  C   UNL A   1      42.863  30.053  35.219  1.00  0.00     0.029 A 
ATOM     55  N   UNL A   1      42.408  29.202  33.216  1.00  0.00    -0.354 N 
ATOM     56  N   UNL A   1      42.913  27.471  30.863  1.00  0.00    -0.248 NA
ATOM     57  C   UNL A   1      44.201  25.836  29.800  1.00  0.00     0.031 C 
ATOM     58  C   UNL A   1      43.865  29.136  34.889  1.00  0.00     0.029 A 
ATOM     59  C   UNL A   1      43.560  28.574  33.659  1.00  0.00     0.049 A 
ATOM     60  H   UNL A   1      41.968  29.029  32.353  1.00  0.00     0.167 HD
ATOM     61  C   UNL A   1      43.941  27.074  31.713  1.00  0.00     0.074 A 
ATOM     62  C   UNL A   1      44.674  26.035  31.021  1.00  0.00     0.031 C 
ATOM     63  C   UNL A   1      44.257  27.526  32.954  1.00  0.00     0.034 A 
BRANCH  50  64
ATOM     64  C   UNL A   1      40.384  31.850  35.157  1.00  0.00     0.023 A 
ATOM     65  C   UNL A   1      39.467  31.464  36.151  1.00  0.00     0.031 A 
ATOM     66  C   UNL A   1      40.886  33.161  35.202  1.00  0.00     0.131 A 
ATOM     67  C   UNL A   1      39.010  32.401  37.088  1.00  0.00     0.055 A 
ATOM     68  C   UNL A   1      40.497  34.064  36.195  1.00  0.00     0.041 A 
ATOM     69  F   UNL A   1      41.748  33.596  34.268  1.00  0.00    -0.206 F 
ATOM     70  C   UNL A   1      39.539  33.691  37.134  1.00  0.00     0.022 A 
BRANCH  67  71
ATOM     71  S   UNL A   1      37.603  31.954  38.142  1.00  0.00     0.124 S 
ATOM     72  O   UNL A   1      36.598  32.924  37.713  1.00  0.00    -0.237 OA
ATOM     73  O   UNL A   1      37.353  30.567  37.765  1.00  0.00    -0.237 OA
ATOM     74  O   UNL A   1      38.114  32.150  39.497  1.00  0.00    -0.744 OA
ENDBRANCH  67  71
ENDBRANCH  50  64
BRANCH  51  75
ATOM     75  C   UNL A   1      42.550  25.863  27.373  1.00  0.00     0.023 A 
ATOM     76  C   UNL A   1      42.093  24.539  27.268  1.00  0.00     0.031 A 
ATOM     77  C   UNL A   1      43.422  26.336  26.376  1.00  0.00     0.131 A 
ATOM     78  C   UNL A   1      42.562  23.713  26.234  1.00  0.00     0.055 A 
ATOM     79  C   UNL A   1      43.838  25.529  25.316  1.00  0.00     0.041 A 
ATOM     80  F   UNL A   1      43.882  27.597  26.420  1.00  0.00    -0.206 F 
ATOM     81  C   UNL A   1      43.424  24.202  25.251  1.00  0.00     0.022 A 
BRANCH  78  82
ATOM     82  S   UNL A   1      42.122  21.953  26.264  1.00  0.00     0.124 S 
ATOM     83  O   UNL A   1      42.637  21.539  27.565  1.00  0.00    -0.237 OA
ATOM     84  O   UNL A   1      40.670  22.003  26.134  1.00  0.00    -0.237 OA
ATOM     85  O   UNL A   1      42.832  21.405  25.109  1.00  0.00    -0.744 OA
ENDBRANCH  78  82
ENDBRANCH  51  75
BRANCH  63  86
ATOM     86  C   UNL A   1      45.395  26.838  33.662  1.00  0.00     0.023 A 
ATOM     87  C   UNL A   1      45.188  25.724  34.494  1.00  0.00     0.031 A 
ATOM     88  C   UNL A   1      46.708  27.319  33.511  1.00  0.00     0.131 A 
ATOM     89  C   UNL A   1      46.267  25.167  35.194  1.00  0.00     0.055 A 
ATOM     90  C   UNL A   1      47.787  26.723  34.163  1.00  0.00     0.041 A 
ATOM     91  F   UNL A   1      46.961  28.378  32.726  1.00  0.00    -0.206 F 
ATOM     92  C   UNL A   1      47.567  25.650  35.023  1.00  0.00     0.022 A 
BRANCH  89  93
ATOM     93  S   UNL A   1      45.933  23.863  36.408  1.00  0.00     0.124 S 
ATOM     94  O   UNL A   1      44.634  24.264  36.937  1.00  0.00    -0.237 OA
ATOM     95  O   UNL A   1      45.941  22.659  35.582  1.00  0.00    -0.237 OA
ATOM     96  O   UNL A   1      47.048  23.975  37.347  1.00  0.00    -0.744 OA
ENDBRANCH  89  93
ENDBRANCH  63  86
ENDBRANCH  37  38
ENDBRANCH  29  32
ENDBRANCH  27  28
ENDBRANCH  26  27
ENDBRANCH   1  26
TORSDOF 18
ENDMDL
MODEL 2
REMARK VINA RESULT:     -11.3      2.407      3.460
REMARK SMILES C[C@@H](NC(=O)N1CC[N@@H+]2CCCC[C@H]2C1)C(=O)NCCCCCCNC(=O)c1ccc(-c2c3nc(c(-c4cc(S(=O)(=O)[O-])ccc4F)c4ccc([nH]4)c(-c4cc(S(=O)(=O)[O-])ccc4F)c4nc(c(-c5cc(S(=O)(=O)[O-])ccc5F)c5ccc2[nH]5)C=C4)C=C3)cc1
REMARK SMILES IDX 22 1 21 2 20 3 19 4 18 5 16 6 17 7 2 9 1 10 3 11 4 12 5 14
REMARK SMILES IDX 6 15 7 16 15 17 8 18 14 19 9 20 13 21 10 22 12 24 11 25
REMARK SMILES IDX 23 26 24 27 25 28 26 29 27 31 28 32 29 33 90 34 30 35 89 36
REMARK SMILES IDX 31 37 32 38 33 39 83 40 34 41 88 42 82 43 84 44 35 45 87 46
REMARK SMILES IDX 81 47 80 48 36 50 68 51 48 52 67 53 49 54 52 55 66 56 85 57
REMARK SMILES IDX 50 58 51 59 65 61 86 62 53 63 37 64 38 65 46 66 39 67 45 68
REMARK SMILES IDX 47 69 44 70 40 71 41 72 42 73 43 74 69 75 70 76 78 77 71 78
REMARK SMILES IDX 77 79 79 80 76 81 72 82 73 83 74 84 75 85 54 86 55 87 63 88
REMARK SMILES IDX 56 89 62 90 64 91 61 92 57 93 58 94 59 95 60 96
REMARK H PARENT 18 8 3 13 9 23 25 30 84 49 52 60
REMARK Flexibility Score: inf
ROOT
ATOM      1  C   UNL A   1      31.894  30.663  26.118  1.00  0.00     0.002 C 
ENDROOT
BRANCH   1   2
ATOM      2  C   UNL A   1      31.783  29.353  26.904  1.00  0.00     0.002 C 
BRANCH   2   3
ATOM      3  C   UNL A   1      33.127  28.665  27.157  1.00  0.00     0.021 C 
BRANCH   3   4
ATOM      4  C   UNL A   1      33.553  27.739  26.019  1.00  0.00     0.116 C 
BRANCH   4   5
ATOM      5  N   UNL A   1      34.104  28.489  24.906  1.00  0.00    -0.354 N 
ATOM      6  C   UNL A   1      33.732  28.488  23.597  1.00  0.00     0.242 C 
ATOM      7  O   UNL A   1      34.465  29.086  22.798  1.00  0.00    -0.273 OA
ATOM      8  H   UNL A   1      34.856  29.083  25.130  1.00  0.00     0.163 HD
BRANCH   6   9
ATOM      9  C   UNL A   1      32.558  27.645  23.069  1.00  0.00     0.170 C 
ATOM     10  C   UNL A   1      31.365  28.593  22.899  1.00  0.00     0.041 C 
BRANCH   9  11
ATOM     11  N   UNL A   1      32.779  26.895  21.838  1.00  0.00    -0.326 N 
ATOM     12  C   UNL A   1      32.794  25.579  21.537  1.00  0.00     0.318 C 
ATOM     13  H   UNL A   1      32.955  27.472  21.060  1.00  0.00     0.166 HD
ATOM     14  O   UNL A   1      33.050  25.297  20.365  1.00  0.00    -0.249 OA
BRANCH  12  15
ATOM     15  N   UNL A   1      32.717  24.629  22.509  1.00  0.00    -0.313 N 
ATOM     16  C   UNL A   1      31.513  24.072  23.122  1.00  0.00     0.183 C 
ATOM     17  C   UNL A   1      33.912  23.835  22.799  1.00  0.00     0.186 C 
ATOM     18  C   UNL A   1      31.687  23.824  24.639  1.00  0.00     0.284 C 
ATOM     19  C   UNL A   1      34.111  23.765  24.328  1.00  0.00     0.203 C 
ATOM     20  N   UNL A   1      32.955  23.163  25.037  1.00  0.00    -0.330 N 
ATOM     21  C   UNL A   1      35.389  22.999  24.691  1.00  0.00     0.067 C 
ATOM     22  C   UNL A   1      33.143  23.300  26.496  1.00  0.00     0.262 C 
ATOM     23  H   UNL A   1      32.900  22.175  24.786  1.00  0.00     0.348 HD
ATOM     24  C   UNL A   1      35.651  23.089  26.194  1.00  0.00     0.012 C 
ATOM     25  C   UNL A   1      34.431  22.633  26.984  1.00  0.00     0.062 C 
ENDBRANCH  12  15
ENDBRANCH   9  11
ENDBRANCH   6   9
ENDBRANCH   4   5
ENDBRANCH   3   4
ENDBRANCH   2   3
ENDBRANCH   1   2
BRANCH   1  26
ATOM     26  C   UNL A   1      31.548  31.929  26.885  1.00  0.00     0.021 C 
BRANCH  26  27
ATOM     27  C   UNL A   1      32.756  32.758  27.283  1.00  0.00     0.116 C 
BRANCH  27  28
ATOM     28  N   UNL A   1      32.432  34.139  27.627  1.00  0.00    -0.352 N 
ATOM     29  C   UNL A   1      33.003  34.928  28.603  1.00  0.00     0.251 C 
ATOM     30  H   UNL A   1      31.717  34.560  27.097  1.00  0.00     0.163 HD
ATOM     31  O   UNL A   1      32.569  36.040  28.849  1.00  0.00    -0.269 OA
BRANCH  29  32
ATOM     32  C   UNL A   1      34.129  34.354  29.367  1.00  0.00     0.039 A 
ATOM     33  C   UNL A   1      33.867  33.459  30.403  1.00  0.00     0.014 A 
ATOM     34  C   UNL A   1      35.437  34.603  28.947  1.00  0.00     0.014 A 
ATOM     35  C   UNL A   1      34.925  32.746  30.968  1.00  0.00     0.010 A 
ATOM     36  C   UNL A   1      36.465  33.807  29.425  1.00  0.00     0.010 A 
ATOM     37  C   UNL A   1      36.225  32.880  30.451  1.00  0.00    -0.014 A 
BRANCH  37  38
ATOM     38  C   UNL A   1      37.372  32.110  30.999  1.00  0.00     0.031 A 
ATOM     39  C   UNL A   1      37.825  32.390  32.409  1.00  0.00     0.074 A 
ATOM     40  C   UNL A   1      38.043  31.239  30.221  1.00  0.00     0.049 A 
ATOM     41  N   UNL A   1      38.889  31.964  33.038  1.00  0.00    -0.248 NA
ATOM     42  C   UNL A   1      36.999  33.324  33.191  1.00  0.00     0.031 C 
ATOM     43  C   UNL A   1      37.736  30.934  28.822  1.00  0.00     0.029 A 
ATOM     44  N   UNL A   1      39.135  30.453  30.496  1.00  0.00    -0.354 N 
ATOM     45  C   UNL A   1      38.871  32.602  34.275  1.00  0.00     0.074 A 
ATOM     46  C   UNL A   1      37.747  33.512  34.265  1.00  0.00     0.031 C 
ATOM     47  C   UNL A   1      38.597  30.004  28.373  1.00  0.00     0.029 A 
ATOM     48  C   UNL A   1      39.543  29.677  29.434  1.00  0.00     0.049 A 
ATOM     49  H   UNL A   1      39.584  30.445  31.372  1.00  0.00     0.167 HD
ATOM     50  C   UNL A   1      39.687  32.414  35.341  1.00  0.00     0.034 A 
ATOM     51  C   UNL A   1      40.565  28.805  29.336  1.00  0.00     0.034 A 
ATOM     52  C   UNL A   1      40.772  31.467  35.348  1.00  0.00     0.049 A 
ATOM     53  C   UNL A   1      41.434  28.577  30.551  1.00  0.00     0.074 A 
ATOM     54  C   UNL A   1      41.660  31.172  36.366  1.00  0.00     0.029 A 
ATOM     55  N   UNL A   1      41.102  30.640  34.281  1.00  0.00    -0.354 N 
ATOM     56  N   UNL A   1      41.390  29.172  31.721  1.00  0.00    -0.248 NA
ATOM     57  C   UNL A   1      42.469  27.542  30.441  1.00  0.00     0.031 C 
ATOM     58  C   UNL A   1      42.543  30.190  35.907  1.00  0.00     0.029 A 
ATOM     59  C   UNL A   1      42.170  29.828  34.622  1.00  0.00     0.049 A 
ATOM     60  H   UNL A   1      40.643  30.632  33.410  1.00  0.00     0.167 HD
ATOM     61  C   UNL A   1      42.364  28.551  32.498  1.00  0.00     0.074 A 
ATOM     62  C   UNL A   1      42.965  27.527  31.668  1.00  0.00     0.031 C 
ATOM     63  C   UNL A   1      42.734  28.801  33.780  1.00  0.00     0.034 A 
BRANCH  50  64
ATOM     64  C   UNL A   1      39.417  33.246  36.571  1.00  0.00     0.023 A 
ATOM     65  C   UNL A   1      40.057  34.482  36.772  1.00  0.00     0.031 A 
ATOM     66  C   UNL A   1      38.558  32.780  37.581  1.00  0.00     0.131 A 
ATOM     67  C   UNL A   1      39.905  35.163  37.988  1.00  0.00     0.055 A 
ATOM     68  C   UNL A   1      38.336  33.510  38.752  1.00  0.00     0.041 A 
ATOM     69  F   UNL A   1      37.934  31.597  37.458  1.00  0.00    -0.206 F 
ATOM     70  C   UNL A   1      39.026  34.700  38.968  1.00  0.00     0.022 A 
BRANCH  67  71
ATOM     71  S   UNL A   1      40.987  36.577  38.327  1.00  0.00     0.124 S 
ATOM     72  O   UNL A   1      41.605  36.792  37.020  1.00  0.00    -0.237 OA
ATOM     73  O   UNL A   1      40.045  37.601  38.763  1.00  0.00    -0.237 OA
ATOM     74  O   UNL A   1      41.889  36.077  39.363  1.00  0.00    -0.744 OA
ENDBRANCH  67  71
ENDBRANCH  50  64
BRANCH  51  75
ATOM     75  C   UNL A   1      40.829  28.072  28.064  1.00  0.00     0.023 A 
ATOM     76  C   UNL A   1      40.416  26.739  27.900  1.00  0.00     0.031 A 
ATOM     77  C   UNL A   1      41.557  28.667  27.018  1.00  0.00     0.131 A 
ATOM     78  C   UNL A   1      40.793  26.023  26.752  1.00  0.00     0.055 A 
ATOM     79  C   UNL A   1      41.877  27.968  25.852  1.00  0.00     0.041 A 
ATOM     80  F   UNL A   1      41.968  29.941  27.116  1.00  0.00    -0.206 F 
ATOM     81  C   UNL A   1      41.511  26.632  25.722  1.00  0.00     0.022 A 
BRANCH  78  82
ATOM     82  S   UNL A   1      40.430  24.247  26.682  1.00  0.00     0.124 S 
ATOM     83  O   UNL A   1      40.495  23.874  28.091  1.00  0.00    -0.237 OA
ATOM     84  O   UNL A   1      39.105  24.234  26.074  1.00  0.00    -0.237 OA
ATOM     85  O   UNL A   1      41.504  23.714  25.846  1.00  0.00    -0.744 OA
ENDBRANCH  78  82
ENDBRANCH  51  75
BRANCH  63  86
ATOM     86  C   UNL A   1      43.782  27.898  34.377  1.00  0.00     0.023 A 
ATOM     87  C   UNL A   1      43.450  26.672  34.979  1.00  0.00     0.031 A 
ATOM     88  C   UNL A   1      45.134  28.282  34.354  1.00  0.00     0.131 A 
ATOM     89  C   UNL A   1      44.450  25.904  35.591  1.00  0.00     0.055 A 
ATOM     90  C   UNL A   1      46.133  27.485  34.912  1.00  0.00     0.041 A 
ATOM     91  F   UNL A   1      45.505  29.442  33.788  1.00  0.00    -0.206 F 
ATOM     92  C   UNL A   1      45.791  26.295  35.549  1.00  0.00     0.022 A 
BRANCH  89  93
ATOM     93  S   UNL A   1      43.960  24.432  36.531  1.00  0.00     0.124 S 
ATOM     94  O   UNL A   1      44.238  24.841  37.904  1.00  0.00    -0.237 OA
ATOM     95  O   UNL A   1      42.550  24.295  36.181  1.00  0.00    -0.237 OA
ATOM     96  O   UNL A   1      44.833  23.384  36.006  1.00  0.00    -0.744 OA
ENDBRANCH  89  93
ENDBRANCH  63  86
ENDBRANCH  37  38
ENDBRANCH  29  32
ENDBRANCH  27  28
ENDBRANCH  26  27
ENDBRANCH   1  26
TORSDOF 18
ENDMDL
MODEL 3
REMARK VINA RESULT:     -11.3      2.476      8.468
REMARK SMILES C[C@@H](NC(=O)N1CC[N@@H+]2CCCC[C@H]2C1)C(=O)NCCCCCCNC(=O)c1ccc(-c2c3nc(c(-c4cc(S(=O)(=O)[O-])ccc4F)c4ccc([nH]4)c(-c4cc(S(=O)(=O)[O-])ccc4F)c4nc(c(-c5cc(S(=O)(=O)[O-])ccc5F)c5ccc2[nH]5)C=C4)C=C3)cc1
REMARK SMILES IDX 22 1 21 2 20 3 19 4 18 5 16 6 17 7 2 9 1 10 3 11 4 12 5 14
REMARK SMILES IDX 6 15 7 16 15 17 8 18 14 19 9 20 13 21 10 22 12 24 11 25
REMARK SMILES IDX 23 26 24 27 25 28 26 29 27 31 28 32 29 33 90 34 30 35 89 36
REMARK SMILES IDX 31 37 32 38 33 39 83 40 34 41 88 42 82 43 84 44 35 45 87 46
REMARK SMILES IDX 81 47 80 48 36 50 68 51 48 52 67 53 49 54 52 55 66 56 85 57
REMARK SMILES IDX 50 58 51 59 65 61 86 62 53 63 37 64 38 65 46 66 39 67 45 68
REMARK SMILES IDX 47 69 44 70 40 71 41 72 42 73 43 74 69 75 70 76 78 77 71 78
REMARK SMILES IDX 77 79 79 80 76 81 72 82 73 83 74 84 75 85 54 86 55 87 63 88
REMARK SMILES IDX 56 89 62 90 64 91 61 92 57 93 58 94 59 95 60 96
REMARK H PARENT 18 8 3 13 9 23 25 30 84 49 52 60
REMARK Flexibility Score: inf
ROOT
ATOM      1  C   UNL A   1      32.917  29.676  26.706  1.00  0.00     0.002 C 
ENDROOT
BRANCH   1   2
ATOM      2  C   UNL A   1      31.988  28.536  27.131  1.00  0.00     0.002 C 
BRANCH   2   3
ATOM      3  C   UNL A   1      32.351  27.179  26.523  1.00  0.00     0.021 C 
BRANCH   3   4
ATOM      4  C   UNL A   1      31.143  26.262  26.334  1.00  0.00     0.116 C 
BRANCH   4   5
ATOM      5  N   UNL A   1      31.284  25.039  27.102  1.00  0.00    -0.354 N 
ATOM      6  C   UNL A   1      32.059  23.948  26.852  1.00  0.00     0.242 C 
ATOM      7  O   UNL A   1      31.882  22.951  27.565  1.00  0.00    -0.273 OA
ATOM      8  H   UNL A   1      30.740  24.990  27.921  1.00  0.00     0.163 HD
BRANCH   6   9
ATOM      9  C   UNL A   1      32.995  23.858  25.635  1.00  0.00     0.170 C 
ATOM     10  C   UNL A   1      34.391  23.510  26.166  1.00  0.00     0.041 C 
BRANCH   9  11
ATOM     11  N   UNL A   1      32.620  22.930  24.574  1.00  0.00    -0.326 N 
ATOM     12  C   UNL A   1      32.372  23.071  23.255  1.00  0.00     0.318 C 
ATOM     13  H   UNL A   1      32.527  22.001  24.889  1.00  0.00     0.166 HD
ATOM     14  O   UNL A   1      32.044  22.045  22.655  1.00  0.00    -0.249 OA
BRANCH  12  15
ATOM     15  N   UNL A   1      32.309  24.300  22.674  1.00  0.00    -0.313 N 
ATOM     16  C   UNL A   1      33.299  24.930  21.804  1.00  0.00     0.183 C 
ATOM     17  C   UNL A   1      31.015  24.984  22.637  1.00  0.00     0.186 C 
ATOM     18  C   UNL A   1      33.440  26.446  22.076  1.00  0.00     0.284 C 
ATOM     19  C   UNL A   1      31.209  26.451  23.075  1.00  0.00     0.203 C 
ATOM     20  N   UNL A   1      32.165  27.192  22.214  1.00  0.00    -0.330 N 
ATOM     21  C   UNL A   1      29.873  27.203  23.120  1.00  0.00     0.067 C 
ATOM     22  C   UNL A   1      32.434  28.520  22.803  1.00  0.00     0.262 C 
ATOM     23  H   UNL A   1      31.749  27.301  21.288  1.00  0.00     0.348 HD
ATOM     24  C   UNL A   1      30.070  28.596  23.715  1.00  0.00     0.012 C 
ATOM     25  C   UNL A   1      31.161  29.353  22.969  1.00  0.00     0.062 C 
ENDBRANCH  12  15
ENDBRANCH   9  11
ENDBRANCH   6   9
ENDBRANCH   4   5
ENDBRANCH   3   4
ENDBRANCH   2   3
ENDBRANCH   1   2
BRANCH   1  26
ATOM     26  C   UNL A   1      32.368  31.083  26.881  1.00  0.00     0.021 C 
BRANCH  26  27
ATOM     27  C   UNL A   1      33.387  32.083  27.397  1.00  0.00     0.116 C 
BRANCH  27  28
ATOM     28  N   UNL A   1      32.848  33.427  27.583  1.00  0.00    -0.352 N 
ATOM     29  C   UNL A   1      33.213  34.365  28.524  1.00  0.00     0.251 C 
ATOM     30  H   UNL A   1      32.137  33.696  26.959  1.00  0.00     0.163 HD
ATOM     31  O   UNL A   1      32.611  35.420  28.629  1.00  0.00    -0.269 OA
BRANCH  29  32
ATOM     32  C   UNL A   1      34.328  34.022  29.429  1.00  0.00     0.039 A 
ATOM     33  C   UNL A   1      34.077  33.252  30.564  1.00  0.00     0.014 A 
ATOM     34  C   UNL A   1      35.633  34.349  29.058  1.00  0.00     0.014 A 
ATOM     35  C   UNL A   1      35.154  32.738  31.287  1.00  0.00     0.010 A 
ATOM     36  C   UNL A   1      36.696  33.737  29.705  1.00  0.00     0.010 A 
ATOM     37  C   UNL A   1      36.470  32.937  30.836  1.00  0.00    -0.014 A 
BRANCH  37  38
ATOM     38  C   UNL A   1      37.641  32.375  31.556  1.00  0.00     0.031 A 
ATOM     39  C   UNL A   1      38.410  31.245  30.919  1.00  0.00     0.074 A 
ATOM     40  C   UNL A   1      37.959  32.812  32.790  1.00  0.00     0.049 A 
ATOM     41  N   UNL A   1      39.356  30.497  31.423  1.00  0.00    -0.248 NA
ATOM     42  C   UNL A   1      38.014  30.871  29.552  1.00  0.00     0.031 C 
ATOM     43  C   UNL A   1      37.248  33.855  33.534  1.00  0.00     0.029 A 
ATOM     44  N   UNL A   1      38.960  32.424  33.645  1.00  0.00    -0.354 N 
ATOM     45  C   UNL A   1      39.643  29.550  30.445  1.00  0.00     0.074 A 
ATOM     46  C   UNL A   1      38.707  29.761  29.364  1.00  0.00     0.031 C 
ATOM     47  C   UNL A   1      37.855  34.045  34.717  1.00  0.00     0.029 A 
ATOM     48  C   UNL A   1      38.971  33.113  34.838  1.00  0.00     0.049 A 
ATOM     49  H   UNL A   1      39.611  31.719  33.426  1.00  0.00     0.167 HD
ATOM     50  C   UNL A   1      40.629  28.619  30.427  1.00  0.00     0.034 A 
ATOM     51  C   UNL A   1      39.789  32.997  35.902  1.00  0.00     0.034 A 
ATOM     52  C   UNL A   1      41.582  28.456  31.494  1.00  0.00     0.049 A 
ATOM     53  C   UNL A   1      40.909  31.985  35.841  1.00  0.00     0.074 A 
ATOM     54  C   UNL A   1      42.634  27.564  31.589  1.00  0.00     0.029 A 
ATOM     55  N   UNL A   1      41.611  29.229  32.648  1.00  0.00    -0.354 N 
ATOM     56  N   UNL A   1      41.182  31.111  34.899  1.00  0.00    -0.248 NA
ATOM     57  C   UNL A   1      41.845  31.962  36.971  1.00  0.00     0.031 C 
ATOM     58  C   UNL A   1      43.280  27.776  32.812  1.00  0.00     0.029 A 
ATOM     59  C   UNL A   1      42.668  28.841  33.453  1.00  0.00     0.049 A 
ATOM     60  H   UNL A   1      40.974  29.948  32.862  1.00  0.00     0.167 HD
ATOM     61  C   UNL A   1      42.346  30.467  35.306  1.00  0.00     0.074 A 
ATOM     62  C   UNL A   1      42.730  31.064  36.568  1.00  0.00     0.031 C 
ATOM     63  C   UNL A   1      43.039  29.470  34.698  1.00  0.00     0.034 A 
BRANCH  50  64
ATOM     64  C   UNL A   1      40.712  27.727  29.212  1.00  0.00     0.023 A 
ATOM     65  C   UNL A   1      41.651  27.967  28.193  1.00  0.00     0.031 A 
ATOM     66  C   UNL A   1      39.811  26.662  29.037  1.00  0.00     0.131 A 
ATOM     67  C   UNL A   1      41.610  27.218  27.009  1.00  0.00     0.055 A 
ATOM     68  C   UNL A   1      39.836  25.859  27.894  1.00  0.00     0.041 A 
ATOM     69  F   UNL A   1      38.876  26.397  29.964  1.00  0.00    -0.206 F 
ATOM     70  C   UNL A   1      40.728  26.147  26.863  1.00  0.00     0.022 A 
BRANCH  67  71
ATOM     71  S   UNL A   1      42.621  27.764  25.606  1.00  0.00     0.124 S 
ATOM     72  O   UNL A   1      43.886  28.083  26.265  1.00  0.00    -0.237 OA
ATOM     73  O   UNL A   1      42.630  26.588  24.744  1.00  0.00    -0.237 OA
ATOM     74  O   UNL A   1      41.888  28.916  25.084  1.00  0.00    -0.744 OA
ENDBRANCH  67  71
ENDBRANCH  50  64
BRANCH  51  75
ATOM     75  C   UNL A   1      39.605  33.855  37.109  1.00  0.00     0.023 A 
ATOM     76  C   UNL A   1      38.971  33.357  38.259  1.00  0.00     0.031 A 
ATOM     77  C   UNL A   1      39.997  35.205  37.109  1.00  0.00     0.131 A 
ATOM     78  C   UNL A   1      38.684  34.216  39.331  1.00  0.00     0.055 A 
ATOM     79  C   UNL A   1      39.763  36.041  38.203  1.00  0.00     0.041 A 
ATOM     80  F   UNL A   1      40.617  35.733  36.041  1.00  0.00    -0.206 F 
ATOM     81  C   UNL A   1      39.085  35.553  39.315  1.00  0.00     0.022 A 
BRANCH  78  82
ATOM     82  S   UNL A   1      37.671  33.586  40.698  1.00  0.00     0.124 S 
ATOM     83  O   UNL A   1      36.549  32.985  39.984  1.00  0.00    -0.237 OA
ATOM     84  O   UNL A   1      38.588  32.659  41.351  1.00  0.00    -0.237 OA
ATOM     85  O   UNL A   1      37.350  34.789  41.465  1.00  0.00    -0.744 OA
ENDBRANCH  78  82
ENDBRANCH  51  75
BRANCH  63  86
ATOM     86  C   UNL A   1      44.319  29.028  35.357  1.00  0.00     0.023 A 
ATOM     87  C   UNL A   1      44.334  28.064  36.380  1.00  0.00     0.031 A 
ATOM     88  C   UNL A   1      45.543  29.596  34.962  1.00  0.00     0.131 A 
ATOM     89  C   UNL A   1      45.541  27.744  37.017  1.00  0.00     0.055 A 
ATOM     90  C   UNL A   1      46.749  29.229  35.559  1.00  0.00     0.041 A 
ATOM     91  F   UNL A   1      45.585  30.519  33.987  1.00  0.00    -0.206 F 
ATOM     92  C   UNL A   1      46.750  28.309  36.603  1.00  0.00     0.022 A 
BRANCH  89  93
ATOM     93  S   UNL A   1      45.495  26.649  38.462  1.00  0.00     0.124 S 
ATOM     94  O   UNL A   1      46.912  26.393  38.695  1.00  0.00    -0.237 OA
ATOM     95  O   UNL A   1      44.825  27.479  39.459  1.00  0.00    -0.237 OA
ATOM     96  O   UNL A   1      44.724  25.498  37.996  1.00  0.00    -0.744 OA
ENDBRANCH  89  93
ENDBRANCH  63  86
ENDBRANCH  37  38
ENDBRANCH  29  32
ENDBRANCH  27  28
ENDBRANCH  26  27
ENDBRANCH   1  26
TORSDOF 18
ENDMDL
