MODEL 1
REMARK VINA RESULT:     -10.3      0.000      0.000
REMARK SMILES COc1ccsc1CN(Cc1ccccc1)C(=O)/C=C/C(=O)NCCCCCCNC(=O)c1ccc(-c2c3nc(c(-c4cc(S(=O)(=O)[O-])ccc4F)c4ccc([nH]4)c(-c4cc(S(=O)(=O)[O-])ccc4F)c4nc(c(-c5cc(S(=O)(=O)[O-])ccc5F)c5ccc2[nH]5)C=C4)C=C3)cc1
REMARK SMILES IDX 25 1 24 2 23 3 21 4 22 5 20 7 19 8 17 9 18 10 9 11 8 12 7 13
REMARK SMILES IDX 3 14 4 15 5 16 6 17 2 18 1 19 10 20 11 21 12 22 16 23 13 24
REMARK SMILES IDX 15 25 14 26 26 27 27 28 28 29 29 30 30 31 31 32 32 34 33 35
REMARK SMILES IDX 34 36 95 37 35 38 94 39 36 40 37 41 38 42 88 43 39 44 93 45
REMARK SMILES IDX 87 46 89 47 40 48 92 49 86 50 85 51 41 53 73 54 53 55 72 56
REMARK SMILES IDX 54 57 57 58 71 59 90 60 55 61 56 62 70 64 91 65 58 66 42 67
REMARK SMILES IDX 43 68 51 69 44 70 50 71 52 72 49 73 45 74 46 75 47 76 48 77
REMARK SMILES IDX 74 78 75 79 83 80 76 81 82 82 84 83 81 84 77 85 78 86 79 87
REMARK SMILES IDX 80 88 59 89 60 90 68 91 61 92 67 93 69 94 66 95 62 96 63 97
REMARK SMILES IDX 64 98 65 99
REMARK H PARENT 23 6 30 33 89 52 57 63
REMARK Flexibility Score: inf
ROOT
ATOM      1  C   UNL A   1      35.848  30.899  27.908  1.00  0.00     0.021 C 
ENDROOT
BRANCH   1   2
ATOM      2  C   UNL A   1      35.170  29.572  27.562  1.00  0.00     0.116 C 
BRANCH   2   3
ATOM      3  N   UNL A   1      34.238  29.791  26.470  1.00  0.00    -0.353 N 
ATOM      4  C   UNL A   1      33.635  28.943  25.600  1.00  0.00     0.244 C 
ATOM      5  O   UNL A   1      33.060  29.412  24.617  1.00  0.00    -0.270 OA
ATOM      6  H   UNL A   1      33.998  30.736  26.335  1.00  0.00     0.163 HD
BRANCH   4   7
ATOM      7  C   UNL A   1      33.473  27.500  25.886  1.00  0.00     0.077 C 
ATOM      8  C   UNL A   1      32.338  26.809  26.001  1.00  0.00     0.077 C 
BRANCH   8   9
ATOM      9  C   UNL A   1      32.038  25.350  25.941  1.00  0.00     0.247 C 
ATOM     10  O   UNL A   1      31.386  24.944  26.910  1.00  0.00    -0.270 OA
BRANCH   9  11
ATOM     11  N   UNL A   1      32.342  24.527  24.869  1.00  0.00    -0.330 N 
BRANCH  11  12
ATOM     12  C   UNL A   1      31.399  23.432  24.571  1.00  0.00     0.170 C 
BRANCH  12  13
ATOM     13  C   UNL A   1      32.041  22.071  24.589  1.00  0.00     0.066 A 
ATOM     14  C   UNL A   1      32.647  21.456  25.664  1.00  0.00     0.134 A 
ATOM     15  C   UNL A   1      33.289  20.236  25.316  1.00  0.00     0.058 A 
ATOM     16  C   UNL A   1      33.125  19.939  23.980  1.00  0.00     0.069 A 
ATOM     17  S   UNL A   1      32.148  21.095  23.179  1.00  0.00    -0.143 S 
BRANCH  14  18
ATOM     18  O   UNL A   1      32.583  22.015  26.898  1.00  0.00    -0.496 OA
ATOM     19  C   UNL A   1      33.793  21.854  27.632  1.00  0.00     0.278 C 
ENDBRANCH  14  18
ENDBRANCH  12  13
ENDBRANCH  11  12
BRANCH  11  20
ATOM     20  C   UNL A   1      33.450  24.666  23.923  1.00  0.00     0.155 C 
BRANCH  20  21
ATOM     21  C   UNL A   1      34.749  23.931  24.223  1.00  0.00    -0.029 A 
ATOM     22  C   UNL A   1      35.406  24.240  25.429  1.00  0.00     0.005 A 
ATOM     23  C   UNL A   1      35.398  23.061  23.334  1.00  0.00     0.005 A 
ATOM     24  C   UNL A   1      36.685  23.749  25.706  1.00  0.00     0.000 A 
ATOM     25  C   UNL A   1      36.696  22.604  23.591  1.00  0.00     0.000 A 
ATOM     26  C   UNL A   1      37.341  22.953  24.774  1.00  0.00     0.000 A 
ENDBRANCH  20  21
ENDBRANCH  11  20
ENDBRANCH   9  11
ENDBRANCH   8   9
ENDBRANCH   4   7
ENDBRANCH   2   3
ENDBRANCH   1   2
BRANCH   1  27
ATOM     27  C   UNL A   1      34.840  32.050  28.047  1.00  0.00     0.002 C 
BRANCH  27  28
ATOM     28  C   UNL A   1      35.447  33.444  27.852  1.00  0.00     0.002 C 
BRANCH  28  29
ATOM     29  C   UNL A   1      34.454  34.597  28.016  1.00  0.00     0.021 C 
BRANCH  29  30
ATOM     30  C   UNL A   1      33.181  34.215  28.765  1.00  0.00     0.116 C 
BRANCH  30  31
ATOM     31  N   UNL A   1      32.923  35.126  29.869  1.00  0.00    -0.352 N 
ATOM     32  C   UNL A   1      33.450  35.113  31.136  1.00  0.00     0.251 C 
ATOM     33  H   UNL A   1      32.283  35.850  29.681  1.00  0.00     0.163 HD
ATOM     34  O   UNL A   1      32.935  35.787  32.021  1.00  0.00    -0.269 OA
BRANCH  32  35
ATOM     35  C   UNL A   1      34.628  34.267  31.421  1.00  0.00     0.039 A 
ATOM     36  C   UNL A   1      35.900  34.735  31.086  1.00  0.00     0.014 A 
ATOM     37  C   UNL A   1      34.471  33.015  32.024  1.00  0.00     0.014 A 
ATOM     38  C   UNL A   1      37.021  33.969  31.408  1.00  0.00     0.010 A 
ATOM     39  C   UNL A   1      35.592  32.288  32.409  1.00  0.00     0.010 A 
ATOM     40  C   UNL A   1      36.880  32.755  32.100  1.00  0.00    -0.014 A 
BRANCH  40  41
ATOM     41  C   UNL A   1      38.063  31.955  32.506  1.00  0.00     0.031 A 
ATOM     42  C   UNL A   1      38.769  32.259  33.799  1.00  0.00     0.074 A 
ATOM     43  C   UNL A   1      38.535  31.000  31.681  1.00  0.00     0.049 A 
ATOM     44  N   UNL A   1      39.859  31.729  34.292  1.00  0.00    -0.248 NA
ATOM     45  C   UNL A   1      38.186  33.319  34.633  1.00  0.00     0.031 C 
ATOM     46  C   UNL A   1      37.955  30.641  30.385  1.00  0.00     0.029 A 
ATOM     47  N   UNL A   1      39.614  30.160  31.804  1.00  0.00    -0.354 N 
ATOM     48  C   UNL A   1      40.099  32.399  35.487  1.00  0.00     0.074 A 
ATOM     49  C   UNL A   1      39.078  33.417  35.608  1.00  0.00     0.031 C 
ATOM     50  C   UNL A   1      38.668  29.640  29.846  1.00  0.00     0.029 A 
ATOM     51  C   UNL A   1      39.784  29.319  30.729  1.00  0.00     0.049 A 
ATOM     52  H   UNL A   1      40.210  30.161  32.586  1.00  0.00     0.167 HD
ATOM     53  C   UNL A   1      41.067  32.169  36.408  1.00  0.00     0.034 A 
ATOM     54  C   UNL A   1      40.741  28.402  30.476  1.00  0.00     0.034 A 
ATOM     55  C   UNL A   1      42.074  31.145  36.270  1.00  0.00     0.049 A 
ATOM     56  C   UNL A   1      41.830  28.191  31.497  1.00  0.00     0.074 A 
ATOM     57  C   UNL A   1      43.071  30.788  37.163  1.00  0.00     0.029 A 
ATOM     58  N   UNL A   1      42.223  30.316  35.164  1.00  0.00    -0.354 N 
ATOM     59  N   UNL A   1      42.016  28.798  32.646  1.00  0.00    -0.248 NA
ATOM     60  C   UNL A   1      42.834  27.164  31.189  1.00  0.00     0.031 C 
ATOM     61  C   UNL A   1      43.864  29.802  36.567  1.00  0.00     0.029 A 
ATOM     62  C   UNL A   1      43.314  29.479  35.337  1.00  0.00     0.049 A 
ATOM     63  H   UNL A   1      41.637  30.323  34.373  1.00  0.00     0.167 HD
ATOM     64  C   UNL A   1      43.140  28.203  33.213  1.00  0.00     0.074 A 
ATOM     65  C   UNL A   1      43.579  27.182  32.285  1.00  0.00     0.031 C 
ATOM     66  C   UNL A   1      43.750  28.473  34.396  1.00  0.00     0.034 A 
BRANCH  53  67
ATOM     67  C   UNL A   1      41.094  33.064  37.626  1.00  0.00     0.023 A 
ATOM     68  C   UNL A   1      40.384  32.740  38.797  1.00  0.00     0.031 A 
ATOM     69  C   UNL A   1      41.812  34.272  37.609  1.00  0.00     0.131 A 
ATOM     70  C   UNL A   1      40.337  33.650  39.864  1.00  0.00     0.055 A 
ATOM     71  C   UNL A   1      41.834  35.133  38.709  1.00  0.00     0.041 A 
ATOM     72  F   UNL A   1      42.492  34.648  36.514  1.00  0.00    -0.206 F 
ATOM     73  C   UNL A   1      41.080  34.831  39.839  1.00  0.00     0.022 A 
BRANCH  70  74
ATOM     74  S   UNL A   1      39.168  33.338  41.215  1.00  0.00     0.124 S 
ATOM     75  O   UNL A   1      37.885  33.484  40.533  1.00  0.00    -0.237 OA
ATOM     76  O   UNL A   1      39.521  31.985  41.632  1.00  0.00    -0.237 OA
ATOM     77  O   UNL A   1      39.475  34.390  42.183  1.00  0.00    -0.744 OA
ENDBRANCH  70  74
ENDBRANCH  53  67
BRANCH  54  78
ATOM     78  C   UNL A   1      40.723  27.623  29.206  1.00  0.00     0.023 A 
ATOM     79  C   UNL A   1      41.622  27.912  28.167  1.00  0.00     0.031 A 
ATOM     80  C   UNL A   1      39.782  26.598  28.995  1.00  0.00     0.131 A 
ATOM     81  C   UNL A   1      41.530  27.220  26.949  1.00  0.00     0.055 A 
ATOM     82  C   UNL A   1      39.732  25.874  27.803  1.00  0.00     0.041 A 
ATOM     83  F   UNL A   1      38.901  26.277  29.957  1.00  0.00    -0.206 F 
ATOM     84  C   UNL A   1      40.602  26.194  26.766  1.00  0.00     0.022 A 
BRANCH  81  85
ATOM     85  S   UNL A   1      42.592  27.741  25.573  1.00  0.00     0.124 S 
ATOM     86  O   UNL A   1      42.495  26.597  24.674  1.00  0.00    -0.237 OA
ATOM     87  O   UNL A   1      41.933  28.964  25.128  1.00  0.00    -0.237 OA
ATOM     88  O   UNL A   1      43.896  27.932  26.204  1.00  0.00    -0.744 OA
ENDBRANCH  81  85
ENDBRANCH  54  78
BRANCH  66  89
ATOM     89  C   UNL A   1      44.935  27.614  34.768  1.00  0.00     0.023 A 
ATOM     90  C   UNL A   1      44.782  26.402  35.465  1.00  0.00     0.031 A 
ATOM     91  C   UNL A   1      46.237  28.021  34.426  1.00  0.00     0.131 A 
ATOM     92  C   UNL A   1      45.916  25.667  35.844  1.00  0.00     0.055 A 
ATOM     93  C   UNL A   1      47.356  27.253  34.749  1.00  0.00     0.041 A 
ATOM     94  F   UNL A   1      46.442  29.170  33.764  1.00  0.00    -0.206 F 
ATOM     95  C   UNL A   1      47.201  26.075  35.474  1.00  0.00     0.022 A 
BRANCH  92  96
ATOM     96  S   UNL A   1      45.698  24.216  36.910  1.00  0.00     0.124 S 
ATOM     97  O   UNL A   1      44.933  23.319  36.048  1.00  0.00    -0.237 OA
ATOM     98  O   UNL A   1      47.075  23.817  37.181  1.00  0.00    -0.237 OA
ATOM     99  O   UNL A   1      44.967  24.741  38.061  1.00  0.00    -0.744 OA
ENDBRANCH  92  96
ENDBRANCH  66  89
ENDBRANCH  40  41
ENDBRANCH  32  35
ENDBRANCH  30  31
ENDBRANCH  29  30
ENDBRANCH  28  29
ENDBRANCH  27  28
ENDBRANCH   1  27
TORSDOF 23
ENDMDL
MODEL 2
REMARK VINA RESULT:     -10.2      5.566     10.659
REMARK SMILES COc1ccsc1CN(Cc1ccccc1)C(=O)/C=C/C(=O)NCCCCCCNC(=O)c1ccc(-c2c3nc(c(-c4cc(S(=O)(=O)[O-])ccc4F)c4ccc([nH]4)c(-c4cc(S(=O)(=O)[O-])ccc4F)c4nc(c(-c5cc(S(=O)(=O)[O-])ccc5F)c5ccc2[nH]5)C=C4)C=C3)cc1
REMARK SMILES IDX 25 1 24 2 23 3 21 4 22 5 20 7 19 8 17 9 18 10 9 11 8 12 7 13
REMARK SMILES IDX 3 14 4 15 5 16 6 17 2 18 1 19 10 20 11 21 12 22 16 23 13 24
REMARK SMILES IDX 15 25 14 26 26 27 27 28 28 29 29 30 30 31 31 32 32 34 33 35
REMARK SMILES IDX 34 36 95 37 35 38 94 39 36 40 37 41 38 42 88 43 39 44 93 45
REMARK SMILES IDX 87 46 89 47 40 48 92 49 86 50 85 51 41 53 73 54 53 55 72 56
REMARK SMILES IDX 54 57 57 58 71 59 90 60 55 61 56 62 70 64 91 65 58 66 42 67
REMARK SMILES IDX 43 68 51 69 44 70 50 71 52 72 49 73 45 74 46 75 47 76 48 77
REMARK SMILES IDX 74 78 75 79 83 80 76 81 82 82 84 83 81 84 77 85 78 86 79 87
REMARK SMILES IDX 80 88 59 89 60 90 68 91 61 92 67 93 69 94 66 95 62 96 63 97
REMARK SMILES IDX 64 98 65 99
REMARK H PARENT 23 6 30 33 89 52 57 63
REMARK Flexibility Score: inf
ROOT
ATOM      1  C   UNL A   1      32.452  22.226  26.363  1.00  0.00     0.021 C 
ENDROOT
BRANCH   1   2
ATOM      2  C   UNL A   1      32.514  23.731  26.630  1.00  0.00     0.116 C 
BRANCH   2   3
ATOM      3  N   UNL A   1      31.161  24.246  26.736  1.00  0.00    -0.353 N 
ATOM      4  C   UNL A   1      30.495  25.213  26.057  1.00  0.00     0.244 C 
ATOM      5  O   UNL A   1      29.417  25.615  26.498  1.00  0.00    -0.270 OA
ATOM      6  H   UNL A   1      30.623  23.811  27.436  1.00  0.00     0.163 HD
BRANCH   4   7
ATOM      7  C   UNL A   1      30.913  25.664  24.710  1.00  0.00     0.077 C 
ATOM      8  C   UNL A   1      30.521  26.757  24.053  1.00  0.00     0.077 C 
BRANCH   8   9
ATOM      9  C   UNL A   1      31.095  27.493  22.890  1.00  0.00     0.247 C 
ATOM     10  O   UNL A   1      30.258  27.767  22.023  1.00  0.00    -0.270 OA
BRANCH   9  11
ATOM     11  N   UNL A   1      32.404  27.940  22.811  1.00  0.00    -0.330 N 
BRANCH  11  12
ATOM     12  C   UNL A   1      32.726  29.206  23.497  1.00  0.00     0.170 C 
BRANCH  12  13
ATOM     13  C   UNL A   1      32.727  29.087  24.998  1.00  0.00     0.066 A 
ATOM     14  C   UNL A   1      32.055  29.894  25.892  1.00  0.00     0.134 A 
ATOM     15  C   UNL A   1      32.382  29.613  27.246  1.00  0.00     0.058 A 
ATOM     16  C   UNL A   1      33.278  28.571  27.347  1.00  0.00     0.069 A 
ATOM     17  S   UNL A   1      33.662  27.902  25.818  1.00  0.00    -0.143 S 
BRANCH  14  18
ATOM     18  O   UNL A   1      31.180  30.828  25.445  1.00  0.00    -0.496 OA
ATOM     19  C   UNL A   1      31.037  31.917  26.353  1.00  0.00     0.278 C 
ENDBRANCH  14  18
ENDBRANCH  12  13
ENDBRANCH  11  12
BRANCH  11  20
ATOM     20  C   UNL A   1      33.546  27.257  22.201  1.00  0.00     0.155 C 
BRANCH  20  21
ATOM     21  C   UNL A   1      33.657  25.749  22.373  1.00  0.00    -0.029 A 
ATOM     22  C   UNL A   1      32.909  24.939  21.498  1.00  0.00     0.005 A 
ATOM     23  C   UNL A   1      34.352  25.113  23.412  1.00  0.00     0.005 A 
ATOM     24  C   UNL A   1      32.812  23.558  21.691  1.00  0.00     0.000 A 
ATOM     25  C   UNL A   1      34.220  23.737  23.632  1.00  0.00     0.000 A 
ATOM     26  C   UNL A   1      33.445  22.961  22.775  1.00  0.00     0.000 A 
ENDBRANCH  20  21
ENDBRANCH  11  20
ENDBRANCH   9  11
ENDBRANCH   8   9
ENDBRANCH   4   7
ENDBRANCH   2   3
ENDBRANCH   1   2
BRANCH   1  27
ATOM     27  C   UNL A   1      33.606  21.467  27.035  1.00  0.00     0.002 C 
BRANCH  27  28
ATOM     28  C   UNL A   1      34.740  21.075  26.082  1.00  0.00     0.002 C 
BRANCH  28  29
ATOM     29  C   UNL A   1      35.949  22.013  26.114  1.00  0.00     0.021 C 
BRANCH  29  30
ATOM     30  C   UNL A   1      37.014  21.685  25.072  1.00  0.00     0.116 C 
BRANCH  30  31
ATOM     31  N   UNL A   1      37.901  20.630  25.536  1.00  0.00    -0.352 N 
ATOM     32  C   UNL A   1      39.171  20.735  26.044  1.00  0.00     0.251 C 
ATOM     33  H   UNL A   1      37.541  19.715  25.477  1.00  0.00     0.163 HD
ATOM     34  O   UNL A   1      39.878  19.739  26.142  1.00  0.00    -0.269 OA
BRANCH  32  35
ATOM     35  C   UNL A   1      39.679  22.062  26.452  1.00  0.00     0.039 A 
ATOM     36  C   UNL A   1      40.646  22.143  27.455  1.00  0.00     0.014 A 
ATOM     37  C   UNL A   1      39.200  23.223  25.837  1.00  0.00     0.014 A 
ATOM     38  C   UNL A   1      41.176  23.387  27.802  1.00  0.00     0.010 A 
ATOM     39  C   UNL A   1      39.780  24.451  26.133  1.00  0.00     0.010 A 
ATOM     40  C   UNL A   1      40.771  24.547  27.123  1.00  0.00    -0.014 A 
BRANCH  40  41
ATOM     41  C   UNL A   1      41.365  25.872  27.435  1.00  0.00     0.031 A 
ATOM     42  C   UNL A   1      42.778  26.179  27.020  1.00  0.00     0.074 A 
ATOM     43  C   UNL A   1      40.654  26.770  28.144  1.00  0.00     0.049 A 
ATOM     44  N   UNL A   1      43.500  27.242  27.265  1.00  0.00    -0.248 NA
ATOM     45  C   UNL A   1      43.479  25.139  26.254  1.00  0.00     0.031 C 
ATOM     46  C   UNL A   1      39.288  26.570  28.632  1.00  0.00     0.029 A 
ATOM     47  N   UNL A   1      40.981  28.028  28.586  1.00  0.00    -0.354 N 
ATOM     48  C   UNL A   1      44.745  26.994  26.693  1.00  0.00     0.074 A 
ATOM     49  C   UNL A   1      44.695  25.654  26.149  1.00  0.00     0.031 C 
ATOM     50  C   UNL A   1      38.886  27.673  29.282  1.00  0.00     0.029 A 
ATOM     51  C   UNL A   1      39.979  28.640  29.303  1.00  0.00     0.049 A 
ATOM     52  H   UNL A   1      41.851  28.451  28.407  1.00  0.00     0.167 HD
ATOM     53  C   UNL A   1      45.818  27.819  26.609  1.00  0.00     0.034 A 
ATOM     54  C   UNL A   1      39.950  29.838  29.921  1.00  0.00     0.034 A 
ATOM     55  C   UNL A   1      45.845  29.154  27.154  1.00  0.00     0.049 A 
ATOM     56  C   UNL A   1      41.170  30.722  29.848  1.00  0.00     0.074 A 
ATOM     57  C   UNL A   1      46.858  30.095  27.082  1.00  0.00     0.029 A 
ATOM     58  N   UNL A   1      44.815  29.739  27.882  1.00  0.00    -0.354 N 
ATOM     59  N   UNL A   1      42.322  30.494  29.260  1.00  0.00    -0.248 NA
ATOM     60  C   UNL A   1      41.081  32.027  30.514  1.00  0.00     0.031 C 
ATOM     61  C   UNL A   1      46.472  31.214  27.829  1.00  0.00     0.029 A 
ATOM     62  C   UNL A   1      45.184  31.010  28.296  1.00  0.00     0.049 A 
ATOM     63  H   UNL A   1      43.949  29.312  28.076  1.00  0.00     0.167 HD
ATOM     64  C   UNL A   1      43.083  31.643  29.459  1.00  0.00     0.074 A 
ATOM     65  C   UNL A   1      42.254  32.564  30.208  1.00  0.00     0.031 C 
ATOM     66  C   UNL A   1      44.351  31.914  29.055  1.00  0.00     0.034 A 
BRANCH  53  67
ATOM     67  C   UNL A   1      47.055  27.280  25.927  1.00  0.00     0.023 A 
ATOM     68  C   UNL A   1      48.032  26.554  26.634  1.00  0.00     0.031 A 
ATOM     69  C   UNL A   1      47.281  27.522  24.561  1.00  0.00     0.131 A 
ATOM     70  C   UNL A   1      49.221  26.171  25.996  1.00  0.00     0.055 A 
ATOM     71  C   UNL A   1      48.427  27.060  23.910  1.00  0.00     0.041 A 
ATOM     72  F   UNL A   1      46.398  28.227  23.836  1.00  0.00    -0.206 F 
ATOM     73  C   UNL A   1      49.413  26.396  24.632  1.00  0.00     0.022 A 
BRANCH  70  74
ATOM     74  S   UNL A   1      50.575  25.519  27.011  1.00  0.00     0.124 S 
ATOM     75  O   UNL A   1      50.959  26.699  27.782  1.00  0.00    -0.237 OA
ATOM     76  O   UNL A   1      49.922  24.451  27.760  1.00  0.00    -0.237 OA
ATOM     77  O   UNL A   1      51.561  25.080  26.026  1.00  0.00    -0.744 OA
ENDBRANCH  70  74
ENDBRANCH  53  67
BRANCH  54  78
ATOM     78  C   UNL A   1      38.736  30.272  30.670  1.00  0.00     0.023 A 
ATOM     79  C   UNL A   1      37.717  30.999  30.037  1.00  0.00     0.031 A 
ATOM     80  C   UNL A   1      38.593  29.996  32.042  1.00  0.00     0.131 A 
ATOM     81  C   UNL A   1      36.624  31.467  30.783  1.00  0.00     0.055 A 
ATOM     82  C   UNL A   1      37.476  30.415  32.767  1.00  0.00     0.041 A 
ATOM     83  F   UNL A   1      39.536  29.299  32.697  1.00  0.00    -0.206 F 
ATOM     84  C   UNL A   1      36.489  31.167  32.139  1.00  0.00     0.022 A 
BRANCH  81  85
ATOM     85  S   UNL A   1      35.417  32.550  29.968  1.00  0.00     0.124 S 
ATOM     86  O   UNL A   1      35.047  31.758  28.801  1.00  0.00    -0.237 OA
ATOM     87  O   UNL A   1      34.394  32.692  30.998  1.00  0.00    -0.237 OA
ATOM     88  O   UNL A   1      36.185  33.761  29.684  1.00  0.00    -0.744 OA
ENDBRANCH  81  85
ENDBRANCH  54  78
BRANCH  66  89
ATOM     89  C   UNL A   1      44.897  33.283  29.380  1.00  0.00     0.023 A 
ATOM     90  C   UNL A   1      44.712  34.379  28.519  1.00  0.00     0.031 A 
ATOM     91  C   UNL A   1      45.619  33.491  30.569  1.00  0.00     0.131 A 
ATOM     92  C   UNL A   1      45.290  35.619  28.831  1.00  0.00     0.055 A 
ATOM     93  C   UNL A   1      46.137  34.743  30.906  1.00  0.00     0.041 A 
ATOM     94  F   UNL A   1      45.829  32.480  31.427  1.00  0.00    -0.206 F 
ATOM     95  C   UNL A   1      45.985  35.812  30.029  1.00  0.00     0.022 A 
BRANCH  92  96
ATOM     96  S   UNL A   1      45.202  36.955  27.608  1.00  0.00     0.124 S 
ATOM     97  O   UNL A   1      46.352  36.663  26.757  1.00  0.00    -0.237 OA
ATOM     98  O   UNL A   1      43.891  36.740  27.005  1.00  0.00    -0.237 OA
ATOM     99  O   UNL A   1      45.321  38.168  28.415  1.00  0.00    -0.744 OA
ENDBRANCH  92  96
ENDBRANCH  66  89
ENDBRANCH  40  41
ENDBRANCH  32  35
ENDBRANCH  30  31
ENDBRANCH  29  30
ENDBRANCH  28  29
ENDBRANCH  27  28
ENDBRANCH   1  27
TORSDOF 23
ENDMDL
MODEL 3
REMARK VINA RESULT:     -10.0      1.346      2.302
REMARK SMILES COc1ccsc1CN(Cc1ccccc1)C(=O)/C=C/C(=O)NCCCCCCNC(=O)c1ccc(-c2c3nc(c(-c4cc(S(=O)(=O)[O-])ccc4F)c4ccc([nH]4)c(-c4cc(S(=O)(=O)[O-])ccc4F)c4nc(c(-c5cc(S(=O)(=O)[O-])ccc5F)c5ccc2[nH]5)C=C4)C=C3)cc1
REMARK SMILES IDX 25 1 24 2 23 3 21 4 22 5 20 7 19 8 17 9 18 10 9 11 8 12 7 13
REMARK SMILES IDX 3 14 4 15 5 16 6 17 2 18 1 19 10 20 11 21 12 22 16 23 13 24
REMARK SMILES IDX 15 25 14 26 26 27 27 28 28 29 29 30 30 31 31 32 32 34 33 35
REMARK SMILES IDX 34 36 95 37 35 38 94 39 36 40 37 41 38 42 88 43 39 44 93 45
REMARK SMILES IDX 87 46 89 47 40 48 92 49 86 50 85 51 41 53 73 54 53 55 72 56
REMARK SMILES IDX 54 57 57 58 71 59 90 60 55 61 56 62 70 64 91 65 58 66 42 67
REMARK SMILES IDX 43 68 51 69 44 70 50 71 52 72 49 73 45 74 46 75 47 76 48 77
REMARK SMILES IDX 74 78 75 79 83 80 76 81 82 82 84 83 81 84 77 85 78 86 79 87
REMARK SMILES IDX 80 88 59 89 60 90 68 91 61 92 67 93 69 94 66 95 62 96 63 97
REMARK SMILES IDX 64 98 65 99
REMARK H PARENT 23 6 30 33 89 52 57 63
REMARK Flexibility Score: inf
ROOT
ATOM      1  C   UNL A   1      36.112  31.320  28.009  1.00  0.00     0.021 C 
ENDROOT
BRANCH   1   2
ATOM      2  C   UNL A   1      35.335  30.096  27.522  1.00  0.00     0.116 C 
BRANCH   2   3
ATOM      3  N   UNL A   1      33.913  30.374  27.616  1.00  0.00    -0.353 N 
ATOM      4  C   UNL A   1      32.829  29.806  27.029  1.00  0.00     0.244 C 
ATOM      5  O   UNL A   1      31.743  30.382  27.105  1.00  0.00    -0.270 OA
ATOM      6  H   UNL A   1      33.692  31.118  28.222  1.00  0.00     0.163 HD
BRANCH   4   7
ATOM      7  C   UNL A   1      32.860  28.435  26.472  1.00  0.00     0.077 C 
ATOM      8  C   UNL A   1      32.197  27.361  26.902  1.00  0.00     0.077 C 
BRANCH   8   9
ATOM      9  C   UNL A   1      31.870  26.056  26.259  1.00  0.00     0.247 C 
ATOM     10  O   UNL A   1      30.902  25.485  26.774  1.00  0.00    -0.270 OA
BRANCH   9  11
ATOM     11  N   UNL A   1      32.494  25.559  25.126  1.00  0.00    -0.330 N 
BRANCH  11  12
ATOM     12  C   UNL A   1      31.637  25.245  23.968  1.00  0.00     0.170 C 
BRANCH  12  13
ATOM     13  C   UNL A   1      30.890  26.439  23.437  1.00  0.00     0.066 A 
ATOM     14  C   UNL A   1      31.406  27.461  22.667  1.00  0.00     0.134 A 
ATOM     15  C   UNL A   1      30.478  28.518  22.455  1.00  0.00     0.058 A 
ATOM     16  C   UNL A   1      29.262  28.253  23.048  1.00  0.00     0.069 A 
ATOM     17  S   UNL A   1      29.232  26.712  23.795  1.00  0.00    -0.143 S 
BRANCH  14  18
ATOM     18  O   UNL A   1      32.672  27.386  22.190  1.00  0.00    -0.496 OA
ATOM     19  C   UNL A   1      33.532  28.361  22.772  1.00  0.00     0.278 C 
ENDBRANCH  14  18
ENDBRANCH  12  13
ENDBRANCH  11  12
BRANCH  11  20
ATOM     20  C   UNL A   1      33.930  25.391  24.898  1.00  0.00     0.155 C 
BRANCH  20  21
ATOM     21  C   UNL A   1      34.604  24.139  25.443  1.00  0.00    -0.029 A 
ATOM     22  C   UNL A   1      36.009  24.079  25.382  1.00  0.00     0.005 A 
ATOM     23  C   UNL A   1      33.924  22.996  25.887  1.00  0.00     0.005 A 
ATOM     24  C   UNL A   1      36.700  22.905  25.694  1.00  0.00     0.000 A 
ATOM     25  C   UNL A   1      34.611  21.807  26.158  1.00  0.00     0.000 A 
ATOM     26  C   UNL A   1      35.999  21.760  26.056  1.00  0.00     0.000 A 
ENDBRANCH  20  21
ENDBRANCH  11  20
ENDBRANCH   9  11
ENDBRANCH   8   9
ENDBRANCH   4   7
ENDBRANCH   2   3
ENDBRANCH   1   2
BRANCH   1  27
ATOM     27  C   UNL A   1      35.190  32.404  28.587  1.00  0.00     0.002 C 
BRANCH  27  28
ATOM     28  C   UNL A   1      35.447  33.810  28.032  1.00  0.00     0.002 C 
BRANCH  28  29
ATOM     29  C   UNL A   1      34.351  34.828  28.352  1.00  0.00     0.021 C 
BRANCH  29  30
ATOM     30  C   UNL A   1      33.249  34.286  29.256  1.00  0.00     0.116 C 
BRANCH  30  31
ATOM     31  N   UNL A   1      33.028  35.155  30.402  1.00  0.00    -0.352 N 
ATOM     32  C   UNL A   1      33.602  35.100  31.647  1.00  0.00     0.251 C 
ATOM     33  H   UNL A   1      32.378  35.881  30.265  1.00  0.00     0.163 HD
ATOM     34  O   UNL A   1      33.118  35.738  32.574  1.00  0.00    -0.269 OA
BRANCH  32  35
ATOM     35  C   UNL A   1      34.794  34.251  31.857  1.00  0.00     0.039 A 
ATOM     36  C   UNL A   1      36.056  34.759  31.545  1.00  0.00     0.014 A 
ATOM     37  C   UNL A   1      34.659  32.955  32.366  1.00  0.00     0.014 A 
ATOM     38  C   UNL A   1      37.191  33.987  31.798  1.00  0.00     0.010 A 
ATOM     39  C   UNL A   1      35.794  32.218  32.685  1.00  0.00     0.010 A 
ATOM     40  C   UNL A   1      37.072  32.723  32.400  1.00  0.00    -0.014 A 
BRANCH  40  41
ATOM     41  C   UNL A   1      38.270  31.912  32.733  1.00  0.00     0.031 A 
ATOM     42  C   UNL A   1      39.038  32.188  33.996  1.00  0.00     0.074 A 
ATOM     43  C   UNL A   1      38.697  30.970  31.869  1.00  0.00     0.049 A 
ATOM     44  N   UNL A   1      40.148  31.645  34.426  1.00  0.00    -0.248 NA
ATOM     45  C   UNL A   1      38.501  33.235  34.877  1.00  0.00     0.031 C 
ATOM     46  C   UNL A   1      38.054  30.638  30.596  1.00  0.00     0.029 A 
ATOM     47  N   UNL A   1      39.777  30.124  31.924  1.00  0.00    -0.354 N 
ATOM     48  C   UNL A   1      40.449  32.292  35.621  1.00  0.00     0.074 A 
ATOM     49  C   UNL A   1      39.439  33.311  35.809  1.00  0.00     0.031 C 
ATOM     50  C   UNL A   1      38.736  29.644  30.005  1.00  0.00     0.029 A 
ATOM     51  C   UNL A   1      39.891  29.302  30.826  1.00  0.00     0.049 A 
ATOM     52  H   UNL A   1      40.410  30.109  32.677  1.00  0.00     0.167 HD
ATOM     53  C   UNL A   1      41.459  32.041  36.490  1.00  0.00     0.034 A 
ATOM     54  C   UNL A   1      40.830  28.387  30.512  1.00  0.00     0.034 A 
ATOM     55  C   UNL A   1      42.453  31.016  36.285  1.00  0.00     0.049 A 
ATOM     56  C   UNL A   1      41.967  28.153  31.475  1.00  0.00     0.074 A 
ATOM     57  C   UNL A   1      43.490  30.639  37.122  1.00  0.00     0.029 A 
ATOM     58  N   UNL A   1      42.544  30.208  35.157  1.00  0.00    -0.354 N 
ATOM     59  N   UNL A   1      42.210  28.738  32.625  1.00  0.00    -0.248 NA
ATOM     60  C   UNL A   1      42.950  27.128  31.100  1.00  0.00     0.031 C 
ATOM     61  C   UNL A   1      44.249  29.662  36.470  1.00  0.00     0.029 A 
ATOM     62  C   UNL A   1      43.639  29.363  35.262  1.00  0.00     0.049 A 
ATOM     63  H   UNL A   1      41.922  30.232  34.395  1.00  0.00     0.167 HD
ATOM     64  C   UNL A   1      43.357  28.128  33.126  1.00  0.00     0.074 A 
ATOM     65  C   UNL A   1      43.747  27.122  32.159  1.00  0.00     0.031 C 
ATOM     66  C   UNL A   1      44.025  28.373  34.283  1.00  0.00     0.034 A 
BRANCH  53  67
ATOM     67  C   UNL A   1      41.548  32.913  37.721  1.00  0.00     0.023 A 
ATOM     68  C   UNL A   1      40.871  32.585  38.910  1.00  0.00     0.031 A 
ATOM     69  C   UNL A   1      42.293  34.105  37.700  1.00  0.00     0.131 A 
ATOM     70  C   UNL A   1      40.882  33.475  39.994  1.00  0.00     0.055 A 
ATOM     71  C   UNL A   1      42.373  34.945  38.813  1.00  0.00     0.041 A 
ATOM     72  F   UNL A   1      42.943  34.485  36.589  1.00  0.00    -0.206 F 
ATOM     73  C   UNL A   1      41.651  34.640  39.963  1.00  0.00     0.022 A 
BRANCH  70  74
ATOM     74  S   UNL A   1      39.753  33.165  41.379  1.00  0.00     0.124 S 
ATOM     75  O   UNL A   1      39.934  31.731  41.591  1.00  0.00    -0.237 OA
ATOM     76  O   UNL A   1      40.285  34.037  42.420  1.00  0.00    -0.237 OA
ATOM     77  O   UNL A   1      38.447  33.549  40.849  1.00  0.00    -0.744 OA
ENDBRANCH  70  74
ENDBRANCH  53  67
BRANCH  54  78
ATOM     78  C   UNL A   1      40.748  27.632  29.229  1.00  0.00     0.023 A 
ATOM     79  C   UNL A   1      41.647  27.885  28.181  1.00  0.00     0.031 A 
ATOM     80  C   UNL A   1      39.745  26.668  29.017  1.00  0.00     0.131 A 
ATOM     81  C   UNL A   1      41.497  27.220  26.954  1.00  0.00     0.055 A 
ATOM     82  C   UNL A   1      39.635  25.968  27.814  1.00  0.00     0.041 A 
ATOM     83  F   UNL A   1      38.861  26.383  29.987  1.00  0.00    -0.206 F 
ATOM     84  C   UNL A   1      40.507  26.254  26.769  1.00  0.00     0.022 A 
BRANCH  81  85
ATOM     85  S   UNL A   1      42.568  27.701  25.570  1.00  0.00     0.124 S 
ATOM     86  O   UNL A   1      41.903  28.905  25.085  1.00  0.00    -0.237 OA
ATOM     87  O   UNL A   1      43.851  27.899  26.235  1.00  0.00    -0.237 OA
ATOM     88  O   UNL A   1      42.503  26.547  24.675  1.00  0.00    -0.744 OA
ENDBRANCH  81  85
ENDBRANCH  54  78
BRANCH  66  89
ATOM     89  C   UNL A   1      45.222  27.503  34.582  1.00  0.00     0.023 A 
ATOM     90  C   UNL A   1      45.091  26.253  35.212  1.00  0.00     0.031 A 
ATOM     91  C   UNL A   1      46.514  27.938  34.236  1.00  0.00     0.131 A 
ATOM     92  C   UNL A   1      46.237  25.505  35.526  1.00  0.00     0.055 A 
ATOM     93  C   UNL A   1      47.645  27.161  34.493  1.00  0.00     0.041 A 
ATOM     94  F   UNL A   1      46.699  29.124  33.636  1.00  0.00    -0.206 F 
ATOM     95  C   UNL A   1      47.511  25.943  35.153  1.00  0.00     0.022 A 
BRANCH  92  96
ATOM     96  S   UNL A   1      46.049  23.995  36.512  1.00  0.00     0.124 S 
ATOM     97  O   UNL A   1      47.022  23.103  35.888  1.00  0.00    -0.237 OA
ATOM     98  O   UNL A   1      46.379  24.457  37.857  1.00  0.00    -0.237 OA
ATOM     99  O   UNL A   1      44.650  23.625  36.311  1.00  0.00    -0.744 OA
ENDBRANCH  92  96
ENDBRANCH  66  89
ENDBRANCH  40  41
ENDBRANCH  32  35
ENDBRANCH  30  31
ENDBRANCH  29  30
ENDBRANCH  28  29
ENDBRANCH  27  28
ENDBRANCH   1  27
TORSDOF 23
ENDMDL
