MODEL 1
REMARK VINA RESULT:     -10.3      0.000      0.000
REMARK SMILES CCN(CC)C(=O)CN(CC(=O)NCCCCCCNC(=O)c1ccc(-c2c3nc(c(-c4cc(S(=O)(=O)[O-])ccc4F)c4ccc([nH]4)c(-c4cc(S(=O)(=O)[O-])ccc4F)c4nc(c(-c5cc(S(=O)(=O)[O-])ccc5F)c5ccc2[nH]5)C=C4)C=C3)cc1)c1ccccc1
REMARK SMILES IDX 16 1 15 2 14 3 13 4 11 5 12 6 10 8 9 9 8 10 6 11 3 12 7 13
REMARK SMILES IDX 2 14 1 15 4 16 5 17 86 18 87 19 91 20 88 21 90 22 89 23
REMARK SMILES IDX 17 24 18 25 19 26 20 27 21 28 22 30 23 31 24 32 85 33 25 34
REMARK SMILES IDX 84 35 26 36 27 37 28 38 78 39 29 40 83 41 77 42 79 43 30 44
REMARK SMILES IDX 82 45 76 46 75 47 31 49 63 50 43 51 62 52 44 53 47 54 61 55
REMARK SMILES IDX 80 56 45 57 46 58 60 60 81 61 48 62 32 63 33 64 41 65 34 66
REMARK SMILES IDX 40 67 42 68 39 69 35 70 36 71 37 72 38 73 64 74 65 75 73 76
REMARK SMILES IDX 66 77 72 78 74 79 71 80 67 81 68 82 69 83 70 84 49 85 50 86
REMARK SMILES IDX 58 87 51 88 57 89 59 90 56 91 52 92 53 93 54 94 55 95
REMARK H PARENT 13 7 20 29 79 48 47 59
REMARK Flexibility Score: inf
ROOT
ATOM      1  C   UNL A   1      33.150  23.902  26.033  1.00  0.00     0.002 C 
ENDROOT
BRANCH   1   2
ATOM      2  C   UNL A   1      34.140  24.398  24.970  1.00  0.00     0.021 C 
BRANCH   2   3
ATOM      3  C   UNL A   1      33.809  25.786  24.427  1.00  0.00     0.116 C 
BRANCH   3   4
ATOM      4  N   UNL A   1      33.877  25.822  22.986  1.00  0.00    -0.355 N 
ATOM      5  C   UNL A   1      32.904  26.136  22.088  1.00  0.00     0.239 C 
ATOM      6  O   UNL A   1      33.194  26.060  20.888  1.00  0.00    -0.273 OA
ATOM      7  H   UNL A   1      34.751  25.586  22.598  1.00  0.00     0.163 HD
BRANCH   5   8
ATOM      8  C   UNL A   1      31.539  26.660  22.534  1.00  0.00     0.217 C 
BRANCH   8   9
ATOM      9  N   UNL A   1      31.308  28.124  22.554  1.00  0.00    -0.353 N 
BRANCH   9  10
ATOM     10  C   UNL A   1      32.498  29.014  22.559  1.00  0.00     0.217 C 
BRANCH  10  11
ATOM     11  C   UNL A   1      33.373  29.082  23.819  1.00  0.00     0.242 C 
ATOM     12  N   UNL A   1      32.853  29.498  25.041  1.00  0.00    -0.342 N 
ATOM     13  O   UNL A   1      34.575  28.801  23.717  1.00  0.00    -0.273 OA
BRANCH  12  14
ATOM     14  C   UNL A   1      33.741  29.448  26.204  1.00  0.00     0.116 C 
ATOM     15  C   UNL A   1      33.378  28.306  27.147  1.00  0.00     0.027 C 
ENDBRANCH  12  14
BRANCH  12  16
ATOM     16  C   UNL A   1      31.491  29.968  25.270  1.00  0.00     0.116 C 
ATOM     17  C   UNL A   1      31.438  31.195  26.167  1.00  0.00     0.027 C 
ENDBRANCH  12  16
ENDBRANCH  10  11
ENDBRANCH   9  10
BRANCH   9  18
ATOM     18  C   UNL A   1      30.020  28.648  22.565  1.00  0.00     0.038 A 
ATOM     19  C   UNL A   1      29.702  29.875  21.959  1.00  0.00     0.026 A 
ATOM     20  C   UNL A   1      28.944  27.984  23.176  1.00  0.00     0.026 A 
ATOM     21  C   UNL A   1      28.402  30.402  21.958  1.00  0.00     0.002 A 
ATOM     22  C   UNL A   1      27.643  28.506  23.195  1.00  0.00     0.002 A 
ATOM     23  C   UNL A   1      27.369  29.717  22.581  1.00  0.00     0.000 A 
ENDBRANCH   9  18
ENDBRANCH   8   9
ENDBRANCH   5   8
ENDBRANCH   3   4
ENDBRANCH   2   3
ENDBRANCH   1   2
BRANCH   1  24
ATOM     24  C   UNL A   1      33.296  22.423  26.408  1.00  0.00     0.002 C 
BRANCH  24  25
ATOM     25  C   UNL A   1      34.469  21.702  25.738  1.00  0.00     0.021 C 
BRANCH  25  26
ATOM     26  C   UNL A   1      35.801  21.859  26.462  1.00  0.00     0.116 C 
BRANCH  26  27
ATOM     27  N   UNL A   1      36.785  20.898  25.991  1.00  0.00    -0.352 N 
ATOM     28  C   UNL A   1      38.116  21.078  25.722  1.00  0.00     0.251 C 
ATOM     29  H   UNL A   1      36.446  19.985  25.844  1.00  0.00     0.163 HD
ATOM     30  O   UNL A   1      38.732  20.210  25.101  1.00  0.00    -0.269 OA
BRANCH  28  31
ATOM     31  C   UNL A   1      38.802  22.314  26.155  1.00  0.00     0.039 A 
ATOM     32  C   UNL A   1      39.958  22.209  26.933  1.00  0.00     0.014 A 
ATOM     33  C   UNL A   1      38.300  23.574  25.816  1.00  0.00     0.014 A 
ATOM     34  C   UNL A   1      40.637  23.364  27.327  1.00  0.00     0.010 A 
ATOM     35  C   UNL A   1      39.019  24.722  26.144  1.00  0.00     0.010 A 
ATOM     36  C   UNL A   1      40.190  24.630  26.910  1.00  0.00    -0.014 A 
BRANCH  36  37
ATOM     37  C   UNL A   1      40.934  25.863  27.281  1.00  0.00     0.031 A 
ATOM     38  C   UNL A   1      40.263  26.935  28.097  1.00  0.00     0.074 A 
ATOM     39  C   UNL A   1      42.203  26.029  26.857  1.00  0.00     0.049 A 
ATOM     40  N   UNL A   1      40.733  28.093  28.490  1.00  0.00    -0.248 NA
ATOM     41  C   UNL A   1      38.872  26.684  28.503  1.00  0.00     0.031 C 
ATOM     42  C   UNL A   1      42.949  25.072  26.034  1.00  0.00     0.029 A 
ATOM     43  N   UNL A   1      43.092  27.054  27.058  1.00  0.00    -0.354 N 
ATOM     44  C   UNL A   1      39.698  28.706  29.187  1.00  0.00     0.074 A 
ATOM     45  C   UNL A   1      38.554  27.823  29.099  1.00  0.00     0.031 C 
ATOM     46  C   UNL A   1      44.191  25.541  25.833  1.00  0.00     0.029 A 
ATOM     47  C   UNL A   1      44.318  26.849  26.468  1.00  0.00     0.049 A 
ATOM     48  H   UNL A   1      42.872  27.863  27.576  1.00  0.00     0.167 HD
ATOM     49  C   UNL A   1      39.708  29.880  29.865  1.00  0.00     0.034 A 
ATOM     50  C   UNL A   1      45.417  27.629  26.437  1.00  0.00     0.034 A 
ATOM     51  C   UNL A   1      40.857  30.751  29.945  1.00  0.00     0.049 A 
ATOM     52  C   UNL A   1      45.387  28.954  27.158  1.00  0.00     0.074 A 
ATOM     53  C   UNL A   1      40.986  31.949  30.626  1.00  0.00     0.029 A 
ATOM     54  N   UNL A   1      42.075  30.519  29.319  1.00  0.00    -0.354 N 
ATOM     55  N   UNL A   1      44.411  29.500  27.848  1.00  0.00    -0.248 NA
ATOM     56  C   UNL A   1      46.611  29.763  27.105  1.00  0.00     0.031 C 
ATOM     57  C   UNL A   1      42.255  32.474  30.357  1.00  0.00     0.029 A 
ATOM     58  C   UNL A   1      42.950  31.565  29.576  1.00  0.00     0.049 A 
ATOM     59  H   UNL A   1      42.287  29.728  28.773  1.00  0.00     0.167 HD
ATOM     60  C   UNL A   1      44.922  30.698  28.343  1.00  0.00     0.074 A 
ATOM     61  C   UNL A   1      46.294  30.783  27.887  1.00  0.00     0.031 C 
ATOM     62  C   UNL A   1      44.316  31.640  29.108  1.00  0.00     0.034 A 
BRANCH  49  63
ATOM     63  C   UNL A   1      38.429  30.294  30.556  1.00  0.00     0.023 A 
ATOM     64  C   UNL A   1      37.428  31.015  29.881  1.00  0.00     0.031 A 
ATOM     65  C   UNL A   1      38.213  29.986  31.911  1.00  0.00     0.131 A 
ATOM     66  C   UNL A   1      36.298  31.468  30.576  1.00  0.00     0.055 A 
ATOM     67  C   UNL A   1      37.046  30.367  32.576  1.00  0.00     0.041 A 
ATOM     68  F   UNL A   1      39.140  29.318  32.617  1.00  0.00    -0.206 F 
ATOM     69  C   UNL A   1      36.086  31.126  31.914  1.00  0.00     0.022 A 
BRANCH  66  70
ATOM     70  S   UNL A   1      35.181  32.633  29.748  1.00  0.00     0.124 S 
ATOM     71  O   UNL A   1      34.575  31.782  28.726  1.00  0.00    -0.237 OA
ATOM     72  O   UNL A   1      34.303  33.054  30.833  1.00  0.00    -0.237 OA
ATOM     73  O   UNL A   1      36.080  33.665  29.235  1.00  0.00    -0.744 OA
ENDBRANCH  66  70
ENDBRANCH  49  63
BRANCH  50  74
ATOM     74  C   UNL A   1      46.641  27.193  25.703  1.00  0.00     0.023 A 
ATOM     75  C   UNL A   1      46.930  27.691  24.423  1.00  0.00     0.031 A 
ATOM     76  C   UNL A   1      47.504  26.223  26.242  1.00  0.00     0.131 A 
ATOM     77  C   UNL A   1      48.016  27.175  23.699  1.00  0.00     0.055 A 
ATOM     78  C   UNL A   1      48.620  25.758  25.542  1.00  0.00     0.041 A 
ATOM     79  F   UNL A   1      47.279  25.713  27.463  1.00  0.00    -0.206 F 
ATOM     80  C   UNL A   1      48.871  26.222  24.255  1.00  0.00     0.022 A 
BRANCH  77  81
ATOM     81  S   UNL A   1      48.227  27.688  21.971  1.00  0.00     0.124 S 
ATOM     82  O   UNL A   1      49.401  28.549  22.060  1.00  0.00    -0.237 OA
ATOM     83  O   UNL A   1      48.418  26.408  21.298  1.00  0.00    -0.237 OA
ATOM     84  O   UNL A   1      46.972  28.371  21.664  1.00  0.00    -0.744 OA
ENDBRANCH  77  81
ENDBRANCH  50  74
BRANCH  62  85
ATOM     85  C   UNL A   1      45.156  32.817  29.541  1.00  0.00     0.023 A 
ATOM     86  C   UNL A   1      45.880  32.810  30.747  1.00  0.00     0.031 A 
ATOM     87  C   UNL A   1      45.215  33.975  28.744  1.00  0.00     0.131 A 
ATOM     88  C   UNL A   1      46.573  33.960  31.153  1.00  0.00     0.055 A 
ATOM     89  C   UNL A   1      45.963  35.091  29.121  1.00  0.00     0.041 A 
ATOM     90  F   UNL A   1      44.543  34.040  27.582  1.00  0.00    -0.206 F 
ATOM     91  C   UNL A   1      46.634  35.093  30.339  1.00  0.00     0.022 A 
BRANCH  88  92
ATOM     92  S   UNL A   1      47.306  33.993  32.812  1.00  0.00     0.124 S 
ATOM     93  O   UNL A   1      48.203  35.140  32.725  1.00  0.00    -0.237 OA
ATOM     94  O   UNL A   1      46.136  34.164  33.667  1.00  0.00    -0.237 OA
ATOM     95  O   UNL A   1      47.968  32.694  32.921  1.00  0.00    -0.744 OA
ENDBRANCH  88  92
ENDBRANCH  62  85
ENDBRANCH  36  37
ENDBRANCH  28  31
ENDBRANCH  26  27
ENDBRANCH  25  26
ENDBRANCH  24  25
ENDBRANCH   1  24
TORSDOF 22
ENDMDL
MODEL 2
REMARK VINA RESULT:      -9.6      4.486      8.012
REMARK SMILES CCN(CC)C(=O)CN(CC(=O)NCCCCCCNC(=O)c1ccc(-c2c3nc(c(-c4cc(S(=O)(=O)[O-])ccc4F)c4ccc([nH]4)c(-c4cc(S(=O)(=O)[O-])ccc4F)c4nc(c(-c5cc(S(=O)(=O)[O-])ccc5F)c5ccc2[nH]5)C=C4)C=C3)cc1)c1ccccc1
REMARK SMILES IDX 16 1 15 2 14 3 13 4 11 5 12 6 10 8 9 9 8 10 6 11 3 12 7 13
REMARK SMILES IDX 2 14 1 15 4 16 5 17 86 18 87 19 91 20 88 21 90 22 89 23
REMARK SMILES IDX 17 24 18 25 19 26 20 27 21 28 22 30 23 31 24 32 85 33 25 34
REMARK SMILES IDX 84 35 26 36 27 37 28 38 78 39 29 40 83 41 77 42 79 43 30 44
REMARK SMILES IDX 82 45 76 46 75 47 31 49 63 50 43 51 62 52 44 53 47 54 61 55
REMARK SMILES IDX 80 56 45 57 46 58 60 60 81 61 48 62 32 63 33 64 41 65 34 66
REMARK SMILES IDX 40 67 42 68 39 69 35 70 36 71 37 72 38 73 64 74 65 75 73 76
REMARK SMILES IDX 66 77 72 78 74 79 71 80 67 81 68 82 69 83 70 84 49 85 50 86
REMARK SMILES IDX 58 87 51 88 57 89 59 90 56 91 52 92 53 93 54 94 55 95
REMARK H PARENT 13 7 20 29 79 48 47 59
REMARK Flexibility Score: inf
ROOT
ATOM      1  C   UNL A   1      32.377  29.683  24.960  1.00  0.00     0.002 C 
ENDROOT
BRANCH   1   2
ATOM      2  C   UNL A   1      31.241  29.110  24.103  1.00  0.00     0.021 C 
BRANCH   2   3
ATOM      3  C   UNL A   1      31.300  27.593  23.942  1.00  0.00     0.116 C 
BRANCH   3   4
ATOM      4  N   UNL A   1      31.690  26.944  25.171  1.00  0.00    -0.355 N 
ATOM      5  C   UNL A   1      32.725  26.091  25.401  1.00  0.00     0.239 C 
ATOM      6  O   UNL A   1      32.837  25.631  26.543  1.00  0.00    -0.273 OA
ATOM      7  H   UNL A   1      31.127  27.147  25.953  1.00  0.00     0.163 HD
BRANCH   5   8
ATOM      8  C   UNL A   1      33.770  25.789  24.326  1.00  0.00     0.217 C 
BRANCH   8   9
ATOM      9  N   UNL A   1      34.051  24.374  23.982  1.00  0.00    -0.353 N 
BRANCH   9  10
ATOM     10  C   UNL A   1      33.002  23.616  23.252  1.00  0.00     0.217 C 
BRANCH  10  11
ATOM     11  C   UNL A   1      31.702  23.251  23.984  1.00  0.00     0.242 C 
ATOM     12  N   UNL A   1      31.700  22.371  25.063  1.00  0.00    -0.342 N 
ATOM     13  O   UNL A   1      30.636  23.722  23.562  1.00  0.00    -0.273 OA
BRANCH  12  14
ATOM     14  C   UNL A   1      30.426  22.151  25.751  1.00  0.00     0.116 C 
ATOM     15  C   UNL A   1      30.238  23.112  26.919  1.00  0.00     0.027 C 
ENDBRANCH  12  14
BRANCH  12  16
ATOM     16  C   UNL A   1      32.863  21.659  25.581  1.00  0.00     0.116 C 
ATOM     17  C   UNL A   1      32.735  20.150  25.437  1.00  0.00     0.027 C 
ENDBRANCH  12  16
ENDBRANCH  10  11
ENDBRANCH   9  10
BRANCH   9  18
ATOM     18  C   UNL A   1      35.259  23.777  24.327  1.00  0.00     0.038 A 
ATOM     19  C   UNL A   1      35.838  22.754  23.559  1.00  0.00     0.026 A 
ATOM     20  C   UNL A   1      35.987  24.161  25.464  1.00  0.00     0.026 A 
ATOM     21  C   UNL A   1      37.061  22.156  23.898  1.00  0.00     0.002 A 
ATOM     22  C   UNL A   1      37.203  23.563  25.822  1.00  0.00     0.002 A 
ATOM     23  C   UNL A   1      37.745  22.560  25.035  1.00  0.00     0.000 A 
ENDBRANCH   9  18
ENDBRANCH   8   9
ENDBRANCH   5   8
ENDBRANCH   3   4
ENDBRANCH   2   3
ENDBRANCH   1   2
BRANCH   1  24
ATOM     24  C   UNL A   1      31.942  30.232  26.323  1.00  0.00     0.002 C 
BRANCH  24  25
ATOM     25  C   UNL A   1      32.989  30.104  27.433  1.00  0.00     0.021 C 
BRANCH  25  26
ATOM     26  C   UNL A   1      34.130  31.111  27.341  1.00  0.00     0.116 C 
BRANCH  26  27
ATOM     27  N   UNL A   1      33.864  32.298  28.137  1.00  0.00    -0.352 N 
ATOM     28  C   UNL A   1      34.502  32.751  29.262  1.00  0.00     0.251 C 
ATOM     29  H   UNL A   1      33.117  32.857  27.822  1.00  0.00     0.163 HD
ATOM     30  O   UNL A   1      33.982  33.642  29.935  1.00  0.00    -0.269 OA
BRANCH  28  31
ATOM     31  C   UNL A   1      35.792  32.160  29.674  1.00  0.00     0.039 A 
ATOM     32  C   UNL A   1      35.793  31.118  30.605  1.00  0.00     0.014 A 
ATOM     33  C   UNL A   1      37.002  32.643  29.164  1.00  0.00     0.014 A 
ATOM     34  C   UNL A   1      37.000  30.527  30.984  1.00  0.00     0.010 A 
ATOM     35  C   UNL A   1      38.198  32.003  29.485  1.00  0.00     0.010 A 
ATOM     36  C   UNL A   1      38.211  30.944  30.404  1.00  0.00    -0.014 A 
BRANCH  36  37
ATOM     37  C   UNL A   1      39.496  30.287  30.763  1.00  0.00     0.031 A 
ATOM     38  C   UNL A   1      40.271  30.748  31.968  1.00  0.00     0.074 A 
ATOM     39  C   UNL A   1      39.979  29.297  29.985  1.00  0.00     0.049 A 
ATOM     40  N   UNL A   1      41.424  30.326  32.423  1.00  0.00    -0.248 NA
ATOM     41  C   UNL A   1      39.683  31.846  32.752  1.00  0.00     0.031 C 
ATOM     42  C   UNL A   1      39.332  28.786  28.774  1.00  0.00     0.029 A 
ATOM     43  N   UNL A   1      41.119  28.542  30.095  1.00  0.00    -0.354 N 
ATOM     44  C   UNL A   1      41.699  31.103  33.542  1.00  0.00     0.074 A 
ATOM     45  C   UNL A   1      40.628  32.071  33.652  1.00  0.00     0.031 C 
ATOM     46  C   UNL A   1      40.068  27.779  28.276  1.00  0.00     0.029 A 
ATOM     47  C   UNL A   1      41.260  27.603  29.099  1.00  0.00     0.049 A 
ATOM     48  H   UNL A   1      41.776  28.661  30.819  1.00  0.00     0.167 HD
ATOM     49  C   UNL A   1      42.732  31.002  34.416  1.00  0.00     0.034 A 
ATOM     50  C   UNL A   1      42.240  26.707  28.872  1.00  0.00     0.034 A 
ATOM     51  C   UNL A   1      43.793  30.030  34.293  1.00  0.00     0.049 A 
ATOM     52  C   UNL A   1      43.404  26.646  29.831  1.00  0.00     0.074 A 
ATOM     53  C   UNL A   1      44.872  29.821  35.134  1.00  0.00     0.029 A 
ATOM     54  N   UNL A   1      43.913  29.108  33.261  1.00  0.00    -0.354 N 
ATOM     55  N   UNL A   1      43.628  27.363  30.909  1.00  0.00    -0.248 NA
ATOM     56  C   UNL A   1      44.442  25.647  29.548  1.00  0.00     0.031 C 
ATOM     57  C   UNL A   1      45.678  28.822  34.576  1.00  0.00     0.029 A 
ATOM     58  C   UNL A   1      45.061  28.348  33.431  1.00  0.00     0.049 A 
ATOM     59  H   UNL A   1      43.276  29.008  32.518  1.00  0.00     0.167 HD
ATOM     60  C   UNL A   1      44.812  26.871  31.452  1.00  0.00     0.074 A 
ATOM     61  C   UNL A   1      45.243  25.787  30.593  1.00  0.00     0.031 C 
ATOM     62  C   UNL A   1      45.482  27.274  32.561  1.00  0.00     0.034 A 
BRANCH  49  63
ATOM     63  C   UNL A   1      42.766  31.980  35.567  1.00  0.00     0.023 A 
ATOM     64  C   UNL A   1      41.825  31.921  36.610  1.00  0.00     0.031 A 
ATOM     65  C   UNL A   1      43.736  32.997  35.616  1.00  0.00     0.131 A 
ATOM     66  C   UNL A   1      41.824  32.902  37.612  1.00  0.00     0.055 A 
ATOM     67  C   UNL A   1      43.782  33.921  36.662  1.00  0.00     0.041 A 
ATOM     68  F   UNL A   1      44.649  33.119  34.639  1.00  0.00    -0.206 F 
ATOM     69  C   UNL A   1      42.814  33.887  37.661  1.00  0.00     0.022 A 
BRANCH  66  70
ATOM     70  S   UNL A   1      40.428  32.959  38.767  1.00  0.00     0.124 S 
ATOM     71  O   UNL A   1      40.118  34.387  38.784  1.00  0.00    -0.237 OA
ATOM     72  O   UNL A   1      39.445  32.099  38.118  1.00  0.00    -0.237 OA
ATOM     73  O   UNL A   1      40.990  32.437  40.011  1.00  0.00    -0.744 OA
ENDBRANCH  66  70
ENDBRANCH  49  63
BRANCH  50  74
ATOM     74  C   UNL A   1      42.180  25.792  27.695  1.00  0.00     0.023 A 
ATOM     75  C   UNL A   1      41.719  24.473  27.830  1.00  0.00     0.031 A 
ATOM     76  C   UNL A   1      42.644  26.200  26.432  1.00  0.00     0.131 A 
ATOM     77  C   UNL A   1      41.789  23.591  26.741  1.00  0.00     0.055 A 
ATOM     78  C   UNL A   1      42.651  25.337  25.334  1.00  0.00     0.041 A 
ATOM     79  F   UNL A   1      43.093  27.451  26.243  1.00  0.00    -0.206 F 
ATOM     80  C   UNL A   1      42.239  24.018  25.490  1.00  0.00     0.022 A 
BRANCH  77  81
ATOM     81  S   UNL A   1      41.387  21.843  27.014  1.00  0.00     0.124 S 
ATOM     82  O   UNL A   1      41.465  21.307  25.660  1.00  0.00    -0.237 OA
ATOM     83  O   UNL A   1      42.444  21.429  27.931  1.00  0.00    -0.237 OA
ATOM     84  O   UNL A   1      40.045  21.889  27.592  1.00  0.00    -0.744 OA
ENDBRANCH  77  81
ENDBRANCH  50  74
BRANCH  62  85
ATOM     85  C   UNL A   1      46.723  26.498  32.932  1.00  0.00     0.023 A 
ATOM     86  C   UNL A   1      47.981  26.799  32.379  1.00  0.00     0.031 A 
ATOM     87  C   UNL A   1      46.641  25.423  33.836  1.00  0.00     0.131 A 
ATOM     88  C   UNL A   1      49.089  25.994  32.681  1.00  0.00     0.055 A 
ATOM     89  C   UNL A   1      47.762  24.669  34.186  1.00  0.00     0.041 A 
ATOM     90  F   UNL A   1      45.467  25.088  34.394  1.00  0.00    -0.206 F 
ATOM     91  C   UNL A   1      48.991  24.943  33.595  1.00  0.00     0.022 A 
BRANCH  88  92
ATOM     92  S   UNL A   1      50.639  26.273  31.780  1.00  0.00     0.124 S 
ATOM     93  O   UNL A   1      50.159  26.819  30.514  1.00  0.00    -0.237 OA
ATOM     94  O   UNL A   1      51.343  27.207  32.651  1.00  0.00    -0.237 OA
ATOM     95  O   UNL A   1      51.231  24.939  31.695  1.00  0.00    -0.744 OA
ENDBRANCH  88  92
ENDBRANCH  62  85
ENDBRANCH  36  37
ENDBRANCH  28  31
ENDBRANCH  26  27
ENDBRANCH  25  26
ENDBRANCH  24  25
ENDBRANCH   1  24
TORSDOF 22
ENDMDL
MODEL 3
REMARK VINA RESULT:      -9.5      4.471      8.506
REMARK SMILES CCN(CC)C(=O)CN(CC(=O)NCCCCCCNC(=O)c1ccc(-c2c3nc(c(-c4cc(S(=O)(=O)[O-])ccc4F)c4ccc([nH]4)c(-c4cc(S(=O)(=O)[O-])ccc4F)c4nc(c(-c5cc(S(=O)(=O)[O-])ccc5F)c5ccc2[nH]5)C=C4)C=C3)cc1)c1ccccc1
REMARK SMILES IDX 16 1 15 2 14 3 13 4 11 5 12 6 10 8 9 9 8 10 6 11 3 12 7 13
REMARK SMILES IDX 2 14 1 15 4 16 5 17 86 18 87 19 91 20 88 21 90 22 89 23
REMARK SMILES IDX 17 24 18 25 19 26 20 27 21 28 22 30 23 31 24 32 85 33 25 34
REMARK SMILES IDX 84 35 26 36 27 37 28 38 78 39 29 40 83 41 77 42 79 43 30 44
REMARK SMILES IDX 82 45 76 46 75 47 31 49 63 50 43 51 62 52 44 53 47 54 61 55
REMARK SMILES IDX 80 56 45 57 46 58 60 60 81 61 48 62 32 63 33 64 41 65 34 66
REMARK SMILES IDX 40 67 42 68 39 69 35 70 36 71 37 72 38 73 64 74 65 75 73 76
REMARK SMILES IDX 66 77 72 78 74 79 71 80 67 81 68 82 69 83 70 84 49 85 50 86
REMARK SMILES IDX 58 87 51 88 57 89 59 90 56 91 52 92 53 93 54 94 55 95
REMARK H PARENT 13 7 20 29 79 48 47 59
REMARK Flexibility Score: inf
ROOT
ATOM      1  C   UNL A   1      33.615  28.061  26.180  1.00  0.00     0.002 C 
ENDROOT
BRANCH   1   2
ATOM      2  C   UNL A   1      32.686  26.983  25.605  1.00  0.00     0.021 C 
BRANCH   2   3
ATOM      3  C   UNL A   1      33.037  25.567  26.057  1.00  0.00     0.116 C 
BRANCH   3   4
ATOM      4  N   UNL A   1      31.998  24.627  25.712  1.00  0.00    -0.355 N 
ATOM      5  C   UNL A   1      31.894  23.308  26.028  1.00  0.00     0.239 C 
ATOM      6  O   UNL A   1      30.917  22.693  25.584  1.00  0.00    -0.273 OA
ATOM      7  H   UNL A   1      31.259  24.993  25.173  1.00  0.00     0.163 HD
BRANCH   5   8
ATOM      8  C   UNL A   1      32.884  22.629  26.976  1.00  0.00     0.217 C 
BRANCH   8   9
ATOM      9  N   UNL A   1      33.850  21.652  26.419  1.00  0.00    -0.353 N 
BRANCH   9  10
ATOM     10  C   UNL A   1      33.393  20.248  26.242  1.00  0.00     0.217 C 
BRANCH  10  11
ATOM     11  C   UNL A   1      32.939  19.782  24.852  1.00  0.00     0.242 C 
ATOM     12  N   UNL A   1      32.555  18.465  24.618  1.00  0.00    -0.342 N 
ATOM     13  O   UNL A   1      32.966  20.598  23.919  1.00  0.00    -0.273 OA
BRANCH  12  14
ATOM     14  C   UNL A   1      32.056  18.135  23.281  1.00  0.00     0.116 C 
ATOM     15  C   UNL A   1      33.170  17.637  22.367  1.00  0.00     0.027 C 
ENDBRANCH  12  14
BRANCH  12  16
ATOM     16  C   UNL A   1      32.591  17.383  25.596  1.00  0.00     0.116 C 
ATOM     17  C   UNL A   1      33.834  16.517  25.463  1.00  0.00     0.027 C 
ENDBRANCH  12  16
ENDBRANCH  10  11
ENDBRANCH   9  10
BRANCH   9  18
ATOM     18  C   UNL A   1      35.140  22.036  26.069  1.00  0.00     0.038 A 
ATOM     19  C   UNL A   1      35.602  23.352  26.233  1.00  0.00     0.026 A 
ATOM     20  C   UNL A   1      36.072  21.134  25.533  1.00  0.00     0.026 A 
ATOM     21  C   UNL A   1      36.906  23.742  25.891  1.00  0.00     0.002 A 
ATOM     22  C   UNL A   1      37.373  21.513  25.174  1.00  0.00     0.002 A 
ATOM     23  C   UNL A   1      37.794  22.820  25.357  1.00  0.00     0.000 A 
ENDBRANCH   9  18
ENDBRANCH   8   9
ENDBRANCH   5   8
ENDBRANCH   3   4
ENDBRANCH   2   3
ENDBRANCH   1   2
BRANCH   1  24
ATOM     24  C   UNL A   1      33.134  29.501  25.975  1.00  0.00     0.002 C 
BRANCH  24  25
ATOM     25  C   UNL A   1      33.059  30.343  27.252  1.00  0.00     0.021 C 
BRANCH  25  26
ATOM     26  C   UNL A   1      34.302  31.182  27.527  1.00  0.00     0.116 C 
BRANCH  26  27
ATOM     27  N   UNL A   1      34.005  32.314  28.390  1.00  0.00    -0.352 N 
ATOM     28  C   UNL A   1      34.649  32.734  29.524  1.00  0.00     0.251 C 
ATOM     29  H   UNL A   1      33.230  32.857  28.120  1.00  0.00     0.163 HD
ATOM     30  O   UNL A   1      34.109  33.567  30.254  1.00  0.00    -0.269 OA
BRANCH  28  31
ATOM     31  C   UNL A   1      35.971  32.177  29.879  1.00  0.00     0.039 A 
ATOM     32  C   UNL A   1      36.038  31.126  30.797  1.00  0.00     0.014 A 
ATOM     33  C   UNL A   1      37.145  32.700  29.328  1.00  0.00     0.014 A 
ATOM     34  C   UNL A   1      37.276  30.566  31.122  1.00  0.00     0.010 A 
ATOM     35  C   UNL A   1      38.371  32.092  29.594  1.00  0.00     0.010 A 
ATOM     36  C   UNL A   1      38.451  31.024  30.500  1.00  0.00    -0.014 A 
BRANCH  36  37
ATOM     37  C   UNL A   1      39.767  30.402  30.801  1.00  0.00     0.031 A 
ATOM     38  C   UNL A   1      40.597  30.905  31.952  1.00  0.00     0.074 A 
ATOM     39  C   UNL A   1      40.227  29.405  30.019  1.00  0.00     0.049 A 
ATOM     40  N   UNL A   1      41.782  30.516  32.350  1.00  0.00    -0.248 NA
ATOM     41  C   UNL A   1      40.030  32.008  32.743  1.00  0.00     0.031 C 
ATOM     42  C   UNL A   1      39.526  28.853  28.856  1.00  0.00     0.029 A 
ATOM     43  N   UNL A   1      41.387  28.675  30.082  1.00  0.00    -0.354 N 
ATOM     44  C   UNL A   1      42.102  31.324  33.436  1.00  0.00     0.074 A 
ATOM     45  C   UNL A   1      41.018  32.272  33.584  1.00  0.00     0.031 C 
ATOM     46  C   UNL A   1      40.254  27.850  28.340  1.00  0.00     0.029 A 
ATOM     47  C   UNL A   1      41.493  27.717  29.099  1.00  0.00     0.049 A 
ATOM     48  H   UNL A   1      42.080  28.823  30.765  1.00  0.00     0.167 HD
ATOM     49  C   UNL A   1      43.183  31.263  34.253  1.00  0.00     0.034 A 
ATOM     50  C   UNL A   1      42.478  26.836  28.838  1.00  0.00     0.034 A 
ATOM     51  C   UNL A   1      44.256  30.310  34.092  1.00  0.00     0.049 A 
ATOM     52  C   UNL A   1      43.694  26.819  29.732  1.00  0.00     0.074 A 
ATOM     53  C   UNL A   1      45.384  30.142  34.876  1.00  0.00     0.029 A 
ATOM     54  N   UNL A   1      44.338  29.368  33.075  1.00  0.00    -0.354 N 
ATOM     55  N   UNL A   1      43.961  27.565  30.780  1.00  0.00    -0.248 NA
ATOM     56  C   UNL A   1      44.735  25.835  29.414  1.00  0.00     0.031 C 
ATOM     57  C   UNL A   1      46.179  29.147  34.297  1.00  0.00     0.029 A 
ATOM     58  C   UNL A   1      45.510  28.635  33.197  1.00  0.00     0.049 A 
ATOM     59  H   UNL A   1      43.663  29.239  32.371  1.00  0.00     0.167 HD
ATOM     60  C   UNL A   1      45.184  27.108  31.267  1.00  0.00     0.074 A 
ATOM     61  C   UNL A   1      45.589  26.014  30.409  1.00  0.00     0.031 C 
ATOM     62  C   UNL A   1      45.906  27.550  32.329  1.00  0.00     0.034 A 
BRANCH  49  63
ATOM     63  C   UNL A   1      43.260  32.267  35.379  1.00  0.00     0.023 A 
ATOM     64  C   UNL A   1      42.660  32.020  36.627  1.00  0.00     0.031 A 
ATOM     65  C   UNL A   1      43.921  33.495  35.202  1.00  0.00     0.131 A 
ATOM     66  C   UNL A   1      42.665  33.012  37.618  1.00  0.00     0.055 A 
ATOM     67  C   UNL A   1      43.996  34.446  36.222  1.00  0.00     0.041 A 
ATOM     68  F   UNL A   1      44.496  33.799  34.027  1.00  0.00    -0.206 F 
ATOM     69  C   UNL A   1      43.353  34.214  37.435  1.00  0.00     0.022 A 
BRANCH  66  70
ATOM     70  S   UNL A   1      41.639  32.768  39.093  1.00  0.00     0.124 S 
ATOM     71  O   UNL A   1      41.730  34.077  39.735  1.00  0.00    -0.237 OA
ATOM     72  O   UNL A   1      40.342  32.424  38.523  1.00  0.00    -0.237 OA
ATOM     73  O   UNL A   1      42.314  31.685  39.805  1.00  0.00    -0.744 OA
ENDBRANCH  66  70
ENDBRANCH  49  63
BRANCH  50  74
ATOM     74  C   UNL A   1      42.373  25.893  27.686  1.00  0.00     0.023 A 
ATOM     75  C   UNL A   1      41.921  24.577  27.870  1.00  0.00     0.031 A 
ATOM     76  C   UNL A   1      42.784  26.273  26.396  1.00  0.00     0.131 A 
ATOM     77  C   UNL A   1      41.949  23.670  26.800  1.00  0.00     0.055 A 
ATOM     78  C   UNL A   1      42.750  25.384  25.319  1.00  0.00     0.041 A 
ATOM     79  F   UNL A   1      43.222  27.519  26.160  1.00  0.00    -0.206 F 
ATOM     80  C   UNL A   1      42.347  24.068  25.522  1.00  0.00     0.022 A 
BRANCH  77  81
ATOM     81  S   UNL A   1      41.563  21.928  27.129  1.00  0.00     0.124 S 
ATOM     82  O   UNL A   1      40.215  22.022  27.676  1.00  0.00    -0.237 OA
ATOM     83  O   UNL A   1      41.678  21.336  25.801  1.00  0.00    -0.237 OA
ATOM     84  O   UNL A   1      42.597  21.525  28.080  1.00  0.00    -0.744 OA
ENDBRANCH  77  81
ENDBRANCH  50  74
BRANCH  62  85
ATOM     85  C   UNL A   1      47.181  26.807  32.647  1.00  0.00     0.023 A 
ATOM     86  C   UNL A   1      48.416  27.178  32.084  1.00  0.00     0.031 A 
ATOM     87  C   UNL A   1      47.156  25.695  33.508  1.00  0.00     0.131 A 
ATOM     88  C   UNL A   1      49.559  26.404  32.335  1.00  0.00     0.055 A 
ATOM     89  C   UNL A   1      48.310  24.970  33.808  1.00  0.00     0.041 A 
ATOM     90  F   UNL A   1      46.005  25.294  34.072  1.00  0.00    -0.206 F 
ATOM     91  C   UNL A   1      49.517  25.314  33.208  1.00  0.00     0.022 A 
BRANCH  88  92
ATOM     92  S   UNL A   1      51.080  26.776  31.419  1.00  0.00     0.124 S 
ATOM     93  O   UNL A   1      51.909  27.396  32.448  1.00  0.00    -0.237 OA
ATOM     94  O   UNL A   1      51.504  25.455  30.969  1.00  0.00    -0.237 OA
ATOM     95  O   UNL A   1      50.630  27.677  30.359  1.00  0.00    -0.744 OA
ENDBRANCH  88  92
ENDBRANCH  62  85
ENDBRANCH  36  37
ENDBRANCH  28  31
ENDBRANCH  26  27
ENDBRANCH  25  26
ENDBRANCH  24  25
ENDBRANCH   1  24
TORSDOF 22
ENDMDL
