MODEL 1
REMARK VINA RESULT:     -11.6      0.000      0.000
REMARK SMILES O=C(CCC(=O)N1CCCn2nc(-c3ccccc3)cc21)NCCCCCCNC(=O)c1ccc(-c2c3nc(c(-c4cc(S(=O)(=O)[O-])ccc4F)c4ccc([nH]4)c(-c4cc(S(=O)(=O)[O-])ccc4F)c4nc(c(-c5cc(S(=O)(=O)[O-])ccc5F)c5ccc2[nH]5)C=C4)C=C3)cc1
REMARK SMILES IDX 25 1 24 2 23 3 22 4 1 5 2 6 3 8 4 9 5 10 6 11 7 12 8 13
REMARK SMILES IDX 21 14 9 15 11 16 20 17 10 18 12 19 13 20 14 21 15 22 19 23
REMARK SMILES IDX 16 24 18 25 17 26 26 27 27 28 28 29 29 30 30 31 31 33 32 34
REMARK SMILES IDX 33 35 94 36 34 37 93 38 35 39 36 40 37 41 87 42 38 43 92 44
REMARK SMILES IDX 86 45 88 46 39 47 91 48 85 49 84 50 40 52 72 53 52 54 71 55
REMARK SMILES IDX 53 56 56 57 70 58 89 59 54 60 55 61 69 63 90 64 57 65 41 66
REMARK SMILES IDX 42 67 50 68 43 69 49 70 51 71 48 72 44 73 45 74 46 75 47 76
REMARK SMILES IDX 73 77 74 78 82 79 75 80 81 81 83 82 80 83 76 84 77 85 78 86
REMARK SMILES IDX 79 87 58 88 59 89 67 90 60 91 66 92 68 93 65 94 61 95 62 96
REMARK SMILES IDX 63 97 64 98
REMARK H PARENT 22 7 29 32 88 51 56 62
REMARK Flexibility Score: inf
ROOT
ATOM      1  C   UNL A   1      35.359  33.570  28.979  1.00  0.00     0.002 C 
ENDROOT
BRANCH   1   2
ATOM      2  C   UNL A   1      34.546  32.264  29.010  1.00  0.00     0.021 C 
BRANCH   2   3
ATOM      3  C   UNL A   1      34.422  31.487  27.682  1.00  0.00     0.116 C 
BRANCH   3   4
ATOM      4  N   UNL A   1      33.885  30.136  27.814  1.00  0.00    -0.356 N 
ATOM      5  O   UNL A   1      32.877  30.084  25.756  1.00  0.00    -0.275 OA
ATOM      6  C   UNL A   1      33.259  29.499  26.765  1.00  0.00     0.220 C 
ATOM      7  H   UNL A   1      33.973  29.667  28.675  1.00  0.00     0.163 HD
BRANCH   6   8
ATOM      8  C   UNL A   1      33.300  27.981  26.837  1.00  0.00     0.110 C 
BRANCH   8   9
ATOM      9  C   UNL A   1      31.894  27.404  27.080  1.00  0.00     0.110 C 
BRANCH   9  10
ATOM     10  C   UNL A   1      31.487  26.213  26.219  1.00  0.00     0.228 C 
ATOM     11  O   UNL A   1      31.005  25.193  26.717  1.00  0.00    -0.274 OA
BRANCH  10  12
ATOM     12  N   UNL A   1      31.624  26.296  24.775  1.00  0.00    -0.297 N 
ATOM     13  C   UNL A   1      32.550  25.385  24.074  1.00  0.00     0.129 C 
ATOM     14  C   UNL A   1      30.914  27.206  23.984  1.00  0.00     0.134 A 
ATOM     15  C   UNL A   1      32.125  25.094  22.647  1.00  0.00     0.046 C 
ATOM     16  N   UNL A   1      31.024  27.219  22.619  1.00  0.00    -0.249 N 
ATOM     17  C   UNL A   1      30.081  28.265  24.279  1.00  0.00     0.077 A 
ATOM     18  C   UNL A   1      31.906  26.361  21.865  1.00  0.00     0.148 C 
ATOM     19  N   UNL A   1      30.308  28.146  22.005  1.00  0.00    -0.171 NA
ATOM     20  C   UNL A   1      29.763  28.844  23.010  1.00  0.00     0.095 A 
BRANCH  20  21
ATOM     21  C   UNL A   1      29.072  30.075  22.668  1.00  0.00     0.002 A 
ATOM     22  C   UNL A   1      28.758  30.348  21.329  1.00  0.00     0.010 A 
ATOM     23  C   UNL A   1      28.950  31.083  23.628  1.00  0.00     0.010 A 
ATOM     24  C   UNL A   1      28.349  31.627  20.953  1.00  0.00     0.001 A 
ATOM     25  C   UNL A   1      28.551  32.365  23.246  1.00  0.00     0.001 A 
ATOM     26  C   UNL A   1      28.259  32.637  21.909  1.00  0.00     0.000 A 
ENDBRANCH  20  21
ENDBRANCH  10  12
ENDBRANCH   9  10
ENDBRANCH   8   9
ENDBRANCH   6   8
ENDBRANCH   3   4
ENDBRANCH   2   3
ENDBRANCH   1   2
BRANCH   1  27
ATOM     27  C   UNL A   1      34.815  34.879  28.373  1.00  0.00     0.002 C 
BRANCH  27  28
ATOM     28  C   UNL A   1      33.456  35.444  28.791  1.00  0.00     0.021 C 
BRANCH  28  29
ATOM     29  C   UNL A   1      33.551  36.523  29.861  1.00  0.00     0.116 C 
BRANCH  29  30
ATOM     30  N   UNL A   1      32.531  36.361  30.889  1.00  0.00    -0.352 N 
ATOM     31  C   UNL A   1      32.542  35.587  32.025  1.00  0.00     0.251 C 
ATOM     32  H   UNL A   1      31.709  36.885  30.748  1.00  0.00     0.163 HD
ATOM     33  O   UNL A   1      31.511  35.483  32.684  1.00  0.00    -0.269 OA
BRANCH  31  34
ATOM     34  C   UNL A   1      33.768  34.861  32.429  1.00  0.00     0.039 A 
ATOM     35  C   UNL A   1      33.658  33.530  32.848  1.00  0.00     0.014 A 
ATOM     36  C   UNL A   1      35.017  35.484  32.420  1.00  0.00     0.014 A 
ATOM     37  C   UNL A   1      34.804  32.818  33.214  1.00  0.00     0.010 A 
ATOM     38  C   UNL A   1      36.165  34.750  32.694  1.00  0.00     0.010 A 
ATOM     39  C   UNL A   1      36.070  33.416  33.118  1.00  0.00    -0.014 A 
BRANCH  39  40
ATOM     40  C   UNL A   1      37.305  32.701  33.529  1.00  0.00     0.031 A 
ATOM     41  C   UNL A   1      37.984  33.089  34.816  1.00  0.00     0.074 A 
ATOM     42  C   UNL A   1      37.842  31.761  32.725  1.00  0.00     0.049 A 
ATOM     43  N   UNL A   1      39.136  32.701  35.298  1.00  0.00    -0.248 NA
ATOM     44  C   UNL A   1      37.290  34.082  35.652  1.00  0.00     0.031 C 
ATOM     45  C   UNL A   1      37.290  31.332  31.437  1.00  0.00     0.029 A 
ATOM     46  N   UNL A   1      38.976  31.004  32.866  1.00  0.00    -0.354 N 
ATOM     47  C   UNL A   1      39.310  33.415  36.481  1.00  0.00     0.074 A 
ATOM     48  C   UNL A   1      38.185  34.316  36.599  1.00  0.00     0.031 C 
ATOM     49  C   UNL A   1      38.077  30.376  30.918  1.00  0.00     0.029 A 
ATOM     50  C   UNL A   1      39.210  30.152  31.810  1.00  0.00     0.049 A 
ATOM     51  H   UNL A   1      39.570  31.064  33.649  1.00  0.00     0.167 HD
ATOM     52  C   UNL A   1      40.298  33.301  37.403  1.00  0.00     0.034 A 
ATOM     53  C   UNL A   1      40.227  29.297  31.587  1.00  0.00     0.034 A 
ATOM     54  C   UNL A   1      41.393  32.372  37.283  1.00  0.00     0.049 A 
ATOM     55  C   UNL A   1      41.308  29.179  32.636  1.00  0.00     0.074 A 
ATOM     56  C   UNL A   1      42.446  32.156  38.154  1.00  0.00     0.029 A 
ATOM     57  N   UNL A   1      41.563  31.486  36.226  1.00  0.00    -0.354 N 
ATOM     58  N   UNL A   1      41.449  29.852  33.756  1.00  0.00    -0.248 NA
ATOM     59  C   UNL A   1      42.352  28.173  32.403  1.00  0.00     0.031 C 
ATOM     60  C   UNL A   1      43.275  31.173  37.604  1.00  0.00     0.029 A 
ATOM     61  C   UNL A   1      42.702  30.724  36.424  1.00  0.00     0.049 A 
ATOM     62  H   UNL A   1      40.962  31.411  35.449  1.00  0.00     0.167 HD
ATOM     63  C   UNL A   1      42.573  29.316  34.380  1.00  0.00     0.074 A 
ATOM     64  C   UNL A   1      43.060  28.258  33.519  1.00  0.00     0.031 C 
ATOM     65  C   UNL A   1      43.154  29.664  35.557  1.00  0.00     0.034 A 
BRANCH  52  66
ATOM     66  C   UNL A   1      40.228  34.204  38.612  1.00  0.00     0.023 A 
ATOM     67  C   UNL A   1      39.575  33.799  39.791  1.00  0.00     0.031 A 
ATOM     68  C   UNL A   1      40.791  35.491  38.583  1.00  0.00     0.131 A 
ATOM     69  C   UNL A   1      39.431  34.699  40.856  1.00  0.00     0.055 A 
ATOM     70  C   UNL A   1      40.722  36.350  39.682  1.00  0.00     0.041 A 
ATOM     71  F   UNL A   1      41.407  35.943  37.479  1.00  0.00    -0.206 F 
ATOM     72  C   UNL A   1      40.025  35.961  40.823  1.00  0.00     0.022 A 
BRANCH  69  73
ATOM     73  S   UNL A   1      38.335  34.244  42.228  1.00  0.00     0.124 S 
ATOM     74  O   UNL A   1      38.074  32.836  41.936  1.00  0.00    -0.237 OA
ATOM     75  O   UNL A   1      39.163  34.511  43.398  1.00  0.00    -0.237 OA
ATOM     76  O   UNL A   1      37.186  35.131  42.057  1.00  0.00    -0.744 OA
ENDBRANCH  69  73
ENDBRANCH  52  66
BRANCH  53  77
ATOM     77  C   UNL A   1      40.286  28.483  30.338  1.00  0.00     0.023 A 
ATOM     78  C   UNL A   1      41.221  28.768  29.332  1.00  0.00     0.031 A 
ATOM     79  C   UNL A   1      39.362  27.448  30.100  1.00  0.00     0.131 A 
ATOM     80  C   UNL A   1      41.169  28.082  28.108  1.00  0.00     0.055 A 
ATOM     81  C   UNL A   1      39.355  26.724  28.906  1.00  0.00     0.041 A 
ATOM     82  F   UNL A   1      38.451  27.123  31.031  1.00  0.00    -0.206 F 
ATOM     83  C   UNL A   1      40.250  27.053  27.894  1.00  0.00     0.022 A 
BRANCH  80  84
ATOM     84  S   UNL A   1      42.242  28.638  26.756  1.00  0.00     0.124 S 
ATOM     85  O   UNL A   1      43.202  27.543  26.671  1.00  0.00    -0.237 OA
ATOM     86  O   UNL A   1      41.297  28.751  25.651  1.00  0.00    -0.237 OA
ATOM     87  O   UNL A   1      42.779  29.904  27.249  1.00  0.00    -0.744 OA
ENDBRANCH  80  84
ENDBRANCH  53  77
BRANCH  65  88
ATOM     88  C   UNL A   1      44.333  28.839  36.007  1.00  0.00     0.023 A 
ATOM     89  C   UNL A   1      44.184  27.748  36.879  1.00  0.00     0.031 A 
ATOM     90  C   UNL A   1      45.627  29.163  35.563  1.00  0.00     0.131 A 
ATOM     91  C   UNL A   1      45.319  27.059  37.333  1.00  0.00     0.055 A 
ATOM     92  C   UNL A   1      46.745  28.434  35.967  1.00  0.00     0.041 A 
ATOM     93  F   UNL A   1      45.824  30.195  34.727  1.00  0.00    -0.206 F 
ATOM     94  C   UNL A   1      46.596  27.385  36.870  1.00  0.00     0.022 A 
BRANCH  91  95
ATOM     95  S   UNL A   1      45.108  25.795  38.615  1.00  0.00     0.124 S 
ATOM     96  O   UNL A   1      43.919  26.267  39.315  1.00  0.00    -0.237 OA
ATOM     97  O   UNL A   1      44.940  24.578  37.826  1.00  0.00    -0.237 OA
ATOM     98  O   UNL A   1      46.352  25.872  39.379  1.00  0.00    -0.744 OA
ENDBRANCH  91  95
ENDBRANCH  65  88
ENDBRANCH  39  40
ENDBRANCH  31  34
ENDBRANCH  29  30
ENDBRANCH  28  29
ENDBRANCH  27  28
ENDBRANCH   1  27
TORSDOF 20
ENDMDL
MODEL 2
REMARK VINA RESULT:     -11.4      3.736      6.354
REMARK SMILES O=C(CCC(=O)N1CCCn2nc(-c3ccccc3)cc21)NCCCCCCNC(=O)c1ccc(-c2c3nc(c(-c4cc(S(=O)(=O)[O-])ccc4F)c4ccc([nH]4)c(-c4cc(S(=O)(=O)[O-])ccc4F)c4nc(c(-c5cc(S(=O)(=O)[O-])ccc5F)c5ccc2[nH]5)C=C4)C=C3)cc1
REMARK SMILES IDX 25 1 24 2 23 3 22 4 1 5 2 6 3 8 4 9 5 10 6 11 7 12 8 13
REMARK SMILES IDX 21 14 9 15 11 16 20 17 10 18 12 19 13 20 14 21 15 22 19 23
REMARK SMILES IDX 16 24 18 25 17 26 26 27 27 28 28 29 29 30 30 31 31 33 32 34
REMARK SMILES IDX 33 35 94 36 34 37 93 38 35 39 36 40 37 41 87 42 38 43 92 44
REMARK SMILES IDX 86 45 88 46 39 47 91 48 85 49 84 50 40 52 72 53 52 54 71 55
REMARK SMILES IDX 53 56 56 57 70 58 89 59 54 60 55 61 69 63 90 64 57 65 41 66
REMARK SMILES IDX 42 67 50 68 43 69 49 70 51 71 48 72 44 73 45 74 46 75 47 76
REMARK SMILES IDX 73 77 74 78 82 79 75 80 81 81 83 82 80 83 76 84 77 85 78 86
REMARK SMILES IDX 79 87 58 88 59 89 67 90 60 91 66 92 68 93 65 94 61 95 62 96
REMARK SMILES IDX 63 97 64 98
REMARK H PARENT 22 7 29 32 88 51 56 62
REMARK Flexibility Score: inf
ROOT
ATOM      1  C   UNL A   1      31.649  28.443  24.898  1.00  0.00     0.002 C 
ENDROOT
BRANCH   1   2
ATOM      2  C   UNL A   1      30.473  28.504  23.908  1.00  0.00     0.021 C 
BRANCH   2   3
ATOM      3  C   UNL A   1      30.456  27.452  22.778  1.00  0.00     0.116 C 
BRANCH   3   4
ATOM      4  N   UNL A   1      31.362  26.327  22.979  1.00  0.00    -0.356 N 
ATOM      5  O   UNL A   1      31.852  26.023  20.760  1.00  0.00    -0.275 OA
ATOM      6  C   UNL A   1      32.091  25.789  21.941  1.00  0.00     0.220 C 
ATOM      7  H   UNL A   1      31.456  25.941  23.880  1.00  0.00     0.163 HD
BRANCH   6   8
ATOM      8  C   UNL A   1      33.368  25.083  22.370  1.00  0.00     0.110 C 
BRANCH   8   9
ATOM      9  C   UNL A   1      33.981  25.758  23.609  1.00  0.00     0.110 C 
BRANCH   9  10
ATOM     10  C   UNL A   1      34.151  24.886  24.848  1.00  0.00     0.228 C 
ATOM     11  O   UNL A   1      35.217  24.844  25.466  1.00  0.00    -0.274 OA
BRANCH  10  12
ATOM     12  N   UNL A   1      33.018  24.123  25.343  1.00  0.00    -0.297 N 
ATOM     13  C   UNL A   1      32.009  24.781  26.198  1.00  0.00     0.129 C 
ATOM     14  C   UNL A   1      32.813  22.769  25.052  1.00  0.00     0.134 A 
ATOM     15  C   UNL A   1      30.633  24.153  26.076  1.00  0.00     0.046 C 
ATOM     16  N   UNL A   1      31.704  22.095  25.488  1.00  0.00    -0.249 N 
ATOM     17  C   UNL A   1      33.577  21.814  24.415  1.00  0.00     0.077 A 
ATOM     18  C   UNL A   1      30.677  22.669  26.324  1.00  0.00     0.148 C 
ATOM     19  N   UNL A   1      31.654  20.817  25.153  1.00  0.00    -0.171 NA
ATOM     20  C   UNL A   1      32.827  20.602  24.541  1.00  0.00     0.095 A 
BRANCH  20  21
ATOM     21  C   UNL A   1      33.173  19.227  24.228  1.00  0.00     0.002 A 
ATOM     22  C   UNL A   1      34.374  18.686  24.708  1.00  0.00     0.010 A 
ATOM     23  C   UNL A   1      32.442  18.539  23.256  1.00  0.00     0.010 A 
ATOM     24  C   UNL A   1      34.850  17.478  24.199  1.00  0.00     0.001 A 
ATOM     25  C   UNL A   1      32.927  17.336  22.741  1.00  0.00     0.001 A 
ATOM     26  C   UNL A   1      34.133  16.811  23.207  1.00  0.00     0.000 A 
ENDBRANCH  20  21
ENDBRANCH  10  12
ENDBRANCH   9  10
ENDBRANCH   8   9
ENDBRANCH   6   8
ENDBRANCH   3   4
ENDBRANCH   2   3
ENDBRANCH   1   2
BRANCH   1  27
ATOM     27  C   UNL A   1      31.454  28.342  26.424  1.00  0.00     0.002 C 
BRANCH  27  28
ATOM     28  C   UNL A   1      32.333  29.133  27.393  1.00  0.00     0.021 C 
BRANCH  28  29
ATOM     29  C   UNL A   1      33.387  29.985  26.698  1.00  0.00     0.116 C 
BRANCH  29  30
ATOM     30  N   UNL A   1      33.314  31.381  27.107  1.00  0.00    -0.352 N 
ATOM     31  C   UNL A   1      34.134  32.097  27.946  1.00  0.00     0.251 C 
ATOM     32  H   UNL A   1      32.563  31.890  26.723  1.00  0.00     0.163 HD
ATOM     33  O   UNL A   1      33.805  33.234  28.274  1.00  0.00    -0.269 OA
BRANCH  31  34
ATOM     34  C   UNL A   1      35.377  31.493  28.478  1.00  0.00     0.039 A 
ATOM     35  C   UNL A   1      35.298  30.277  29.167  1.00  0.00     0.014 A 
ATOM     36  C   UNL A   1      36.613  32.123  28.325  1.00  0.00     0.014 A 
ATOM     37  C   UNL A   1      36.461  29.678  29.660  1.00  0.00     0.010 A 
ATOM     38  C   UNL A   1      37.778  31.483  28.732  1.00  0.00     0.010 A 
ATOM     39  C   UNL A   1      37.714  30.266  29.425  1.00  0.00    -0.014 A 
BRANCH  39  40
ATOM     40  C   UNL A   1      38.967  29.674  29.962  1.00  0.00     0.031 A 
ATOM     41  C   UNL A   1      39.592  30.274  31.194  1.00  0.00     0.074 A 
ATOM     42  C   UNL A   1      39.564  28.655  29.314  1.00  0.00     0.049 A 
ATOM     43  N   UNL A   1      40.746  30.013  31.752  1.00  0.00    -0.248 NA
ATOM     44  C   UNL A   1      38.833  31.344  31.863  1.00  0.00     0.031 C 
ATOM     45  C   UNL A   1      39.068  28.022  28.090  1.00  0.00     0.029 A 
ATOM     46  N   UNL A   1      40.726  27.979  29.587  1.00  0.00    -0.354 N 
ATOM     47  C   UNL A   1      40.856  30.895  32.823  1.00  0.00     0.074 A 
ATOM     48  C   UNL A   1      39.691  31.751  32.785  1.00  0.00     0.031 C 
ATOM     49  C   UNL A   1      39.909  27.038  27.731  1.00  0.00     0.029 A 
ATOM     50  C   UNL A   1      41.025  26.997  28.670  1.00  0.00     0.049 A 
ATOM     51  H   UNL A   1      41.294  28.178  30.365  1.00  0.00     0.167 HD
ATOM     52  C   UNL A   1      41.821  30.961  33.773  1.00  0.00     0.034 A 
ATOM     53  C   UNL A   1      42.084  26.166  28.595  1.00  0.00     0.034 A 
ATOM     54  C   UNL A   1      42.958  30.076  33.811  1.00  0.00     0.049 A 
ATOM     55  C   UNL A   1      43.139  26.251  29.672  1.00  0.00     0.074 A 
ATOM     56  C   UNL A   1      43.994  30.036  34.727  1.00  0.00     0.029 A 
ATOM     57  N   UNL A   1      43.195  29.057  32.897  1.00  0.00    -0.354 N 
ATOM     58  N   UNL A   1      43.220  27.082  30.687  1.00  0.00    -0.248 NA
ATOM     59  C   UNL A   1      44.232  25.271  29.610  1.00  0.00     0.031 C 
ATOM     60  C   UNL A   1      44.880  29.023  34.342  1.00  0.00     0.029 A 
ATOM     61  C   UNL A   1      44.360  28.385  33.227  1.00  0.00     0.049 A 
ATOM     62  H   UNL A   1      42.620  28.843  32.127  1.00  0.00     0.167 HD
ATOM     63  C   UNL A   1      44.348  26.694  31.405  1.00  0.00     0.074 A 
ATOM     64  C   UNL A   1      44.903  25.548  30.717  1.00  0.00     0.031 C 
ATOM     65  C   UNL A   1      44.880  27.233  32.533  1.00  0.00     0.034 A 
BRANCH  52  66
ATOM     66  C   UNL A   1      41.679  32.023  34.837  1.00  0.00     0.023 A 
ATOM     67  C   UNL A   1      40.786  31.867  35.913  1.00  0.00     0.031 A 
ATOM     68  C   UNL A   1      42.418  33.216  34.766  1.00  0.00     0.131 A 
ATOM     69  C   UNL A   1      40.595  32.915  36.824  1.00  0.00     0.055 A 
ATOM     70  C   UNL A   1      42.288  34.221  35.728  1.00  0.00     0.041 A 
ATOM     71  F   UNL A   1      43.268  33.435  33.751  1.00  0.00    -0.206 F 
ATOM     72  C   UNL A   1      41.361  34.080  36.758  1.00  0.00     0.022 A 
BRANCH  69  73
ATOM     73  S   UNL A   1      39.231  32.788  38.012  1.00  0.00     0.124 S 
ATOM     74  O   UNL A   1      39.952  32.525  39.256  1.00  0.00    -0.237 OA
ATOM     75  O   UNL A   1      38.596  34.096  37.906  1.00  0.00    -0.237 OA
ATOM     76  O   UNL A   1      38.441  31.666  37.509  1.00  0.00    -0.744 OA
ENDBRANCH  69  73
ENDBRANCH  52  66
BRANCH  53  77
ATOM     77  C   UNL A   1      42.212  25.186  27.478  1.00  0.00     0.023 A 
ATOM     78  C   UNL A   1      41.682  23.891  27.587  1.00  0.00     0.031 A 
ATOM     79  C   UNL A   1      42.924  25.507  26.307  1.00  0.00     0.131 A 
ATOM     80  C   UNL A   1      41.933  22.942  26.583  1.00  0.00     0.055 A 
ATOM     81  C   UNL A   1      43.116  24.578  25.281  1.00  0.00     0.041 A 
ATOM     82  F   UNL A   1      43.444  26.733  26.142  1.00  0.00    -0.206 F 
ATOM     83  C   UNL A   1      42.636  23.281  25.425  1.00  0.00     0.022 A 
BRANCH  80  84
ATOM     84  S   UNL A   1      41.430  21.223  26.870  1.00  0.00     0.124 S 
ATOM     85  O   UNL A   1      42.211  20.881  28.054  1.00  0.00    -0.237 OA
ATOM     86  O   UNL A   1      39.992  21.360  27.066  1.00  0.00    -0.237 OA
ATOM     87  O   UNL A   1      41.831  20.544  25.640  1.00  0.00    -0.744 OA
ENDBRANCH  80  84
ENDBRANCH  53  77
BRANCH  65  88
ATOM     88  C   UNL A   1      46.080  26.537  33.122  1.00  0.00     0.023 A 
ATOM     89  C   UNL A   1      45.947  25.476  34.033  1.00  0.00     0.031 A 
ATOM     90  C   UNL A   1      47.376  26.955  32.773  1.00  0.00     0.131 A 
ATOM     91  C   UNL A   1      47.092  24.910  34.615  1.00  0.00     0.055 A 
ATOM     92  C   UNL A   1      48.512  26.347  33.307  1.00  0.00     0.041 A 
ATOM     93  F   UNL A   1      47.559  27.964  31.906  1.00  0.00    -0.206 F 
ATOM     94  C   UNL A   1      48.373  25.328  34.246  1.00  0.00     0.022 A 
BRANCH  91  95
ATOM     95  S   UNL A   1      46.877  23.688  35.937  1.00  0.00     0.124 S 
ATOM     96  O   UNL A   1      47.445  24.382  37.087  1.00  0.00    -0.237 OA
ATOM     97  O   UNL A   1      45.428  23.504  35.957  1.00  0.00    -0.237 OA
ATOM     98  O   UNL A   1      47.642  22.536  35.466  1.00  0.00    -0.744 OA
ENDBRANCH  91  95
ENDBRANCH  65  88
ENDBRANCH  39  40
ENDBRANCH  31  34
ENDBRANCH  29  30
ENDBRANCH  28  29
ENDBRANCH  27  28
ENDBRANCH   1  27
TORSDOF 20
ENDMDL
MODEL 3
REMARK VINA RESULT:     -11.4      3.724      9.688
REMARK SMILES O=C(CCC(=O)N1CCCn2nc(-c3ccccc3)cc21)NCCCCCCNC(=O)c1ccc(-c2c3nc(c(-c4cc(S(=O)(=O)[O-])ccc4F)c4ccc([nH]4)c(-c4cc(S(=O)(=O)[O-])ccc4F)c4nc(c(-c5cc(S(=O)(=O)[O-])ccc5F)c5ccc2[nH]5)C=C4)C=C3)cc1
REMARK SMILES IDX 25 1 24 2 23 3 22 4 1 5 2 6 3 8 4 9 5 10 6 11 7 12 8 13
REMARK SMILES IDX 21 14 9 15 11 16 20 17 10 18 12 19 13 20 14 21 15 22 19 23
REMARK SMILES IDX 16 24 18 25 17 26 26 27 27 28 28 29 29 30 30 31 31 33 32 34
REMARK SMILES IDX 33 35 94 36 34 37 93 38 35 39 36 40 37 41 87 42 38 43 92 44
REMARK SMILES IDX 86 45 88 46 39 47 91 48 85 49 84 50 40 52 72 53 52 54 71 55
REMARK SMILES IDX 53 56 56 57 70 58 89 59 54 60 55 61 69 63 90 64 57 65 41 66
REMARK SMILES IDX 42 67 50 68 43 69 49 70 51 71 48 72 44 73 45 74 46 75 47 76
REMARK SMILES IDX 73 77 74 78 82 79 75 80 81 81 83 82 80 83 76 84 77 85 78 86
REMARK SMILES IDX 79 87 58 88 59 89 67 90 60 91 66 92 68 93 65 94 61 95 62 96
REMARK SMILES IDX 63 97 64 98
REMARK H PARENT 22 7 29 32 88 51 56 62
REMARK Flexibility Score: inf
ROOT
ATOM      1  C   UNL A   1      30.679  27.562  24.880  1.00  0.00     0.002 C 
ENDROOT
BRANCH   1   2
ATOM      2  C   UNL A   1      30.594  28.468  23.639  1.00  0.00     0.021 C 
BRANCH   2   3
ATOM      3  C   UNL A   1      31.511  28.111  22.450  1.00  0.00     0.116 C 
BRANCH   3   4
ATOM      4  N   UNL A   1      31.478  26.707  22.054  1.00  0.00    -0.356 N 
ATOM      5  O   UNL A   1      33.709  26.554  21.550  1.00  0.00    -0.275 OA
ATOM      6  C   UNL A   1      32.629  26.010  21.758  1.00  0.00     0.220 C 
ATOM      7  H   UNL A   1      30.610  26.245  21.998  1.00  0.00     0.163 HD
BRANCH   6   8
ATOM      8  C   UNL A   1      32.521  24.506  21.953  1.00  0.00     0.110 C 
BRANCH   8   9
ATOM      9  C   UNL A   1      31.634  24.171  23.165  1.00  0.00     0.110 C 
BRANCH   9  10
ATOM     10  C   UNL A   1      32.338  24.039  24.512  1.00  0.00     0.228 C 
ATOM     11  O   UNL A   1      31.777  24.346  25.566  1.00  0.00    -0.274 OA
BRANCH  10  12
ATOM     12  N   UNL A   1      33.684  23.495  24.561  1.00  0.00    -0.297 N 
ATOM     13  C   UNL A   1      34.845  24.394  24.401  1.00  0.00     0.129 C 
ATOM     14  C   UNL A   1      33.961  22.137  24.760  1.00  0.00     0.134 A 
ATOM     15  C   UNL A   1      36.085  23.892  25.117  1.00  0.00     0.046 C 
ATOM     16  N   UNL A   1      35.243  21.666  24.859  1.00  0.00    -0.249 N 
ATOM     17  C   UNL A   1      33.167  21.011  24.822  1.00  0.00     0.077 A 
ATOM     18  C   UNL A   1      36.424  22.483  24.714  1.00  0.00     0.148 C 
ATOM     19  N   UNL A   1      35.351  20.359  25.028  1.00  0.00    -0.171 NA
ATOM     20  C   UNL A   1      34.088  19.922  24.949  1.00  0.00     0.095 A 
BRANCH  20  21
ATOM     21  C   UNL A   1      33.881  18.486  24.891  1.00  0.00     0.002 A 
ATOM     22  C   UNL A   1      34.473  17.739  23.863  1.00  0.00     0.010 A 
ATOM     23  C   UNL A   1      32.904  17.899  25.700  1.00  0.00     0.010 A 
ATOM     24  C   UNL A   1      34.071  16.424  23.632  1.00  0.00     0.001 A 
ATOM     25  C   UNL A   1      32.495  16.587  25.459  1.00  0.00     0.001 A 
ATOM     26  C   UNL A   1      33.074  15.854  24.421  1.00  0.00     0.000 A 
ENDBRANCH  20  21
ENDBRANCH  10  12
ENDBRANCH   9  10
ENDBRANCH   8   9
ENDBRANCH   6   8
ENDBRANCH   3   4
ENDBRANCH   2   3
ENDBRANCH   1   2
BRANCH   1  27
ATOM     27  C   UNL A   1      31.673  27.812  26.030  1.00  0.00     0.002 C 
BRANCH  27  28
ATOM     28  C   UNL A   1      33.185  27.740  25.805  1.00  0.00     0.021 C 
BRANCH  28  29
ATOM     29  C   UNL A   1      33.785  29.044  25.295  1.00  0.00     0.116 C 
BRANCH  29  30
ATOM     30  N   UNL A   1      33.137  30.208  25.885  1.00  0.00    -0.352 N 
ATOM     31  C   UNL A   1      33.500  30.957  26.979  1.00  0.00     0.251 C 
ATOM     32  H   UNL A   1      32.314  30.503  25.432  1.00  0.00     0.163 HD
ATOM     33  O   UNL A   1      32.726  31.814  27.397  1.00  0.00    -0.269 OA
BRANCH  31  34
ATOM     34  C   UNL A   1      34.788  30.710  27.666  1.00  0.00     0.039 A 
ATOM     35  C   UNL A   1      34.984  29.486  28.316  1.00  0.00     0.014 A 
ATOM     36  C   UNL A   1      35.793  31.678  27.697  1.00  0.00     0.014 A 
ATOM     37  C   UNL A   1      36.200  29.221  28.953  1.00  0.00     0.010 A 
ATOM     38  C   UNL A   1      37.033  31.381  28.249  1.00  0.00     0.010 A 
ATOM     39  C   UNL A   1      37.242  30.159  28.905  1.00  0.00    -0.014 A 
BRANCH  39  40
ATOM     40  C   UNL A   1      38.536  29.926  29.599  1.00  0.00     0.031 A 
ATOM     41  C   UNL A   1      39.531  28.971  28.993  1.00  0.00     0.074 A 
ATOM     42  C   UNL A   1      38.782  30.515  30.785  1.00  0.00     0.049 A 
ATOM     43  N   UNL A   1      40.651  28.513  29.488  1.00  0.00    -0.248 NA
ATOM     44  C   UNL A   1      39.196  28.425  27.667  1.00  0.00     0.031 C 
ATOM     45  C   UNL A   1      37.874  31.427  31.484  1.00  0.00     0.029 A 
ATOM     46  N   UNL A   1      39.866  30.426  31.621  1.00  0.00    -0.354 N 
ATOM     47  C   UNL A   1      41.143  27.616  28.544  1.00  0.00     0.074 A 
ATOM     48  C   UNL A   1      40.158  27.535  27.488  1.00  0.00     0.031 C 
ATOM     49  C   UNL A   1      38.447  31.828  32.630  1.00  0.00     0.029 A 
ATOM     50  C   UNL A   1      39.742  31.170  32.772  1.00  0.00     0.049 A 
ATOM     51  H   UNL A   1      40.659  29.879  31.418  1.00  0.00     0.167 HD
ATOM     52  C   UNL A   1      42.324  26.950  28.540  1.00  0.00     0.034 A 
ATOM     53  C   UNL A   1      40.577  31.299  33.823  1.00  0.00     0.034 A 
ATOM     54  C   UNL A   1      43.306  27.071  29.588  1.00  0.00     0.049 A 
ATOM     55  C   UNL A   1      41.892  30.557  33.789  1.00  0.00     0.074 A 
ATOM     56  C   UNL A   1      44.542  26.458  29.692  1.00  0.00     0.029 A 
ATOM     57  N   UNL A   1      43.168  27.880  30.709  1.00  0.00    -0.354 N 
ATOM     58  N   UNL A   1      42.347  29.723  32.880  1.00  0.00    -0.248 NA
ATOM     59  C   UNL A   1      42.815  30.790  34.906  1.00  0.00     0.031 C 
ATOM     60  C   UNL A   1      45.132  26.861  30.895  1.00  0.00     0.029 A 
ATOM     61  C   UNL A   1      44.295  27.781  31.508  1.00  0.00     0.049 A 
ATOM     62  H   UNL A   1      42.384  28.441  30.907  1.00  0.00     0.167 HD
ATOM     63  C   UNL A   1      43.627  29.370  33.298  1.00  0.00     0.074 A 
ATOM     64  C   UNL A   1      43.875  30.092  34.529  1.00  0.00     0.031 C 
ATOM     65  C   UNL A   1      44.521  28.526  32.721  1.00  0.00     0.034 A 
BRANCH  52  66
ATOM     66  C   UNL A   1      42.605  26.040  27.369  1.00  0.00     0.023 A 
ATOM     67  C   UNL A   1      42.114  24.721  27.331  1.00  0.00     0.031 A 
ATOM     68  C   UNL A   1      43.394  26.476  26.291  1.00  0.00     0.131 A 
ATOM     69  C   UNL A   1      42.483  23.865  26.285  1.00  0.00     0.055 A 
ATOM     70  C   UNL A   1      43.685  25.645  25.206  1.00  0.00     0.041 A 
ATOM     71  F   UNL A   1      43.912  27.714  26.280  1.00  0.00    -0.206 F 
ATOM     72  C   UNL A   1      43.240  24.325  25.206  1.00  0.00     0.022 A 
BRANCH  69  73
ATOM     73  S   UNL A   1      42.075  22.104  26.426  1.00  0.00     0.124 S 
ATOM     74  O   UNL A   1      42.484  21.820  27.800  1.00  0.00    -0.237 OA
ATOM     75  O   UNL A   1      40.640  22.088  26.170  1.00  0.00    -0.237 OA
ATOM     76  O   UNL A   1      42.901  21.477  25.396  1.00  0.00    -0.744 OA
ENDBRANCH  69  73
ENDBRANCH  52  66
BRANCH  53  77
ATOM     77  C   UNL A   1      40.214  32.153  34.991  1.00  0.00     0.023 A 
ATOM     78  C   UNL A   1      39.338  31.688  35.983  1.00  0.00     0.031 A 
ATOM     79  C   UNL A   1      40.685  33.475  35.099  1.00  0.00     0.131 A 
ATOM     80  C   UNL A   1      38.902  32.554  36.998  1.00  0.00     0.055 A 
ATOM     81  C   UNL A   1      40.298  34.314  36.146  1.00  0.00     0.041 A 
ATOM     82  F   UNL A   1      41.533  33.972  34.184  1.00  0.00    -0.206 F 
ATOM     83  C   UNL A   1      39.385  33.861  37.093  1.00  0.00     0.022 A 
BRANCH  80  84
ATOM     84  S   UNL A   1      37.597  31.985  38.122  1.00  0.00     0.124 S 
ATOM     85  O   UNL A   1      37.451  30.590  37.722  1.00  0.00    -0.237 OA
ATOM     86  O   UNL A   1      38.202  32.220  39.428  1.00  0.00    -0.237 OA
ATOM     87  O   UNL A   1      36.466  32.851  37.794  1.00  0.00    -0.744 OA
ENDBRANCH  80  84
ENDBRANCH  53  77
BRANCH  65  88
ATOM     88  C   UNL A   1      45.871  28.404  33.382  1.00  0.00     0.023 A 
ATOM     89  C   UNL A   1      46.121  27.450  34.383  1.00  0.00     0.031 A 
ATOM     90  C   UNL A   1      46.915  29.269  33.012  1.00  0.00     0.131 A 
ATOM     91  C   UNL A   1      47.369  27.426  35.025  1.00  0.00     0.055 A 
ATOM     92  C   UNL A   1      48.174  29.198  33.610  1.00  0.00     0.041 A 
ATOM     93  F   UNL A   1      46.729  30.197  32.060  1.00  0.00    -0.206 F 
ATOM     94  C   UNL A   1      48.400  28.283  34.634  1.00  0.00     0.022 A 
BRANCH  91  95
ATOM     95  S   UNL A   1      47.588  26.325  36.448  1.00  0.00     0.124 S 
ATOM     96  O   UNL A   1      47.345  25.013  35.858  1.00  0.00    -0.237 OA
ATOM     97  O   UNL A   1      48.966  26.599  36.844  1.00  0.00    -0.237 OA
ATOM     98  O   UNL A   1      46.569  26.779  37.392  1.00  0.00    -0.744 OA
ENDBRANCH  91  95
ENDBRANCH  65  88
ENDBRANCH  39  40
ENDBRANCH  31  34
ENDBRANCH  29  30
ENDBRANCH  28  29
ENDBRANCH  27  28
ENDBRANCH   1  27
TORSDOF 20
ENDMDL
