MODEL 1
REMARK VINA RESULT:     -11.1      0.000      0.000
REMARK SMILES O=C(NCCCCCCNC(=O)[C@H]1C=C[C@@H](NS(=O)(=O)c2ccc(Br)cc2)C1)c1ccc(-c2c3nc(c(-c4cc(S(=O)(=O)[O-])ccc4F)c4ccc([nH]4)c(-c4cc(S(=O)(=O)[O-])ccc4F)c4nc(c(-c5cc(S(=O)(=O)[O-])ccc5F)c5ccc2[nH]5)C=C4)C=C3)cc1
REMARK SMILES IDX 6 1 5 2 4 3 3 4 1 5 2 6 29 8 30 9 91 10 31 11 90 12 32 13
REMARK SMILES IDX 33 14 34 15 84 16 35 17 89 18 83 19 85 20 36 21 88 22 82 23
REMARK SMILES IDX 81 24 37 26 69 27 49 28 68 29 50 30 53 31 67 32 86 33 51 34
REMARK SMILES IDX 52 35 66 37 87 38 54 39 38 40 39 41 47 42 40 43 46 44 48 45
REMARK SMILES IDX 45 46 41 47 42 48 43 49 44 50 70 51 71 52 79 53 72 54 78 55
REMARK SMILES IDX 80 56 77 57 73 58 74 59 75 60 76 61 55 62 56 63 64 64 57 65
REMARK SMILES IDX 63 66 65 67 62 68 58 69 59 70 60 71 61 72 7 73 8 74 9 75
REMARK SMILES IDX 10 76 11 77 12 79 13 80 14 81 28 82 15 83 16 84 17 85 18 87
REMARK SMILES IDX 19 88 20 89 21 90 22 91 27 92 23 93 26 94 24 95 25 96
REMARK H PARENT 3 7 85 25 53 36 10 78 17 86
REMARK Flexibility Score: inf
ROOT
ATOM      1  C   UNL A   1      31.902  29.986  27.351  1.00  0.00     0.002 C 
ENDROOT
BRANCH   1   2
ATOM      2  C   UNL A   1      31.631  31.400  26.835  1.00  0.00     0.021 C 
BRANCH   2   3
ATOM      3  C   UNL A   1      32.871  32.276  26.728  1.00  0.00     0.116 C 
BRANCH   3   4
ATOM      4  N   UNL A   1      32.636  33.619  27.238  1.00  0.00    -0.352 N 
ATOM      5  O   UNL A   1      32.753  35.301  28.737  1.00  0.00    -0.269 OA
ATOM      6  C   UNL A   1      33.205  34.239  28.323  1.00  0.00     0.251 C 
ATOM      7  H   UNL A   1      31.979  34.156  26.738  1.00  0.00     0.163 HD
BRANCH   6   8
ATOM      8  C   UNL A   1      34.363  33.605  28.989  1.00  0.00     0.039 A 
ATOM      9  C   UNL A   1      35.638  34.159  28.853  1.00  0.00     0.014 A 
ATOM     10  C   UNL A   1      34.173  32.445  29.744  1.00  0.00     0.014 A 
ATOM     11  C   UNL A   1      36.740  33.479  29.350  1.00  0.00     0.010 A 
ATOM     12  C   UNL A   1      35.276  31.817  30.330  1.00  0.00     0.010 A 
ATOM     13  C   UNL A   1      36.571  32.318  30.120  1.00  0.00    -0.014 A 
BRANCH  13  14
ATOM     14  C   UNL A   1      37.759  31.700  30.764  1.00  0.00     0.031 A 
ATOM     15  C   UNL A   1      38.607  30.693  30.039  1.00  0.00     0.074 A 
ATOM     16  C   UNL A   1      38.075  32.083  32.017  1.00  0.00     0.049 A 
ATOM     17  N   UNL A   1      39.667  30.054  30.461  1.00  0.00    -0.248 NA
ATOM     18  C   UNL A   1      38.206  30.351  28.666  1.00  0.00     0.031 C 
ATOM     19  C   UNL A   1      37.319  33.054  32.813  1.00  0.00     0.029 A 
ATOM     20  N   UNL A   1      39.113  31.722  32.837  1.00  0.00    -0.354 N 
ATOM     21  C   UNL A   1      40.057  29.223  29.417  1.00  0.00     0.074 A 
ATOM     22  C   UNL A   1      39.092  29.416  28.352  1.00  0.00     0.031 C 
ATOM     23  C   UNL A   1      37.944  33.248  33.983  1.00  0.00     0.029 A 
ATOM     24  C   UNL A   1      39.091  32.353  34.059  1.00  0.00     0.049 A 
ATOM     25  H   UNL A   1      39.808  31.074  32.576  1.00  0.00     0.167 HD
ATOM     26  C   UNL A   1      41.121  28.385  29.356  1.00  0.00     0.034 A 
ATOM     27  C   UNL A   1      39.883  32.206  35.138  1.00  0.00     0.034 A 
ATOM     28  C   UNL A   1      42.066  28.209  30.437  1.00  0.00     0.049 A 
ATOM     29  C   UNL A   1      41.021  31.224  35.064  1.00  0.00     0.074 A 
ATOM     30  C   UNL A   1      43.197  27.412  30.471  1.00  0.00     0.029 A 
ATOM     31  N   UNL A   1      41.983  28.826  31.681  1.00  0.00    -0.354 N 
ATOM     32  N   UNL A   1      41.386  30.458  34.062  1.00  0.00    -0.248 NA
ATOM     33  C   UNL A   1      41.853  31.089  36.265  1.00  0.00     0.031 C 
ATOM     34  C   UNL A   1      43.746  27.479  31.756  1.00  0.00     0.029 A 
ATOM     35  C   UNL A   1      43.018  28.393  32.500  1.00  0.00     0.049 A 
ATOM     36  H   UNL A   1      41.291  29.475  31.943  1.00  0.00     0.167 HD
ATOM     37  C   UNL A   1      42.509  29.768  34.505  1.00  0.00     0.074 A 
ATOM     38  C   UNL A   1      42.770  30.226  35.856  1.00  0.00     0.031 C 
ATOM     39  C   UNL A   1      43.258  28.841  33.853  1.00  0.00     0.034 A 
BRANCH  26  40
ATOM     40  C   UNL A   1      41.292  27.553  28.104  1.00  0.00     0.023 A 
ATOM     41  C   UNL A   1      40.966  26.186  28.063  1.00  0.00     0.031 A 
ATOM     42  C   UNL A   1      41.798  28.141  26.930  1.00  0.00     0.131 A 
ATOM     43  C   UNL A   1      41.209  25.441  26.898  1.00  0.00     0.055 A 
ATOM     44  C   UNL A   1      41.961  27.412  25.749  1.00  0.00     0.041 A 
ATOM     45  F   UNL A   1      42.152  29.435  26.910  1.00  0.00    -0.206 F 
ATOM     46  C   UNL A   1      41.679  26.050  25.733  1.00  0.00     0.022 A 
BRANCH  43  47
ATOM     47  S   UNL A   1      41.039  23.635  26.969  1.00  0.00     0.124 S 
ATOM     48  O   UNL A   1      41.892  23.212  25.861  1.00  0.00    -0.237 OA
ATOM     49  O   UNL A   1      41.526  23.322  28.307  1.00  0.00    -0.237 OA
ATOM     50  O   UNL A   1      39.608  23.417  26.759  1.00  0.00    -0.744 OA
ENDBRANCH  43  47
ENDBRANCH  26  40
BRANCH  27  51
ATOM     51  C   UNL A   1      39.599  32.971  36.385  1.00  0.00     0.023 A 
ATOM     52  C   UNL A   1      38.751  32.456  37.377  1.00  0.00     0.031 A 
ATOM     53  C   UNL A   1      40.155  34.248  36.590  1.00  0.00     0.131 A 
ATOM     54  C   UNL A   1      38.449  33.231  38.507  1.00  0.00     0.055 A 
ATOM     55  C   UNL A   1      39.904  34.987  37.745  1.00  0.00     0.041 A 
ATOM     56  F   UNL A   1      40.973  34.789  35.672  1.00  0.00    -0.206 F 
ATOM     57  C   UNL A   1      39.035  34.485  38.707  1.00  0.00     0.022 A 
BRANCH  54  58
ATOM     58  S   UNL A   1      37.205  32.616  39.672  1.00  0.00     0.124 S 
ATOM     59  O   UNL A   1      37.252  33.630  40.719  1.00  0.00    -0.237 OA
ATOM     60  O   UNL A   1      36.000  32.600  38.849  1.00  0.00    -0.237 OA
ATOM     61  O   UNL A   1      37.716  31.301  40.052  1.00  0.00    -0.744 OA
ENDBRANCH  54  58
ENDBRANCH  27  51
BRANCH  39  62
ATOM     62  C   UNL A   1      44.461  28.299  34.586  1.00  0.00     0.023 A 
ATOM     63  C   UNL A   1      44.379  27.163  35.410  1.00  0.00     0.031 A 
ATOM     64  C   UNL A   1      45.707  28.944  34.474  1.00  0.00     0.131 A 
ATOM     65  C   UNL A   1      45.503  26.745  36.139  1.00  0.00     0.055 A 
ATOM     66  C   UNL A   1      46.838  28.481  35.146  1.00  0.00     0.041 A 
ATOM     67  F   UNL A   1      45.843  30.039  33.708  1.00  0.00    -0.206 F 
ATOM     68  C   UNL A   1      46.737  27.384  35.996  1.00  0.00     0.022 A 
BRANCH  65  69
ATOM     69  S   UNL A   1      45.305  25.421  37.363  1.00  0.00     0.124 S 
ATOM     70  O   UNL A   1      46.680  24.967  37.543  1.00  0.00    -0.237 OA
ATOM     71  O   UNL A   1      44.713  26.126  38.494  1.00  0.00    -0.237 OA
ATOM     72  O   UNL A   1      44.420  24.468  36.696  1.00  0.00    -0.744 OA
ENDBRANCH  65  69
ENDBRANCH  39  62
ENDBRANCH  13  14
ENDBRANCH   6   8
ENDBRANCH   3   4
ENDBRANCH   2   3
ENDBRANCH   1   2
BRANCH   1  73
ATOM     73  C   UNL A   1      31.807  28.880  26.295  1.00  0.00     0.002 C 
BRANCH  73  74
ATOM     74  C   UNL A   1      33.018  28.766  25.363  1.00  0.00     0.021 C 
BRANCH  74  75
ATOM     75  C   UNL A   1      32.677  28.890  23.882  1.00  0.00     0.116 C 
BRANCH  75  76
ATOM     76  N   UNL A   1      31.429  29.595  23.672  1.00  0.00    -0.356 N 
ATOM     77  C   UNL A   1      30.230  29.149  23.211  1.00  0.00     0.226 C 
ATOM     78  H   UNL A   1      31.452  30.553  23.900  1.00  0.00     0.163 HD
ATOM     79  O   UNL A   1      29.328  29.982  23.071  1.00  0.00    -0.274 OA
BRANCH  77  80
ATOM     80  C   UNL A   1      29.970  27.677  22.878  1.00  0.00     0.103 C 
ATOM     81  C   UNL A   1      31.057  27.043  22.074  1.00  0.00    -0.016 C 
ATOM     82  C   UNL A   1      29.813  26.758  24.098  1.00  0.00     0.042 C 
ATOM     83  C   UNL A   1      31.443  25.875  22.599  1.00  0.00    -0.011 C 
ATOM     84  C   UNL A   1      30.694  25.516  23.838  1.00  0.00     0.093 C 
BRANCH  84  85
ATOM     85  N   UNL A   1      31.595  25.313  24.962  1.00  0.00    -0.204 NA
ATOM     86  H   UNL A   1      31.431  26.093  25.601  1.00  0.00     0.142 HD
BRANCH  85  87
ATOM     87  S   UNL A   1      31.566  23.927  25.906  1.00  0.00     0.241 S 
ATOM     88  O   UNL A   1      31.498  24.329  27.292  1.00  0.00    -0.207 OA
ATOM     89  O   UNL A   1      30.568  23.072  25.307  1.00  0.00    -0.207 OA
BRANCH  87  90
ATOM     90  C   UNL A   1      33.157  23.194  25.614  1.00  0.00     0.082 A 
ATOM     91  C   UNL A   1      34.296  23.770  26.183  1.00  0.00     0.023 A 
ATOM     92  C   UNL A   1      33.256  22.047  24.818  1.00  0.00     0.023 A 
ATOM     93  C   UNL A   1      35.550  23.210  25.934  1.00  0.00     0.017 A 
ATOM     94  C   UNL A   1      34.514  21.494  24.568  1.00  0.00     0.017 A 
ATOM     95  C   UNL A   1      35.654  22.081  25.121  1.00  0.00     0.018 A 
ATOM     96  Br  UNL A   1      37.357  21.339  24.769  1.00  0.00    -0.051 Br
ENDBRANCH  87  90
ENDBRANCH  85  87
ENDBRANCH  84  85
ENDBRANCH  77  80
ENDBRANCH  75  76
ENDBRANCH  74  75
ENDBRANCH  73  74
ENDBRANCH   1  73
TORSDOF 19
ENDMDL
MODEL 2
REMARK VINA RESULT:     -11.0      2.088      7.802
REMARK SMILES O=C(NCCCCCCNC(=O)[C@H]1C=C[C@@H](NS(=O)(=O)c2ccc(Br)cc2)C1)c1ccc(-c2c3nc(c(-c4cc(S(=O)(=O)[O-])ccc4F)c4ccc([nH]4)c(-c4cc(S(=O)(=O)[O-])ccc4F)c4nc(c(-c5cc(S(=O)(=O)[O-])ccc5F)c5ccc2[nH]5)C=C4)C=C3)cc1
REMARK SMILES IDX 6 1 5 2 4 3 3 4 1 5 2 6 29 8 30 9 91 10 31 11 90 12 32 13
REMARK SMILES IDX 33 14 34 15 84 16 35 17 89 18 83 19 85 20 36 21 88 22 82 23
REMARK SMILES IDX 81 24 37 26 69 27 49 28 68 29 50 30 53 31 67 32 86 33 51 34
REMARK SMILES IDX 52 35 66 37 87 38 54 39 38 40 39 41 47 42 40 43 46 44 48 45
REMARK SMILES IDX 45 46 41 47 42 48 43 49 44 50 70 51 71 52 79 53 72 54 78 55
REMARK SMILES IDX 80 56 77 57 73 58 74 59 75 60 76 61 55 62 56 63 64 64 57 65
REMARK SMILES IDX 63 66 65 67 62 68 58 69 59 70 60 71 61 72 7 73 8 74 9 75
REMARK SMILES IDX 10 76 11 77 12 79 13 80 14 81 28 82 15 83 16 84 17 85 18 87
REMARK SMILES IDX 19 88 20 89 21 90 22 91 27 92 23 93 26 94 24 95 25 96
REMARK H PARENT 3 7 85 25 53 36 10 78 17 86
REMARK Flexibility Score: inf
ROOT
ATOM      1  C   UNL A   1      34.675  31.896  28.192  1.00  0.00     0.002 C 
ENDROOT
BRANCH   1   2
ATOM      2  C   UNL A   1      33.572  32.887  27.821  1.00  0.00     0.021 C 
BRANCH   2   3
ATOM      3  C   UNL A   1      33.974  34.350  27.951  1.00  0.00     0.116 C 
BRANCH   3   4
ATOM      4  N   UNL A   1      33.266  35.016  29.034  1.00  0.00    -0.352 N 
ATOM      5  O   UNL A   1      32.632  35.362  31.172  1.00  0.00    -0.269 OA
ATOM      6  C   UNL A   1      33.444  34.879  30.389  1.00  0.00     0.251 C 
ATOM      7  H   UNL A   1      32.565  35.650  28.759  1.00  0.00     0.163 HD
BRANCH   6   8
ATOM      8  C   UNL A   1      34.619  34.135  30.890  1.00  0.00     0.039 A 
ATOM      9  C   UNL A   1      35.908  34.561  30.564  1.00  0.00     0.014 A 
ATOM     10  C   UNL A   1      34.430  32.999  31.682  1.00  0.00     0.014 A 
ATOM     11  C   UNL A   1      37.000  33.776  30.905  1.00  0.00     0.010 A 
ATOM     12  C   UNL A   1      35.540  32.267  32.111  1.00  0.00     0.010 A 
ATOM     13  C   UNL A   1      36.833  32.638  31.709  1.00  0.00    -0.014 A 
BRANCH  13  14
ATOM     14  C   UNL A   1      38.037  31.907  32.183  1.00  0.00     0.031 A 
ATOM     15  C   UNL A   1      38.678  32.228  33.503  1.00  0.00     0.074 A 
ATOM     16  C   UNL A   1      38.532  30.925  31.403  1.00  0.00     0.049 A 
ATOM     17  N   UNL A   1      39.736  31.692  34.055  1.00  0.00    -0.248 NA
ATOM     18  C   UNL A   1      38.059  33.296  34.302  1.00  0.00     0.031 C 
ATOM     19  C   UNL A   1      37.985  30.531  30.101  1.00  0.00     0.029 A 
ATOM     20  N   UNL A   1      39.587  30.070  31.589  1.00  0.00    -0.354 N 
ATOM     21  C   UNL A   1      39.923  32.362  35.259  1.00  0.00     0.074 A 
ATOM     22  C   UNL A   1      38.885  33.371  35.337  1.00  0.00     0.031 C 
ATOM     23  C   UNL A   1      38.676  29.483  29.631  1.00  0.00     0.029 A 
ATOM     24  C   UNL A   1      39.768  29.188  30.550  1.00  0.00     0.049 A 
ATOM     25  H   UNL A   1      40.160  30.085  32.390  1.00  0.00     0.167 HD
ATOM     26  C   UNL A   1      40.869  32.149  36.207  1.00  0.00     0.034 A 
ATOM     27  C   UNL A   1      40.724  28.264  30.337  1.00  0.00     0.034 A 
ATOM     28  C   UNL A   1      41.897  31.137  36.100  1.00  0.00     0.049 A 
ATOM     29  C   UNL A   1      41.797  28.090  31.377  1.00  0.00     0.074 A 
ATOM     30  C   UNL A   1      42.884  30.813  37.015  1.00  0.00     0.029 A 
ATOM     31  N   UNL A   1      42.082  30.295  35.008  1.00  0.00    -0.354 N 
ATOM     32  N   UNL A   1      41.949  28.721  32.519  1.00  0.00    -0.248 NA
ATOM     33  C   UNL A   1      42.824  27.080  31.102  1.00  0.00     0.031 C 
ATOM     34  C   UNL A   1      43.714  29.842  36.443  1.00  0.00     0.029 A 
ATOM     35  C   UNL A   1      43.191  29.485  35.210  1.00  0.00     0.049 A 
ATOM     36  H   UNL A   1      41.509  30.276  34.208  1.00  0.00     0.167 HD
ATOM     37  C   UNL A   1      43.078  28.163  33.110  1.00  0.00     0.074 A 
ATOM     38  C   UNL A   1      43.551  27.133  32.207  1.00  0.00     0.031 C 
ATOM     39  C   UNL A   1      43.667  28.473  34.294  1.00  0.00     0.034 A 
BRANCH  26  40
ATOM     40  C   UNL A   1      40.874  33.059  37.414  1.00  0.00     0.023 A 
ATOM     41  C   UNL A   1      40.237  32.710  38.618  1.00  0.00     0.031 A 
ATOM     42  C   UNL A   1      41.524  34.307  37.356  1.00  0.00     0.131 A 
ATOM     43  C   UNL A   1      40.208  33.621  39.687  1.00  0.00     0.055 A 
ATOM     44  C   UNL A   1      41.562  35.173  38.451  1.00  0.00     0.041 A 
ATOM     45  F   UNL A   1      42.130  34.710  36.228  1.00  0.00    -0.206 F 
ATOM     46  C   UNL A   1      40.889  34.837  39.621  1.00  0.00     0.022 A 
BRANCH  43  47
ATOM     47  S   UNL A   1      39.148  33.254  41.114  1.00  0.00     0.124 S 
ATOM     48  O   UNL A   1      38.035  34.176  40.903  1.00  0.00    -0.237 OA
ATOM     49  O   UNL A   1      38.849  31.838  40.931  1.00  0.00    -0.237 OA
ATOM     50  O   UNL A   1      39.997  33.568  42.262  1.00  0.00    -0.744 OA
ENDBRANCH  43  47
ENDBRANCH  26  40
BRANCH  27  51
ATOM     51  C   UNL A   1      40.733  27.473  29.074  1.00  0.00     0.023 A 
ATOM     52  C   UNL A   1      41.648  27.751  28.048  1.00  0.00     0.031 A 
ATOM     53  C   UNL A   1      39.803  26.438  28.865  1.00  0.00     0.131 A 
ATOM     54  C   UNL A   1      41.585  27.033  26.844  1.00  0.00     0.055 A 
ATOM     55  C   UNL A   1      39.786  25.683  27.693  1.00  0.00     0.041 A 
ATOM     56  F   UNL A   1      38.905  26.129  29.815  1.00  0.00    -0.206 F 
ATOM     57  C   UNL A   1      40.673  25.989  26.667  1.00  0.00     0.022 A 
BRANCH  54  58
ATOM     58  S   UNL A   1      42.653  27.546  25.473  1.00  0.00     0.124 S 
ATOM     59  O   UNL A   1      41.905  28.668  24.918  1.00  0.00    -0.237 OA
ATOM     60  O   UNL A   1      43.894  27.881  26.163  1.00  0.00    -0.237 OA
ATOM     61  O   UNL A   1      42.715  26.356  24.626  1.00  0.00    -0.744 OA
ENDBRANCH  54  58
ENDBRANCH  27  51
BRANCH  39  62
ATOM     62  C   UNL A   1      44.866  27.648  34.695  1.00  0.00     0.023 A 
ATOM     63  C   UNL A   1      44.735  26.449  35.417  1.00  0.00     0.031 A 
ATOM     64  C   UNL A   1      46.164  28.082  34.367  1.00  0.00     0.131 A 
ATOM     65  C   UNL A   1      45.881  25.759  35.842  1.00  0.00     0.055 A 
ATOM     66  C   UNL A   1      47.297  27.354  34.730  1.00  0.00     0.041 A 
ATOM     67  F   UNL A   1      46.351  29.224  33.685  1.00  0.00    -0.206 F 
ATOM     68  C   UNL A   1      47.160  26.193  35.485  1.00  0.00     0.022 A 
BRANCH  65  69
ATOM     69  S   UNL A   1      45.683  24.347  36.962  1.00  0.00     0.124 S 
ATOM     70  O   UNL A   1      44.716  24.860  37.927  1.00  0.00    -0.237 OA
ATOM     71  O   UNL A   1      45.197  23.303  36.067  1.00  0.00    -0.237 OA
ATOM     72  O   UNL A   1      47.030  24.134  37.487  1.00  0.00    -0.744 OA
ENDBRANCH  65  69
ENDBRANCH  39  62
ENDBRANCH  13  14
ENDBRANCH   6   8
ENDBRANCH   3   4
ENDBRANCH   2   3
ENDBRANCH   1   2
BRANCH   1  73
ATOM     73  C   UNL A   1      34.526  30.499  27.581  1.00  0.00     0.002 C 
BRANCH  73  74
ATOM     74  C   UNL A   1      33.168  30.215  26.932  1.00  0.00     0.021 C 
BRANCH  74  75
ATOM     75  C   UNL A   1      33.251  29.399  25.647  1.00  0.00     0.116 C 
BRANCH  75  76
ATOM     76  N   UNL A   1      32.120  29.646  24.775  1.00  0.00    -0.356 N 
ATOM     77  C   UNL A   1      31.139  28.810  24.342  1.00  0.00     0.226 C 
ATOM     78  H   UNL A   1      32.051  30.570  24.441  1.00  0.00     0.163 HD
ATOM     79  O   UNL A   1      30.312  29.266  23.545  1.00  0.00    -0.274 OA
BRANCH  77  80
ATOM     80  C   UNL A   1      31.029  27.356  24.812  1.00  0.00     0.103 C 
ATOM     81  C   UNL A   1      29.757  26.689  24.406  1.00  0.00    -0.016 C 
ATOM     82  C   UNL A   1      32.132  26.425  24.289  1.00  0.00     0.042 C 
ATOM     83  C   UNL A   1      29.982  25.496  23.844  1.00  0.00    -0.011 C 
ATOM     84  C   UNL A   1      31.431  25.150  23.770  1.00  0.00     0.093 C 
BRANCH  84  85
ATOM     85  N   UNL A   1      31.845  24.889  22.400  1.00  0.00    -0.204 NA
ATOM     86  H   UNL A   1      31.896  25.799  21.942  1.00  0.00     0.142 HD
BRANCH  85  87
ATOM     87  S   UNL A   1      33.274  24.097  22.022  1.00  0.00     0.241 S 
ATOM     88  O   UNL A   1      33.274  23.822  20.604  1.00  0.00    -0.207 OA
ATOM     89  O   UNL A   1      34.322  24.867  22.652  1.00  0.00    -0.207 OA
BRANCH  87  90
ATOM     90  C   UNL A   1      33.137  22.555  22.891  1.00  0.00     0.082 A 
ATOM     91  C   UNL A   1      33.940  22.321  24.012  1.00  0.00     0.023 A 
ATOM     92  C   UNL A   1      32.227  21.588  22.448  1.00  0.00     0.023 A 
ATOM     93  C   UNL A   1      33.852  21.099  24.681  1.00  0.00     0.017 A 
ATOM     94  C   UNL A   1      32.147  20.365  23.119  1.00  0.00     0.017 A 
ATOM     95  C   UNL A   1      32.963  20.125  24.227  1.00  0.00     0.018 A 
ATOM     96  Br  UNL A   1      32.863  18.463  25.123  1.00  0.00    -0.051 Br
ENDBRANCH  87  90
ENDBRANCH  85  87
ENDBRANCH  84  85
ENDBRANCH  77  80
ENDBRANCH  75  76
ENDBRANCH  74  75
ENDBRANCH  73  74
ENDBRANCH   1  73
TORSDOF 19
ENDMDL
MODEL 3
REMARK VINA RESULT:     -11.0      2.756      4.137
REMARK SMILES O=C(NCCCCCCNC(=O)[C@H]1C=C[C@@H](NS(=O)(=O)c2ccc(Br)cc2)C1)c1ccc(-c2c3nc(c(-c4cc(S(=O)(=O)[O-])ccc4F)c4ccc([nH]4)c(-c4cc(S(=O)(=O)[O-])ccc4F)c4nc(c(-c5cc(S(=O)(=O)[O-])ccc5F)c5ccc2[nH]5)C=C4)C=C3)cc1
REMARK SMILES IDX 6 1 5 2 4 3 3 4 1 5 2 6 29 8 30 9 91 10 31 11 90 12 32 13
REMARK SMILES IDX 33 14 34 15 84 16 35 17 89 18 83 19 85 20 36 21 88 22 82 23
REMARK SMILES IDX 81 24 37 26 69 27 49 28 68 29 50 30 53 31 67 32 86 33 51 34
REMARK SMILES IDX 52 35 66 37 87 38 54 39 38 40 39 41 47 42 40 43 46 44 48 45
REMARK SMILES IDX 45 46 41 47 42 48 43 49 44 50 70 51 71 52 79 53 72 54 78 55
REMARK SMILES IDX 80 56 77 57 73 58 74 59 75 60 76 61 55 62 56 63 64 64 57 65
REMARK SMILES IDX 63 66 65 67 62 68 58 69 59 70 60 71 61 72 7 73 8 74 9 75
REMARK SMILES IDX 10 76 11 77 12 79 13 80 14 81 28 82 15 83 16 84 17 85 18 87
REMARK SMILES IDX 19 88 20 89 21 90 22 91 27 92 23 93 26 94 24 95 25 96
REMARK H PARENT 3 7 85 25 53 36 10 78 17 86
REMARK Flexibility Score: inf
ROOT
ATOM      1  C   UNL A   1      34.839  34.518  28.426  1.00  0.00     0.002 C 
ENDROOT
BRANCH   1   2
ATOM      2  C   UNL A   1      33.476  35.035  28.887  1.00  0.00     0.021 C 
BRANCH   2   3
ATOM      3  C   UNL A   1      33.540  36.292  29.743  1.00  0.00     0.116 C 
BRANCH   3   4
ATOM      4  N   UNL A   1      32.515  36.301  30.776  1.00  0.00    -0.352 N 
ATOM      5  O   UNL A   1      31.459  35.576  32.634  1.00  0.00    -0.269 OA
ATOM      6  C   UNL A   1      32.486  35.614  31.965  1.00  0.00     0.251 C 
ATOM      7  H   UNL A   1      31.737  36.878  30.600  1.00  0.00     0.163 HD
BRANCH   6   8
ATOM      8  C   UNL A   1      33.706  34.912  32.421  1.00  0.00     0.039 A 
ATOM      9  C   UNL A   1      34.935  35.576  32.422  1.00  0.00     0.014 A 
ATOM     10  C   UNL A   1      33.620  33.582  32.838  1.00  0.00     0.014 A 
ATOM     11  C   UNL A   1      36.097  34.871  32.702  1.00  0.00     0.010 A 
ATOM     12  C   UNL A   1      34.782  32.904  33.219  1.00  0.00     0.010 A 
ATOM     13  C   UNL A   1      36.032  33.537  33.135  1.00  0.00    -0.014 A 
BRANCH  13  14
ATOM     14  C   UNL A   1      37.280  32.860  33.572  1.00  0.00     0.031 A 
ATOM     15  C   UNL A   1      37.922  31.787  32.738  1.00  0.00     0.074 A 
ATOM     16  C   UNL A   1      37.841  33.248  34.735  1.00  0.00     0.049 A 
ATOM     17  N   UNL A   1      39.003  31.093  32.983  1.00  0.00    -0.248 NA
ATOM     18  C   UNL A   1      37.259  31.442  31.472  1.00  0.00     0.031 C 
ATOM     19  C   UNL A   1      37.299  34.282  35.623  1.00  0.00     0.029 A 
ATOM     20  N   UNL A   1      38.987  32.841  35.365  1.00  0.00    -0.354 N 
ATOM     21  C   UNL A   1      39.147  30.217  31.912  1.00  0.00     0.074 A 
ATOM     22  C   UNL A   1      38.018  30.447  31.034  1.00  0.00     0.031 C 
ATOM     23  C   UNL A   1      38.137  34.461  36.654  1.00  0.00     0.029 A 
ATOM     24  C   UNL A   1      39.225  33.497  36.550  1.00  0.00     0.049 A 
ATOM     25  H   UNL A   1      39.585  32.146  35.004  1.00  0.00     0.167 HD
ATOM     26  C   UNL A   1      40.133  29.313  31.687  1.00  0.00     0.034 A 
ATOM     27  C   UNL A   1      40.191  33.324  37.472  1.00  0.00     0.034 A 
ATOM     28  C   UNL A   1      41.247  29.101  32.585  1.00  0.00     0.049 A 
ATOM     29  C   UNL A   1      41.238  32.272  37.226  1.00  0.00     0.074 A 
ATOM     30  C   UNL A   1      42.317  28.236  32.439  1.00  0.00     0.029 A 
ATOM     31  N   UNL A   1      41.428  29.747  33.802  1.00  0.00    -0.354 N 
ATOM     32  N   UNL A   1      41.369  31.464  36.200  1.00  0.00    -0.248 NA
ATOM     33  C   UNL A   1      42.266  32.110  38.260  1.00  0.00     0.031 C 
ATOM     34  C   UNL A   1      43.094  28.295  33.601  1.00  0.00     0.029 A 
ATOM     35  C   UNL A   1      42.568  29.269  34.435  1.00  0.00     0.049 A 
ATOM     36  H   UNL A   1      40.834  30.444  34.165  1.00  0.00     0.167 HD
ATOM     37  C   UNL A   1      42.513  30.714  36.454  1.00  0.00     0.074 A 
ATOM     38  C   UNL A   1      43.041  31.183  37.720  1.00  0.00     0.031 C 
ATOM     39  C   UNL A   1      43.075  29.729  35.707  1.00  0.00     0.034 A 
BRANCH  26  40
ATOM     40  C   UNL A   1      40.024  28.446  30.452  1.00  0.00     0.023 A 
ATOM     41  C   UNL A   1      40.715  28.744  29.265  1.00  0.00     0.031 A 
ATOM     42  C   UNL A   1      39.205  27.301  30.463  1.00  0.00     0.131 A 
ATOM     43  C   UNL A   1      40.525  27.948  28.123  1.00  0.00     0.055 A 
ATOM     44  C   UNL A   1      39.085  26.467  29.349  1.00  0.00     0.041 A 
ATOM     45  F   UNL A   1      38.499  26.975  31.558  1.00  0.00    -0.206 F 
ATOM     46  C   UNL A   1      39.737  26.797  28.166  1.00  0.00     0.022 A 
BRANCH  43  47
ATOM     47  S   UNL A   1      41.210  28.518  26.542  1.00  0.00     0.124 S 
ATOM     48  O   UNL A   1      41.537  27.254  25.887  1.00  0.00    -0.237 OA
ATOM     49  O   UNL A   1      40.099  29.267  25.967  1.00  0.00    -0.237 OA
ATOM     50  O   UNL A   1      42.366  29.321  26.938  1.00  0.00    -0.744 OA
ENDBRANCH  43  47
ENDBRANCH  26  40
BRANCH  27  51
ATOM     51  C   UNL A   1      40.183  34.131  38.725  1.00  0.00     0.023 A 
ATOM     52  C   UNL A   1      39.426  33.739  39.839  1.00  0.00     0.031 A 
ATOM     53  C   UNL A   1      40.918  35.328  38.816  1.00  0.00     0.131 A 
ATOM     54  C   UNL A   1      39.386  34.557  40.979  1.00  0.00     0.055 A 
ATOM     55  C   UNL A   1      40.927  36.105  39.974  1.00  0.00     0.041 A 
ATOM     56  F   UNL A   1      41.660  35.751  37.780  1.00  0.00    -0.206 F 
ATOM     57  C   UNL A   1      40.145  35.727  41.060  1.00  0.00     0.022 A 
BRANCH  54  58
ATOM     58  S   UNL A   1      38.250  34.117  42.321  1.00  0.00     0.124 S 
ATOM     59  O   UNL A   1      37.688  35.416  42.670  1.00  0.00    -0.237 OA
ATOM     60  O   UNL A   1      37.345  33.184  41.659  1.00  0.00    -0.237 OA
ATOM     61  O   UNL A   1      39.128  33.525  43.328  1.00  0.00    -0.744 OA
ENDBRANCH  54  58
ENDBRANCH  27  51
BRANCH  39  62
ATOM     62  C   UNL A   1      44.359  29.128  36.228  1.00  0.00     0.023 A 
ATOM     63  C   UNL A   1      44.362  28.040  37.119  1.00  0.00     0.031 A 
ATOM     64  C   UNL A   1      45.600  29.667  35.841  1.00  0.00     0.131 A 
ATOM     65  C   UNL A   1      45.576  27.569  37.644  1.00  0.00     0.055 A 
ATOM     66  C   UNL A   1      46.806  29.148  36.310  1.00  0.00     0.041 A 
ATOM     67  F   UNL A   1      45.658  30.711  34.998  1.00  0.00    -0.206 F 
ATOM     68  C   UNL A   1      46.799  28.103  37.229  1.00  0.00     0.022 A 
BRANCH  65  69
ATOM     69  S   UNL A   1      45.531  26.323  38.960  1.00  0.00     0.124 S 
ATOM     70  O   UNL A   1      45.439  25.082  38.199  1.00  0.00    -0.237 OA
ATOM     71  O   UNL A   1      46.793  26.554  39.654  1.00  0.00    -0.237 OA
ATOM     72  O   UNL A   1      44.333  26.672  39.722  1.00  0.00    -0.744 OA
ENDBRANCH  65  69
ENDBRANCH  39  62
ENDBRANCH  13  14
ENDBRANCH   6   8
ENDBRANCH   3   4
ENDBRANCH   2   3
ENDBRANCH   1   2
BRANCH   1  73
ATOM     73  C   UNL A   1      35.437  33.403  29.291  1.00  0.00     0.002 C 
BRANCH  73  74
ATOM     74  C   UNL A   1      34.642  32.093  29.304  1.00  0.00     0.021 C 
BRANCH  74  75
ATOM     75  C   UNL A   1      34.729  31.300  28.004  1.00  0.00     0.116 C 
BRANCH  75  76
ATOM     76  N   UNL A   1      33.470  31.299  27.286  1.00  0.00    -0.356 N 
ATOM     77  C   UNL A   1      32.673  30.266  26.904  1.00  0.00     0.226 C 
ATOM     78  H   UNL A   1      33.138  32.192  27.034  1.00  0.00     0.163 HD
ATOM     79  O   UNL A   1      31.666  30.539  26.242  1.00  0.00    -0.274 OA
BRANCH  77  80
ATOM     80  C   UNL A   1      32.978  28.810  27.270  1.00  0.00     0.103 C 
ATOM     81  C   UNL A   1      31.806  27.898  27.129  1.00  0.00    -0.016 C 
ATOM     82  C   UNL A   1      34.078  28.151  26.426  1.00  0.00     0.042 C 
ATOM     83  C   UNL A   1      32.116  26.797  26.437  1.00  0.00    -0.011 C 
ATOM     84  C   UNL A   1      33.539  26.770  25.991  1.00  0.00     0.093 C 
BRANCH  84  85
ATOM     85  N   UNL A   1      33.640  26.640  24.545  1.00  0.00    -0.204 NA
ATOM     86  H   UNL A   1      34.574  26.275  24.358  1.00  0.00     0.142 HD
BRANCH  85  87
ATOM     87  S   UNL A   1      32.585  25.697  23.646  1.00  0.00     0.241 S 
ATOM     88  O   UNL A   1      33.204  25.422  22.371  1.00  0.00    -0.207 OA
ATOM     89  O   UNL A   1      32.158  24.639  24.534  1.00  0.00    -0.207 OA
BRANCH  87  90
ATOM     90  C   UNL A   1      31.197  26.771  23.374  1.00  0.00     0.082 A 
ATOM     91  C   UNL A   1      31.391  27.999  22.736  1.00  0.00     0.023 A 
ATOM     92  C   UNL A   1      29.922  26.379  23.800  1.00  0.00     0.023 A 
ATOM     93  C   UNL A   1      30.306  28.856  22.544  1.00  0.00     0.017 A 
ATOM     94  C   UNL A   1      28.841  27.243  23.611  1.00  0.00     0.017 A 
ATOM     95  C   UNL A   1      29.039  28.478  22.990  1.00  0.00     0.018 A 
ATOM     96  Br  UNL A   1      27.577  29.652  22.747  1.00  0.00    -0.051 Br
ENDBRANCH  87  90
ENDBRANCH  85  87
ENDBRANCH  84  85
ENDBRANCH  77  80
ENDBRANCH  75  76
ENDBRANCH  74  75
ENDBRANCH  73  74
ENDBRANCH   1  73
TORSDOF 19
ENDMDL
