MODEL 1
REMARK VINA RESULT:     -11.8      0.000      0.000
REMARK SMILES N#Cc1ccc(C(F)(F)F)nc1N1CCOC[C@H]1C(=O)NCCCCCCNC(=O)c1ccc(-c2c3nc(c(-c4cc(S(=O)(=O)[O-])ccc4F)c4ccc([nH]4)c(-c4cc(S(=O)(=O)[O-])ccc4F)c4nc(c(-c5cc(S(=O)(=O)[O-])ccc5F)c5ccc2[nH]5)C=C4)C=C3)cc1
REMARK SMILES IDX 25 1 24 2 23 3 22 4 21 5 19 6 20 7 18 9 13 10 14 11 15 12
REMARK SMILES IDX 17 13 16 14 12 15 3 16 4 17 5 18 11 19 6 20 2 21 1 22 7 23
REMARK SMILES IDX 8 24 9 25 10 26 26 27 27 28 28 29 29 30 30 32 31 33 32 34
REMARK SMILES IDX 93 35 33 36 92 37 34 38 35 39 36 40 86 41 37 42 91 43 85 44
REMARK SMILES IDX 87 45 38 46 90 47 84 48 83 49 39 51 71 52 51 53 70 54 52 55
REMARK SMILES IDX 55 56 69 57 88 58 53 59 54 60 68 62 89 63 56 64 40 65 41 66
REMARK SMILES IDX 49 67 42 68 48 69 50 70 47 71 43 72 44 73 45 74 46 75 72 76
REMARK SMILES IDX 73 77 81 78 74 79 80 80 82 81 79 82 75 83 76 84 77 85 78 86
REMARK SMILES IDX 57 87 58 88 66 89 59 90 65 91 67 92 64 93 60 94 61 95 62 96
REMARK SMILES IDX 63 97
REMARK H PARENT 21 8 28 31 87 50 55 61
REMARK Flexibility Score: inf
ROOT
ATOM      1  C   UNL A   1      31.074  30.943  26.025  1.00  0.00     0.002 C 
ENDROOT
BRANCH   1   2
ATOM      2  C   UNL A   1      31.814  29.899  26.873  1.00  0.00     0.002 C 
BRANCH   2   3
ATOM      3  C   UNL A   1      32.432  28.763  26.062  1.00  0.00     0.021 C 
BRANCH   3   4
ATOM      4  C   UNL A   1      33.920  28.969  25.769  1.00  0.00     0.116 C 
BRANCH   4   5
ATOM      5  N   UNL A   1      34.187  28.951  24.347  1.00  0.00    -0.354 N 
ATOM      6  C   UNL A   1      33.835  28.125  23.326  1.00  0.00     0.245 C 
ATOM      7  O   UNL A   1      34.231  28.499  22.210  1.00  0.00    -0.273 OA
ATOM      8  H   UNL A   1      34.749  29.704  24.053  1.00  0.00     0.163 HD
BRANCH   6   9
ATOM      9  C   UNL A   1      32.933  26.869  23.425  1.00  0.00     0.199 C 
ATOM     10  N   UNL A   1      31.769  26.787  22.512  1.00  0.00    -0.339 N 
ATOM     11  C   UNL A   1      32.014  26.250  21.178  1.00  0.00     0.147 C 
ATOM     12  C   UNL A   1      32.798  24.933  21.266  1.00  0.00     0.181 C 
ATOM     13  C   UNL A   1      33.734  25.549  23.376  1.00  0.00     0.195 C 
ATOM     14  O   UNL A   1      33.993  25.051  22.055  1.00  0.00    -0.377 OA
BRANCH  10  15
ATOM     15  C   UNL A   1      30.520  27.250  22.870  1.00  0.00     0.148 A 
ATOM     16  C   UNL A   1      29.649  26.521  23.701  1.00  0.00     0.095 A 
ATOM     17  C   UNL A   1      28.329  26.940  23.869  1.00  0.00     0.025 A 
ATOM     18  C   UNL A   1      27.906  28.114  23.269  1.00  0.00     0.035 A 
ATOM     19  N   UNL A   1      30.120  28.439  22.356  1.00  0.00    -0.225 NA
ATOM     20  C   UNL A   1      28.829  28.866  22.547  1.00  0.00     0.146 A 
BRANCH  16  21
ATOM     21  C   UNL A   1      30.077  25.378  24.453  1.00  0.00     0.103 C 
ATOM     22  N   UNL A   1      30.437  24.458  25.059  1.00  0.00    -0.192 NA
ENDBRANCH  16  21
BRANCH  20  23
ATOM     23  C   UNL A   1      28.376  30.201  21.960  1.00  0.00     0.433 C 
ATOM     24  F   UNL A   1      29.383  31.113  21.853  1.00  0.00    -0.165 F 
ATOM     25  F   UNL A   1      27.817  30.093  20.723  1.00  0.00    -0.165 F 
ATOM     26  F   UNL A   1      27.423  30.819  22.729  1.00  0.00    -0.165 F 
ENDBRANCH  20  23
ENDBRANCH  10  15
ENDBRANCH   6   9
ENDBRANCH   4   5
ENDBRANCH   3   4
ENDBRANCH   2   3
ENDBRANCH   1   2
BRANCH   1  27
ATOM     27  C   UNL A   1      31.284  32.396  26.462  1.00  0.00     0.021 C 
BRANCH  27  28
ATOM     28  C   UNL A   1      32.598  32.640  27.197  1.00  0.00     0.116 C 
BRANCH  28  29
ATOM     29  N   UNL A   1      32.676  34.004  27.694  1.00  0.00    -0.352 N 
ATOM     30  C   UNL A   1      33.441  34.512  28.713  1.00  0.00     0.251 C 
ATOM     31  H   UNL A   1      32.099  34.657  27.234  1.00  0.00     0.163 HD
ATOM     32  O   UNL A   1      33.155  35.595  29.213  1.00  0.00    -0.269 OA
BRANCH  30  33
ATOM     33  C   UNL A   1      34.603  33.740  29.196  1.00  0.00     0.039 A 
ATOM     34  C   UNL A   1      35.890  34.159  28.863  1.00  0.00     0.014 A 
ATOM     35  C   UNL A   1      34.409  32.597  29.978  1.00  0.00     0.014 A 
ATOM     36  C   UNL A   1      36.989  33.456  29.358  1.00  0.00     0.010 A 
ATOM     37  C   UNL A   1      35.502  31.957  30.547  1.00  0.00     0.010 A 
ATOM     38  C   UNL A   1      36.804  32.371  30.233  1.00  0.00    -0.014 A 
BRANCH  38  39
ATOM     39  C   UNL A   1      37.961  31.648  30.817  1.00  0.00     0.031 A 
ATOM     40  C   UNL A   1      38.420  31.963  32.214  1.00  0.00     0.074 A 
ATOM     41  C   UNL A   1      38.624  30.743  30.072  1.00  0.00     0.049 A 
ATOM     42  N   UNL A   1      39.434  31.476  32.881  1.00  0.00    -0.248 NA
ATOM     43  C   UNL A   1      37.656  32.986  32.940  1.00  0.00     0.031 C 
ATOM     44  C   UNL A   1      38.286  30.374  28.697  1.00  0.00     0.029 A 
ATOM     45  N   UNL A   1      39.715  29.967  30.367  1.00  0.00    -0.354 N 
ATOM     46  C   UNL A   1      39.429  32.133  34.107  1.00  0.00     0.074 A 
ATOM     47  C   UNL A   1      38.369  33.116  34.047  1.00  0.00     0.031 C 
ATOM     48  C   UNL A   1      39.118  29.404  28.287  1.00  0.00     0.029 A 
ATOM     49  C   UNL A   1      40.086  29.127  29.344  1.00  0.00     0.049 A 
ATOM     50  H   UNL A   1      40.186  30.006  31.230  1.00  0.00     0.167 HD
ATOM     51  C   UNL A   1      40.214  31.913  35.192  1.00  0.00     0.034 A 
ATOM     52  C   UNL A   1      41.096  28.240  29.264  1.00  0.00     0.034 A 
ATOM     53  C   UNL A   1      41.277  30.939  35.223  1.00  0.00     0.049 A 
ATOM     54  C   UNL A   1      42.014  28.074  30.449  1.00  0.00     0.074 A 
ATOM     55  C   UNL A   1      42.120  30.613  36.271  1.00  0.00     0.029 A 
ATOM     56  N   UNL A   1      41.661  30.144  34.148  1.00  0.00    -0.354 N 
ATOM     57  N   UNL A   1      41.974  28.674  31.617  1.00  0.00    -0.248 NA
ATOM     58  C   UNL A   1      43.109  27.108  30.304  1.00  0.00     0.031 C 
ATOM     59  C   UNL A   1      43.067  29.697  35.805  1.00  0.00     0.029 A 
ATOM     60  C   UNL A   1      42.753  29.365  34.496  1.00  0.00     0.049 A 
ATOM     61  H   UNL A   1      41.219  30.137  33.267  1.00  0.00     0.167 HD
ATOM     62  C   UNL A   1      43.016  28.124  32.360  1.00  0.00     0.074 A 
ATOM     63  C   UNL A   1      43.656  27.142  31.508  1.00  0.00     0.031 C 
ATOM     64  C   UNL A   1      43.399  28.399  33.634  1.00  0.00     0.034 A 
BRANCH  51  65
ATOM     65  C   UNL A   1      39.962  32.777  36.409  1.00  0.00     0.023 A 
ATOM     66  C   UNL A   1      39.158  32.329  37.473  1.00  0.00     0.031 A 
ATOM     67  C   UNL A   1      40.467  34.086  36.478  1.00  0.00     0.131 A 
ATOM     68  C   UNL A   1      38.786  33.217  38.492  1.00  0.00     0.055 A 
ATOM     69  C   UNL A   1      40.184  34.930  37.556  1.00  0.00     0.041 A 
ATOM     70  F   UNL A   1      41.221  34.585  35.485  1.00  0.00    -0.206 F 
ATOM     71  C   UNL A   1      39.319  34.505  38.558  1.00  0.00     0.022 A 
BRANCH  68  72
ATOM     72  S   UNL A   1      37.430  32.734  39.598  1.00  0.00     0.124 S 
ATOM     73  O   UNL A   1      37.452  33.819  40.578  1.00  0.00    -0.237 OA
ATOM     74  O   UNL A   1      36.282  32.708  38.699  1.00  0.00    -0.237 OA
ATOM     75  O   UNL A   1      37.854  31.434  40.112  1.00  0.00    -0.744 OA
ENDBRANCH  68  72
ENDBRANCH  51  65
BRANCH  52  76
ATOM     76  C   UNL A   1      41.288  27.429  28.029  1.00  0.00     0.023 A 
ATOM     77  C   UNL A   1      40.945  26.068  28.005  1.00  0.00     0.031 A 
ATOM     78  C   UNL A   1      41.837  27.993  26.863  1.00  0.00     0.131 A 
ATOM     79  C   UNL A   1      41.194  25.305  26.855  1.00  0.00     0.055 A 
ATOM     80  C   UNL A   1      42.025  27.244  25.701  1.00  0.00     0.041 A 
ATOM     81  F   UNL A   1      42.182  29.290  26.833  1.00  0.00    -0.206 F 
ATOM     82  C   UNL A   1      41.714  25.887  25.696  1.00  0.00     0.022 A 
BRANCH  79  83
ATOM     83  S   UNL A   1      40.909  23.516  26.924  1.00  0.00     0.124 S 
ATOM     84  O   UNL A   1      41.327  23.204  28.286  1.00  0.00    -0.237 OA
ATOM     85  O   UNL A   1      39.478  23.425  26.654  1.00  0.00    -0.237 OA
ATOM     86  O   UNL A   1      41.775  22.993  25.870  1.00  0.00    -0.744 OA
ENDBRANCH  79  83
ENDBRANCH  52  76
BRANCH  64  87
ATOM     87  C   UNL A   1      44.538  27.585  34.204  1.00  0.00     0.023 A 
ATOM     88  C   UNL A   1      44.317  26.434  34.980  1.00  0.00     0.031 A 
ATOM     89  C   UNL A   1      45.869  27.975  33.971  1.00  0.00     0.131 A 
ATOM     90  C   UNL A   1      45.405  25.752  35.546  1.00  0.00     0.055 A 
ATOM     91  C   UNL A   1      46.950  27.248  34.471  1.00  0.00     0.041 A 
ATOM     92  F   UNL A   1      46.144  29.072  33.245  1.00  0.00    -0.206 F 
ATOM     93  C   UNL A   1      46.721  26.138  35.276  1.00  0.00     0.022 A 
BRANCH  90  94
ATOM     94  S   UNL A   1      45.077  24.425  36.738  1.00  0.00     0.124 S 
ATOM     95  O   UNL A   1      45.042  23.247  35.876  1.00  0.00    -0.237 OA
ATOM     96  O   UNL A   1      46.221  24.523  37.637  1.00  0.00    -0.237 OA
ATOM     97  O   UNL A   1      43.793  24.801  37.325  1.00  0.00    -0.744 OA
ENDBRANCH  90  94
ENDBRANCH  64  87
ENDBRANCH  38  39
ENDBRANCH  30  33
ENDBRANCH  28  29
ENDBRANCH  27  28
ENDBRANCH   1  27
TORSDOF 19
ENDMDL
MODEL 2
REMARK VINA RESULT:     -11.5      1.784      7.632
REMARK SMILES N#Cc1ccc(C(F)(F)F)nc1N1CCOC[C@H]1C(=O)NCCCCCCNC(=O)c1ccc(-c2c3nc(c(-c4cc(S(=O)(=O)[O-])ccc4F)c4ccc([nH]4)c(-c4cc(S(=O)(=O)[O-])ccc4F)c4nc(c(-c5cc(S(=O)(=O)[O-])ccc5F)c5ccc2[nH]5)C=C4)C=C3)cc1
REMARK SMILES IDX 25 1 24 2 23 3 22 4 21 5 19 6 20 7 18 9 13 10 14 11 15 12
REMARK SMILES IDX 17 13 16 14 12 15 3 16 4 17 5 18 11 19 6 20 2 21 1 22 7 23
REMARK SMILES IDX 8 24 9 25 10 26 26 27 27 28 28 29 29 30 30 32 31 33 32 34
REMARK SMILES IDX 93 35 33 36 92 37 34 38 35 39 36 40 86 41 37 42 91 43 85 44
REMARK SMILES IDX 87 45 38 46 90 47 84 48 83 49 39 51 71 52 51 53 70 54 52 55
REMARK SMILES IDX 55 56 69 57 88 58 53 59 54 60 68 62 89 63 56 64 40 65 41 66
REMARK SMILES IDX 49 67 42 68 48 69 50 70 47 71 43 72 44 73 45 74 46 75 72 76
REMARK SMILES IDX 73 77 81 78 74 79 80 80 82 81 79 82 75 83 76 84 77 85 78 86
REMARK SMILES IDX 57 87 58 88 66 89 59 90 65 91 67 92 64 93 60 94 61 95 62 96
REMARK SMILES IDX 63 97
REMARK H PARENT 21 8 28 31 87 50 55 61
REMARK Flexibility Score: inf
ROOT
ATOM      1  C   UNL A   1      31.583  30.807  26.596  1.00  0.00     0.002 C 
ENDROOT
BRANCH   1   2
ATOM      2  C   UNL A   1      32.832  30.132  27.182  1.00  0.00     0.002 C 
BRANCH   2   3
ATOM      3  C   UNL A   1      32.848  28.614  27.030  1.00  0.00     0.021 C 
BRANCH   3   4
ATOM      4  C   UNL A   1      34.171  28.075  26.481  1.00  0.00     0.116 C 
BRANCH   4   5
ATOM      5  N   UNL A   1      34.342  28.413  25.084  1.00  0.00    -0.354 N 
ATOM      6  C   UNL A   1      33.911  27.865  23.917  1.00  0.00     0.245 C 
ATOM      7  O   UNL A   1      34.236  28.508  22.904  1.00  0.00    -0.273 OA
ATOM      8  H   UNL A   1      34.892  29.218  24.949  1.00  0.00     0.163 HD
BRANCH   6   9
ATOM      9  C   UNL A   1      33.002  26.620  23.761  1.00  0.00     0.199 C 
ATOM     10  N   UNL A   1      31.912  26.689  22.760  1.00  0.00    -0.339 N 
ATOM     11  C   UNL A   1      32.257  26.349  21.385  1.00  0.00     0.147 C 
ATOM     12  C   UNL A   1      33.029  25.023  21.338  1.00  0.00     0.181 C 
ATOM     13  C   UNL A   1      33.802  25.312  23.580  1.00  0.00     0.195 C 
ATOM     14  O   UNL A   1      34.161  25.008  22.223  1.00  0.00    -0.377 OA
BRANCH  10  15
ATOM     15  C   UNL A   1      30.639  27.110  23.087  1.00  0.00     0.148 A 
ATOM     16  C   UNL A   1      29.724  26.296  23.779  1.00  0.00     0.095 A 
ATOM     17  C   UNL A   1      28.393  26.695  23.908  1.00  0.00     0.025 A 
ATOM     18  C   UNL A   1      28.000  27.926  23.412  1.00  0.00     0.035 A 
ATOM     19  N   UNL A   1      30.264  28.347  22.679  1.00  0.00    -0.225 NA
ATOM     20  C   UNL A   1      28.961  28.751  22.834  1.00  0.00     0.146 A 
BRANCH  16  21
ATOM     21  C   UNL A   1      30.112  25.080  24.430  1.00  0.00     0.103 C 
ATOM     22  N   UNL A   1      30.429  24.103  24.969  1.00  0.00    -0.192 NA
ENDBRANCH  16  21
BRANCH  20  23
ATOM     23  C   UNL A   1      28.536  30.142  22.365  1.00  0.00     0.433 C 
ATOM     24  F   UNL A   1      27.288  30.169  21.818  1.00  0.00    -0.165 F 
ATOM     25  F   UNL A   1      28.547  31.078  23.354  1.00  0.00    -0.165 F 
ATOM     26  F   UNL A   1      29.359  30.644  21.390  1.00  0.00    -0.165 F 
ENDBRANCH  20  23
ENDBRANCH  10  15
ENDBRANCH   6   9
ENDBRANCH   4   5
ENDBRANCH   3   4
ENDBRANCH   2   3
ENDBRANCH   1   2
BRANCH   1  27
ATOM     27  C   UNL A   1      31.588  32.337  26.655  1.00  0.00     0.021 C 
BRANCH  27  28
ATOM     28  C   UNL A   1      32.823  32.928  27.327  1.00  0.00     0.116 C 
BRANCH  28  29
ATOM     29  N   UNL A   1      32.624  34.333  27.650  1.00  0.00    -0.352 N 
ATOM     30  C   UNL A   1      33.111  35.055  28.709  1.00  0.00     0.251 C 
ATOM     31  H   UNL A   1      32.060  34.836  27.018  1.00  0.00     0.163 HD
ATOM     32  O   UNL A   1      32.593  36.126  29.009  1.00  0.00    -0.269 OA
BRANCH  30  33
ATOM     33  C   UNL A   1      34.255  34.526  29.477  1.00  0.00     0.039 A 
ATOM     34  C   UNL A   1      34.028  33.929  30.717  1.00  0.00     0.014 A 
ATOM     35  C   UNL A   1      35.552  34.629  28.965  1.00  0.00     0.014 A 
ATOM     36  C   UNL A   1      35.103  33.388  31.422  1.00  0.00     0.010 A 
ATOM     37  C   UNL A   1      36.604  34.006  29.623  1.00  0.00     0.010 A 
ATOM     38  C   UNL A   1      36.394  33.390  30.865  1.00  0.00    -0.014 A 
BRANCH  38  39
ATOM     39  C   UNL A   1      37.539  32.766  31.573  1.00  0.00     0.031 A 
ATOM     40  C   UNL A   1      38.263  31.601  30.958  1.00  0.00     0.074 A 
ATOM     41  C   UNL A   1      37.896  33.221  32.789  1.00  0.00     0.049 A 
ATOM     42  N   UNL A   1      39.253  30.894  31.438  1.00  0.00    -0.248 NA
ATOM     43  C   UNL A   1      37.786  31.153  29.643  1.00  0.00     0.031 C 
ATOM     44  C   UNL A   1      37.251  34.329  33.497  1.00  0.00     0.029 A 
ATOM     45  N   UNL A   1      38.888  32.813  33.643  1.00  0.00    -0.354 N 
ATOM     46  C   UNL A   1      39.517  29.917  30.485  1.00  0.00     0.074 A 
ATOM     47  C   UNL A   1      38.521  30.071  29.446  1.00  0.00     0.031 C 
ATOM     48  C   UNL A   1      37.899  34.546  34.652  1.00  0.00     0.029 A 
ATOM     49  C   UNL A   1      38.963  33.557  34.796  1.00  0.00     0.049 A 
ATOM     50  H   UNL A   1      39.491  32.060  33.447  1.00  0.00     0.167 HD
ATOM     51  C   UNL A   1      40.517  29.001  30.461  1.00  0.00     0.034 A 
ATOM     52  C   UNL A   1      39.790  33.449  35.854  1.00  0.00     0.034 A 
ATOM     53  C   UNL A   1      41.489  28.855  31.517  1.00  0.00     0.049 A 
ATOM     54  C   UNL A   1      40.838  32.366  35.850  1.00  0.00     0.074 A 
ATOM     55  C   UNL A   1      42.559  27.979  31.590  1.00  0.00     0.029 A 
ATOM     56  N   UNL A   1      41.500  29.589  32.697  1.00  0.00    -0.354 N 
ATOM     57  N   UNL A   1      41.103  31.474  34.924  1.00  0.00    -0.248 NA
ATOM     58  C   UNL A   1      41.701  32.281  37.034  1.00  0.00     0.031 C 
ATOM     59  C   UNL A   1      43.155  28.119  32.847  1.00  0.00     0.029 A 
ATOM     60  C   UNL A   1      42.528  29.156  33.520  1.00  0.00     0.049 A 
ATOM     61  H   UNL A   1      40.869  30.313  32.916  1.00  0.00     0.167 HD
ATOM     62  C   UNL A   1      42.193  30.747  35.398  1.00  0.00     0.074 A 
ATOM     63  C   UNL A   1      42.536  31.314  36.686  1.00  0.00     0.031 C 
ATOM     64  C   UNL A   1      42.855  29.714  34.814  1.00  0.00     0.034 A 
BRANCH  51  65
ATOM     65  C   UNL A   1      40.569  28.071  29.268  1.00  0.00     0.023 A 
ATOM     66  C   UNL A   1      41.498  28.260  28.229  1.00  0.00     0.031 A 
ATOM     67  C   UNL A   1      39.637  27.028  29.129  1.00  0.00     0.131 A 
ATOM     68  C   UNL A   1      41.398  27.505  27.052  1.00  0.00     0.055 A 
ATOM     69  C   UNL A   1      39.617  26.203  28.001  1.00  0.00     0.041 A 
ATOM     70  F   UNL A   1      38.708  26.807  30.073  1.00  0.00    -0.206 F 
ATOM     71  C   UNL A   1      40.484  26.456  26.943  1.00  0.00     0.022 A 
BRANCH  68  72
ATOM     72  S   UNL A   1      42.327  28.060  25.595  1.00  0.00     0.124 S 
ATOM     73  O   UNL A   1      41.551  29.228  25.181  1.00  0.00    -0.237 OA
ATOM     74  O   UNL A   1      43.648  28.332  26.146  1.00  0.00    -0.237 OA
ATOM     75  O   UNL A   1      42.249  26.918  24.686  1.00  0.00    -0.744 OA
ENDBRANCH  68  72
ENDBRANCH  51  65
BRANCH  52  76
ATOM     76  C   UNL A   1      39.674  34.397  36.998  1.00  0.00     0.023 A 
ATOM     77  C   UNL A   1      39.191  33.964  38.243  1.00  0.00     0.031 A 
ATOM     78  C   UNL A   1      40.021  35.754  36.860  1.00  0.00     0.131 A 
ATOM     79  C   UNL A   1      39.026  34.885  39.287  1.00  0.00     0.055 A 
ATOM     80  C   UNL A   1      39.914  36.653  37.922  1.00  0.00     0.041 A 
ATOM     81  F   UNL A   1      40.488  36.221  35.691  1.00  0.00    -0.206 F 
ATOM     82  C   UNL A   1      39.403  36.222  39.142  1.00  0.00     0.022 A 
BRANCH  79  83
ATOM     83  S   UNL A   1      38.229  34.326  40.816  1.00  0.00     0.124 S 
ATOM     84  O   UNL A   1      39.375  33.875  41.598  1.00  0.00    -0.237 OA
ATOM     85  O   UNL A   1      37.573  35.544  41.281  1.00  0.00    -0.237 OA
ATOM     86  O   UNL A   1      37.328  33.268  40.363  1.00  0.00    -0.744 OA
ENDBRANCH  79  83
ENDBRANCH  52  76
BRANCH  64  87
ATOM     87  C   UNL A   1      44.056  29.163  35.546  1.00  0.00     0.023 A 
ATOM     88  C   UNL A   1      43.932  28.212  36.573  1.00  0.00     0.031 A 
ATOM     89  C   UNL A   1      45.350  29.604  35.211  1.00  0.00     0.131 A 
ATOM     90  C   UNL A   1      45.071  27.783  37.271  1.00  0.00     0.055 A 
ATOM     91  C   UNL A   1      46.486  29.114  35.855  1.00  0.00     0.041 A 
ATOM     92  F   UNL A   1      45.532  30.518  34.244  1.00  0.00    -0.206 F 
ATOM     93  C   UNL A   1      46.350  28.209  36.902  1.00  0.00     0.022 A 
BRANCH  90  94
ATOM     94  S   UNL A   1      44.852  26.751  38.746  1.00  0.00     0.124 S 
ATOM     95  O   UNL A   1      43.493  26.249  38.564  1.00  0.00    -0.237 OA
ATOM     96  O   UNL A   1      45.919  25.766  38.601  1.00  0.00    -0.237 OA
ATOM     97  O   UNL A   1      45.022  27.690  39.852  1.00  0.00    -0.744 OA
ENDBRANCH  90  94
ENDBRANCH  64  87
ENDBRANCH  38  39
ENDBRANCH  30  33
ENDBRANCH  28  29
ENDBRANCH  27  28
ENDBRANCH   1  27
TORSDOF 19
ENDMDL
MODEL 3
REMARK VINA RESULT:     -11.5      5.012      9.788
REMARK SMILES N#Cc1ccc(C(F)(F)F)nc1N1CCOC[C@H]1C(=O)NCCCCCCNC(=O)c1ccc(-c2c3nc(c(-c4cc(S(=O)(=O)[O-])ccc4F)c4ccc([nH]4)c(-c4cc(S(=O)(=O)[O-])ccc4F)c4nc(c(-c5cc(S(=O)(=O)[O-])ccc5F)c5ccc2[nH]5)C=C4)C=C3)cc1
REMARK SMILES IDX 25 1 24 2 23 3 22 4 21 5 19 6 20 7 18 9 13 10 14 11 15 12
REMARK SMILES IDX 17 13 16 14 12 15 3 16 4 17 5 18 11 19 6 20 2 21 1 22 7 23
REMARK SMILES IDX 8 24 9 25 10 26 26 27 27 28 28 29 29 30 30 32 31 33 32 34
REMARK SMILES IDX 93 35 33 36 92 37 34 38 35 39 36 40 86 41 37 42 91 43 85 44
REMARK SMILES IDX 87 45 38 46 90 47 84 48 83 49 39 51 71 52 51 53 70 54 52 55
REMARK SMILES IDX 55 56 69 57 88 58 53 59 54 60 68 62 89 63 56 64 40 65 41 66
REMARK SMILES IDX 49 67 42 68 48 69 50 70 47 71 43 72 44 73 45 74 46 75 72 76
REMARK SMILES IDX 73 77 81 78 74 79 80 80 82 81 79 82 75 83 76 84 77 85 78 86
REMARK SMILES IDX 57 87 58 88 66 89 59 90 65 91 67 92 64 93 60 94 61 95 62 96
REMARK SMILES IDX 63 97
REMARK H PARENT 21 8 28 31 87 50 55 61
REMARK Flexibility Score: inf
ROOT
ATOM      1  C   UNL A   1      35.333  22.261  24.236  1.00  0.00     0.002 C 
ENDROOT
BRANCH   1   2
ATOM      2  C   UNL A   1      35.048  23.699  23.781  1.00  0.00     0.002 C 
BRANCH   2   3
ATOM      3  C   UNL A   1      34.689  24.652  24.918  1.00  0.00     0.021 C 
BRANCH   3   4
ATOM      4  C   UNL A   1      33.414  25.455  24.653  1.00  0.00     0.116 C 
BRANCH   4   5
ATOM      5  N   UNL A   1      33.112  25.519  23.239  1.00  0.00    -0.354 N 
ATOM      6  C   UNL A   1      32.739  26.516  22.393  1.00  0.00     0.245 C 
ATOM      7  O   UNL A   1      32.631  26.162  21.207  1.00  0.00    -0.273 OA
ATOM      8  H   UNL A   1      33.195  24.647  22.790  1.00  0.00     0.163 HD
BRANCH   6   9
ATOM      9  C   UNL A   1      32.549  28.011  22.755  1.00  0.00     0.199 C 
ATOM     10  N   UNL A   1      31.629  28.335  23.869  1.00  0.00    -0.339 N 
ATOM     11  C   UNL A   1      32.187  28.296  25.217  1.00  0.00     0.147 C 
ATOM     12  C   UNL A   1      33.500  29.088  25.276  1.00  0.00     0.181 C 
ATOM     13  C   UNL A   1      33.888  28.758  22.942  1.00  0.00     0.195 C 
ATOM     14  O   UNL A   1      34.438  28.684  24.266  1.00  0.00    -0.377 OA
BRANCH  10  15
ATOM     15  C   UNL A   1      30.291  28.603  23.664  1.00  0.00     0.148 A 
ATOM     16  C   UNL A   1      29.335  27.591  23.466  1.00  0.00     0.095 A 
ATOM     17  C   UNL A   1      28.039  27.921  23.068  1.00  0.00     0.025 A 
ATOM     18  C   UNL A   1      27.686  29.253  22.939  1.00  0.00     0.035 A 
ATOM     19  N   UNL A   1      29.913  29.904  23.615  1.00  0.00    -0.225 NA
ATOM     20  C   UNL A   1      28.629  30.228  23.253  1.00  0.00     0.146 A 
BRANCH  16  21
ATOM     21  C   UNL A   1      29.612  26.207  23.722  1.00  0.00     0.103 C 
ATOM     22  N   UNL A   1      29.848  25.090  23.922  1.00  0.00    -0.192 NA
ENDBRANCH  16  21
BRANCH  20  23
ATOM     23  C   UNL A   1      28.205  31.694  23.189  1.00  0.00     0.433 C 
ATOM     24  F   UNL A   1      29.069  32.534  23.826  1.00  0.00    -0.165 F 
ATOM     25  F   UNL A   1      28.067  32.169  21.919  1.00  0.00    -0.165 F 
ATOM     26  F   UNL A   1      26.992  31.919  23.786  1.00  0.00    -0.165 F 
ENDBRANCH  20  23
ENDBRANCH  10  15
ENDBRANCH   6   9
ENDBRANCH   4   5
ENDBRANCH   3   4
ENDBRANCH   2   3
ENDBRANCH   1   2
BRANCH   1  27
ATOM     27  C   UNL A   1      36.815  21.876  24.272  1.00  0.00     0.021 C 
BRANCH  27  28
ATOM     28  C   UNL A   1      37.589  22.493  25.431  1.00  0.00     0.116 C 
BRANCH  28  29
ATOM     29  N   UNL A   1      38.561  21.556  25.972  1.00  0.00    -0.352 N 
ATOM     30  C   UNL A   1      39.792  21.807  26.522  1.00  0.00     0.251 C 
ATOM     31  H   UNL A   1      38.298  20.608  25.940  1.00  0.00     0.163 HD
ATOM     32  O   UNL A   1      40.611  20.901  26.628  1.00  0.00    -0.269 OA
BRANCH  30  33
ATOM     33  C   UNL A   1      40.114  23.175  26.976  1.00  0.00     0.039 A 
ATOM     34  C   UNL A   1      40.841  23.352  28.153  1.00  0.00     0.014 A 
ATOM     35  C   UNL A   1      39.689  24.279  26.231  1.00  0.00     0.014 A 
ATOM     36  C   UNL A   1      41.185  24.642  28.557  1.00  0.00     0.010 A 
ATOM     37  C   UNL A   1      40.114  25.553  26.583  1.00  0.00     0.010 A 
ATOM     38  C   UNL A   1      40.856  25.750  27.757  1.00  0.00    -0.014 A 
BRANCH  38  39
ATOM     39  C   UNL A   1      41.265  27.124  28.140  1.00  0.00     0.031 A 
ATOM     40  C   UNL A   1      42.703  27.544  28.019  1.00  0.00     0.074 A 
ATOM     41  C   UNL A   1      40.349  27.975  28.640  1.00  0.00     0.049 A 
ATOM     42  N   UNL A   1      43.264  28.680  28.344  1.00  0.00    -0.248 NA
ATOM     43  C   UNL A   1      43.638  26.540  27.493  1.00  0.00     0.031 C 
ATOM     44  C   UNL A   1      38.929  27.671  28.828  1.00  0.00     0.029 A 
ATOM     45  N   UNL A   1      40.472  29.269  29.076  1.00  0.00    -0.354 N 
ATOM     46  C   UNL A   1      44.617  28.527  28.063  1.00  0.00     0.074 A 
ATOM     47  C   UNL A   1      44.799  27.158  27.629  1.00  0.00     0.031 C 
ATOM     48  C   UNL A   1      38.304  28.765  29.290  1.00  0.00     0.029 A 
ATOM     49  C   UNL A   1      39.286  29.826  29.490  1.00  0.00     0.049 A 
ATOM     50  H   UNL A   1      41.329  29.753  29.090  1.00  0.00     0.167 HD
ATOM     51  C   UNL A   1      45.608  29.451  28.127  1.00  0.00     0.034 A 
ATOM     52  C   UNL A   1      39.020  31.051  29.983  1.00  0.00     0.034 A 
ATOM     53  C   UNL A   1      45.407  30.807  28.579  1.00  0.00     0.049 A 
ATOM     54  C   UNL A   1      40.152  32.036  30.132  1.00  0.00     0.074 A 
ATOM     55  C   UNL A   1      46.329  31.835  28.663  1.00  0.00     0.029 A 
ATOM     56  N   UNL A   1      44.201  31.320  29.043  1.00  0.00    -0.354 N 
ATOM     57  N   UNL A   1      41.421  31.892  29.824  1.00  0.00    -0.248 NA
ATOM     58  C   UNL A   1      39.812  33.351  30.690  1.00  0.00     0.031 C 
ATOM     59  C   UNL A   1      45.708  32.934  29.264  1.00  0.00     0.029 A 
ATOM     60  C   UNL A   1      44.368  32.633  29.457  1.00  0.00     0.049 A 
ATOM     61  H   UNL A   1      43.351  30.823  29.074  1.00  0.00     0.167 HD
ATOM     62  C   UNL A   1      42.022  33.115  30.114  1.00  0.00     0.074 A 
ATOM     63  C   UNL A   1      40.973  33.982  30.612  1.00  0.00     0.031 C 
ATOM     64  C   UNL A   1      43.320  33.488  29.970  1.00  0.00     0.034 A 
BRANCH  51  65
ATOM     65  C   UNL A   1      46.997  28.998  27.733  1.00  0.00     0.023 A 
ATOM     66  C   UNL A   1      47.341  28.769  26.387  1.00  0.00     0.031 A 
ATOM     67  C   UNL A   1      47.968  28.723  28.711  1.00  0.00     0.131 A 
ATOM     68  C   UNL A   1      48.567  28.169  26.069  1.00  0.00     0.055 A 
ATOM     69  C   UNL A   1      49.233  28.230  28.376  1.00  0.00     0.041 A 
ATOM     70  F   UNL A   1      47.698  28.896  30.014  1.00  0.00    -0.206 F 
ATOM     71  C   UNL A   1      49.529  27.927  27.051  1.00  0.00     0.022 A 
BRANCH  68  72
ATOM     72  S   UNL A   1      48.791  27.511  24.393  1.00  0.00     0.124 S 
ATOM     73  O   UNL A   1      48.736  26.071  24.634  1.00  0.00    -0.237 OA
ATOM     74  O   UNL A   1      47.659  28.083  23.674  1.00  0.00    -0.237 OA
ATOM     75  O   UNL A   1      50.105  28.017  24.000  1.00  0.00    -0.744 OA
ENDBRANCH  68  72
ENDBRANCH  51  65
BRANCH  52  76
ATOM     76  C   UNL A   1      37.627  31.424  30.358  1.00  0.00     0.023 A 
ATOM     77  C   UNL A   1      36.724  31.889  29.389  1.00  0.00     0.031 A 
ATOM     78  C   UNL A   1      37.183  31.346  31.690  1.00  0.00     0.131 A 
ATOM     79  C   UNL A   1      35.439  32.298  29.771  1.00  0.00     0.055 A 
ATOM     80  C   UNL A   1      35.883  31.696  32.055  1.00  0.00     0.041 A 
ATOM     81  F   UNL A   1      38.007  30.909  32.657  1.00  0.00    -0.206 F 
ATOM     82  C   UNL A   1      35.005  32.187  31.094  1.00  0.00     0.022 A 
BRANCH  79  83
ATOM     83  S   UNL A   1      34.367  33.063  28.525  1.00  0.00     0.124 S 
ATOM     84  O   UNL A   1      35.344  33.697  27.645  1.00  0.00    -0.237 OA
ATOM     85  O   UNL A   1      33.664  31.907  27.977  1.00  0.00    -0.237 OA
ATOM     86  O   UNL A   1      33.540  33.981  29.304  1.00  0.00    -0.744 OA
ENDBRANCH  79  83
ENDBRANCH  52  76
BRANCH  64  87
ATOM     87  C   UNL A   1      43.669  34.919  30.308  1.00  0.00     0.023 A 
ATOM     88  C   UNL A   1      43.667  35.936  29.339  1.00  0.00     0.031 A 
ATOM     89  C   UNL A   1      44.018  35.266  31.626  1.00  0.00     0.131 A 
ATOM     90  C   UNL A   1      44.067  37.236  29.688  1.00  0.00     0.055 A 
ATOM     91  C   UNL A   1      44.339  36.576  31.984  1.00  0.00     0.041 A 
ATOM     92  F   UNL A   1      44.048  34.336  32.595  1.00  0.00    -0.206 F 
ATOM     93  C   UNL A   1      44.380  37.567  31.009  1.00  0.00     0.022 A 
BRANCH  90  94
ATOM     94  S   UNL A   1      44.291  38.461  28.370  1.00  0.00     0.124 S 
ATOM     95  O   UNL A   1      43.075  38.282  27.582  1.00  0.00    -0.237 OA
ATOM     96  O   UNL A   1      44.386  39.710  29.117  1.00  0.00    -0.237 OA
ATOM     97  O   UNL A   1      45.524  38.037  27.711  1.00  0.00    -0.744 OA
ENDBRANCH  90  94
ENDBRANCH  64  87
ENDBRANCH  38  39
ENDBRANCH  30  33
ENDBRANCH  28  29
ENDBRANCH  27  28
ENDBRANCH   1  27
TORSDOF 19
ENDMDL
