MODEL 1
REMARK VINA RESULT:     -12.7      0.000      0.000
REMARK SMILES Cc1ccc(C2=NN(C(=O)CCC(=O)NCCCCCCNC(=O)c3ccc(-c4c5nc(c(-c6cc(S(=O)(=O)[O-])ccc6F)c6ccc([nH]6)c(-c6cc(S(=O)(=O)[O-])ccc6F)c6nc(c(-c7cc(S(=O)(=O)[O-])ccc7F)c7ccc4[nH]7)C=C6)C=C5)cc3)[C@H](C[C@@H]3C=c4cccc(C)c4=NC3=O)C2)cc1
REMARK SMILES IDX 17 1 16 2 15 3 13 4 14 5 12 7 11 8 9 9 10 10 8 11 6 12 7 13
REMARK SMILES IDX 102 14 88 15 5 16 1 17 2 18 3 19 104 20 4 21 103 22 89 23
REMARK SMILES IDX 90 24 91 25 100 26 92 27 99 28 101 29 93 30 98 31 94 32
REMARK SMILES IDX 96 33 95 34 97 35 18 36 19 37 20 38 21 39 22 40 23 41 24 43
REMARK SMILES IDX 25 44 26 45 87 46 27 47 86 48 28 49 29 50 30 51 80 52 31 53
REMARK SMILES IDX 85 54 79 55 81 56 32 57 84 58 78 59 77 60 33 62 65 63 45 64
REMARK SMILES IDX 64 65 46 66 49 67 63 68 82 69 47 70 48 71 62 73 83 74 50 75
REMARK SMILES IDX 34 76 35 77 43 78 36 79 42 80 44 81 41 82 37 83 38 84 39 85
REMARK SMILES IDX 40 86 66 87 67 88 75 89 68 90 74 91 76 92 73 93 69 94 70 95
REMARK SMILES IDX 71 96 72 97 51 98 52 99 60 100 53 101 59 102 61 103 58 104
REMARK SMILES IDX 54 105 55 106 56 107 57 108
REMARK H PARENT 15 6 22 42 81 61 49 72
REMARK Flexibility Score: inf
ROOT
ATOM      1  C   UNL A   1      44.853  32.578  27.237  1.00  0.00     0.021 C 
ENDROOT
BRANCH   1   2
ATOM      2  C   UNL A   1      43.811  34.371  28.027  1.00  0.00     0.116 C 
BRANCH   2   3
ATOM      3  N   UNL A   1      42.756  34.474  29.254  1.00  0.00    -0.356 N 
ATOM      4  C   UNL A   1      42.053  33.613  30.015  1.00  0.00     0.220 C 
ATOM      5  O   UNL A   1      41.286  34.106  30.847  1.00  0.00    -0.275 OA
ATOM      6  H   UNL A   1      42.585  35.409  29.509  1.00  0.00     0.163 HD
BRANCH   4   7
ATOM      7  C   UNL A   1      42.219  32.130  29.889  1.00  0.00     0.110 C 
BRANCH   7   8
ATOM      8  C   UNL A   1      41.953  31.296  31.130  1.00  0.00     0.112 C 
BRANCH   8   9
ATOM      9  C   UNL A   1      40.756  30.329  31.064  1.00  0.00     0.243 C 
ATOM     10  O   UNL A   1      40.706  29.375  31.841  1.00  0.00    -0.273 OA
BRANCH   9  11
ATOM     11  N   UNL A   1      39.829  30.531  29.966  1.00  0.00    -0.230 N 
ATOM     12  C   UNL A   1      37.074  31.145  30.001  1.00  0.00     0.070 C 
ATOM     13  N   UNL A   1      38.469  31.663  30.389  1.00  0.00    -0.174 NA
ATOM     14  C   UNL A   1      37.244  29.181  29.119  1.00  0.00     0.086 C 
ATOM     15  C   UNL A   1      39.293  29.090  28.927  1.00  0.00     0.118 C 
BRANCH  12  16
ATOM     16  C   UNL A   1      35.945  32.557  29.610  1.00  0.00    -0.002 A 
ATOM     17  C   UNL A   1      33.262  35.979  28.761  1.00  0.00     0.044 C 
ATOM     18  C   UNL A   1      34.021  34.713  28.991  1.00  0.00    -0.051 A 
ATOM     19  C   UNL A   1      34.601  33.887  28.025  1.00  0.00     0.004 A 
ATOM     20  C   UNL A   1      34.267  34.386  30.276  1.00  0.00     0.004 A 
ATOM     21  C   UNL A   1      35.559  32.836  28.303  1.00  0.00     0.010 A 
ATOM     22  C   UNL A   1      35.187  33.379  30.531  1.00  0.00     0.010 A 
ENDBRANCH  12  16
BRANCH  15  23
ATOM     23  C   UNL A   1      40.227  29.219  27.523  1.00  0.00     0.045 C 
BRANCH  23  24
ATOM     24  C   UNL A   1      40.598  27.848  26.828  1.00  0.00     0.106 C 
ATOM     25  C   UNL A   1      40.949  26.756  27.801  1.00  0.00    -0.003 C 
ATOM     26  C   UNL A   1      41.660  27.787  25.711  1.00  0.00     0.253 C 
ATOM     27  C   UNL A   1      41.231  25.526  27.375  1.00  0.00    -0.003 A 
ATOM     28  N   UNL A   1      42.090  26.524  25.286  1.00  0.00    -0.212 NA
ATOM     29  O   UNL A   1      41.995  28.811  25.119  1.00  0.00    -0.272 OA
ATOM     30  C   UNL A   1      40.949  24.331  28.131  1.00  0.00     0.010 A 
ATOM     31  C   UNL A   1      41.901  25.484  26.047  1.00  0.00     0.077 A 
ATOM     32  C   UNL A   1      41.276  23.134  27.633  1.00  0.00     0.001 A 
ATOM     33  C   UNL A   1      42.461  24.114  25.721  1.00  0.00    -0.025 A 
ATOM     34  C   UNL A   1      42.111  23.043  26.462  1.00  0.00     0.005 A 
ATOM     35  C   UNL A   1      43.556  24.033  24.708  1.00  0.00     0.047 C 
ENDBRANCH  23  24
ENDBRANCH  15  23
ENDBRANCH   9  11
ENDBRANCH   8   9
ENDBRANCH   7   8
ENDBRANCH   4   7
ENDBRANCH   2   3
ENDBRANCH   1   2
BRANCH   1  36
ATOM     36  C   UNL A   1      45.671  31.666  28.798  1.00  0.00     0.002 C 
BRANCH  36  37
ATOM     37  C   UNL A   1      45.041  29.915  29.101  1.00  0.00     0.002 C 
BRANCH  37  38
ATOM     38  C   UNL A   1      44.593  28.573  27.888  1.00  0.00     0.021 C 
BRANCH  38  39
ATOM     39  C   UNL A   1      45.261  28.101  26.329  1.00  0.00     0.116 C 
BRANCH  39  40
ATOM     40  N   UNL A   1      45.756  26.699  26.076  1.00  0.00    -0.352 N 
ATOM     41  C   UNL A   1      46.120  25.546  26.799  1.00  0.00     0.251 C 
ATOM     42  H   UNL A   1      45.858  26.542  25.109  1.00  0.00     0.163 HD
ATOM     43  O   UNL A   1      46.643  24.643  26.129  1.00  0.00    -0.269 OA
BRANCH  41  44
ATOM     44  C   UNL A   1      45.883  25.224  28.259  1.00  0.00     0.039 A 
ATOM     45  C   UNL A   1      44.619  24.692  28.657  1.00  0.00     0.014 A 
ATOM     46  C   UNL A   1      46.801  25.476  29.265  1.00  0.00     0.014 A 
ATOM     47  C   UNL A   1      44.193  24.678  30.009  1.00  0.00     0.010 A 
ATOM     48  C   UNL A   1      46.386  25.450  30.610  1.00  0.00     0.010 A 
ATOM     49  C   UNL A   1      45.057  25.160  30.987  1.00  0.00    -0.014 A 
BRANCH  49  50
ATOM     50  C   UNL A   1      44.727  25.366  32.414  1.00  0.00     0.031 A 
ATOM     51  C   UNL A   1      44.550  26.760  32.906  1.00  0.00     0.074 A 
ATOM     52  C   UNL A   1      44.304  24.360  33.227  1.00  0.00     0.049 A 
ATOM     53  N   UNL A   1      44.405  27.106  34.142  1.00  0.00    -0.248 NA
ATOM     54  C   UNL A   1      44.561  27.903  31.998  1.00  0.00     0.031 C 
ATOM     55  C   UNL A   1      43.315  24.489  34.300  1.00  0.00     0.029 A 
ATOM     56  N   UNL A   1      44.724  23.029  33.343  1.00  0.00    -0.354 N 
ATOM     57  C   UNL A   1      43.958  28.410  34.155  1.00  0.00     0.074 A 
ATOM     58  C   UNL A   1      44.183  28.892  32.813  1.00  0.00     0.031 C 
ATOM     59  C   UNL A   1      43.336  23.392  35.070  1.00  0.00     0.029 A 
ATOM     60  C   UNL A   1      44.472  22.598  34.658  1.00  0.00     0.049 A 
ATOM     61  H   UNL A   1      45.128  22.487  32.627  1.00  0.00     0.167 HD
ATOM     62  C   UNL A   1      43.285  28.888  35.242  1.00  0.00     0.034 A 
ATOM     63  C   UNL A   1      45.421  22.078  35.484  1.00  0.00     0.034 A 
ATOM     64  C   UNL A   1      43.190  27.886  36.299  1.00  0.00     0.049 A 
ATOM     65  C   UNL A   1      45.548  22.821  36.788  1.00  0.00     0.074 A 
ATOM     66  C   UNL A   1      42.183  27.006  36.660  1.00  0.00     0.029 A 
ATOM     67  N   UNL A   1      44.323  27.506  36.998  1.00  0.00    -0.354 N 
ATOM     68  N   UNL A   1      45.000  23.984  36.995  1.00  0.00    -0.248 NA
ATOM     69  C   UNL A   1      46.334  22.365  37.928  1.00  0.00     0.031 C 
ATOM     70  C   UNL A   1      42.735  26.061  37.557  1.00  0.00     0.029 A 
ATOM     71  C   UNL A   1      44.067  26.383  37.760  1.00  0.00     0.049 A 
ATOM     72  H   UNL A   1      45.190  27.971  36.959  1.00  0.00     0.167 HD
ATOM     73  C   UNL A   1      45.420  24.483  38.196  1.00  0.00     0.074 A 
ATOM     74  C   UNL A   1      46.203  23.403  38.771  1.00  0.00     0.031 C 
ATOM     75  C   UNL A   1      45.119  25.766  38.558  1.00  0.00     0.034 A 
BRANCH  62  76
ATOM     76  C   UNL A   1      42.429  30.138  35.257  1.00  0.00     0.023 A 
ATOM     77  C   UNL A   1      41.023  29.994  35.277  1.00  0.00     0.031 A 
ATOM     78  C   UNL A   1      42.894  31.464  35.225  1.00  0.00     0.131 A 
ATOM     79  C   UNL A   1      40.159  31.097  35.169  1.00  0.00     0.055 A 
ATOM     80  C   UNL A   1      42.036  32.567  35.079  1.00  0.00     0.041 A 
ATOM     81  F   UNL A   1      44.190  31.762  35.386  1.00  0.00    -0.206 F 
ATOM     82  C   UNL A   1      40.660  32.386  35.038  1.00  0.00     0.022 A 
BRANCH  79  83
ATOM     83  S   UNL A   1      38.369  30.809  35.195  1.00  0.00     0.124 S 
ATOM     84  O   UNL A   1      38.153  30.327  36.556  1.00  0.00    -0.237 OA
ATOM     85  O   UNL A   1      37.836  32.131  34.886  1.00  0.00    -0.237 OA
ATOM     86  O   UNL A   1      38.172  29.805  34.149  1.00  0.00    -0.744 OA
ENDBRANCH  79  83
ENDBRANCH  62  76
BRANCH  63  87
ATOM     87  C   UNL A   1      46.550  21.415  34.790  1.00  0.00     0.023 A 
ATOM     88  C   UNL A   1      47.729  22.153  34.569  1.00  0.00     0.031 A 
ATOM     89  C   UNL A   1      46.602  20.020  34.671  1.00  0.00     0.131 A 
ATOM     90  C   UNL A   1      48.937  21.489  34.322  1.00  0.00     0.055 A 
ATOM     91  C   UNL A   1      47.800  19.363  34.391  1.00  0.00     0.041 A 
ATOM     92  F   UNL A   1      45.519  19.271  34.925  1.00  0.00    -0.206 F 
ATOM     93  C   UNL A   1      48.975  20.097  34.220  1.00  0.00     0.022 A 
BRANCH  90  94
ATOM     94  S   UNL A   1      50.481  22.450  34.364  1.00  0.00     0.124 S 
ATOM     95  O   UNL A   1      51.300  21.668  35.284  1.00  0.00    -0.237 OA
ATOM     96  O   UNL A   1      50.912  22.426  32.968  1.00  0.00    -0.237 OA
ATOM     97  O   UNL A   1      50.066  23.760  34.863  1.00  0.00    -0.744 OA
ENDBRANCH  90  94
ENDBRANCH  63  87
BRANCH  75  98
ATOM     98  C   UNL A   1      45.731  26.518  39.716  1.00  0.00     0.023 A 
ATOM     99  C   UNL A   1      47.036  27.022  39.686  1.00  0.00     0.031 A 
ATOM    100  C   UNL A   1      44.995  26.800  40.890  1.00  0.00     0.131 A 
ATOM    101  C   UNL A   1      47.608  27.637  40.811  1.00  0.00     0.055 A 
ATOM    102  C   UNL A   1      45.531  27.504  41.973  1.00  0.00     0.041 A 
ATOM    103  F   UNL A   1      43.720  26.412  41.040  1.00  0.00    -0.206 F 
ATOM    104  C   UNL A   1      46.858  27.902  41.951  1.00  0.00     0.022 A 
BRANCH 101 105
ATOM    105  S   UNL A   1      49.389  27.961  40.776  1.00  0.00     0.124 S 
ATOM    106  O   UNL A   1      49.516  28.800  39.587  1.00  0.00    -0.237 OA
ATOM    107  O   UNL A   1      49.609  28.635  42.052  1.00  0.00    -0.237 OA
ATOM    108  O   UNL A   1      49.979  26.630  40.663  1.00  0.00    -0.744 OA
ENDBRANCH 101 105
ENDBRANCH  75  98
ENDBRANCH  49  50
ENDBRANCH  41  44
ENDBRANCH  39  40
ENDBRANCH  38  39
ENDBRANCH  37  38
ENDBRANCH  36  37
ENDBRANCH   1  36
TORSDOF 22
ENDMDL
MODEL 2
REMARK VINA RESULT:     -12.0      4.068     11.366
REMARK SMILES Cc1ccc(C2=NN(C(=O)CCC(=O)NCCCCCCNC(=O)c3ccc(-c4c5nc(c(-c6cc(S(=O)(=O)[O-])ccc6F)c6ccc([nH]6)c(-c6cc(S(=O)(=O)[O-])ccc6F)c6nc(c(-c7cc(S(=O)(=O)[O-])ccc7F)c7ccc4[nH]7)C=C6)C=C5)cc3)[C@H](C[C@@H]3C=c4cccc(C)c4=NC3=O)C2)cc1
REMARK SMILES IDX 17 1 16 2 15 3 13 4 14 5 12 7 11 8 9 9 10 10 8 11 6 12 7 13
REMARK SMILES IDX 102 14 88 15 5 16 1 17 2 18 3 19 104 20 4 21 103 22 89 23
REMARK SMILES IDX 90 24 91 25 100 26 92 27 99 28 101 29 93 30 98 31 94 32
REMARK SMILES IDX 96 33 95 34 97 35 18 36 19 37 20 38 21 39 22 40 23 41 24 43
REMARK SMILES IDX 25 44 26 45 87 46 27 47 86 48 28 49 29 50 30 51 80 52 31 53
REMARK SMILES IDX 85 54 79 55 81 56 32 57 84 58 78 59 77 60 33 62 65 63 45 64
REMARK SMILES IDX 64 65 46 66 49 67 63 68 82 69 47 70 48 71 62 73 83 74 50 75
REMARK SMILES IDX 34 76 35 77 43 78 36 79 42 80 44 81 41 82 37 83 38 84 39 85
REMARK SMILES IDX 40 86 66 87 67 88 75 89 68 90 74 91 76 92 73 93 69 94 70 95
REMARK SMILES IDX 71 96 72 97 51 98 52 99 60 100 53 101 59 102 61 103 58 104
REMARK SMILES IDX 54 105 55 106 56 107 57 108
REMARK H PARENT 15 6 22 42 81 61 49 72
REMARK Flexibility Score: inf
ROOT
ATOM      1  C   UNL A   1      45.411  31.486  38.183  1.00  0.00     0.021 C 
ENDROOT
BRANCH   1   2
ATOM      2  C   UNL A   1      43.726  32.863  37.747  1.00  0.00     0.116 C 
BRANCH   2   3
ATOM      3  N   UNL A   1      42.135  32.548  37.735  1.00  0.00    -0.356 N 
ATOM      4  C   UNL A   1      41.285  31.830  36.976  1.00  0.00     0.220 C 
ATOM      5  O   UNL A   1      40.089  31.887  37.275  1.00  0.00    -0.275 OA
ATOM      6  H   UNL A   1      41.669  32.998  38.477  1.00  0.00     0.163 HD
BRANCH   4   7
ATOM      7  C   UNL A   1      41.767  30.972  35.847  1.00  0.00     0.110 C 
BRANCH   7   8
ATOM      8  C   UNL A   1      40.717  30.443  34.884  1.00  0.00     0.112 C 
BRANCH   8   9
ATOM      9  C   UNL A   1      40.645  31.127  33.505  1.00  0.00     0.243 C 
ATOM     10  O   UNL A   1      41.319  32.135  33.294  1.00  0.00    -0.273 OA
BRANCH   9  11
ATOM     11  N   UNL A   1      39.652  30.607  32.584  1.00  0.00    -0.230 N 
ATOM     12  C   UNL A   1      39.908  29.828  29.883  1.00  0.00     0.070 C 
ATOM     13  N   UNL A   1      40.367  29.514  31.316  1.00  0.00    -0.174 NA
ATOM     14  C   UNL A   1      38.585  31.535  29.897  1.00  0.00     0.086 C 
ATOM     15  C   UNL A   1      38.320  31.721  31.930  1.00  0.00     0.118 C 
BRANCH  12  16
ATOM     16  C   UNL A   1      39.891  28.288  28.857  1.00  0.00    -0.002 A 
ATOM     17  C   UNL A   1      39.796  24.557  26.470  1.00  0.00     0.044 C 
ATOM     18  C   UNL A   1      40.017  25.815  27.245  1.00  0.00    -0.051 A 
ATOM     19  C   UNL A   1      40.266  27.091  26.733  1.00  0.00     0.004 A 
ATOM     20  C   UNL A   1      39.855  25.734  28.581  1.00  0.00     0.004 A 
ATOM     21  C   UNL A   1      40.192  28.319  27.500  1.00  0.00     0.010 A 
ATOM     22  C   UNL A   1      39.785  26.915  29.306  1.00  0.00     0.010 A 
ENDBRANCH  12  16
BRANCH  15  23
ATOM     23  C   UNL A   1      36.959  31.330  32.856  1.00  0.00     0.045 C 
BRANCH  23  24
ATOM     24  C   UNL A   1      35.787  32.390  32.820  1.00  0.00     0.106 C 
ATOM     25  C   UNL A   1      35.696  33.141  31.519  1.00  0.00    -0.003 C 
ATOM     26  C   UNL A   1      35.637  33.445  33.936  1.00  0.00     0.253 C 
ATOM     27  C   UNL A   1      34.727  34.031  31.310  1.00  0.00    -0.003 A 
ATOM     28  N   UNL A   1      34.714  34.478  33.739  1.00  0.00    -0.212 NA
ATOM     29  O   UNL A   1      36.200  33.285  35.017  1.00  0.00    -0.272 OA
ATOM     30  C   UNL A   1      34.154  34.305  30.016  1.00  0.00     0.010 A 
ATOM     31  C   UNL A   1      34.296  34.756  32.537  1.00  0.00     0.077 A 
ATOM     32  C   UNL A   1      33.191  35.223  29.893  1.00  0.00     0.001 A 
ATOM     33  C   UNL A   1      33.410  35.945  32.228  1.00  0.00    -0.025 A 
ATOM     34  C   UNL A   1      32.886  36.101  30.995  1.00  0.00     0.005 A 
ATOM     35  C   UNL A   1      33.316  37.028  33.253  1.00  0.00     0.047 C 
ENDBRANCH  23  24
ENDBRANCH  15  23
ENDBRANCH   9  11
ENDBRANCH   8   9
ENDBRANCH   7   8
ENDBRANCH   4   7
ENDBRANCH   2   3
ENDBRANCH   1   2
BRANCH   1  36
ATOM     36  C   UNL A   1      44.811  29.672  37.649  1.00  0.00     0.002 C 
BRANCH  36  37
ATOM     37  C   UNL A   1      46.073  28.306  37.964  1.00  0.00     0.002 C 
BRANCH  37  38
ATOM     38  C   UNL A   1      45.891  26.693  38.880  1.00  0.00     0.021 C 
BRANCH  38  39
ATOM     39  C   UNL A   1      44.932  25.248  38.576  1.00  0.00     0.116 C 
BRANCH  39  40
ATOM     40  N   UNL A   1      43.479  25.335  38.183  1.00  0.00    -0.352 N 
ATOM     41  C   UNL A   1      42.677  25.889  37.165  1.00  0.00     0.251 C 
ATOM     42  H   UNL A   1      42.918  24.859  38.838  1.00  0.00     0.163 HD
ATOM     43  O   UNL A   1      41.455  25.830  37.363  1.00  0.00    -0.269 OA
BRANCH  41  44
ATOM     44  C   UNL A   1      43.098  26.468  35.832  1.00  0.00     0.039 A 
ATOM     45  C   UNL A   1      42.122  27.125  35.021  1.00  0.00     0.014 A 
ATOM     46  C   UNL A   1      44.371  26.344  35.301  1.00  0.00     0.014 A 
ATOM     47  C   UNL A   1      42.334  27.392  33.645  1.00  0.00     0.010 A 
ATOM     48  C   UNL A   1      44.589  26.621  33.937  1.00  0.00     0.010 A 
ATOM     49  C   UNL A   1      43.553  27.040  33.075  1.00  0.00    -0.014 A 
BRANCH  49  50
ATOM     50  C   UNL A   1      43.890  27.098  31.637  1.00  0.00     0.031 A 
ATOM     51  C   UNL A   1      44.136  25.819  30.915  1.00  0.00     0.074 A 
ATOM     52  C   UNL A   1      43.712  28.217  30.881  1.00  0.00     0.049 A 
ATOM     53  N   UNL A   1      44.578  25.715  29.705  1.00  0.00    -0.248 NA
ATOM     54  C   UNL A   1      43.925  24.524  31.552  1.00  0.00     0.031 C 
ATOM     55  C   UNL A   1      43.299  28.239  29.476  1.00  0.00     0.029 A 
ATOM     56  N   UNL A   1      43.949  29.568  31.163  1.00  0.00    -0.354 N 
ATOM     57  C   UNL A   1      44.369  24.414  29.301  1.00  0.00     0.074 A 
ATOM     58  C   UNL A   1      44.071  23.693  30.515  1.00  0.00     0.031 C 
ATOM     59  C   UNL A   1      43.488  29.465  28.968  1.00  0.00     0.029 A 
ATOM     60  C   UNL A   1      44.218  30.232  29.953  1.00  0.00     0.049 A 
ATOM     61  H   UNL A   1      43.931  29.982  32.056  1.00  0.00     0.167 HD
ATOM     62  C   UNL A   1      44.293  24.118  27.970  1.00  0.00     0.034 A 
ATOM     63  C   UNL A   1      45.343  30.962  29.719  1.00  0.00     0.034 A 
ATOM     64  C   UNL A   1      44.513  25.300  27.144  1.00  0.00     0.049 A 
ATOM     65  C   UNL A   1      46.112  30.499  28.510  1.00  0.00     0.074 A 
ATOM     66  C   UNL A   1      43.639  26.170  26.512  1.00  0.00     0.029 A 
ATOM     67  N   UNL A   1      45.769  25.880  27.082  1.00  0.00    -0.354 N 
ATOM     68  N   UNL A   1      45.875  29.368  27.911  1.00  0.00    -0.248 NA
ATOM     69  C   UNL A   1      47.234  31.219  27.917  1.00  0.00     0.031 C 
ATOM     70  C   UNL A   1      44.379  27.305  26.103  1.00  0.00     0.029 A 
ATOM     71  C   UNL A   1      45.703  27.113  26.463  1.00  0.00     0.049 A 
ATOM     72  H   UNL A   1      46.594  25.471  27.430  1.00  0.00     0.167 HD
ATOM     73  C   UNL A   1      46.829  29.141  26.959  1.00  0.00     0.074 A 
ATOM     74  C   UNL A   1      47.619  30.360  26.957  1.00  0.00     0.031 C 
ATOM     75  C   UNL A   1      46.894  27.939  26.313  1.00  0.00     0.034 A 
BRANCH  62  76
ATOM     76  C   UNL A   1      43.711  22.845  27.393  1.00  0.00     0.023 A 
ATOM     77  C   UNL A   1      44.489  22.101  26.476  1.00  0.00     0.031 A 
ATOM     78  C   UNL A   1      42.433  22.321  27.655  1.00  0.00     0.131 A 
ATOM     79  C   UNL A   1      43.978  20.979  25.803  1.00  0.00     0.055 A 
ATOM     80  C   UNL A   1      41.904  21.222  26.958  1.00  0.00     0.041 A 
ATOM     81  F   UNL A   1      41.657  22.809  28.632  1.00  0.00    -0.206 F 
ATOM     82  C   UNL A   1      42.673  20.551  26.017  1.00  0.00     0.022 A 
BRANCH  79  83
ATOM     83  S   UNL A   1      45.051  20.095  24.639  1.00  0.00     0.124 S 
ATOM     84  O   UNL A   1      46.384  20.438  25.126  1.00  0.00    -0.237 OA
ATOM     85  O   UNL A   1      44.633  18.709  24.819  1.00  0.00    -0.237 OA
ATOM     86  O   UNL A   1      44.700  20.681  23.345  1.00  0.00    -0.744 OA
ENDBRANCH  79  83
ENDBRANCH  62  76
BRANCH  63  87
ATOM     87  C   UNL A   1      45.966  31.544  30.930  1.00  0.00     0.023 A 
ATOM     88  C   UNL A   1      45.515  32.800  31.380  1.00  0.00     0.031 A 
ATOM     89  C   UNL A   1      46.716  30.749  31.808  1.00  0.00     0.131 A 
ATOM     90  C   UNL A   1      45.742  33.195  32.704  1.00  0.00     0.055 A 
ATOM     91  C   UNL A   1      46.970  31.160  33.117  1.00  0.00     0.041 A 
ATOM     92  F   UNL A   1      47.122  29.524  31.443  1.00  0.00    -0.206 F 
ATOM     93  C   UNL A   1      46.479  32.385  33.571  1.00  0.00     0.022 A 
BRANCH  90  94
ATOM     94  S   UNL A   1      44.871  34.662  33.336  1.00  0.00     0.124 S 
ATOM     95  O   UNL A   1      43.514  34.444  32.847  1.00  0.00    -0.237 OA
ATOM     96  O   UNL A   1      45.043  34.540  34.782  1.00  0.00    -0.237 OA
ATOM     97  O   UNL A   1      45.580  35.783  32.720  1.00  0.00    -0.744 OA
ENDBRANCH  90  94
ENDBRANCH  63  87
BRANCH  75  98
ATOM     98  C   UNL A   1      48.038  27.469  25.447  1.00  0.00     0.023 A 
ATOM     99  C   UNL A   1      49.211  26.916  25.974  1.00  0.00     0.031 A 
ATOM    100  C   UNL A   1      47.967  27.516  24.035  1.00  0.00     0.131 A 
ATOM    101  C   UNL A   1      50.292  26.573  25.149  1.00  0.00     0.055 A 
ATOM    102  C   UNL A   1      49.006  27.076  23.206  1.00  0.00     0.041 A 
ATOM    103  F   UNL A   1      46.887  27.984  23.393  1.00  0.00    -0.206 F 
ATOM    104  C   UNL A   1      50.193  26.628  23.763  1.00  0.00     0.022 A 
BRANCH 101 105
ATOM    105  S   UNL A   1      51.866  26.174  25.950  1.00  0.00     0.124 S 
ATOM    106  O   UNL A   1      52.007  27.276  26.898  1.00  0.00    -0.237 OA
ATOM    107  O   UNL A   1      51.594  24.866  26.539  1.00  0.00    -0.237 OA
ATOM    108  O   UNL A   1      52.824  26.175  24.848  1.00  0.00    -0.744 OA
ENDBRANCH 101 105
ENDBRANCH  75  98
ENDBRANCH  49  50
ENDBRANCH  41  44
ENDBRANCH  39  40
ENDBRANCH  38  39
ENDBRANCH  37  38
ENDBRANCH  36  37
ENDBRANCH   1  36
TORSDOF 22
ENDMDL
MODEL 3
REMARK VINA RESULT:     -11.9      4.388      5.726
REMARK SMILES Cc1ccc(C2=NN(C(=O)CCC(=O)NCCCCCCNC(=O)c3ccc(-c4c5nc(c(-c6cc(S(=O)(=O)[O-])ccc6F)c6ccc([nH]6)c(-c6cc(S(=O)(=O)[O-])ccc6F)c6nc(c(-c7cc(S(=O)(=O)[O-])ccc7F)c7ccc4[nH]7)C=C6)C=C5)cc3)[C@H](C[C@@H]3C=c4cccc(C)c4=NC3=O)C2)cc1
REMARK SMILES IDX 17 1 16 2 15 3 13 4 14 5 12 7 11 8 9 9 10 10 8 11 6 12 7 13
REMARK SMILES IDX 102 14 88 15 5 16 1 17 2 18 3 19 104 20 4 21 103 22 89 23
REMARK SMILES IDX 90 24 91 25 100 26 92 27 99 28 101 29 93 30 98 31 94 32
REMARK SMILES IDX 96 33 95 34 97 35 18 36 19 37 20 38 21 39 22 40 23 41 24 43
REMARK SMILES IDX 25 44 26 45 87 46 27 47 86 48 28 49 29 50 30 51 80 52 31 53
REMARK SMILES IDX 85 54 79 55 81 56 32 57 84 58 78 59 77 60 33 62 65 63 45 64
REMARK SMILES IDX 64 65 46 66 49 67 63 68 82 69 47 70 48 71 62 73 83 74 50 75
REMARK SMILES IDX 34 76 35 77 43 78 36 79 42 80 44 81 41 82 37 83 38 84 39 85
REMARK SMILES IDX 40 86 66 87 67 88 75 89 68 90 74 91 76 92 73 93 69 94 70 95
REMARK SMILES IDX 71 96 72 97 51 98 52 99 60 100 53 101 59 102 61 103 58 104
REMARK SMILES IDX 54 105 55 106 56 107 57 108
REMARK H PARENT 15 6 22 42 81 61 49 72
REMARK Flexibility Score: inf
ROOT
ATOM      1  C   UNL A   1      38.545  23.945  26.535  1.00  0.00     0.021 C 
ENDROOT
BRANCH   1   2
ATOM      2  C   UNL A   1      36.345  23.954  26.830  1.00  0.00     0.116 C 
BRANCH   2   3
ATOM      3  N   UNL A   1      35.359  22.708  27.151  1.00  0.00    -0.356 N 
ATOM      4  C   UNL A   1      34.058  22.543  27.461  1.00  0.00     0.220 C 
ATOM      5  O   UNL A   1      33.683  21.390  27.692  1.00  0.00    -0.275 OA
ATOM      6  H   UNL A   1      35.834  21.847  27.108  1.00  0.00     0.163 HD
BRANCH   4   7
ATOM      7  C   UNL A   1      33.100  23.695  27.485  1.00  0.00     0.110 C 
BRANCH   7   8
ATOM      8  C   UNL A   1      31.789  23.519  26.738  1.00  0.00     0.112 C 
BRANCH   8   9
ATOM      9  C   UNL A   1      31.256  24.755  25.989  1.00  0.00     0.243 C 
ATOM     10  O   UNL A   1      30.047  24.862  25.782  1.00  0.00    -0.273 OA
BRANCH   9  11
ATOM     11  N   UNL A   1      32.255  25.650  25.436  1.00  0.00    -0.230 N 
ATOM     12  C   UNL A   1      32.661  28.411  25.864  1.00  0.00     0.070 C 
ATOM     13  N   UNL A   1      32.657  27.034  26.548  1.00  0.00    -0.174 NA
ATOM     14  C   UNL A   1      32.119  28.195  23.785  1.00  0.00     0.086 C 
ATOM     15  C   UNL A   1      32.175  26.141  23.648  1.00  0.00     0.118 C 
BRANCH  12  16
ATOM     16  C   UNL A   1      33.869  29.541  26.692  1.00  0.00    -0.002 A 
ATOM     17  C   UNL A   1      36.835  32.200  28.632  1.00  0.00     0.044 C 
ATOM     18  C   UNL A   1      35.754  31.287  28.151  1.00  0.00    -0.051 A 
ATOM     19  C   UNL A   1      34.414  31.607  27.926  1.00  0.00     0.004 A 
ATOM     20  C   UNL A   1      36.135  30.043  27.794  1.00  0.00     0.004 A 
ATOM     21  C   UNL A   1      33.476  30.775  27.198  1.00  0.00     0.010 A 
ATOM     22  C   UNL A   1      35.230  29.256  27.097  1.00  0.00     0.010 A 
ENDBRANCH  12  16
BRANCH  15  23
ATOM     23  C   UNL A   1      33.335  25.165  22.897  1.00  0.00     0.045 C 
BRANCH  23  24
ATOM     24  C   UNL A   1      33.655  23.804  23.633  1.00  0.00     0.106 C 
ATOM     25  C   UNL A   1      35.014  23.248  23.306  1.00  0.00    -0.003 C 
ATOM     26  C   UNL A   1      32.676  22.614  23.561  1.00  0.00     0.253 C 
ATOM     27  C   UNL A   1      35.456  22.134  23.889  1.00  0.00    -0.003 A 
ATOM     28  N   UNL A   1      33.111  21.378  24.055  1.00  0.00    -0.212 NA
ATOM     29  O   UNL A   1      31.508  22.794  23.223  1.00  0.00    -0.272 OA
ATOM     30  C   UNL A   1      36.845  21.873  24.172  1.00  0.00     0.010 A 
ATOM     31  C   UNL A   1      34.384  21.150  24.203  1.00  0.00     0.077 A 
ATOM     32  C   UNL A   1      37.204  20.723  24.751  1.00  0.00     0.001 A 
ATOM     33  C   UNL A   1      34.937  19.795  24.597  1.00  0.00    -0.025 A 
ATOM     34  C   UNL A   1      36.247  19.652  24.881  1.00  0.00     0.005 A 
ATOM     35  C   UNL A   1      34.040  18.609  24.451  1.00  0.00     0.047 C 
ENDBRANCH  23  24
ENDBRANCH  15  23
ENDBRANCH   9  11
ENDBRANCH   8   9
ENDBRANCH   7   8
ENDBRANCH   4   7
ENDBRANCH   2   3
ENDBRANCH   1   2
BRANCH   1  36
ATOM     36  C   UNL A   1      39.317  25.029  28.007  1.00  0.00     0.002 C 
BRANCH  36  37
ATOM     37  C   UNL A   1      41.046  25.700  27.661  1.00  0.00     0.002 C 
BRANCH  37  38
ATOM     38  C   UNL A   1      41.907  26.022  26.040  1.00  0.00     0.021 C 
BRANCH  38  39
ATOM     39  C   UNL A   1      43.547  26.516  25.636  1.00  0.00     0.116 C 
BRANCH  39  40
ATOM     40  N   UNL A   1      44.677  25.520  25.572  1.00  0.00    -0.352 N 
ATOM     41  C   UNL A   1      45.519  24.798  26.442  1.00  0.00     0.251 C 
ATOM     42  H   UNL A   1      44.894  25.309  24.634  1.00  0.00     0.163 HD
ATOM     43  O   UNL A   1      46.451  24.192  25.894  1.00  0.00    -0.269 OA
BRANCH  41  44
ATOM     44  C   UNL A   1      45.393  24.594  27.936  1.00  0.00     0.039 A 
ATOM     45  C   UNL A   1      44.263  23.886  28.447  1.00  0.00     0.014 A 
ATOM     46  C   UNL A   1      46.278  25.114  28.865  1.00  0.00     0.014 A 
ATOM     47  C   UNL A   1      43.890  23.937  29.814  1.00  0.00     0.010 A 
ATOM     48  C   UNL A   1      45.918  25.154  30.226  1.00  0.00     0.010 A 
ATOM     49  C   UNL A   1      44.680  24.669  30.696  1.00  0.00    -0.014 A 
BRANCH  49  50
ATOM     50  C   UNL A   1      44.362  24.960  32.110  1.00  0.00     0.031 A 
ATOM     51  C   UNL A   1      43.951  26.344  32.473  1.00  0.00     0.074 A 
ATOM     52  C   UNL A   1      44.153  23.984  33.036  1.00  0.00     0.049 A 
ATOM     53  N   UNL A   1      43.785  26.785  33.676  1.00  0.00    -0.248 NA
ATOM     54  C   UNL A   1      43.729  27.370  31.460  1.00  0.00     0.031 C 
ATOM     55  C   UNL A   1      43.191  24.048  34.139  1.00  0.00     0.029 A 
ATOM     56  N   UNL A   1      44.810  22.768  33.259  1.00  0.00    -0.354 N 
ATOM     57  C   UNL A   1      43.111  27.985  33.585  1.00  0.00     0.074 A 
ATOM     58  C   UNL A   1      43.204  28.357  32.194  1.00  0.00     0.031 C 
ATOM     59  C   UNL A   1      43.433  23.058  35.010  1.00  0.00     0.029 A 
ATOM     60  C   UNL A   1      44.680  22.438  34.621  1.00  0.00     0.049 A 
ATOM     61  H   UNL A   1      45.282  22.235  32.580  1.00  0.00     0.167 HD
ATOM     62  C   UNL A   1      42.396  28.446  34.653  1.00  0.00     0.034 A 
ATOM     63  C   UNL A   1      45.732  22.182  35.445  1.00  0.00     0.034 A 
ATOM     64  C   UNL A   1      42.517  27.558  35.805  1.00  0.00     0.049 A 
ATOM     65  C   UNL A   1      45.763  23.067  36.664  1.00  0.00     0.074 A 
ATOM     66  C   UNL A   1      41.697  26.557  36.298  1.00  0.00     0.029 A 
ATOM     67  N   UNL A   1      43.721  27.458  36.481  1.00  0.00    -0.354 N 
ATOM     68  N   UNL A   1      45.022  24.130  36.785  1.00  0.00    -0.248 NA
ATOM     69  C   UNL A   1      46.654  22.877  37.803  1.00  0.00     0.031 C 
ATOM     70  C   UNL A   1      42.438  25.822  37.254  1.00  0.00     0.029 A 
ATOM     71  C   UNL A   1      43.695  26.393  37.359  1.00  0.00     0.049 A 
ATOM     72  H   UNL A   1      44.488  28.062  36.354  1.00  0.00     0.167 HD
ATOM     73  C   UNL A   1      45.382  24.817  37.910  1.00  0.00     0.074 A 
ATOM     74  C   UNL A   1      46.364  23.958  38.547  1.00  0.00     0.031 C 
ATOM     75  C   UNL A   1      44.865  26.057  38.161  1.00  0.00     0.034 A 
BRANCH  62  76
ATOM     76  C   UNL A   1      41.330  29.520  34.589  1.00  0.00     0.023 A 
ATOM     77  C   UNL A   1      40.154  29.261  33.850  1.00  0.00     0.031 A 
ATOM     78  C   UNL A   1      41.397  30.795  35.179  1.00  0.00     0.131 A 
ATOM     79  C   UNL A   1      39.173  30.245  33.640  1.00  0.00     0.055 A 
ATOM     80  C   UNL A   1      40.439  31.793  34.941  1.00  0.00     0.041 A 
ATOM     81  F   UNL A   1      42.359  31.118  36.053  1.00  0.00    -0.206 F 
ATOM     82  C   UNL A   1      39.324  31.526  34.157  1.00  0.00     0.022 A 
BRANCH  79  83
ATOM     83  S   UNL A   1      37.702  29.818  32.670  1.00  0.00     0.124 S 
ATOM     84  O   UNL A   1      37.383  28.482  33.163  1.00  0.00    -0.237 OA
ATOM     85  O   UNL A   1      36.770  30.880  33.033  1.00  0.00    -0.237 OA
ATOM     86  O   UNL A   1      38.181  29.866  31.288  1.00  0.00    -0.744 OA
ENDBRANCH  79  83
ENDBRANCH  62  76
BRANCH  63  87
ATOM     87  C   UNL A   1      46.940  21.660  34.764  1.00  0.00     0.023 A 
ATOM     88  C   UNL A   1      47.970  22.564  34.438  1.00  0.00     0.031 A 
ATOM     89  C   UNL A   1      47.227  20.288  34.757  1.00  0.00     0.131 A 
ATOM     90  C   UNL A   1      49.267  22.093  34.199  1.00  0.00     0.055 A 
ATOM     91  C   UNL A   1      48.512  19.820  34.485  1.00  0.00     0.041 A 
ATOM     92  F   UNL A   1      46.294  19.393  35.114  1.00  0.00    -0.206 F 
ATOM     93  C   UNL A   1      49.540  20.723  34.209  1.00  0.00     0.022 A 
BRANCH  90  94
ATOM     94  S   UNL A   1      50.626  23.299  34.102  1.00  0.00     0.124 S 
ATOM     95  O   UNL A   1      49.991  24.512  34.605  1.00  0.00    -0.237 OA
ATOM     96  O   UNL A   1      51.638  22.714  34.979  1.00  0.00    -0.237 OA
ATOM     97  O   UNL A   1      50.974  23.323  32.683  1.00  0.00    -0.744 OA
ENDBRANCH  90  94
ENDBRANCH  63  87
BRANCH  75  98
ATOM     98  C   UNL A   1      45.368  27.021  39.209  1.00  0.00     0.023 A 
ATOM     99  C   UNL A   1      46.190  28.112  38.904  1.00  0.00     0.031 A 
ATOM    100  C   UNL A   1      44.991  26.902  40.568  1.00  0.00     0.131 A 
ATOM    101  C   UNL A   1      46.714  28.937  39.911  1.00  0.00     0.055 A 
ATOM    102  C   UNL A   1      45.431  27.787  41.559  1.00  0.00     0.041 A 
ATOM    103  F   UNL A   1      44.176  25.928  40.996  1.00  0.00    -0.206 F 
ATOM    104  C   UNL A   1      46.324  28.796  41.238  1.00  0.00     0.022 A 
BRANCH 101 105
ATOM    105  S   UNL A   1      48.011  30.110  39.445  1.00  0.00     0.124 S 
ATOM    106  O   UNL A   1      48.684  29.396  38.362  1.00  0.00    -0.237 OA
ATOM    107  O   UNL A   1      47.242  31.284  39.045  1.00  0.00    -0.237 OA
ATOM    108  O   UNL A   1      48.793  30.263  40.668  1.00  0.00    -0.744 OA
ENDBRANCH 101 105
ENDBRANCH  75  98
ENDBRANCH  49  50
ENDBRANCH  41  44
ENDBRANCH  39  40
ENDBRANCH  38  39
ENDBRANCH  37  38
ENDBRANCH  36  37
ENDBRANCH   1  36
TORSDOF 22
ENDMDL
