MODEL 1
REMARK VINA RESULT:     -12.0      0.000      0.000
REMARK SMILES [H]/N=C1\C=CC2=NC(C(=O)NCCCCCCNC(=O)c3ccc(-c4c5nc(c(-c6cc(S(=O)(=O)[O-])ccc6F)c6ccc([nH]6)c(-c6cc(S(=O)(=O)[O-])ccc6F)c6nc(c(-c7cc(S(=O)(=O)[O-])ccc7F)c7ccc4[nH]7)C=C6)C=C5)cc3)=C[C@@H]2C1
REMARK SMILES IDX 16 1 15 2 14 3 13 4 12 5 11 6 9 7 10 8 8 10 2 11 3 12 1 13
REMARK SMILES IDX 4 14 86 15 5 16 85 17 6 18 84 19 7 20 17 21 18 22 19 23
REMARK SMILES IDX 20 25 21 26 22 27 83 28 23 29 82 30 24 31 25 32 26 33 76 34
REMARK SMILES IDX 27 35 81 36 75 37 77 38 28 39 80 40 74 41 73 42 29 44 61 45
REMARK SMILES IDX 41 46 60 47 42 48 45 49 59 50 78 51 43 52 44 53 58 55 79 56
REMARK SMILES IDX 46 57 30 58 31 59 39 60 32 61 38 62 40 63 37 64 33 65 34 66
REMARK SMILES IDX 35 67 36 68 62 69 63 70 71 71 64 72 70 73 72 74 69 75 65 76
REMARK SMILES IDX 66 77 67 78 68 79 47 80 48 81 56 82 49 83 55 84 57 85 54 86
REMARK SMILES IDX 50 87 51 88 52 89 53 90
REMARK H PARENT 11 9 18 24 77 43 45 54
REMARK Flexibility Score: inf
ROOT
ATOM      1  C   UNL A   1      37.820  19.886  24.843  1.00  0.00     0.021 C 
ENDROOT
BRANCH   1   2
ATOM      2  C   UNL A   1      36.542  20.733  24.922  1.00  0.00     0.002 C 
BRANCH   2   3
ATOM      3  C   UNL A   1      36.701  22.233  24.624  1.00  0.00     0.002 C 
BRANCH   3   4
ATOM      4  C   UNL A   1      36.508  23.175  25.820  1.00  0.00     0.021 C 
BRANCH   4   5
ATOM      5  C   UNL A   1      35.451  24.258  25.603  1.00  0.00     0.116 C 
BRANCH   5   6
ATOM      6  N   UNL A   1      34.316  24.034  26.472  1.00  0.00    -0.351 N 
ATOM      7  C   UNL A   1      33.250  23.197  26.467  1.00  0.00     0.269 C 
ATOM      8  O   UNL A   1      32.404  23.406  27.344  1.00  0.00    -0.268 OA
ATOM      9  H   UNL A   1      34.318  24.633  27.254  1.00  0.00     0.163 HD
BRANCH   7  10
ATOM     10  C   UNL A   1      33.110  21.997  25.559  1.00  0.00     0.125 C 
ATOM     11  N   UNL A   1      31.877  17.584  21.986  1.00  0.00    -0.305 NA
ATOM     12  C   UNL A   1      32.144  18.318  23.016  1.00  0.00     0.032 C 
ATOM     13  H   UNL A   1      31.883  16.602  22.066  1.00  0.00     0.187 HD
ATOM     14  C   UNL A   1      32.422  17.718  24.347  1.00  0.00     0.025 C 
ATOM     15  C   UNL A   1      32.126  19.831  22.858  1.00  0.00     0.069 C 
ATOM     16  C   UNL A   1      32.823  18.461  25.381  1.00  0.00     0.026 C 
ATOM     17  C   UNL A   1      33.108  20.473  23.807  1.00  0.00     0.069 C 
ATOM     18  C   UNL A   1      33.017  19.899  25.191  1.00  0.00     0.049 C 
ATOM     19  C   UNL A   1      32.945  21.899  24.230  1.00  0.00     0.017 C 
ATOM     20  N   UNL A   1      33.134  20.747  26.158  1.00  0.00    -0.247 NA
ENDBRANCH   7  10
ENDBRANCH   5   6
ENDBRANCH   4   5
ENDBRANCH   3   4
ENDBRANCH   2   3
ENDBRANCH   1   2
BRANCH   1  21
ATOM     21  C   UNL A   1      38.944  20.371  25.749  1.00  0.00     0.116 C 
BRANCH  21  22
ATOM     22  N   UNL A   1      40.031  19.400  25.862  1.00  0.00    -0.352 N 
ATOM     23  C   UNL A   1      41.378  19.656  26.006  1.00  0.00     0.251 C 
ATOM     24  H   UNL A   1      39.771  18.452  25.832  1.00  0.00     0.163 HD
ATOM     25  O   UNL A   1      42.207  18.808  25.660  1.00  0.00    -0.269 OA
BRANCH  23  26
ATOM     26  C   UNL A   1      41.818  20.939  26.585  1.00  0.00     0.039 A 
ATOM     27  C   UNL A   1      42.367  21.954  25.794  1.00  0.00     0.014 A 
ATOM     28  C   UNL A   1      41.683  21.116  27.963  1.00  0.00     0.014 A 
ATOM     29  C   UNL A   1      42.706  23.169  26.392  1.00  0.00     0.010 A 
ATOM     30  C   UNL A   1      41.889  22.351  28.525  1.00  0.00     0.010 A 
ATOM     31  C   UNL A   1      42.448  23.365  27.760  1.00  0.00    -0.014 A 
BRANCH  31  32
ATOM     32  C   UNL A   1      42.552  24.688  28.376  1.00  0.00     0.031 A 
ATOM     33  C   UNL A   1      41.373  25.542  28.082  1.00  0.00     0.074 A 
ATOM     34  C   UNL A   1      43.461  25.004  29.328  1.00  0.00     0.049 A 
ATOM     35  N   UNL A   1      41.305  26.525  27.247  1.00  0.00    -0.248 NA
ATOM     36  C   UNL A   1      40.054  25.110  28.586  1.00  0.00     0.031 C 
ATOM     37  C   UNL A   1      44.484  24.128  29.908  1.00  0.00     0.029 A 
ATOM     38  N   UNL A   1      43.599  26.141  30.071  1.00  0.00    -0.354 N 
ATOM     39  C   UNL A   1      40.023  27.040  27.401  1.00  0.00     0.074 A 
ATOM     40  C   UNL A   1      39.247  25.968  27.958  1.00  0.00     0.031 C 
ATOM     41  C   UNL A   1      44.968  24.677  31.045  1.00  0.00     0.029 A 
ATOM     42  C   UNL A   1      44.401  26.007  31.210  1.00  0.00     0.049 A 
ATOM     43  H   UNL A   1      43.168  26.991  29.823  1.00  0.00     0.167 HD
ATOM     44  C   UNL A   1      39.823  28.388  27.423  1.00  0.00     0.034 A 
ATOM     45  C   UNL A   1      44.574  26.903  32.226  1.00  0.00     0.034 A 
ATOM     46  C   UNL A   1      40.989  29.082  26.896  1.00  0.00     0.049 A 
ATOM     47  C   UNL A   1      44.199  28.232  31.681  1.00  0.00     0.074 A 
ATOM     48  C   UNL A   1      41.739  28.980  25.737  1.00  0.00     0.029 A 
ATOM     49  N   UNL A   1      41.793  29.766  27.784  1.00  0.00    -0.354 N 
ATOM     50  N   UNL A   1      44.869  28.825  30.732  1.00  0.00    -0.248 NA
ATOM     51  C   UNL A   1      42.813  28.653  31.815  1.00  0.00     0.031 C 
ATOM     52  C   UNL A   1      43.095  29.134  26.158  1.00  0.00     0.029 A 
ATOM     53  C   UNL A   1      43.099  29.439  27.520  1.00  0.00     0.049 A 
ATOM     54  H   UNL A   1      41.484  30.383  28.487  1.00  0.00     0.167 HD
ATOM     55  C   UNL A   1      43.902  29.317  29.871  1.00  0.00     0.074 A 
ATOM     56  C   UNL A   1      42.656  29.271  30.640  1.00  0.00     0.031 C 
ATOM     57  C   UNL A   1      44.142  29.424  28.529  1.00  0.00     0.034 A 
BRANCH  44  58
ATOM     58  C   UNL A   1      38.826  29.094  28.336  1.00  0.00     0.023 A 
ATOM     59  C   UNL A   1      39.047  28.948  29.718  1.00  0.00     0.031 A 
ATOM     60  C   UNL A   1      37.551  29.590  27.979  1.00  0.00     0.131 A 
ATOM     61  C   UNL A   1      37.995  29.083  30.637  1.00  0.00     0.055 A 
ATOM     62  C   UNL A   1      36.526  29.796  28.908  1.00  0.00     0.041 A 
ATOM     63  F   UNL A   1      37.183  29.844  26.720  1.00  0.00    -0.206 F 
ATOM     64  C   UNL A   1      36.728  29.495  30.241  1.00  0.00     0.022 A 
BRANCH  61  65
ATOM     65  S   UNL A   1      38.271  28.487  32.322  1.00  0.00     0.124 S 
ATOM     66  O   UNL A   1      36.987  28.799  32.939  1.00  0.00    -0.237 OA
ATOM     67  O   UNL A   1      38.553  27.074  32.094  1.00  0.00    -0.237 OA
ATOM     68  O   UNL A   1      39.405  29.285  32.779  1.00  0.00    -0.744 OA
ENDBRANCH  61  65
ENDBRANCH  44  58
BRANCH  45  69
ATOM     69  C   UNL A   1      44.752  26.646  33.693  1.00  0.00     0.023 A 
ATOM     70  C   UNL A   1      43.696  26.721  34.637  1.00  0.00     0.031 A 
ATOM     71  C   UNL A   1      45.951  26.054  34.148  1.00  0.00     0.131 A 
ATOM     72  C   UNL A   1      43.867  26.214  35.954  1.00  0.00     0.055 A 
ATOM     73  C   UNL A   1      46.113  25.554  35.444  1.00  0.00     0.041 A 
ATOM     74  F   UNL A   1      46.987  25.854  33.319  1.00  0.00    -0.206 F 
ATOM     75  C   UNL A   1      45.068  25.622  36.350  1.00  0.00     0.022 A 
BRANCH  72  76
ATOM     76  S   UNL A   1      42.499  26.230  37.168  1.00  0.00     0.124 S 
ATOM     77  O   UNL A   1      43.208  26.296  38.439  1.00  0.00    -0.237 OA
ATOM     78  O   UNL A   1      41.745  27.417  36.780  1.00  0.00    -0.237 OA
ATOM     79  O   UNL A   1      41.806  24.964  36.920  1.00  0.00    -0.744 OA
ENDBRANCH  72  76
ENDBRANCH  45  69
BRANCH  57  80
ATOM     80  C   UNL A   1      45.576  29.350  28.040  1.00  0.00     0.023 A 
ATOM     81  C   UNL A   1      46.479  30.437  27.966  1.00  0.00     0.031 A 
ATOM     82  C   UNL A   1      46.068  28.074  27.713  1.00  0.00     0.131 A 
ATOM     83  C   UNL A   1      47.812  30.217  27.558  1.00  0.00     0.055 A 
ATOM     84  C   UNL A   1      47.390  27.858  27.334  1.00  0.00     0.041 A 
ATOM     85  F   UNL A   1      45.268  26.996  27.785  1.00  0.00    -0.206 F 
ATOM     86  C   UNL A   1      48.266  28.932  27.246  1.00  0.00     0.022 A 
BRANCH  83  87
ATOM     87  S   UNL A   1      48.981  31.606  27.388  1.00  0.00     0.124 S 
ATOM     88  O   UNL A   1      49.961  31.117  26.425  1.00  0.00    -0.237 OA
ATOM     89  O   UNL A   1      48.117  32.690  26.927  1.00  0.00    -0.237 OA
ATOM     90  O   UNL A   1      49.499  31.781  28.747  1.00  0.00    -0.744 OA
ENDBRANCH  83  87
ENDBRANCH  57  80
ENDBRANCH  31  32
ENDBRANCH  23  26
ENDBRANCH  21  22
ENDBRANCH   1  21
TORSDOF 16
ENDMDL
MODEL 2
REMARK VINA RESULT:     -11.9      2.050      3.477
REMARK SMILES [H]/N=C1\C=CC2=NC(C(=O)NCCCCCCNC(=O)c3ccc(-c4c5nc(c(-c6cc(S(=O)(=O)[O-])ccc6F)c6ccc([nH]6)c(-c6cc(S(=O)(=O)[O-])ccc6F)c6nc(c(-c7cc(S(=O)(=O)[O-])ccc7F)c7ccc4[nH]7)C=C6)C=C5)cc3)=C[C@@H]2C1
REMARK SMILES IDX 16 1 15 2 14 3 13 4 12 5 11 6 9 7 10 8 8 10 2 11 3 12 1 13
REMARK SMILES IDX 4 14 86 15 5 16 85 17 6 18 84 19 7 20 17 21 18 22 19 23
REMARK SMILES IDX 20 25 21 26 22 27 83 28 23 29 82 30 24 31 25 32 26 33 76 34
REMARK SMILES IDX 27 35 81 36 75 37 77 38 28 39 80 40 74 41 73 42 29 44 61 45
REMARK SMILES IDX 41 46 60 47 42 48 45 49 59 50 78 51 43 52 44 53 58 55 79 56
REMARK SMILES IDX 46 57 30 58 31 59 39 60 32 61 38 62 40 63 37 64 33 65 34 66
REMARK SMILES IDX 35 67 36 68 62 69 63 70 71 71 64 72 70 73 72 74 69 75 65 76
REMARK SMILES IDX 66 77 67 78 68 79 47 80 48 81 56 82 49 83 55 84 57 85 54 86
REMARK SMILES IDX 50 87 51 88 52 89 53 90
REMARK H PARENT 11 9 18 24 77 43 45 54
REMARK Flexibility Score: inf
ROOT
ATOM      1  C   UNL A   1      36.968  20.380  25.041  1.00  0.00     0.021 C 
ENDROOT
BRANCH   1   2
ATOM      2  C   UNL A   1      35.986  21.543  25.242  1.00  0.00     0.002 C 
BRANCH   2   3
ATOM      3  C   UNL A   1      34.817  21.285  26.206  1.00  0.00     0.002 C 
BRANCH   3   4
ATOM      4  C   UNL A   1      34.615  22.336  27.307  1.00  0.00     0.021 C 
BRANCH   4   5
ATOM      5  C   UNL A   1      33.245  22.285  27.982  1.00  0.00     0.116 C 
BRANCH   5   6
ATOM      6  N   UNL A   1      32.193  22.304  26.988  1.00  0.00    -0.351 N 
ATOM      7  C   UNL A   1      31.541  23.270  26.297  1.00  0.00     0.269 C 
ATOM      8  O   UNL A   1      30.586  22.883  25.613  1.00  0.00    -0.268 OA
ATOM      9  H   UNL A   1      31.876  21.400  26.760  1.00  0.00     0.163 HD
BRANCH   7  10
ATOM     10  C   UNL A   1      31.976  24.715  26.228  1.00  0.00     0.125 C 
ATOM     11  N   UNL A   1      34.200  30.081  26.395  1.00  0.00    -0.305 NA
ATOM     12  C   UNL A   1      33.473  29.026  26.566  1.00  0.00     0.032 C 
ATOM     13  H   UNL A   1      33.878  30.957  26.709  1.00  0.00     0.187 HD
ATOM     14  C   UNL A   1      32.165  29.089  27.270  1.00  0.00     0.025 C 
ATOM     15  C   UNL A   1      33.999  27.688  26.067  1.00  0.00     0.069 C 
ATOM     16  C   UNL A   1      31.353  28.031  27.337  1.00  0.00     0.026 C 
ATOM     17  C   UNL A   1      32.857  26.788  25.663  1.00  0.00     0.069 C 
ATOM     18  C   UNL A   1      31.750  26.787  26.677  1.00  0.00     0.049 C 
ATOM     19  C   UNL A   1      33.027  25.302  25.631  1.00  0.00     0.017 C 
ATOM     20  N   UNL A   1      31.192  25.643  26.897  1.00  0.00    -0.247 NA
ENDBRANCH   7  10
ENDBRANCH   5   6
ENDBRANCH   4   5
ENDBRANCH   3   4
ENDBRANCH   2   3
ENDBRANCH   1   2
BRANCH   1  21
ATOM     21  C   UNL A   1      38.433  20.771  25.185  1.00  0.00     0.116 C 
BRANCH  21  22
ATOM     22  N   UNL A   1      39.283  19.637  25.543  1.00  0.00    -0.352 N 
ATOM     23  C   UNL A   1      40.607  19.665  25.927  1.00  0.00     0.251 C 
ATOM     24  H   UNL A   1      38.862  18.749  25.507  1.00  0.00     0.163 HD
ATOM     25  O   UNL A   1      41.313  18.661  25.781  1.00  0.00    -0.269 OA
BRANCH  23  26
ATOM     26  C   UNL A   1      41.168  20.893  26.521  1.00  0.00     0.039 A 
ATOM     27  C   UNL A   1      41.807  21.863  25.741  1.00  0.00     0.014 A 
ATOM     28  C   UNL A   1      41.056  21.062  27.901  1.00  0.00     0.014 A 
ATOM     29  C   UNL A   1      42.261  23.032  26.354  1.00  0.00     0.010 A 
ATOM     30  C   UNL A   1      41.378  22.264  28.480  1.00  0.00     0.010 A 
ATOM     31  C   UNL A   1      42.027  23.233  27.726  1.00  0.00    -0.014 A 
BRANCH  31  32
ATOM     32  C   UNL A   1      42.258  24.531  28.358  1.00  0.00     0.031 A 
ATOM     33  C   UNL A   1      41.171  25.501  28.069  1.00  0.00     0.074 A 
ATOM     34  C   UNL A   1      43.187  24.744  29.320  1.00  0.00     0.049 A 
ATOM     35  N   UNL A   1      41.206  26.496  27.246  1.00  0.00    -0.248 NA
ATOM     36  C   UNL A   1      39.812  25.195  28.560  1.00  0.00     0.031 C 
ATOM     37  C   UNL A   1      44.114  23.764  29.895  1.00  0.00     0.029 A 
ATOM     38  N   UNL A   1      43.431  25.852  30.078  1.00  0.00    -0.354 N 
ATOM     39  C   UNL A   1      39.981  27.133  27.399  1.00  0.00     0.074 A 
ATOM     40  C   UNL A   1      39.099  26.137  27.938  1.00  0.00     0.031 C 
ATOM     41  C   UNL A   1      44.642  24.249  31.041  1.00  0.00     0.029 A 
ATOM     42  C   UNL A   1      44.208  25.626  31.220  1.00  0.00     0.049 A 
ATOM     43  H   UNL A   1      43.089  26.744  29.838  1.00  0.00     0.167 HD
ATOM     44  C   UNL A   1      39.915  28.495  27.438  1.00  0.00     0.034 A 
ATOM     45  C   UNL A   1      44.462  26.489  32.248  1.00  0.00     0.034 A 
ATOM     46  C   UNL A   1      41.148  29.076  26.925  1.00  0.00     0.049 A 
ATOM     47  C   UNL A   1      44.224  27.854  31.718  1.00  0.00     0.074 A 
ATOM     48  C   UNL A   1      41.892  28.914  25.770  1.00  0.00     0.029 A 
ATOM     49  N   UNL A   1      42.010  29.666  27.827  1.00  0.00    -0.354 N 
ATOM     50  N   UNL A   1      44.956  28.390  30.781  1.00  0.00    -0.248 NA
ATOM     51  C   UNL A   1      42.886  28.408  31.849  1.00  0.00     0.031 C 
ATOM     52  C   UNL A   1      43.253  28.928  26.201  1.00  0.00     0.029 A 
ATOM     53  C   UNL A   1      43.278  29.214  27.567  1.00  0.00     0.049 A 
ATOM     54  H   UNL A   1      41.758  30.302  28.536  1.00  0.00     0.167 HD
ATOM     55  C   UNL A   1      44.048  28.986  29.920  1.00  0.00     0.074 A 
ATOM     56  C   UNL A   1      42.799  29.053  30.682  1.00  0.00     0.031 C 
ATOM     57  C   UNL A   1      44.308  29.084  28.582  1.00  0.00     0.034 A 
BRANCH  44  58
ATOM     58  C   UNL A   1      38.986  29.284  28.354  1.00  0.00     0.023 A 
ATOM     59  C   UNL A   1      39.266  29.204  29.731  1.00  0.00     0.031 A 
ATOM     60  C   UNL A   1      37.714  29.808  28.027  1.00  0.00     0.131 A 
ATOM     61  C   UNL A   1      38.262  29.427  30.686  1.00  0.00     0.055 A 
ATOM     62  C   UNL A   1      36.741  30.101  28.987  1.00  0.00     0.041 A 
ATOM     63  F   UNL A   1      37.298  30.008  26.772  1.00  0.00    -0.206 F 
ATOM     64  C   UNL A   1      36.994  29.864  30.325  1.00  0.00     0.022 A 
BRANCH  61  65
ATOM     65  S   UNL A   1      38.595  28.911  32.387  1.00  0.00     0.124 S 
ATOM     66  O   UNL A   1      37.270  28.468  32.804  1.00  0.00    -0.237 OA
ATOM     67  O   UNL A   1      39.594  27.867  32.190  1.00  0.00    -0.237 OA
ATOM     68  O   UNL A   1      39.083  30.134  33.019  1.00  0.00    -0.744 OA
ENDBRANCH  61  65
ENDBRANCH  44  58
BRANCH  45  69
ATOM     69  C   UNL A   1      44.603  26.197  33.713  1.00  0.00     0.023 A 
ATOM     70  C   UNL A   1      43.566  26.403  34.658  1.00  0.00     0.031 A 
ATOM     71  C   UNL A   1      45.713  25.447  34.162  1.00  0.00     0.131 A 
ATOM     72  C   UNL A   1      43.668  25.866  35.971  1.00  0.00     0.055 A 
ATOM     73  C   UNL A   1      45.807  24.919  35.454  1.00  0.00     0.041 A 
ATOM     74  F   UNL A   1      46.714  25.119  33.331  1.00  0.00    -0.206 F 
ATOM     75  C   UNL A   1      44.779  25.117  36.360  1.00  0.00     0.022 A 
BRANCH  72  76
ATOM     76  S   UNL A   1      42.313  26.053  37.185  1.00  0.00     0.124 S 
ATOM     77  O   UNL A   1      43.034  26.343  38.418  1.00  0.00    -0.237 OA
ATOM     78  O   UNL A   1      41.527  27.142  36.618  1.00  0.00    -0.237 OA
ATOM     79  O   UNL A   1      41.648  24.749  37.159  1.00  0.00    -0.744 OA
ENDBRANCH  72  76
ENDBRANCH  45  69
BRANCH  57  80
ATOM     80  C   UNL A   1      45.730  28.875  28.100  1.00  0.00     0.023 A 
ATOM     81  C   UNL A   1      46.301  27.635  27.726  1.00  0.00     0.031 A 
ATOM     82  C   UNL A   1      46.518  30.028  27.932  1.00  0.00     0.131 A 
ATOM     83  C   UNL A   1      47.619  27.589  27.225  1.00  0.00     0.055 A 
ATOM     84  C   UNL A   1      47.810  29.981  27.414  1.00  0.00     0.041 A 
ATOM     85  F   UNL A   1      46.028  31.239  28.245  1.00  0.00    -0.206 F 
ATOM     86  C   UNL A   1      48.369  28.759  27.067  1.00  0.00     0.022 A 
BRANCH  83  87
ATOM     87  S   UNL A   1      48.405  26.000  26.800  1.00  0.00     0.124 S 
ATOM     88  O   UNL A   1      47.423  25.348  25.941  1.00  0.00    -0.237 OA
ATOM     89  O   UNL A   1      49.642  26.424  26.149  1.00  0.00    -0.237 OA
ATOM     90  O   UNL A   1      48.595  25.356  28.102  1.00  0.00    -0.744 OA
ENDBRANCH  83  87
ENDBRANCH  57  80
ENDBRANCH  31  32
ENDBRANCH  23  26
ENDBRANCH  21  22
ENDBRANCH   1  21
TORSDOF 16
ENDMDL
MODEL 3
REMARK VINA RESULT:     -11.4      1.583      1.871
REMARK SMILES [H]/N=C1\C=CC2=NC(C(=O)NCCCCCCNC(=O)c3ccc(-c4c5nc(c(-c6cc(S(=O)(=O)[O-])ccc6F)c6ccc([nH]6)c(-c6cc(S(=O)(=O)[O-])ccc6F)c6nc(c(-c7cc(S(=O)(=O)[O-])ccc7F)c7ccc4[nH]7)C=C6)C=C5)cc3)=C[C@@H]2C1
REMARK SMILES IDX 16 1 15 2 14 3 13 4 12 5 11 6 9 7 10 8 8 10 2 11 3 12 1 13
REMARK SMILES IDX 4 14 86 15 5 16 85 17 6 18 84 19 7 20 17 21 18 22 19 23
REMARK SMILES IDX 20 25 21 26 22 27 83 28 23 29 82 30 24 31 25 32 26 33 76 34
REMARK SMILES IDX 27 35 81 36 75 37 77 38 28 39 80 40 74 41 73 42 29 44 61 45
REMARK SMILES IDX 41 46 60 47 42 48 45 49 59 50 78 51 43 52 44 53 58 55 79 56
REMARK SMILES IDX 46 57 30 58 31 59 39 60 32 61 38 62 40 63 37 64 33 65 34 66
REMARK SMILES IDX 35 67 36 68 62 69 63 70 71 71 64 72 70 73 72 74 69 75 65 76
REMARK SMILES IDX 66 77 67 78 68 79 47 80 48 81 56 82 49 83 55 84 57 85 54 86
REMARK SMILES IDX 50 87 51 88 52 89 53 90
REMARK H PARENT 11 9 18 24 77 43 45 54
REMARK Flexibility Score: inf
ROOT
ATOM      1  C   UNL A   1      37.916  20.366  24.614  1.00  0.00     0.021 C 
ENDROOT
BRANCH   1   2
ATOM      2  C   UNL A   1      37.325  21.720  24.196  1.00  0.00     0.002 C 
BRANCH   2   3
ATOM      3  C   UNL A   1      36.733  22.579  25.325  1.00  0.00     0.002 C 
BRANCH   3   4
ATOM      4  C   UNL A   1      35.659  23.590  24.900  1.00  0.00     0.021 C 
BRANCH   4   5
ATOM      5  C   UNL A   1      34.815  23.145  23.706  1.00  0.00     0.116 C 
BRANCH   5   6
ATOM      6  N   UNL A   1      33.432  22.983  24.100  1.00  0.00    -0.351 N 
ATOM      7  C   UNL A   1      32.641  21.931  24.422  1.00  0.00     0.269 C 
ATOM      8  O   UNL A   1      31.443  22.194  24.582  1.00  0.00    -0.268 OA
ATOM      9  H   UNL A   1      32.951  23.841  24.144  1.00  0.00     0.163 HD
BRANCH   7  10
ATOM     10  C   UNL A   1      33.146  20.535  24.704  1.00  0.00     0.125 C 
ATOM     11  N   UNL A   1      35.212  15.116  25.073  1.00  0.00    -0.305 NA
ATOM     12  C   UNL A   1      34.454  16.163  25.040  1.00  0.00     0.032 C 
ATOM     13  H   UNL A   1      34.843  14.251  25.362  1.00  0.00     0.187 HD
ATOM     14  C   UNL A   1      33.011  16.090  25.391  1.00  0.00     0.025 C 
ATOM     15  C   UNL A   1      35.055  17.486  24.589  1.00  0.00     0.069 C 
ATOM     16  C   UNL A   1      32.255  17.186  25.484  1.00  0.00     0.026 C 
ATOM     17  C   UNL A   1      34.364  18.641  25.271  1.00  0.00     0.069 C 
ATOM     18  C   UNL A   1      32.870  18.495  25.258  1.00  0.00     0.049 C 
ATOM     19  C   UNL A   1      34.382  20.010  24.666  1.00  0.00     0.017 C 
ATOM     20  N   UNL A   1      32.202  19.582  25.054  1.00  0.00    -0.247 NA
ENDBRANCH   7  10
ENDBRANCH   5   6
ENDBRANCH   4   5
ENDBRANCH   3   4
ENDBRANCH   2   3
ENDBRANCH   1   2
BRANCH   1  21
ATOM     21  C   UNL A   1      38.694  20.403  25.922  1.00  0.00     0.116 C 
BRANCH  21  22
ATOM     22  N   UNL A   1      39.789  19.435  25.952  1.00  0.00    -0.352 N 
ATOM     23  C   UNL A   1      41.142  19.695  26.002  1.00  0.00     0.251 C 
ATOM     24  H   UNL A   1      39.530  18.486  25.934  1.00  0.00     0.163 HD
ATOM     25  O   UNL A   1      41.947  18.851  25.592  1.00  0.00    -0.269 OA
BRANCH  23  26
ATOM     26  C   UNL A   1      41.618  20.975  26.557  1.00  0.00     0.039 A 
ATOM     27  C   UNL A   1      42.022  22.030  25.732  1.00  0.00     0.014 A 
ATOM     28  C   UNL A   1      41.669  21.108  27.945  1.00  0.00     0.014 A 
ATOM     29  C   UNL A   1      42.403  23.239  26.318  1.00  0.00     0.010 A 
ATOM     30  C   UNL A   1      41.913  22.333  28.515  1.00  0.00     0.010 A 
ATOM     31  C   UNL A   1      42.330  23.388  27.714  1.00  0.00    -0.014 A 
BRANCH  31  32
ATOM     32  C   UNL A   1      42.478  24.695  28.352  1.00  0.00     0.031 A 
ATOM     33  C   UNL A   1      41.318  25.586  28.090  1.00  0.00     0.074 A 
ATOM     34  C   UNL A   1      43.407  24.968  29.299  1.00  0.00     0.049 A 
ATOM     35  N   UNL A   1      41.266  26.586  27.275  1.00  0.00    -0.248 NA
ATOM     36  C   UNL A   1      39.995  25.179  28.603  1.00  0.00     0.031 C 
ATOM     37  C   UNL A   1      44.413  24.054  29.848  1.00  0.00     0.029 A 
ATOM     38  N   UNL A   1      43.585  26.087  30.060  1.00  0.00    -0.354 N 
ATOM     39  C   UNL A   1      40.001  27.131  27.455  1.00  0.00     0.074 A 
ATOM     40  C   UNL A   1      39.204  26.071  28.002  1.00  0.00     0.031 C 
ATOM     41  C   UNL A   1      44.926  24.569  30.989  1.00  0.00     0.029 A 
ATOM     42  C   UNL A   1      44.398  25.910  31.186  1.00  0.00     0.049 A 
ATOM     43  H   UNL A   1      43.175  26.953  29.833  1.00  0.00     0.167 HD
ATOM     44  C   UNL A   1      39.838  28.485  27.505  1.00  0.00     0.034 A 
ATOM     45  C   UNL A   1      44.607  26.782  32.216  1.00  0.00     0.034 A 
ATOM     46  C   UNL A   1      41.016  29.156  26.974  1.00  0.00     0.049 A 
ATOM     47  C   UNL A   1      44.262  28.130  31.701  1.00  0.00     0.074 A 
ATOM     48  C   UNL A   1      41.748  29.056  25.804  1.00  0.00     0.029 A 
ATOM     49  N   UNL A   1      41.850  29.802  27.865  1.00  0.00    -0.354 N 
ATOM     50  N   UNL A   1      44.935  28.723  30.754  1.00  0.00    -0.248 NA
ATOM     51  C   UNL A   1      42.889  28.586  31.860  1.00  0.00     0.031 C 
ATOM     52  C   UNL A   1      43.112  29.166  26.211  1.00  0.00     0.029 A 
ATOM     53  C   UNL A   1      43.142  29.445  27.578  1.00  0.00     0.049 A 
ATOM     54  H   UNL A   1      41.566  30.414  28.583  1.00  0.00     0.167 HD
ATOM     55  C   UNL A   1      43.971  29.258  29.915  1.00  0.00     0.074 A 
ATOM     56  C   UNL A   1      42.735  29.230  30.700  1.00  0.00     0.031 C 
ATOM     57  C   UNL A   1      44.198  29.383  28.573  1.00  0.00     0.034 A 
BRANCH  44  58
ATOM     58  C   UNL A   1      38.872  29.199  28.444  1.00  0.00     0.023 A 
ATOM     59  C   UNL A   1      39.182  29.130  29.815  1.00  0.00     0.031 A 
ATOM     60  C   UNL A   1      37.559  29.631  28.144  1.00  0.00     0.131 A 
ATOM     61  C   UNL A   1      38.184  29.275  30.790  1.00  0.00     0.055 A 
ATOM     62  C   UNL A   1      36.586  29.847  29.124  1.00  0.00     0.041 A 
ATOM     63  F   UNL A   1      37.107  29.809  26.899  1.00  0.00    -0.206 F 
ATOM     64  C   UNL A   1      36.880  29.621  30.455  1.00  0.00     0.022 A 
BRANCH  61  65
ATOM     65  S   UNL A   1      38.584  28.773  32.480  1.00  0.00     0.124 S 
ATOM     66  O   UNL A   1      37.263  28.416  32.983  1.00  0.00    -0.237 OA
ATOM     67  O   UNL A   1      39.509  27.668  32.251  1.00  0.00    -0.237 OA
ATOM     68  O   UNL A   1      39.178  29.977  33.056  1.00  0.00    -0.744 OA
ENDBRANCH  61  65
ENDBRANCH  44  58
BRANCH  45  69
ATOM     69  C   UNL A   1      44.797  26.492  33.675  1.00  0.00     0.023 A 
ATOM     70  C   UNL A   1      43.766  26.618  34.642  1.00  0.00     0.031 A 
ATOM     71  C   UNL A   1      45.966  25.821  34.098  1.00  0.00     0.131 A 
ATOM     72  C   UNL A   1      43.931  26.082  35.948  1.00  0.00     0.055 A 
ATOM     73  C   UNL A   1      46.121  25.293  35.384  1.00  0.00     0.041 A 
ATOM     74  F   UNL A   1      46.971  25.570  33.247  1.00  0.00    -0.206 F 
ATOM     75  C   UNL A   1      45.100  25.412  36.311  1.00  0.00     0.022 A 
BRANCH  72  76
ATOM     76  S   UNL A   1      42.589  26.164  37.189  1.00  0.00     0.124 S 
ATOM     77  O   UNL A   1      43.320  26.081  38.447  1.00  0.00    -0.237 OA
ATOM     78  O   UNL A   1      41.955  27.442  36.886  1.00  0.00    -0.237 OA
ATOM     79  O   UNL A   1      41.767  24.992  36.881  1.00  0.00    -0.744 OA
ENDBRANCH  72  76
ENDBRANCH  45  69
BRANCH  57  80
ATOM     80  C   UNL A   1      45.622  29.280  28.063  1.00  0.00     0.023 A 
ATOM     81  C   UNL A   1      46.276  28.086  27.678  1.00  0.00     0.031 A 
ATOM     82  C   UNL A   1      46.317  30.489  27.881  1.00  0.00     0.131 A 
ATOM     83  C   UNL A   1      47.585  28.138  27.152  1.00  0.00     0.055 A 
ATOM     84  C   UNL A   1      47.599  30.538  27.338  1.00  0.00     0.041 A 
ATOM     85  F   UNL A   1      45.744  31.660  28.204  1.00  0.00    -0.206 F 
ATOM     86  C   UNL A   1      48.242  29.361  26.980  1.00  0.00     0.022 A 
BRANCH  83  87
ATOM     87  S   UNL A   1      48.479  26.612  26.711  1.00  0.00     0.124 S 
ATOM     88  O   UNL A   1      47.823  26.170  25.485  1.00  0.00    -0.237 OA
ATOM     89  O   UNL A   1      49.854  27.083  26.566  1.00  0.00    -0.237 OA
ATOM     90  O   UNL A   1      48.256  25.742  27.868  1.00  0.00    -0.744 OA
ENDBRANCH  83  87
ENDBRANCH  57  80
ENDBRANCH  31  32
ENDBRANCH  23  26
ENDBRANCH  21  22
ENDBRANCH   1  21
TORSDOF 16
ENDMDL
