MODEL 1
REMARK VINA RESULT:     -11.7      0.000      0.000
REMARK SMILES O=C(NCCCCCCNC(=O)[C@@H]1[C@@H](C(=O)NCCCn2ccnc2)[C@@H]2C=C[C@H]1C2)c1ccc(-c2c3nc(c(-c4cc(S(=O)(=O)[O-])ccc4F)c4ccc([nH]4)c(-c4cc(S(=O)(=O)[O-])ccc4F)c4nc(c(-c5cc(S(=O)(=O)[O-])ccc5F)c5ccc2[nH]5)C=C4)C=C3)cc1
REMARK SMILES IDX 7 1 6 2 5 3 4 4 3 5 1 6 2 7 31 9 32 10 93 11 33 12 92 13
REMARK SMILES IDX 34 14 35 15 36 16 86 17 37 18 91 19 85 20 87 21 38 22 90 23
REMARK SMILES IDX 84 24 83 25 39 27 71 28 51 29 70 30 52 31 55 32 69 33 88 34
REMARK SMILES IDX 53 35 54 36 68 38 89 39 56 40 40 41 41 42 49 43 42 44 48 45
REMARK SMILES IDX 50 46 47 47 43 48 44 49 45 50 46 51 72 52 73 53 81 54 74 55
REMARK SMILES IDX 80 56 82 57 79 58 75 59 76 60 77 61 78 62 57 63 58 64 66 65
REMARK SMILES IDX 59 66 65 67 67 68 64 69 60 70 61 71 62 72 63 73 8 74 9 75
REMARK SMILES IDX 10 76 11 77 12 79 13 80 14 81 29 82 26 83 28 84 30 85 27 86
REMARK SMILES IDX 15 87 16 88 17 89 18 91 19 92 20 93 21 94 22 95 25 96 23 97
REMARK SMILES IDX 24 98
REMARK H PARENT 3 8 87 26 55 37 10 78 17 90
REMARK Flexibility Score: inf
ROOT
ATOM      1  C   UNL A   1      31.131  29.354  24.606  1.00  0.00     0.002 C 
ENDROOT
BRANCH   1   2
ATOM      2  C   UNL A   1      32.184  28.951  25.644  1.00  0.00     0.002 C 
BRANCH   2   3
ATOM      3  C   UNL A   1      32.427  29.975  26.759  1.00  0.00     0.021 C 
BRANCH   3   4
ATOM      4  C   UNL A   1      33.851  29.978  27.315  1.00  0.00     0.116 C 
BRANCH   4   5
ATOM      5  N   UNL A   1      34.286  31.261  27.822  1.00  0.00    -0.352 N 
ATOM      6  O   UNL A   1      35.499  33.006  28.409  1.00  0.00    -0.269 OA
ATOM      7  C   UNL A   1      35.497  31.796  28.160  1.00  0.00     0.251 C 
ATOM      8  H   UNL A   1      33.540  31.891  27.953  1.00  0.00     0.163 HD
BRANCH   7   9
ATOM      9  C   UNL A   1      36.760  31.025  28.316  1.00  0.00     0.039 A 
ATOM     10  C   UNL A   1      36.965  29.699  27.928  1.00  0.00     0.014 A 
ATOM     11  C   UNL A   1      37.806  31.701  28.970  1.00  0.00     0.014 A 
ATOM     12  C   UNL A   1      38.134  29.032  28.285  1.00  0.00     0.010 A 
ATOM     13  C   UNL A   1      38.982  31.047  29.315  1.00  0.00     0.010 A 
ATOM     14  C   UNL A   1      39.122  29.696  29.012  1.00  0.00    -0.014 A 
BRANCH  14  15
ATOM     15  C   UNL A   1      40.365  28.987  29.306  1.00  0.00     0.031 A 
ATOM     16  C   UNL A   1      40.656  28.841  30.760  1.00  0.00     0.074 A 
ATOM     17  C   UNL A   1      41.111  28.377  28.362  1.00  0.00     0.049 A 
ATOM     18  N   UNL A   1      41.662  29.298  31.429  1.00  0.00    -0.248 NA
ATOM     19  C   UNL A   1      39.619  28.221  31.604  1.00  0.00     0.031 C 
ATOM     20  C   UNL A   1      40.802  28.216  26.940  1.00  0.00     0.029 A 
ATOM     21  N   UNL A   1      42.266  27.665  28.503  1.00  0.00    -0.354 N 
ATOM     22  C   UNL A   1      41.504  28.833  32.734  1.00  0.00     0.074 A 
ATOM     23  C   UNL A   1      40.155  28.344  32.817  1.00  0.00     0.031 C 
ATOM     24  C   UNL A   1      41.609  27.267  26.411  1.00  0.00     0.029 A 
ATOM     25  C   UNL A   1      42.573  26.848  27.417  1.00  0.00     0.049 A 
ATOM     26  H   UNL A   1      42.835  27.724  29.305  1.00  0.00     0.167 HD
ATOM     27  C   UNL A   1      42.568  28.681  33.572  1.00  0.00     0.034 A 
ATOM     28  C   UNL A   1      43.500  25.851  27.369  1.00  0.00     0.034 A 
ATOM     29  C   UNL A   1      43.700  29.457  33.119  1.00  0.00     0.049 A 
ATOM     30  C   UNL A   1      44.474  26.115  28.457  1.00  0.00     0.074 A 
ATOM     31  C   UNL A   1      43.924  30.800  32.882  1.00  0.00     0.029 A 
ATOM     32  N   UNL A   1      44.732  28.802  32.484  1.00  0.00    -0.354 N 
ATOM     33  N   UNL A   1      45.262  27.156  28.472  1.00  0.00    -0.248 NA
ATOM     34  C   UNL A   1      44.229  25.508  29.757  1.00  0.00     0.031 C 
ATOM     35  C   UNL A   1      44.733  30.834  31.708  1.00  0.00     0.029 A 
ATOM     36  C   UNL A   1      45.019  29.515  31.347  1.00  0.00     0.049 A 
ATOM     37  H   UNL A   1      45.179  27.979  32.788  1.00  0.00     0.167 HD
ATOM     38  C   UNL A   1      45.251  27.595  29.787  1.00  0.00     0.074 A 
ATOM     39  C   UNL A   1      44.677  26.487  30.550  1.00  0.00     0.031 C 
ATOM     40  C   UNL A   1      45.442  28.911  30.099  1.00  0.00     0.034 A 
BRANCH  27  41
ATOM     41  C   UNL A   1      42.721  27.551  34.573  1.00  0.00     0.023 A 
ATOM     42  C   UNL A   1      43.560  26.481  34.205  1.00  0.00     0.031 A 
ATOM     43  C   UNL A   1      41.879  27.310  35.683  1.00  0.00     0.131 A 
ATOM     44  C   UNL A   1      43.439  25.221  34.816  1.00  0.00     0.055 A 
ATOM     45  C   UNL A   1      41.814  26.074  36.335  1.00  0.00     0.041 A 
ATOM     46  F   UNL A   1      41.010  28.212  36.149  1.00  0.00    -0.206 F 
ATOM     47  C   UNL A   1      42.566  25.008  35.876  1.00  0.00     0.022 A 
BRANCH  44  48
ATOM     48  S   UNL A   1      44.294  23.818  34.054  1.00  0.00     0.124 S 
ATOM     49  O   UNL A   1      45.103  24.485  33.039  1.00  0.00    -0.237 OA
ATOM     50  O   UNL A   1      45.018  23.257  35.190  1.00  0.00    -0.237 OA
ATOM     51  O   UNL A   1      43.202  22.995  33.541  1.00  0.00    -0.744 OA
ENDBRANCH  44  48
ENDBRANCH  27  41
BRANCH  28  52
ATOM     52  C   UNL A   1      43.359  24.528  26.690  1.00  0.00     0.023 A 
ATOM     53  C   UNL A   1      42.378  23.571  27.035  1.00  0.00     0.031 A 
ATOM     54  C   UNL A   1      44.077  24.288  25.495  1.00  0.00     0.131 A 
ATOM     55  C   UNL A   1      42.162  22.438  26.207  1.00  0.00     0.055 A 
ATOM     56  C   UNL A   1      43.862  23.170  24.686  1.00  0.00     0.041 A 
ATOM     57  F   UNL A   1      44.960  25.183  25.024  1.00  0.00    -0.206 F 
ATOM     58  C   UNL A   1      42.897  22.243  25.036  1.00  0.00     0.022 A 
BRANCH  55  59
ATOM     59  S   UNL A   1      40.853  21.226  26.598  1.00  0.00     0.124 S 
ATOM     60  O   UNL A   1      39.694  21.785  25.902  1.00  0.00    -0.237 OA
ATOM     61  O   UNL A   1      41.397  19.989  26.061  1.00  0.00    -0.237 OA
ATOM     62  O   UNL A   1      40.766  21.274  28.058  1.00  0.00    -0.744 OA
ENDBRANCH  55  59
ENDBRANCH  28  52
BRANCH  40  63
ATOM     63  C   UNL A   1      45.920  29.851  29.010  1.00  0.00     0.023 A 
ATOM     64  C   UNL A   1      45.083  30.715  28.265  1.00  0.00     0.031 A 
ATOM     65  C   UNL A   1      47.308  29.961  28.815  1.00  0.00     0.131 A 
ATOM     66  C   UNL A   1      45.647  31.634  27.358  1.00  0.00     0.055 A 
ATOM     67  C   UNL A   1      47.863  30.885  27.932  1.00  0.00     0.041 A 
ATOM     68  F   UNL A   1      48.157  29.193  29.517  1.00  0.00    -0.206 F 
ATOM     69  C   UNL A   1      47.033  31.721  27.194  1.00  0.00     0.022 A 
BRANCH  66  70
ATOM     70  S   UNL A   1      44.588  32.738  26.367  1.00  0.00     0.124 S 
ATOM     71  O   UNL A   1      45.534  33.442  25.509  1.00  0.00    -0.237 OA
ATOM     72  O   UNL A   1      43.691  31.799  25.696  1.00  0.00    -0.237 OA
ATOM     73  O   UNL A   1      43.936  33.579  27.373  1.00  0.00    -0.744 OA
ENDBRANCH  66  70
ENDBRANCH  40  63
ENDBRANCH  14  15
ENDBRANCH   7   9
ENDBRANCH   4   5
ENDBRANCH   3   4
ENDBRANCH   2   3
ENDBRANCH   1   2
BRANCH   1  74
ATOM     74  C   UNL A   1      31.487  28.995  23.162  1.00  0.00     0.021 C 
BRANCH  74  75
ATOM     75  C   UNL A   1      32.921  28.500  22.988  1.00  0.00     0.116 C 
BRANCH  75  76
ATOM     76  N   UNL A   1      33.004  27.455  21.976  1.00  0.00    -0.356 N 
ATOM     77  C   UNL A   1      33.157  26.104  22.143  1.00  0.00     0.224 C 
ATOM     78  H   UNL A   1      32.941  27.763  21.042  1.00  0.00     0.163 HD
ATOM     79  O   UNL A   1      33.358  25.388  21.164  1.00  0.00    -0.275 OA
BRANCH  77  80
ATOM     80  C   UNL A   1      33.091  25.588  23.568  1.00  0.00     0.098 C 
ATOM     81  C   UNL A   1      33.494  24.117  23.801  1.00  0.00     0.098 C 
ATOM     82  C   UNL A   1      31.640  25.625  24.140  1.00  0.00     0.025 C 
ATOM     83  C   UNL A   1      32.187  23.469  24.336  1.00  0.00     0.025 C 
ATOM     84  C   UNL A   1      30.752  24.861  23.185  1.00  0.00    -0.027 C 
ATOM     85  C   UNL A   1      31.651  24.567  25.253  1.00  0.00     0.017 C 
ATOM     86  C   UNL A   1      31.105  23.568  23.278  1.00  0.00    -0.027 C 
BRANCH  81  87
ATOM     87  C   UNL A   1      34.653  23.895  24.782  1.00  0.00     0.224 C 
ATOM     88  O   UNL A   1      35.150  24.876  25.351  1.00  0.00    -0.275 OA
ATOM     89  N   UNL A   1      35.273  22.708  25.042  1.00  0.00    -0.356 N 
ATOM     90  H   UNL A   1      36.097  22.822  25.570  1.00  0.00     0.163 HD
BRANCH  89  91
ATOM     91  C   UNL A   1      35.003  21.306  24.720  1.00  0.00     0.117 C 
BRANCH  91  92
ATOM     92  C   UNL A   1      33.963  20.648  25.621  1.00  0.00     0.043 C 
BRANCH  92  93
ATOM     93  C   UNL A   1      32.978  19.723  24.915  1.00  0.00     0.125 C 
BRANCH  93  94
ATOM     94  N   UNL A   1      33.365  18.328  24.931  1.00  0.00    -0.337 N 
ATOM     95  C   UNL A   1      34.468  17.772  24.348  1.00  0.00     0.107 A 
ATOM     96  C   UNL A   1      32.651  17.315  25.506  1.00  0.00     0.199 A 
ATOM     97  C   UNL A   1      34.407  16.437  24.672  1.00  0.00     0.130 A 
ATOM     98  N   UNL A   1      33.265  16.161  25.377  1.00  0.00    -0.245 NA
ENDBRANCH  93  94
ENDBRANCH  92  93
ENDBRANCH  91  92
ENDBRANCH  89  91
ENDBRANCH  81  87
ENDBRANCH  77  80
ENDBRANCH  75  76
ENDBRANCH  74  75
ENDBRANCH   1  74
TORSDOF 21
ENDMDL
MODEL 2
REMARK VINA RESULT:     -11.7      2.061      3.786
REMARK SMILES O=C(NCCCCCCNC(=O)[C@@H]1[C@@H](C(=O)NCCCn2ccnc2)[C@@H]2C=C[C@H]1C2)c1ccc(-c2c3nc(c(-c4cc(S(=O)(=O)[O-])ccc4F)c4ccc([nH]4)c(-c4cc(S(=O)(=O)[O-])ccc4F)c4nc(c(-c5cc(S(=O)(=O)[O-])ccc5F)c5ccc2[nH]5)C=C4)C=C3)cc1
REMARK SMILES IDX 7 1 6 2 5 3 4 4 3 5 1 6 2 7 31 9 32 10 93 11 33 12 92 13
REMARK SMILES IDX 34 14 35 15 36 16 86 17 37 18 91 19 85 20 87 21 38 22 90 23
REMARK SMILES IDX 84 24 83 25 39 27 71 28 51 29 70 30 52 31 55 32 69 33 88 34
REMARK SMILES IDX 53 35 54 36 68 38 89 39 56 40 40 41 41 42 49 43 42 44 48 45
REMARK SMILES IDX 50 46 47 47 43 48 44 49 45 50 46 51 72 52 73 53 81 54 74 55
REMARK SMILES IDX 80 56 82 57 79 58 75 59 76 60 77 61 78 62 57 63 58 64 66 65
REMARK SMILES IDX 59 66 65 67 67 68 64 69 60 70 61 71 62 72 63 73 8 74 9 75
REMARK SMILES IDX 10 76 11 77 12 79 13 80 14 81 29 82 26 83 28 84 30 85 27 86
REMARK SMILES IDX 15 87 16 88 17 89 18 91 19 92 20 93 21 94 22 95 25 96 23 97
REMARK SMILES IDX 24 98
REMARK H PARENT 3 8 87 26 55 37 10 78 17 90
REMARK Flexibility Score: inf
ROOT
ATOM      1  C   UNL A   1      31.847  28.121  27.546  1.00  0.00     0.002 C 
ENDROOT
BRANCH   1   2
ATOM      2  C   UNL A   1      31.920  29.614  27.207  1.00  0.00     0.002 C 
BRANCH   2   3
ATOM      3  C   UNL A   1      33.196  30.059  26.485  1.00  0.00     0.021 C 
BRANCH   3   4
ATOM      4  C   UNL A   1      34.447  30.078  27.364  1.00  0.00     0.116 C 
BRANCH   4   5
ATOM      5  N   UNL A   1      34.502  31.186  28.291  1.00  0.00    -0.352 N 
ATOM      6  O   UNL A   1      35.193  32.785  29.643  1.00  0.00    -0.269 OA
ATOM      7  C   UNL A   1      35.470  31.710  29.100  1.00  0.00     0.251 C 
ATOM      8  H   UNL A   1      33.647  31.673  28.354  1.00  0.00     0.163 HD
BRANCH   7   9
ATOM      9  C   UNL A   1      36.767  31.054  29.419  1.00  0.00     0.039 A 
ATOM     10  C   UNL A   1      38.000  31.696  29.554  1.00  0.00     0.014 A 
ATOM     11  C   UNL A   1      36.726  29.652  29.530  1.00  0.00     0.014 A 
ATOM     12  C   UNL A   1      39.171  30.955  29.680  1.00  0.00     0.010 A 
ATOM     13  C   UNL A   1      37.890  28.907  29.672  1.00  0.00     0.010 A 
ATOM     14  C   UNL A   1      39.117  29.561  29.698  1.00  0.00    -0.014 A 
BRANCH  14  15
ATOM     15  C   UNL A   1      40.358  28.818  29.904  1.00  0.00     0.031 A 
ATOM     16  C   UNL A   1      40.730  28.634  31.335  1.00  0.00     0.074 A 
ATOM     17  C   UNL A   1      41.032  28.210  28.906  1.00  0.00     0.049 A 
ATOM     18  N   UNL A   1      41.785  29.055  31.952  1.00  0.00    -0.248 NA
ATOM     19  C   UNL A   1      39.731  28.020  32.226  1.00  0.00     0.031 C 
ATOM     20  C   UNL A   1      40.636  28.086  27.501  1.00  0.00     0.029 A 
ATOM     21  N   UNL A   1      42.176  27.470  28.964  1.00  0.00    -0.354 N 
ATOM     22  C   UNL A   1      41.692  28.566  33.254  1.00  0.00     0.074 A 
ATOM     23  C   UNL A   1      40.340  28.106  33.408  1.00  0.00     0.031 C 
ATOM     24  C   UNL A   1      41.388  27.131  26.907  1.00  0.00     0.029 A 
ATOM     25  C   UNL A   1      42.399  26.669  27.846  1.00  0.00     0.049 A 
ATOM     26  H   UNL A   1      42.792  27.499  29.732  1.00  0.00     0.167 HD
ATOM     27  C   UNL A   1      42.800  28.372  34.025  1.00  0.00     0.034 A 
ATOM     28  C   UNL A   1      43.298  25.653  27.723  1.00  0.00     0.034 A 
ATOM     29  C   UNL A   1      43.922  29.131  33.521  1.00  0.00     0.049 A 
ATOM     30  C   UNL A   1      44.340  25.872  28.757  1.00  0.00     0.074 A 
ATOM     31  C   UNL A   1      44.163  30.474  33.298  1.00  0.00     0.029 A 
ATOM     32  N   UNL A   1      44.899  28.467  32.813  1.00  0.00    -0.354 N 
ATOM     33  N   UNL A   1      45.152  26.894  28.746  1.00  0.00    -0.248 NA
ATOM     34  C   UNL A   1      44.158  25.243  30.057  1.00  0.00     0.031 C 
ATOM     35  C   UNL A   1      44.902  30.514  32.078  1.00  0.00     0.029 A 
ATOM     36  C   UNL A   1      45.135  29.197  31.675  1.00  0.00     0.049 A 
ATOM     37  H   UNL A   1      45.342  27.628  33.074  1.00  0.00     0.167 HD
ATOM     38  C   UNL A   1      45.229  27.305  30.067  1.00  0.00     0.074 A 
ATOM     39  C   UNL A   1      44.675  26.195  30.841  1.00  0.00     0.031 C 
ATOM     40  C   UNL A   1      45.469  28.610  30.392  1.00  0.00     0.034 A 
BRANCH  27  41
ATOM     41  C   UNL A   1      42.984  27.219  34.993  1.00  0.00     0.023 A 
ATOM     42  C   UNL A   1      43.814  26.160  34.574  1.00  0.00     0.031 A 
ATOM     43  C   UNL A   1      42.177  26.948  36.121  1.00  0.00     0.131 A 
ATOM     44  C   UNL A   1      43.713  24.885  35.157  1.00  0.00     0.055 A 
ATOM     45  C   UNL A   1      42.133  25.697  36.744  1.00  0.00     0.041 A 
ATOM     46  F   UNL A   1      41.320  27.837  36.635  1.00  0.00    -0.206 F 
ATOM     47  C   UNL A   1      42.872  24.644  36.237  1.00  0.00     0.022 A 
BRANCH  44  48
ATOM     48  S   UNL A   1      44.547  23.502  34.335  1.00  0.00     0.124 S 
ATOM     49  O   UNL A   1      43.778  23.391  33.099  1.00  0.00    -0.237 OA
ATOM     50  O   UNL A   1      45.908  24.010  34.204  1.00  0.00    -0.237 OA
ATOM     51  O   UNL A   1      44.378  22.399  35.277  1.00  0.00    -0.744 OA
ENDBRANCH  44  48
ENDBRANCH  27  41
BRANCH  28  52
ATOM     52  C   UNL A   1      43.086  24.348  27.028  1.00  0.00     0.023 A 
ATOM     53  C   UNL A   1      43.987  23.806  26.083  1.00  0.00     0.031 A 
ATOM     54  C   UNL A   1      42.062  23.484  27.485  1.00  0.00     0.131 A 
ATOM     55  C   UNL A   1      43.833  22.470  25.632  1.00  0.00     0.055 A 
ATOM     56  C   UNL A   1      41.915  22.171  27.035  1.00  0.00     0.041 A 
ATOM     57  F   UNL A   1      41.214  23.864  28.454  1.00  0.00    -0.206 F 
ATOM     58  C   UNL A   1      42.805  21.655  26.111  1.00  0.00     0.022 A 
BRANCH  55  59
ATOM     59  S   UNL A   1      45.026  21.730  24.463  1.00  0.00     0.124 S 
ATOM     60  O   UNL A   1      46.229  21.604  25.286  1.00  0.00    -0.237 OA
ATOM     61  O   UNL A   1      44.368  20.490  24.082  1.00  0.00    -0.237 OA
ATOM     62  O   UNL A   1      45.123  22.726  23.395  1.00  0.00    -0.744 OA
ENDBRANCH  55  59
ENDBRANCH  28  52
BRANCH  40  63
ATOM     63  C   UNL A   1      45.904  29.562  29.296  1.00  0.00     0.023 A 
ATOM     64  C   UNL A   1      45.023  30.282  28.457  1.00  0.00     0.031 A 
ATOM     65  C   UNL A   1      47.278  29.840  29.190  1.00  0.00     0.131 A 
ATOM     66  C   UNL A   1      45.533  31.232  27.548  1.00  0.00     0.055 A 
ATOM     67  C   UNL A   1      47.777  30.793  28.305  1.00  0.00     0.041 A 
ATOM     68  F   UNL A   1      48.163  29.214  29.984  1.00  0.00    -0.206 F 
ATOM     69  C   UNL A   1      46.906  31.489  27.474  1.00  0.00     0.022 A 
BRANCH  66  70
ATOM     70  S   UNL A   1      44.419  32.153  26.436  1.00  0.00     0.124 S 
ATOM     71  O   UNL A   1      45.299  32.594  25.360  1.00  0.00    -0.237 OA
ATOM     72  O   UNL A   1      43.424  31.144  26.078  1.00  0.00    -0.237 OA
ATOM     73  O   UNL A   1      43.907  33.231  27.284  1.00  0.00    -0.744 OA
ENDBRANCH  66  70
ENDBRANCH  40  63
ENDBRANCH  14  15
ENDBRANCH   7   9
ENDBRANCH   4   5
ENDBRANCH   3   4
ENDBRANCH   2   3
ENDBRANCH   1   2
BRANCH   1  74
ATOM     74  C   UNL A   1      32.502  27.199  26.515  1.00  0.00     0.021 C 
BRANCH  74  75
ATOM     75  C   UNL A   1      31.528  26.221  25.861  1.00  0.00     0.116 C 
BRANCH  75  76
ATOM     76  N   UNL A   1      31.108  25.184  26.794  1.00  0.00    -0.356 N 
ATOM     77  C   UNL A   1      31.386  23.843  26.775  1.00  0.00     0.224 C 
ATOM     78  H   UNL A   1      30.545  25.491  27.543  1.00  0.00     0.163 HD
ATOM     79  O   UNL A   1      30.819  23.092  27.565  1.00  0.00    -0.275 OA
BRANCH  77  80
ATOM     80  C   UNL A   1      32.383  23.376  25.730  1.00  0.00     0.098 C 
ATOM     81  C   UNL A   1      32.329  21.887  25.327  1.00  0.00     0.098 C 
ATOM     82  C   UNL A   1      33.858  23.533  26.213  1.00  0.00     0.025 C 
ATOM     83  C   UNL A   1      33.722  21.350  25.762  1.00  0.00     0.025 C 
ATOM     84  C   UNL A   1      33.987  22.805  27.531  1.00  0.00    -0.027 C 
ATOM     85  C   UNL A   1      34.636  22.510  25.372  1.00  0.00     0.017 C 
ATOM     86  C   UNL A   1      33.870  21.494  27.264  1.00  0.00    -0.027 C 
BRANCH  81  87
ATOM     87  C   UNL A   1      32.081  21.612  23.838  1.00  0.00     0.224 C 
ATOM     88  O   UNL A   1      32.308  20.479  23.395  1.00  0.00    -0.275 OA
ATOM     89  N   UNL A   1      31.704  22.528  22.900  1.00  0.00    -0.356 N 
ATOM     90  H   UNL A   1      31.769  22.176  21.983  1.00  0.00     0.163 HD
BRANCH  89  91
ATOM     91  C   UNL A   1      31.229  23.912  22.936  1.00  0.00     0.117 C 
BRANCH  91  92
ATOM     92  C   UNL A   1      32.129  24.900  22.202  1.00  0.00     0.043 C 
BRANCH  92  93
ATOM     93  C   UNL A   1      31.526  26.279  21.960  1.00  0.00     0.125 C 
BRANCH  93  94
ATOM     94  N   UNL A   1      32.367  27.374  22.395  1.00  0.00    -0.337 N 
ATOM     95  C   UNL A   1      31.960  28.590  22.865  1.00  0.00     0.107 A 
ATOM     96  C   UNL A   1      33.733  27.384  22.363  1.00  0.00     0.199 A 
ATOM     97  C   UNL A   1      33.120  29.260  23.174  1.00  0.00     0.130 A 
ATOM     98  N   UNL A   1      34.216  28.508  22.841  1.00  0.00    -0.245 NA
ENDBRANCH  93  94
ENDBRANCH  92  93
ENDBRANCH  91  92
ENDBRANCH  89  91
ENDBRANCH  81  87
ENDBRANCH  77  80
ENDBRANCH  75  76
ENDBRANCH  74  75
ENDBRANCH   1  74
TORSDOF 21
ENDMDL
MODEL 3
REMARK VINA RESULT:     -11.6      2.480      4.778
REMARK SMILES O=C(NCCCCCCNC(=O)[C@@H]1[C@@H](C(=O)NCCCn2ccnc2)[C@@H]2C=C[C@H]1C2)c1ccc(-c2c3nc(c(-c4cc(S(=O)(=O)[O-])ccc4F)c4ccc([nH]4)c(-c4cc(S(=O)(=O)[O-])ccc4F)c4nc(c(-c5cc(S(=O)(=O)[O-])ccc5F)c5ccc2[nH]5)C=C4)C=C3)cc1
REMARK SMILES IDX 7 1 6 2 5 3 4 4 3 5 1 6 2 7 31 9 32 10 93 11 33 12 92 13
REMARK SMILES IDX 34 14 35 15 36 16 86 17 37 18 91 19 85 20 87 21 38 22 90 23
REMARK SMILES IDX 84 24 83 25 39 27 71 28 51 29 70 30 52 31 55 32 69 33 88 34
REMARK SMILES IDX 53 35 54 36 68 38 89 39 56 40 40 41 41 42 49 43 42 44 48 45
REMARK SMILES IDX 50 46 47 47 43 48 44 49 45 50 46 51 72 52 73 53 81 54 74 55
REMARK SMILES IDX 80 56 82 57 79 58 75 59 76 60 77 61 78 62 57 63 58 64 66 65
REMARK SMILES IDX 59 66 65 67 67 68 64 69 60 70 61 71 62 72 63 73 8 74 9 75
REMARK SMILES IDX 10 76 11 77 12 79 13 80 14 81 29 82 26 83 28 84 30 85 27 86
REMARK SMILES IDX 15 87 16 88 17 89 18 91 19 92 20 93 21 94 22 95 25 96 23 97
REMARK SMILES IDX 24 98
REMARK H PARENT 3 8 87 26 55 37 10 78 17 90
REMARK Flexibility Score: inf
ROOT
ATOM      1  C   UNL A   1      31.478  28.549  27.596  1.00  0.00     0.002 C 
ENDROOT
BRANCH   1   2
ATOM      2  C   UNL A   1      31.618  29.943  26.976  1.00  0.00     0.002 C 
BRANCH   2   3
ATOM      3  C   UNL A   1      32.901  30.176  26.172  1.00  0.00     0.021 C 
BRANCH   3   4
ATOM      4  C   UNL A   1      34.172  30.260  27.019  1.00  0.00     0.116 C 
BRANCH   4   5
ATOM      5  N   UNL A   1      34.079  31.174  28.135  1.00  0.00    -0.352 N 
ATOM      6  O   UNL A   1      34.553  32.542  29.798  1.00  0.00    -0.269 OA
ATOM      7  C   UNL A   1      34.956  31.617  29.085  1.00  0.00     0.251 C 
ATOM      8  H   UNL A   1      33.180  31.566  28.233  1.00  0.00     0.163 HD
BRANCH   7   9
ATOM      9  C   UNL A   1      36.294  31.025  29.357  1.00  0.00     0.039 A 
ATOM     10  C   UNL A   1      37.490  31.732  29.500  1.00  0.00     0.014 A 
ATOM     11  C   UNL A   1      36.336  29.620  29.412  1.00  0.00     0.014 A 
ATOM     12  C   UNL A   1      38.704  31.056  29.578  1.00  0.00     0.010 A 
ATOM     13  C   UNL A   1      37.543  28.939  29.506  1.00  0.00     0.010 A 
ATOM     14  C   UNL A   1      38.731  29.662  29.541  1.00  0.00    -0.014 A 
BRANCH  14  15
ATOM     15  C   UNL A   1      40.016  28.985  29.698  1.00  0.00     0.031 A 
ATOM     16  C   UNL A   1      40.418  28.760  31.115  1.00  0.00     0.074 A 
ATOM     17  C   UNL A   1      40.709  28.464  28.665  1.00  0.00     0.049 A 
ATOM     18  N   UNL A   1      41.456  29.214  31.738  1.00  0.00    -0.248 NA
ATOM     19  C   UNL A   1      39.470  28.049  31.989  1.00  0.00     0.031 C 
ATOM     20  C   UNL A   1      40.301  28.380  27.261  1.00  0.00     0.029 A 
ATOM     21  N   UNL A   1      41.896  27.791  28.676  1.00  0.00    -0.354 N 
ATOM     22  C   UNL A   1      41.411  28.662  33.018  1.00  0.00     0.074 A 
ATOM     23  C   UNL A   1      40.090  28.117  33.166  1.00  0.00     0.031 C 
ATOM     24  C   UNL A   1      41.099  27.499  26.616  1.00  0.00     0.029 A 
ATOM     25  C   UNL A   1      42.149  27.056  27.520  1.00  0.00     0.049 A 
ATOM     26  H   UNL A   1      42.520  27.822  29.437  1.00  0.00     0.167 HD
ATOM     27  C   UNL A   1      42.539  28.500  33.765  1.00  0.00     0.034 A 
ATOM     28  C   UNL A   1      43.104  26.101  27.340  1.00  0.00     0.034 A 
ATOM     29  C   UNL A   1      43.607  29.346  33.283  1.00  0.00     0.049 A 
ATOM     30  C   UNL A   1      44.146  26.335  28.370  1.00  0.00     0.074 A 
ATOM     31  C   UNL A   1      43.765  30.710  33.119  1.00  0.00     0.029 A 
ATOM     32  N   UNL A   1      44.611  28.773  32.535  1.00  0.00    -0.354 N 
ATOM     33  N   UNL A   1      44.897  27.402  28.397  1.00  0.00    -0.248 NA
ATOM     34  C   UNL A   1      44.020  25.638  29.643  1.00  0.00     0.031 C 
ATOM     35  C   UNL A   1      44.484  30.848  31.894  1.00  0.00     0.029 A 
ATOM     36  C   UNL A   1      44.787  29.567  31.429  1.00  0.00     0.049 A 
ATOM     37  H   UNL A   1      45.106  27.951  32.751  1.00  0.00     0.167 HD
ATOM     38  C   UNL A   1      44.969  27.758  29.734  1.00  0.00     0.074 A 
ATOM     39  C   UNL A   1      44.491  26.583  30.463  1.00  0.00     0.031 C 
ATOM     40  C   UNL A   1      45.136  29.059  30.116  1.00  0.00     0.034 A 
BRANCH  27  41
ATOM     41  C   UNL A   1      42.804  27.317  34.677  1.00  0.00     0.023 A 
ATOM     42  C   UNL A   1      43.647  26.304  34.179  1.00  0.00     0.031 A 
ATOM     43  C   UNL A   1      42.059  26.977  35.829  1.00  0.00     0.131 A 
ATOM     44  C   UNL A   1      43.614  25.005  34.715  1.00  0.00     0.055 A 
ATOM     45  C   UNL A   1      42.084  25.702  36.403  1.00  0.00     0.041 A 
ATOM     46  F   UNL A   1      41.199  27.816  36.416  1.00  0.00    -0.206 F 
ATOM     47  C   UNL A   1      42.832  24.694  35.821  1.00  0.00     0.022 A 
BRANCH  44  48
ATOM     48  S   UNL A   1      44.453  23.684  33.802  1.00  0.00     0.124 S 
ATOM     49  O   UNL A   1      45.061  22.920  34.888  1.00  0.00    -0.237 OA
ATOM     50  O   UNL A   1      43.338  23.046  33.110  1.00  0.00    -0.237 OA
ATOM     51  O   UNL A   1      45.390  24.407  32.947  1.00  0.00    -0.744 OA
ENDBRANCH  44  48
ENDBRANCH  27  41
BRANCH  28  52
ATOM     52  C   UNL A   1      42.958  24.818  26.589  1.00  0.00     0.023 A 
ATOM     53  C   UNL A   1      43.882  24.368  25.618  1.00  0.00     0.031 A 
ATOM     54  C   UNL A   1      41.986  23.882  27.010  1.00  0.00     0.131 A 
ATOM     55  C   UNL A   1      43.799  23.046  25.109  1.00  0.00     0.055 A 
ATOM     56  C   UNL A   1      41.906  22.583  26.503  1.00  0.00     0.041 A 
ATOM     57  F   UNL A   1      41.124  24.172  27.998  1.00  0.00    -0.206 F 
ATOM     58  C   UNL A   1      42.818  22.157  25.555  1.00  0.00     0.022 A 
BRANCH  55  59
ATOM     59  S   UNL A   1      45.023  22.424  23.905  1.00  0.00     0.124 S 
ATOM     60  O   UNL A   1      44.209  22.234  22.705  1.00  0.00    -0.237 OA
ATOM     61  O   UNL A   1      45.999  23.501  23.862  1.00  0.00    -0.237 OA
ATOM     62  O   UNL A   1      45.505  21.184  24.516  1.00  0.00    -0.744 OA
ENDBRANCH  55  59
ENDBRANCH  28  52
BRANCH  40  63
ATOM     63  C   UNL A   1      45.500  30.083  29.059  1.00  0.00     0.023 A 
ATOM     64  C   UNL A   1      46.820  30.399  28.664  1.00  0.00     0.031 A 
ATOM     65  C   UNL A   1      44.445  30.666  28.336  1.00  0.00     0.131 A 
ATOM     66  C   UNL A   1      47.041  31.281  27.586  1.00  0.00     0.055 A 
ATOM     67  C   UNL A   1      44.667  31.522  27.259  1.00  0.00     0.041 A 
ATOM     68  F   UNL A   1      43.169  30.379  28.641  1.00  0.00    -0.206 F 
ATOM     69  C   UNL A   1      45.968  31.838  26.884  1.00  0.00     0.022 A 
BRANCH  66  70
ATOM     70  S   UNL A   1      48.734  31.726  27.076  1.00  0.00     0.124 S 
ATOM     71  O   UNL A   1      49.366  32.148  28.320  1.00  0.00    -0.237 OA
ATOM     72  O   UNL A   1      49.229  30.479  26.495  1.00  0.00    -0.237 OA
ATOM     73  O   UNL A   1      48.525  32.802  26.104  1.00  0.00    -0.744 OA
ENDBRANCH  66  70
ENDBRANCH  40  63
ENDBRANCH  14  15
ENDBRANCH   7   9
ENDBRANCH   4   5
ENDBRANCH   3   4
ENDBRANCH   2   3
ENDBRANCH   1   2
BRANCH   1  74
ATOM     74  C   UNL A   1      31.032  27.457  26.621  1.00  0.00     0.021 C 
BRANCH  74  75
ATOM     75  C   UNL A   1      31.920  26.214  26.644  1.00  0.00     0.116 C 
BRANCH  75  76
ATOM     76  N   UNL A   1      31.188  25.030  26.213  1.00  0.00    -0.356 N 
ATOM     77  C   UNL A   1      31.327  24.303  25.061  1.00  0.00     0.224 C 
ATOM     78  H   UNL A   1      30.497  24.708  26.838  1.00  0.00     0.163 HD
ATOM     79  O   UNL A   1      30.516  23.418  24.798  1.00  0.00    -0.275 OA
BRANCH  77  80
ATOM     80  C   UNL A   1      32.491  24.678  24.162  1.00  0.00     0.098 C 
ATOM     81  C   UNL A   1      32.299  24.476  22.645  1.00  0.00     0.098 C 
ATOM     82  C   UNL A   1      33.758  23.816  24.451  1.00  0.00     0.025 C 
ATOM     83  C   UNL A   1      33.380  23.418  22.286  1.00  0.00     0.025 C 
ATOM     84  C   UNL A   1      33.358  22.363  24.337  1.00  0.00    -0.027 C 
ATOM     85  C   UNL A   1      34.559  23.880  23.141  1.00  0.00     0.017 C 
ATOM     86  C   UNL A   1      33.097  22.133  23.039  1.00  0.00    -0.027 C 
BRANCH  81  87
ATOM     87  C   UNL A   1      32.461  25.734  21.782  1.00  0.00     0.224 C 
ATOM     88  O   UNL A   1      33.137  25.665  20.747  1.00  0.00    -0.275 OA
ATOM     89  N   UNL A   1      31.998  26.982  22.080  1.00  0.00    -0.356 N 
ATOM     90  H   UNL A   1      32.359  27.671  21.477  1.00  0.00     0.163 HD
BRANCH  89  91
ATOM     91  C   UNL A   1      31.092  27.537  23.087  1.00  0.00     0.117 C 
BRANCH  91  92
ATOM     92  C   UNL A   1      30.665  28.976  22.817  1.00  0.00     0.043 C 
BRANCH  92  93
ATOM     93  C   UNL A   1      29.225  29.155  22.351  1.00  0.00     0.125 C 
BRANCH  93  94
ATOM     94  N   UNL A   1      28.799  30.537  22.271  1.00  0.00    -0.337 N 
ATOM     95  C   UNL A   1      28.311  31.187  21.174  1.00  0.00     0.107 A 
ATOM     96  C   UNL A   1      28.859  31.443  23.292  1.00  0.00     0.199 A 
ATOM     97  C   UNL A   1      28.021  32.458  21.613  1.00  0.00     0.130 A 
ATOM     98  N   UNL A   1      28.381  32.610  22.926  1.00  0.00    -0.245 NA
ENDBRANCH  93  94
ENDBRANCH  92  93
ENDBRANCH  91  92
ENDBRANCH  89  91
ENDBRANCH  81  87
ENDBRANCH  77  80
ENDBRANCH  75  76
ENDBRANCH  74  75
ENDBRANCH   1  74
TORSDOF 21
ENDMDL
