MODEL 1
REMARK VINA RESULT:     -10.6      0.000      0.000
REMARK SMILES C[C@H](Sc1ccc(N)c(Cl)c1)C(=O)NCCCCCCNC(=O)c1ccc(-c2c3nc(c(-c4cc(S(=O)(=O)[O-])ccc4F)c4ccc([nH]4)c(-c4cc(S(=O)(=O)[O-])ccc4F)c4nc(c(-c5cc(S(=O)(=O)[O-])ccc5F)c5ccc2[nH]5)C=C4)C=C3)cc1
REMARK SMILES IDX 17 1 16 2 15 3 14 4 12 5 13 6 2 8 1 9 3 10 4 11 5 12 11 13
REMARK SMILES IDX 6 14 9 15 7 16 10 17 8 18 18 21 19 22 20 23 21 24 22 25
REMARK SMILES IDX 23 27 24 28 25 29 86 30 26 31 85 32 27 33 28 34 29 35 79 36
REMARK SMILES IDX 30 37 84 38 78 39 80 40 31 41 83 42 77 43 76 44 32 46 64 47
REMARK SMILES IDX 44 48 63 49 45 50 48 51 62 52 81 53 46 54 47 55 61 57 82 58
REMARK SMILES IDX 49 59 33 60 34 61 42 62 35 63 41 64 43 65 40 66 36 67 37 68
REMARK SMILES IDX 38 69 39 70 65 71 66 72 74 73 67 74 73 75 75 76 72 77 68 78
REMARK SMILES IDX 69 79 70 80 71 81 50 82 51 83 59 84 52 85 58 86 60 87 57 88
REMARK SMILES IDX 53 89 54 90 55 91 56 92
REMARK H PARENT 14 7 8 19 8 20 21 26 80 45 48 56
REMARK Flexibility Score: inf
ROOT
ATOM      1  C   UNL A   1      32.187  29.898  26.125  1.00  0.00     0.002 C 
ENDROOT
BRANCH   1   2
ATOM      2  C   UNL A   1      31.822  28.409  26.112  1.00  0.00     0.021 C 
BRANCH   2   3
ATOM      3  C   UNL A   1      32.762  27.533  26.939  1.00  0.00     0.116 C 
BRANCH   3   4
ATOM      4  N   UNL A   1      33.399  26.530  26.105  1.00  0.00    -0.355 N 
ATOM      5  C   UNL A   1      32.978  25.293  25.723  1.00  0.00     0.233 C 
ATOM      6  O   UNL A   1      33.793  24.580  25.125  1.00  0.00    -0.274 OA
ATOM      7  H   UNL A   1      34.284  26.788  25.757  1.00  0.00     0.163 HD
BRANCH   5   8
ATOM      8  C   UNL A   1      31.543  24.808  25.924  1.00  0.00     0.137 C 
ATOM      9  C   UNL A   1      31.491  23.523  26.746  1.00  0.00     0.030 C 
BRANCH   8  10
ATOM     10  S   UNL A   1      30.653  24.595  24.336  1.00  0.00    -0.113 SA
BRANCH  10  11
ATOM     11  C   UNL A   1      30.726  26.159  23.485  1.00  0.00     0.010 A 
ATOM     12  C   UNL A   1      31.856  26.706  22.876  1.00  0.00     0.017 A 
ATOM     13  C   UNL A   1      29.557  26.932  23.526  1.00  0.00     0.037 A 
ATOM     14  C   UNL A   1      31.828  28.004  22.345  1.00  0.00     0.028 A 
ATOM     15  C   UNL A   1      29.535  28.227  23.000  1.00  0.00     0.065 A 
ATOM     16  C   UNL A   1      30.685  28.798  22.438  1.00  0.00     0.050 A 
ATOM     17  Cl  UNL A   1      28.063  29.134  23.105  1.00  0.00    -0.082 Cl
BRANCH  16  18
ATOM     18  N   UNL A   1      30.686  30.071  21.875  1.00  0.00    -0.398 N 
ATOM     19  H   UNL A   1      31.499  30.625  21.910  1.00  0.00     0.156 HD
ATOM     20  H   UNL A   1      29.872  30.418  21.442  1.00  0.00     0.156 HD
ENDBRANCH  16  18
ENDBRANCH  10  11
ENDBRANCH   8  10
ENDBRANCH   5   8
ENDBRANCH   3   4
ENDBRANCH   2   3
ENDBRANCH   1   2
BRANCH   1  21
ATOM     21  C   UNL A   1      31.080  30.839  25.635  1.00  0.00     0.002 C 
BRANCH  21  22
ATOM     22  C   UNL A   1      31.108  32.243  26.245  1.00  0.00     0.021 C 
BRANCH  22  23
ATOM     23  C   UNL A   1      32.326  32.529  27.118  1.00  0.00     0.116 C 
BRANCH  23  24
ATOM     24  N   UNL A   1      32.400  33.929  27.501  1.00  0.00    -0.352 N 
ATOM     25  C   UNL A   1      33.236  34.538  28.402  1.00  0.00     0.251 C 
ATOM     26  H   UNL A   1      31.760  34.526  27.049  1.00  0.00     0.163 HD
ATOM     27  O   UNL A   1      33.008  35.692  28.763  1.00  0.00    -0.269 OA
BRANCH  25  28
ATOM     28  C   UNL A   1      34.390  33.796  28.954  1.00  0.00     0.039 A 
ATOM     29  C   UNL A   1      35.682  34.244  28.669  1.00  0.00     0.014 A 
ATOM     30  C   UNL A   1      34.198  32.666  29.754  1.00  0.00     0.014 A 
ATOM     31  C   UNL A   1      36.779  33.593  29.236  1.00  0.00     0.010 A 
ATOM     32  C   UNL A   1      35.288  32.068  30.382  1.00  0.00     0.010 A 
ATOM     33  C   UNL A   1      36.590  32.522  30.127  1.00  0.00    -0.014 A 
BRANCH  33  34
ATOM     34  C   UNL A   1      37.745  31.873  30.802  1.00  0.00     0.031 A 
ATOM     35  C   UNL A   1      38.546  30.820  30.088  1.00  0.00     0.074 A 
ATOM     36  C   UNL A   1      38.034  32.192  32.080  1.00  0.00     0.049 A 
ATOM     37  N   UNL A   1      39.546  30.101  30.528  1.00  0.00    -0.248 NA
ATOM     38  C   UNL A   1      38.147  30.516  28.708  1.00  0.00     0.031 C 
ATOM     39  C   UNL A   1      37.300  33.166  32.892  1.00  0.00     0.029 A 
ATOM     40  N   UNL A   1      39.012  31.728  32.922  1.00  0.00    -0.354 N 
ATOM     41  C   UNL A   1      39.892  29.252  29.481  1.00  0.00     0.074 A 
ATOM     42  C   UNL A   1      38.942  29.499  28.417  1.00  0.00     0.031 C 
ATOM     43  C   UNL A   1      37.871  33.246  34.103  1.00  0.00     0.029 A 
ATOM     44  C   UNL A   1      38.975  32.294  34.176  1.00  0.00     0.049 A 
ATOM     45  H   UNL A   1      39.678  31.054  32.655  1.00  0.00     0.167 HD
ATOM     46  C   UNL A   1      40.920  28.369  29.406  1.00  0.00     0.034 A 
ATOM     47  C   UNL A   1      39.731  32.062  35.267  1.00  0.00     0.034 A 
ATOM     48  C   UNL A   1      41.852  28.135  30.484  1.00  0.00     0.049 A 
ATOM     49  C   UNL A   1      40.842  31.048  35.180  1.00  0.00     0.074 A 
ATOM     50  C   UNL A   1      42.959  27.304  30.501  1.00  0.00     0.029 A 
ATOM     51  N   UNL A   1      41.777  28.717  31.745  1.00  0.00    -0.354 N 
ATOM     52  N   UNL A   1      41.195  30.294  34.163  1.00  0.00    -0.248 NA
ATOM     53  C   UNL A   1      41.663  30.861  36.382  1.00  0.00     0.031 C 
ATOM     54  C   UNL A   1      43.499  27.319  31.792  1.00  0.00     0.029 A 
ATOM     55  C   UNL A   1      42.790  28.231  32.558  1.00  0.00     0.049 A 
ATOM     56  H   UNL A   1      41.102  29.378  32.020  1.00  0.00     0.167 HD
ATOM     57  C   UNL A   1      42.297  29.562  34.597  1.00  0.00     0.074 A 
ATOM     58  C   UNL A   1      42.558  29.978  35.961  1.00  0.00     0.031 C 
ATOM     59  C   UNL A   1      43.030  28.636  33.926  1.00  0.00     0.034 A 
BRANCH  46  60
ATOM     60  C   UNL A   1      41.057  27.575  28.125  1.00  0.00     0.023 A 
ATOM     61  C   UNL A   1      40.691  26.219  28.054  1.00  0.00     0.031 A 
ATOM     62  C   UNL A   1      41.609  28.164  26.973  1.00  0.00     0.131 A 
ATOM     63  C   UNL A   1      40.977  25.474  26.900  1.00  0.00     0.055 A 
ATOM     64  C   UNL A   1      41.798  27.441  25.794  1.00  0.00     0.041 A 
ATOM     65  F   UNL A   1      41.997  29.449  26.980  1.00  0.00    -0.206 F 
ATOM     66  C   UNL A   1      41.503  26.081  25.759  1.00  0.00     0.022 A 
BRANCH  63  67
ATOM     67  S   UNL A   1      40.831  23.666  26.983  1.00  0.00     0.124 S 
ATOM     68  O   UNL A   1      39.390  23.480  26.820  1.00  0.00    -0.237 OA
ATOM     69  O   UNL A   1      41.661  23.232  25.866  1.00  0.00    -0.237 OA
ATOM     70  O   UNL A   1      41.346  23.341  28.311  1.00  0.00    -0.744 OA
ENDBRANCH  63  67
ENDBRANCH  46  60
BRANCH  47  71
ATOM     71  C   UNL A   1      39.452  32.792  36.537  1.00  0.00     0.023 A 
ATOM     72  C   UNL A   1      38.589  32.261  37.508  1.00  0.00     0.031 A 
ATOM     73  C   UNL A   1      40.042  34.043  36.792  1.00  0.00     0.131 A 
ATOM     74  C   UNL A   1      38.314  32.994  38.674  1.00  0.00     0.055 A 
ATOM     75  C   UNL A   1      39.808  34.742  37.976  1.00  0.00     0.041 A 
ATOM     76  F   UNL A   1      40.878  34.594  35.897  1.00  0.00    -0.206 F 
ATOM     77  C   UNL A   1      38.931  34.222  38.922  1.00  0.00     0.022 A 
BRANCH  74  78
ATOM     78  S   UNL A   1      37.084  32.346  39.839  1.00  0.00     0.124 S 
ATOM     79  O   UNL A   1      37.772  31.179  40.378  1.00  0.00    -0.237 OA
ATOM     80  O   UNL A   1      36.912  33.470  40.754  1.00  0.00    -0.237 OA
ATOM     81  O   UNL A   1      35.931  32.056  38.990  1.00  0.00    -0.744 OA
ENDBRANCH  74  78
ENDBRANCH  47  71
BRANCH  59  82
ATOM     82  C   UNL A   1      44.212  28.037  34.652  1.00  0.00     0.023 A 
ATOM     83  C   UNL A   1      44.092  26.881  35.444  1.00  0.00     0.031 A 
ATOM     84  C   UNL A   1      45.480  28.639  34.555  1.00  0.00     0.131 A 
ATOM     85  C   UNL A   1      45.202  26.400  36.155  1.00  0.00     0.055 A 
ATOM     86  C   UNL A   1      46.597  28.116  35.208  1.00  0.00     0.041 A 
ATOM     87  F   UNL A   1      45.656  29.748  33.818  1.00  0.00    -0.206 F 
ATOM     88  C   UNL A   1      46.459  26.997  36.025  1.00  0.00     0.022 A 
BRANCH  85  89
ATOM     89  S   UNL A   1      44.962  25.044  37.336  1.00  0.00     0.124 S 
ATOM     90  O   UNL A   1      45.754  23.976  36.734  1.00  0.00    -0.237 OA
ATOM     91  O   UNL A   1      45.492  25.610  38.572  1.00  0.00    -0.237 OA
ATOM     92  O   UNL A   1      43.517  24.828  37.322  1.00  0.00    -0.744 OA
ENDBRANCH  85  89
ENDBRANCH  59  82
ENDBRANCH  33  34
ENDBRANCH  25  28
ENDBRANCH  23  24
ENDBRANCH  22  23
ENDBRANCH  21  22
ENDBRANCH   1  21
TORSDOF 19
ENDMDL
MODEL 2
REMARK VINA RESULT:     -10.5      6.290     11.566
REMARK SMILES C[C@H](Sc1ccc(N)c(Cl)c1)C(=O)NCCCCCCNC(=O)c1ccc(-c2c3nc(c(-c4cc(S(=O)(=O)[O-])ccc4F)c4ccc([nH]4)c(-c4cc(S(=O)(=O)[O-])ccc4F)c4nc(c(-c5cc(S(=O)(=O)[O-])ccc5F)c5ccc2[nH]5)C=C4)C=C3)cc1
REMARK SMILES IDX 17 1 16 2 15 3 14 4 12 5 13 6 2 8 1 9 3 10 4 11 5 12 11 13
REMARK SMILES IDX 6 14 9 15 7 16 10 17 8 18 18 21 19 22 20 23 21 24 22 25
REMARK SMILES IDX 23 27 24 28 25 29 86 30 26 31 85 32 27 33 28 34 29 35 79 36
REMARK SMILES IDX 30 37 84 38 78 39 80 40 31 41 83 42 77 43 76 44 32 46 64 47
REMARK SMILES IDX 44 48 63 49 45 50 48 51 62 52 81 53 46 54 47 55 61 57 82 58
REMARK SMILES IDX 49 59 33 60 34 61 42 62 35 63 41 64 43 65 40 66 36 67 37 68
REMARK SMILES IDX 38 69 39 70 65 71 66 72 74 73 67 74 73 75 75 76 72 77 68 78
REMARK SMILES IDX 69 79 70 80 71 81 50 82 51 83 59 84 52 85 58 86 60 87 57 88
REMARK SMILES IDX 53 89 54 90 55 91 56 92
REMARK H PARENT 14 7 8 19 8 20 21 26 80 45 48 56
REMARK Flexibility Score: inf
ROOT
ATOM      1  C   UNL A   1      37.111  22.309  24.621  1.00  0.00     0.002 C 
ENDROOT
BRANCH   1   2
ATOM      2  C   UNL A   1      36.650  22.878  23.274  1.00  0.00     0.021 C 
BRANCH   2   3
ATOM      3  C   UNL A   1      35.270  23.534  23.318  1.00  0.00     0.116 C 
BRANCH   3   4
ATOM      4  N   UNL A   1      35.128  24.356  24.505  1.00  0.00    -0.355 N 
ATOM      5  C   UNL A   1      34.017  24.755  25.184  1.00  0.00     0.233 C 
ATOM      6  O   UNL A   1      34.175  25.586  26.085  1.00  0.00    -0.274 OA
ATOM      7  H   UNL A   1      35.978  24.682  24.883  1.00  0.00     0.163 HD
BRANCH   5   8
ATOM      8  C   UNL A   1      32.634  24.155  24.931  1.00  0.00     0.137 C 
ATOM      9  C   UNL A   1      31.521  25.157  25.229  1.00  0.00     0.030 C 
BRANCH   8  10
ATOM     10  S   UNL A   1      32.370  22.600  25.866  1.00  0.00    -0.113 SA
BRANCH  10  11
ATOM     11  C   UNL A   1      32.402  21.269  24.682  1.00  0.00     0.010 A 
ATOM     12  C   UNL A   1      32.200  21.394  23.306  1.00  0.00     0.017 A 
ATOM     13  C   UNL A   1      32.548  19.981  25.214  1.00  0.00     0.037 A 
ATOM     14  C   UNL A   1      32.120  20.260  22.486  1.00  0.00     0.028 A 
ATOM     15  C   UNL A   1      32.464  18.852  24.394  1.00  0.00     0.065 A 
ATOM     16  C   UNL A   1      32.206  18.974  23.021  1.00  0.00     0.050 A 
ATOM     17  Cl  UNL A   1      32.634  17.290  25.122  1.00  0.00    -0.082 Cl
BRANCH  16  18
ATOM     18  N   UNL A   1      32.150  17.872  22.173  1.00  0.00    -0.398 N 
ATOM     19  H   UNL A   1      31.309  17.370  22.072  1.00  0.00     0.156 HD
ATOM     20  H   UNL A   1      32.952  17.594  21.673  1.00  0.00     0.156 HD
ENDBRANCH  16  18
ENDBRANCH  10  11
ENDBRANCH   8  10
ENDBRANCH   5   8
ENDBRANCH   3   4
ENDBRANCH   2   3
ENDBRANCH   1   2
BRANCH   1  21
ATOM     21  C   UNL A   1      36.737  20.843  24.865  1.00  0.00     0.002 C 
BRANCH  21  22
ATOM     22  C   UNL A   1      37.922  19.876  24.940  1.00  0.00     0.021 C 
BRANCH  22  23
ATOM     23  C   UNL A   1      38.999  20.274  25.944  1.00  0.00     0.116 C 
BRANCH  23  24
ATOM     24  N   UNL A   1      40.049  19.273  26.036  1.00  0.00    -0.352 N 
ATOM     25  C   UNL A   1      41.405  19.448  26.150  1.00  0.00     0.251 C 
ATOM     26  H   UNL A   1      39.744  18.337  26.013  1.00  0.00     0.163 HD
ATOM     27  O   UNL A   1      42.159  18.489  25.990  1.00  0.00    -0.269 OA
BRANCH  25  28
ATOM     28  C   UNL A   1      41.953  20.791  26.437  1.00  0.00     0.039 A 
ATOM     29  C   UNL A   1      42.133  21.689  25.383  1.00  0.00     0.014 A 
ATOM     30  C   UNL A   1      42.284  21.163  27.743  1.00  0.00     0.014 A 
ATOM     31  C   UNL A   1      42.588  22.982  25.648  1.00  0.00     0.010 A 
ATOM     32  C   UNL A   1      42.660  22.477  28.015  1.00  0.00     0.010 A 
ATOM     33  C   UNL A   1      42.820  23.399  26.970  1.00  0.00    -0.014 A 
BRANCH  33  34
ATOM     34  C   UNL A   1      43.224  24.797  27.274  1.00  0.00     0.031 A 
ATOM     35  C   UNL A   1      42.254  25.743  27.926  1.00  0.00     0.074 A 
ATOM     36  C   UNL A   1      44.448  25.230  26.909  1.00  0.00     0.049 A 
ATOM     37  N   UNL A   1      42.400  27.010  28.214  1.00  0.00    -0.248 NA
ATOM     38  C   UNL A   1      40.933  25.196  28.266  1.00  0.00     0.031 C 
ATOM     39  C   UNL A   1      45.461  24.417  26.230  1.00  0.00     0.029 A 
ATOM     40  N   UNL A   1      45.046  26.456  27.049  1.00  0.00    -0.354 N 
ATOM     41  C   UNL A   1      41.188  27.416  28.764  1.00  0.00     0.074 A 
ATOM     42  C   UNL A   1      40.298  26.275  28.695  1.00  0.00     0.031 C 
ATOM     43  C   UNL A   1      46.562  25.160  26.038  1.00  0.00     0.029 A 
ATOM     44  C   UNL A   1      46.318  26.513  26.529  1.00  0.00     0.049 A 
ATOM     45  H   UNL A   1      44.606  27.224  27.480  1.00  0.00     0.167 HD
ATOM     46  C   UNL A   1      40.857  28.618  29.300  1.00  0.00     0.034 A 
ATOM     47  C   UNL A   1      47.186  27.540  26.440  1.00  0.00     0.034 A 
ATOM     48  C   UNL A   1      41.759  29.745  29.353  1.00  0.00     0.049 A 
ATOM     49  C   UNL A   1      46.787  28.880  27.002  1.00  0.00     0.074 A 
ATOM     50  C   UNL A   1      41.549  30.991  29.917  1.00  0.00     0.029 A 
ATOM     51  N   UNL A   1      43.037  29.770  28.806  1.00  0.00    -0.354 N 
ATOM     52  N   UNL A   1      45.657  29.233  27.573  1.00  0.00    -0.248 NA
ATOM     53  C   UNL A   1      47.782  29.956  26.918  1.00  0.00     0.031 C 
ATOM     54  C   UNL A   1      42.661  31.793  29.636  1.00  0.00     0.029 A 
ATOM     55  C   UNL A   1      43.609  31.021  28.981  1.00  0.00     0.049 A 
ATOM     56  H   UNL A   1      43.473  29.009  28.359  1.00  0.00     0.167 HD
ATOM     57  C   UNL A   1      45.818  30.567  27.940  1.00  0.00     0.074 A 
ATOM     58  C   UNL A   1      47.159  30.947  27.539  1.00  0.00     0.031 C 
ATOM     59  C   UNL A   1      44.940  31.399  28.557  1.00  0.00     0.034 A 
BRANCH  46  60
ATOM     60  C   UNL A   1      39.450  28.772  29.835  1.00  0.00     0.023 A 
ATOM     61  C   UNL A   1      38.409  29.285  29.040  1.00  0.00     0.031 A 
ATOM     62  C   UNL A   1      39.153  28.454  31.173  1.00  0.00     0.131 A 
ATOM     63  C   UNL A   1      37.159  29.561  29.612  1.00  0.00     0.055 A 
ATOM     64  C   UNL A   1      37.877  28.638  31.709  1.00  0.00     0.041 A 
ATOM     65  F   UNL A   1      40.106  27.980  31.991  1.00  0.00    -0.206 F 
ATOM     66  C   UNL A   1      36.875  29.216  30.934  1.00  0.00     0.022 A 
BRANCH  63  67
ATOM     67  S   UNL A   1      35.974  30.552  28.658  1.00  0.00     0.124 S 
ATOM     68  O   UNL A   1      35.325  31.330  29.712  1.00  0.00    -0.237 OA
ATOM     69  O   UNL A   1      36.842  31.299  27.756  1.00  0.00    -0.237 OA
ATOM     70  O   UNL A   1      35.122  29.550  28.022  1.00  0.00    -0.744 OA
ENDBRANCH  63  67
ENDBRANCH  46  60
BRANCH  47  71
ATOM     71  C   UNL A   1      48.509  27.344  25.780  1.00  0.00     0.023 A 
ATOM     72  C   UNL A   1      48.662  27.503  24.394  1.00  0.00     0.031 A 
ATOM     73  C   UNL A   1      49.641  26.983  26.533  1.00  0.00     0.131 A 
ATOM     74  C   UNL A   1      49.912  27.270  23.799  1.00  0.00     0.055 A 
ATOM     75  C   UNL A   1      50.893  26.805  25.943  1.00  0.00     0.041 A 
ATOM     76  F   UNL A   1      49.549  26.822  27.862  1.00  0.00    -0.206 F 
ATOM     77  C   UNL A   1      51.032  26.939  24.565  1.00  0.00     0.022 A 
BRANCH  74  78
ATOM     78  S   UNL A   1      50.043  27.343  21.991  1.00  0.00     0.124 S 
ATOM     79  O   UNL A   1      49.826  28.762  21.735  1.00  0.00    -0.237 OA
ATOM     80  O   UNL A   1      51.396  26.848  21.764  1.00  0.00    -0.237 OA
ATOM     81  O   UNL A   1      48.973  26.456  21.537  1.00  0.00    -0.744 OA
ENDBRANCH  74  78
ENDBRANCH  47  71
BRANCH  59  82
ATOM     82  C   UNL A   1      45.421  32.797  28.872  1.00  0.00     0.023 A 
ATOM     83  C   UNL A   1      45.329  33.843  27.937  1.00  0.00     0.031 A 
ATOM     84  C   UNL A   1      45.988  33.083  30.127  1.00  0.00     0.131 A 
ATOM     85  C   UNL A   1      45.851  35.108  28.248  1.00  0.00     0.055 A 
ATOM     86  C   UNL A   1      46.441  34.360  30.457  1.00  0.00     0.041 A 
ATOM     87  F   UNL A   1      46.108  32.123  31.059  1.00  0.00    -0.206 F 
ATOM     88  C   UNL A   1      46.387  35.380  29.510  1.00  0.00     0.022 A 
BRANCH  85  89
ATOM     89  S   UNL A   1      45.916  36.370  26.947  1.00  0.00     0.124 S 
ATOM     90  O   UNL A   1      47.067  37.168  27.358  1.00  0.00    -0.237 OA
ATOM     91  O   UNL A   1      46.096  35.566  25.742  1.00  0.00    -0.237 OA
ATOM     92  O   UNL A   1      44.624  37.043  27.055  1.00  0.00    -0.744 OA
ENDBRANCH  85  89
ENDBRANCH  59  82
ENDBRANCH  33  34
ENDBRANCH  25  28
ENDBRANCH  23  24
ENDBRANCH  22  23
ENDBRANCH  21  22
ENDBRANCH   1  21
TORSDOF 19
ENDMDL
MODEL 3
REMARK VINA RESULT:     -10.4      5.419      8.491
REMARK SMILES C[C@H](Sc1ccc(N)c(Cl)c1)C(=O)NCCCCCCNC(=O)c1ccc(-c2c3nc(c(-c4cc(S(=O)(=O)[O-])ccc4F)c4ccc([nH]4)c(-c4cc(S(=O)(=O)[O-])ccc4F)c4nc(c(-c5cc(S(=O)(=O)[O-])ccc5F)c5ccc2[nH]5)C=C4)C=C3)cc1
REMARK SMILES IDX 17 1 16 2 15 3 14 4 12 5 13 6 2 8 1 9 3 10 4 11 5 12 11 13
REMARK SMILES IDX 6 14 9 15 7 16 10 17 8 18 18 21 19 22 20 23 21 24 22 25
REMARK SMILES IDX 23 27 24 28 25 29 86 30 26 31 85 32 27 33 28 34 29 35 79 36
REMARK SMILES IDX 30 37 84 38 78 39 80 40 31 41 83 42 77 43 76 44 32 46 64 47
REMARK SMILES IDX 44 48 63 49 45 50 48 51 62 52 81 53 46 54 47 55 61 57 82 58
REMARK SMILES IDX 49 59 33 60 34 61 42 62 35 63 41 64 43 65 40 66 36 67 37 68
REMARK SMILES IDX 38 69 39 70 65 71 66 72 74 73 67 74 73 75 75 76 72 77 68 78
REMARK SMILES IDX 69 79 70 80 71 81 50 82 51 83 59 84 52 85 58 86 60 87 57 88
REMARK SMILES IDX 53 89 54 90 55 91 56 92
REMARK H PARENT 14 7 8 19 8 20 21 26 80 45 48 56
REMARK Flexibility Score: inf
ROOT
ATOM      1  C   UNL A   1      33.325  22.208  27.146  1.00  0.00     0.002 C 
ENDROOT
BRANCH   1   2
ATOM      2  C   UNL A   1      32.298  22.724  26.132  1.00  0.00     0.021 C 
BRANCH   2   3
ATOM      3  C   UNL A   1      31.138  23.495  26.761  1.00  0.00     0.116 C 
BRANCH   3   4
ATOM      4  N   UNL A   1      30.653  24.524  25.860  1.00  0.00    -0.355 N 
ATOM      5  C   UNL A   1      30.882  25.866  25.837  1.00  0.00     0.233 C 
ATOM      6  O   UNL A   1      30.217  26.538  25.041  1.00  0.00    -0.274 OA
ATOM      7  H   UNL A   1      30.059  24.197  25.146  1.00  0.00     0.163 HD
BRANCH   5   8
ATOM      8  C   UNL A   1      31.970  26.534  26.678  1.00  0.00     0.137 C 
ATOM      9  C   UNL A   1      31.630  27.990  26.988  1.00  0.00     0.030 C 
BRANCH   8  10
ATOM     10  S   UNL A   1      33.625  26.409  25.899  1.00  0.00    -0.113 SA
BRANCH  10  11
ATOM     11  C   UNL A   1      33.363  26.271  24.141  1.00  0.00     0.010 A 
ATOM     12  C   UNL A   1      33.009  27.313  23.283  1.00  0.00     0.017 A 
ATOM     13  C   UNL A   1      33.431  24.974  23.614  1.00  0.00     0.037 A 
ATOM     14  C   UNL A   1      32.705  27.063  21.937  1.00  0.00     0.028 A 
ATOM     15  C   UNL A   1      33.122  24.728  22.272  1.00  0.00     0.065 A 
ATOM     16  C   UNL A   1      32.713  25.766  21.423  1.00  0.00     0.050 A 
ATOM     17  Cl  UNL A   1      33.207  23.098  21.693  1.00  0.00    -0.082 Cl
BRANCH  16  18
ATOM     18  N   UNL A   1      32.432  25.559  20.076  1.00  0.00    -0.398 N 
ATOM     19  H   UNL A   1      32.965  24.916  19.555  1.00  0.00     0.156 HD
ATOM     20  H   UNL A   1      31.700  26.057  19.643  1.00  0.00     0.156 HD
ENDBRANCH  16  18
ENDBRANCH  10  11
ENDBRANCH   8  10
ENDBRANCH   5   8
ENDBRANCH   3   4
ENDBRANCH   2   3
ENDBRANCH   1   2
BRANCH   1  21
ATOM     21  C   UNL A   1      34.787  22.507  26.795  1.00  0.00     0.002 C 
BRANCH  21  22
ATOM     22  C   UNL A   1      35.431  21.521  25.816  1.00  0.00     0.021 C 
BRANCH  22  23
ATOM     23  C   UNL A   1      36.829  21.915  25.352  1.00  0.00     0.116 C 
BRANCH  23  24
ATOM     24  N   UNL A   1      37.813  20.891  25.666  1.00  0.00    -0.352 N 
ATOM     25  C   UNL A   1      39.110  21.037  26.087  1.00  0.00     0.251 C 
ATOM     26  H   UNL A   1      37.503  19.962  25.563  1.00  0.00     0.163 HD
ATOM     27  O   UNL A   1      39.862  20.063  26.090  1.00  0.00    -0.269 OA
BRANCH  25  28
ATOM     28  C   UNL A   1      39.603  22.365  26.510  1.00  0.00     0.039 A 
ATOM     29  C   UNL A   1      40.620  22.437  27.465  1.00  0.00     0.014 A 
ATOM     30  C   UNL A   1      39.068  23.534  25.962  1.00  0.00     0.014 A 
ATOM     31  C   UNL A   1      41.141  23.681  27.826  1.00  0.00     0.010 A 
ATOM     32  C   UNL A   1      39.644  24.766  26.262  1.00  0.00     0.010 A 
ATOM     33  C   UNL A   1      40.683  24.854  27.200  1.00  0.00    -0.014 A 
BRANCH  33  34
ATOM     34  C   UNL A   1      41.286  26.176  27.514  1.00  0.00     0.031 A 
ATOM     35  C   UNL A   1      42.679  26.503  27.052  1.00  0.00     0.074 A 
ATOM     36  C   UNL A   1      40.598  27.060  28.265  1.00  0.00     0.049 A 
ATOM     37  N   UNL A   1      43.396  27.574  27.277  1.00  0.00    -0.248 NA
ATOM     38  C   UNL A   1      43.366  25.473  26.261  1.00  0.00     0.031 C 
ATOM     39  C   UNL A   1      39.256  26.838  28.809  1.00  0.00     0.029 A 
ATOM     40  N   UNL A   1      40.933  28.314  28.708  1.00  0.00    -0.354 N 
ATOM     41  C   UNL A   1      44.623  27.345  26.661  1.00  0.00     0.074 A 
ATOM     42  C   UNL A   1      44.572  26.002  26.122  1.00  0.00     0.031 C 
ATOM     43  C   UNL A   1      38.872  27.930  29.488  1.00  0.00     0.029 A 
ATOM     44  C   UNL A   1      39.957  28.907  29.476  1.00  0.00     0.049 A 
ATOM     45  H   UNL A   1      41.790  28.749  28.498  1.00  0.00     0.167 HD
ATOM     46  C   UNL A   1      45.681  28.185  26.535  1.00  0.00     0.034 A 
ATOM     47  C   UNL A   1      39.940  30.094  30.113  1.00  0.00     0.034 A 
ATOM     48  C   UNL A   1      45.712  29.520  27.086  1.00  0.00     0.049 A 
ATOM     49  C   UNL A   1      41.141  30.998  29.998  1.00  0.00     0.074 A 
ATOM     50  C   UNL A   1      46.708  30.475  26.978  1.00  0.00     0.029 A 
ATOM     51  N   UNL A   1      44.709  30.083  27.869  1.00  0.00    -0.354 N 
ATOM     52  N   UNL A   1      42.272  30.792  29.362  1.00  0.00    -0.248 NA
ATOM     53  C   UNL A   1      41.059  32.297  30.676  1.00  0.00     0.031 C 
ATOM     54  C   UNL A   1      46.347  31.577  27.761  1.00  0.00     0.029 A 
ATOM     55  C   UNL A   1      45.082  31.353  28.284  1.00  0.00     0.049 A 
ATOM     56  H   UNL A   1      43.859  29.643  28.096  1.00  0.00     0.167 HD
ATOM     57  C   UNL A   1      43.025  31.949  29.543  1.00  0.00     0.074 A 
ATOM     58  C   UNL A   1      42.212  32.852  30.333  1.00  0.00     0.031 C 
ATOM     59  C   UNL A   1      44.273  32.239  29.091  1.00  0.00     0.034 A 
BRANCH  46  60
ATOM     60  C   UNL A   1      46.895  27.661  25.800  1.00  0.00     0.023 A 
ATOM     61  C   UNL A   1      47.189  28.054  24.481  1.00  0.00     0.031 A 
ATOM     62  C   UNL A   1      47.744  26.716  26.403  1.00  0.00     0.131 A 
ATOM     63  C   UNL A   1      48.229  27.431  23.778  1.00  0.00     0.055 A 
ATOM     64  C   UNL A   1      48.841  26.173  25.730  1.00  0.00     0.041 A 
ATOM     65  F   UNL A   1      47.510  26.283  27.653  1.00  0.00    -0.206 F 
ATOM     66  C   UNL A   1      49.076  26.513  24.401  1.00  0.00     0.022 A 
BRANCH  63  67
ATOM     67  S   UNL A   1      48.338  27.696  21.985  1.00  0.00     0.124 S 
ATOM     68  O   UNL A   1      48.600  26.341  21.503  1.00  0.00    -0.237 OA
ATOM     69  O   UNL A   1      47.026  28.245  21.668  1.00  0.00    -0.237 OA
ATOM     70  O   UNL A   1      49.457  28.625  21.844  1.00  0.00    -0.744 OA
ENDBRANCH  63  67
ENDBRANCH  46  60
BRANCH  47  71
ATOM     71  C   UNL A   1      38.755  30.487  30.928  1.00  0.00     0.023 A 
ATOM     72  C   UNL A   1      37.671  31.169  30.354  1.00  0.00     0.031 A 
ATOM     73  C   UNL A   1      38.697  30.191  32.302  1.00  0.00     0.131 A 
ATOM     74  C   UNL A   1      36.589  31.561  31.159  1.00  0.00     0.055 A 
ATOM     75  C   UNL A   1      37.595  30.535  33.085  1.00  0.00     0.041 A 
ATOM     76  F   UNL A   1      39.706  29.536  32.898  1.00  0.00    -0.206 F 
ATOM     77  C   UNL A   1      36.535  31.234  32.516  1.00  0.00     0.022 A 
BRANCH  74  78
ATOM     78  S   UNL A   1      35.273  32.566  30.418  1.00  0.00     0.124 S 
ATOM     79  O   UNL A   1      34.313  32.652  31.512  1.00  0.00    -0.237 OA
ATOM     80  O   UNL A   1      35.981  33.798  30.086  1.00  0.00    -0.237 OA
ATOM     81  O   UNL A   1      34.842  31.770  29.271  1.00  0.00    -0.744 OA
ENDBRANCH  74  78
ENDBRANCH  47  71
BRANCH  59  82
ATOM     82  C   UNL A   1      44.818  33.612  29.412  1.00  0.00     0.023 A 
ATOM     83  C   UNL A   1      44.697  34.689  28.515  1.00  0.00     0.031 A 
ATOM     84  C   UNL A   1      45.477  33.844  30.633  1.00  0.00     0.131 A 
ATOM     85  C   UNL A   1      45.278  35.928  28.826  1.00  0.00     0.055 A 
ATOM     86  C   UNL A   1      45.992  35.096  30.967  1.00  0.00     0.041 A 
ATOM     87  F   UNL A   1      45.629  32.852  31.527  1.00  0.00    -0.206 F 
ATOM     88  C   UNL A   1      45.907  36.145  30.055  1.00  0.00     0.022 A 
BRANCH  85  89
ATOM     89  S   UNL A   1      45.296  37.226  27.559  1.00  0.00     0.124 S 
ATOM     90  O   UNL A   1      45.815  38.368  28.304  1.00  0.00    -0.237 OA
ATOM     91  O   UNL A   1      46.188  36.665  26.550  1.00  0.00    -0.237 OA
ATOM     92  O   UNL A   1      43.895  37.332  27.157  1.00  0.00    -0.744 OA
ENDBRANCH  85  89
ENDBRANCH  59  82
ENDBRANCH  33  34
ENDBRANCH  25  28
ENDBRANCH  23  24
ENDBRANCH  22  23
ENDBRANCH  21  22
ENDBRANCH   1  21
TORSDOF 19
ENDMDL
