MODEL 1
REMARK VINA RESULT:     -12.9      0.000      0.000
REMARK SMILES Cc1ccc(C(=O)N2C[C@H](C(=O)NCCCCCCNC(=O)c3ccc(-c4c5nc(c(-c6cc(S(=O)(=O)[O-])ccc6F)c6ccc([nH]6)c(-c6cc(S(=O)(=O)[O-])ccc6F)c6nc(c(-c7cc(S(=O)(=O)[O-])ccc7F)c7ccc4[nH]7)C=C6)C=C5)cc3)Oc3ccccc32)o1
REMARK SMILES IDX 17 1 16 2 15 3 14 4 13 5 11 6 12 7 10 9 8 10 9 11 92 12
REMARK SMILES IDX 87 13 91 14 86 15 88 16 90 17 89 18 6 19 7 20 5 21 1 22 2 23
REMARK SMILES IDX 3 24 93 25 4 26 18 27 19 28 20 29 21 30 22 32 23 33 24 34
REMARK SMILES IDX 85 35 25 36 84 37 26 38 27 39 28 40 78 41 29 42 83 43 77 44
REMARK SMILES IDX 79 45 30 46 82 47 76 48 75 49 31 51 63 52 43 53 62 54 44 55
REMARK SMILES IDX 47 56 61 57 80 58 45 59 46 60 60 62 81 63 48 64 32 65 33 66
REMARK SMILES IDX 41 67 34 68 40 69 42 70 39 71 35 72 36 73 37 74 38 75 64 76
REMARK SMILES IDX 65 77 73 78 66 79 72 80 74 81 71 82 67 83 68 84 69 85 70 86
REMARK SMILES IDX 49 87 50 88 58 89 51 90 57 91 59 92 56 93 52 94 53 95 54 96
REMARK SMILES IDX 55 97
REMARK H PARENT 13 8 20 31 79 50 47 61
REMARK Flexibility Score: inf
ROOT
ATOM      1  C   UNL A   1      32.066  29.640  26.179  1.00  0.00     0.002 C 
ENDROOT
BRANCH   1   2
ATOM      2  C   UNL A   1      31.392  29.141  24.896  1.00  0.00     0.002 C 
BRANCH   2   3
ATOM      3  C   UNL A   1      32.283  28.305  23.969  1.00  0.00     0.021 C 
BRANCH   3   4
ATOM      4  C   UNL A   1      31.748  26.906  23.671  1.00  0.00     0.116 C 
BRANCH   4   5
ATOM      5  N   UNL A   1      32.187  26.445  22.362  1.00  0.00    -0.353 N 
ATOM      6  C   UNL A   1      32.899  25.331  22.014  1.00  0.00     0.262 C 
ATOM      7  O   UNL A   1      33.178  25.177  20.822  1.00  0.00    -0.271 OA
ATOM      8  H   UNL A   1      31.933  27.027  21.610  1.00  0.00     0.163 HD
BRANCH   6   9
ATOM      9  C   UNL A   1      33.382  24.332  23.069  1.00  0.00     0.281 C 
ATOM     10  N   UNL A   1      33.060  22.043  23.928  1.00  0.00    -0.298 N 
ATOM     11  C   UNL A   1      32.578  23.040  22.971  1.00  0.00     0.181 C 
ATOM     12  C   UNL A   1      34.469  22.042  24.161  1.00  0.00     0.087 A 
ATOM     13  C   UNL A   1      35.272  23.055  23.607  1.00  0.00     0.144 A 
ATOM     14  C   UNL A   1      35.103  20.993  24.841  1.00  0.00     0.030 A 
ATOM     15  O   UNL A   1      34.786  24.130  22.909  1.00  0.00    -0.477 OA
ATOM     16  C   UNL A   1      36.665  23.000  23.707  1.00  0.00     0.049 A 
ATOM     17  C   UNL A   1      36.496  20.942  24.943  1.00  0.00     0.002 A 
ATOM     18  C   UNL A   1      37.278  21.942  24.372  1.00  0.00     0.004 A 
BRANCH  10  19
ATOM     19  C   UNL A   1      32.190  21.165  24.583  1.00  0.00     0.294 C 
ATOM     20  O   UNL A   1      31.413  21.568  25.457  1.00  0.00    -0.265 OA
BRANCH  19  21
ATOM     21  C   UNL A   1      32.279  19.755  24.231  1.00  0.00     0.192 A 
ATOM     22  C   UNL A   1      32.708  16.498  25.658  1.00  0.00     0.087 C 
ATOM     23  C   UNL A   1      32.547  17.615  24.707  1.00  0.00     0.101 A 
ATOM     24  C   UNL A   1      32.602  17.710  23.336  1.00  0.00     0.046 A 
ATOM     25  O   UNL A   1      32.333  18.842  25.254  1.00  0.00    -0.456 OA
ATOM     26  C   UNL A   1      32.441  19.083  23.029  1.00  0.00     0.056 A 
ENDBRANCH  19  21
ENDBRANCH  10  19
ENDBRANCH   6   9
ENDBRANCH   4   5
ENDBRANCH   3   4
ENDBRANCH   2   3
ENDBRANCH   1   2
BRANCH   1  27
ATOM     27  C   UNL A   1      31.790  31.102  26.546  1.00  0.00     0.021 C 
BRANCH  27  28
ATOM     28  C   UNL A   1      32.960  31.848  27.184  1.00  0.00     0.116 C 
BRANCH  28  29
ATOM     29  N   UNL A   1      32.649  33.242  27.451  1.00  0.00    -0.352 N 
ATOM     30  C   UNL A   1      33.203  34.092  28.377  1.00  0.00     0.251 C 
ATOM     31  H   UNL A   1      31.941  33.632  26.888  1.00  0.00     0.163 HD
ATOM     32  O   UNL A   1      32.698  35.195  28.570  1.00  0.00    -0.269 OA
BRANCH  30  33
ATOM     33  C   UNL A   1      34.386  33.666  29.157  1.00  0.00     0.039 A 
ATOM     34  C   UNL A   1      34.205  32.804  30.243  1.00  0.00     0.014 A 
ATOM     35  C   UNL A   1      35.666  34.116  28.822  1.00  0.00     0.014 A 
ATOM     36  C   UNL A   1      35.316  32.338  30.951  1.00  0.00     0.010 A 
ATOM     37  C   UNL A   1      36.777  33.613  29.499  1.00  0.00     0.010 A 
ATOM     38  C   UNL A   1      36.612  32.713  30.565  1.00  0.00    -0.014 A 
BRANCH  38  39
ATOM     39  C   UNL A   1      37.814  32.171  31.250  1.00  0.00     0.031 A 
ATOM     40  C   UNL A   1      38.586  31.040  30.633  1.00  0.00     0.074 A 
ATOM     41  C   UNL A   1      38.155  32.641  32.466  1.00  0.00     0.049 A 
ATOM     42  N   UNL A   1      39.577  30.345  31.129  1.00  0.00    -0.248 NA
ATOM     43  C   UNL A   1      38.168  30.620  29.289  1.00  0.00     0.031 C 
ATOM     44  C   UNL A   1      37.465  33.716  33.181  1.00  0.00     0.029 A 
ATOM     45  N   UNL A   1      39.156  32.261  33.323  1.00  0.00    -0.354 N 
ATOM     46  C   UNL A   1      39.890  29.391  30.168  1.00  0.00     0.074 A 
ATOM     47  C   UNL A   1      38.953  29.574  29.078  1.00  0.00     0.031 C 
ATOM     48  C   UNL A   1      38.064  33.908  34.368  1.00  0.00     0.029 A 
ATOM     49  C   UNL A   1      39.152  32.947  34.515  1.00  0.00     0.049 A 
ATOM     50  H   UNL A   1      39.814  31.561  33.107  1.00  0.00     0.167 HD
ATOM     51  C   UNL A   1      40.876  28.458  30.187  1.00  0.00     0.034 A 
ATOM     52  C   UNL A   1      39.924  32.804  35.610  1.00  0.00     0.034 A 
ATOM     53  C   UNL A   1      41.812  28.297  31.272  1.00  0.00     0.049 A 
ATOM     54  C   UNL A   1      41.000  31.752  35.616  1.00  0.00     0.074 A 
ATOM     55  C   UNL A   1      42.886  27.428  31.366  1.00  0.00     0.029 A 
ATOM     56  N   UNL A   1      41.784  29.020  32.458  1.00  0.00    -0.354 N 
ATOM     57  N   UNL A   1      41.304  30.878  34.686  1.00  0.00    -0.248 NA
ATOM     58  C   UNL A   1      41.839  31.671  36.819  1.00  0.00     0.031 C 
ATOM     59  C   UNL A   1      43.474  27.588  32.628  1.00  0.00     0.029 A 
ATOM     60  C   UNL A   1      42.802  28.597  33.299  1.00  0.00     0.049 A 
ATOM     61  H   UNL A   1      41.135  29.728  32.672  1.00  0.00     0.167 HD
ATOM     62  C   UNL A   1      42.385  30.157  35.184  1.00  0.00     0.074 A 
ATOM     63  C   UNL A   1      42.683  30.703  36.492  1.00  0.00     0.031 C 
ATOM     64  C   UNL A   1      43.074  29.141  34.607  1.00  0.00     0.034 A 
BRANCH  51  65
ATOM     65  C   UNL A   1      40.962  27.525  29.005  1.00  0.00     0.023 A 
ATOM     66  C   UNL A   1      41.943  27.682  28.012  1.00  0.00     0.031 A 
ATOM     67  C   UNL A   1      40.025  26.488  28.849  1.00  0.00     0.131 A 
ATOM     68  C   UNL A   1      41.919  26.869  26.869  1.00  0.00     0.055 A 
ATOM     69  C   UNL A   1      40.053  25.631  27.746  1.00  0.00     0.041 A 
ATOM     70  F   UNL A   1      39.053  26.302  29.757  1.00  0.00    -0.206 F 
ATOM     71  C   UNL A   1      40.995  25.829  26.739  1.00  0.00     0.022 A 
BRANCH  68  72
ATOM     72  S   UNL A   1      43.024  27.280  25.491  1.00  0.00     0.124 S 
ATOM     73  O   UNL A   1      44.188  27.811  26.196  1.00  0.00    -0.237 OA
ATOM     74  O   UNL A   1      43.206  25.990  24.837  1.00  0.00    -0.237 OA
ATOM     75  O   UNL A   1      42.264  28.266  24.726  1.00  0.00    -0.744 OA
ENDBRANCH  68  72
ENDBRANCH  51  65
BRANCH  52  76
ATOM     76  C   UNL A   1      39.693  33.660  36.805  1.00  0.00     0.023 A 
ATOM     77  C   UNL A   1      39.020  33.160  37.931  1.00  0.00     0.031 A 
ATOM     78  C   UNL A   1      40.117  35.000  36.825  1.00  0.00     0.131 A 
ATOM     79  C   UNL A   1      38.760  34.006  39.020  1.00  0.00     0.055 A 
ATOM     80  C   UNL A   1      39.889  35.827  37.926  1.00  0.00     0.041 A 
ATOM     81  F   UNL A   1      40.772  35.520  35.775  1.00  0.00    -0.206 F 
ATOM     82  C   UNL A   1      39.197  35.333  39.028  1.00  0.00     0.022 A 
BRANCH  79  83
ATOM     83  S   UNL A   1      37.789  33.360  40.408  1.00  0.00     0.124 S 
ATOM     84  O   UNL A   1      38.660  32.307  40.917  1.00  0.00    -0.237 OA
ATOM     85  O   UNL A   1      37.648  34.542  41.252  1.00  0.00    -0.237 OA
ATOM     86  O   UNL A   1      36.555  32.900  39.775  1.00  0.00    -0.744 OA
ENDBRANCH  79  83
ENDBRANCH  52  76
BRANCH  64  87
ATOM     87  C   UNL A   1      44.239  28.587  35.384  1.00  0.00     0.023 A 
ATOM     88  C   UNL A   1      44.070  27.578  36.347  1.00  0.00     0.031 A 
ATOM     89  C   UNL A   1      45.533  29.090  35.166  1.00  0.00     0.131 A 
ATOM     90  C   UNL A   1      45.173  27.132  37.090  1.00  0.00     0.055 A 
ATOM     91  C   UNL A   1      46.634  28.611  35.877  1.00  0.00     0.041 A 
ATOM     92  F   UNL A   1      45.747  30.055  34.258  1.00  0.00    -0.206 F 
ATOM     93  C   UNL A   1      46.456  27.633  36.852  1.00  0.00     0.022 A 
BRANCH  90  94
ATOM     94  S   UNL A   1      44.901  25.927  38.419  1.00  0.00     0.124 S 
ATOM     95  O   UNL A   1      46.221  25.854  39.036  1.00  0.00    -0.237 OA
ATOM     96  O   UNL A   1      43.860  26.569  39.215  1.00  0.00    -0.237 OA
ATOM     97  O   UNL A   1      44.481  24.721  37.708  1.00  0.00    -0.744 OA
ENDBRANCH  90  94
ENDBRANCH  64  87
ENDBRANCH  38  39
ENDBRANCH  30  33
ENDBRANCH  28  29
ENDBRANCH  27  28
ENDBRANCH   1  27
TORSDOF 18
ENDMDL
MODEL 2
REMARK VINA RESULT:     -12.8      5.644     10.923
REMARK SMILES Cc1ccc(C(=O)N2C[C@H](C(=O)NCCCCCCNC(=O)c3ccc(-c4c5nc(c(-c6cc(S(=O)(=O)[O-])ccc6F)c6ccc([nH]6)c(-c6cc(S(=O)(=O)[O-])ccc6F)c6nc(c(-c7cc(S(=O)(=O)[O-])ccc7F)c7ccc4[nH]7)C=C6)C=C5)cc3)Oc3ccccc32)o1
REMARK SMILES IDX 17 1 16 2 15 3 14 4 13 5 11 6 12 7 10 9 8 10 9 11 92 12
REMARK SMILES IDX 87 13 91 14 86 15 88 16 90 17 89 18 6 19 7 20 5 21 1 22 2 23
REMARK SMILES IDX 3 24 93 25 4 26 18 27 19 28 20 29 21 30 22 32 23 33 24 34
REMARK SMILES IDX 85 35 25 36 84 37 26 38 27 39 28 40 78 41 29 42 83 43 77 44
REMARK SMILES IDX 79 45 30 46 82 47 76 48 75 49 31 51 63 52 43 53 62 54 44 55
REMARK SMILES IDX 47 56 61 57 80 58 45 59 46 60 60 62 81 63 48 64 32 65 33 66
REMARK SMILES IDX 41 67 34 68 40 69 42 70 39 71 35 72 36 73 37 74 38 75 64 76
REMARK SMILES IDX 65 77 73 78 66 79 72 80 74 81 71 82 67 83 68 84 69 85 70 86
REMARK SMILES IDX 49 87 50 88 58 89 51 90 57 91 59 92 56 93 52 94 53 95 54 96
REMARK SMILES IDX 55 97
REMARK H PARENT 13 8 20 31 79 50 47 61
REMARK Flexibility Score: inf
ROOT
ATOM      1  C   UNL A   1      35.023  23.362  24.071  1.00  0.00     0.002 C 
ENDROOT
BRANCH   1   2
ATOM      2  C   UNL A   1      34.047  23.633  25.221  1.00  0.00     0.002 C 
BRANCH   2   3
ATOM      3  C   UNL A   1      33.143  22.457  25.607  1.00  0.00     0.021 C 
BRANCH   3   4
ATOM      4  C   UNL A   1      31.759  22.484  24.963  1.00  0.00     0.116 C 
BRANCH   4   5
ATOM      5  N   UNL A   1      30.732  22.815  25.941  1.00  0.00    -0.353 N 
ATOM      6  C   UNL A   1      30.273  24.033  26.356  1.00  0.00     0.262 C 
ATOM      7  O   UNL A   1      29.404  24.051  27.233  1.00  0.00    -0.271 OA
ATOM      8  H   UNL A   1      30.302  22.041  26.369  1.00  0.00     0.163 HD
BRANCH   6   9
ATOM      9  C   UNL A   1      30.848  25.336  25.795  1.00  0.00     0.281 C 
ATOM     10  N   UNL A   1      30.366  27.238  24.300  1.00  0.00    -0.298 N 
ATOM     11  C   UNL A   1      29.867  25.959  24.807  1.00  0.00     0.181 C 
ATOM     12  C   UNL A   1      31.100  28.028  25.236  1.00  0.00     0.087 A 
ATOM     13  C   UNL A   1      31.433  27.495  26.494  1.00  0.00     0.144 A 
ATOM     14  C   UNL A   1      31.413  29.371  24.983  1.00  0.00     0.030 A 
ATOM     15  O   UNL A   1      31.176  26.205  26.879  1.00  0.00    -0.477 OA
ATOM     16  C   UNL A   1      32.031  28.293  27.474  1.00  0.00     0.049 A 
ATOM     17  C   UNL A   1      32.015  30.165  25.963  1.00  0.00     0.002 A 
ATOM     18  C   UNL A   1      32.319  29.629  27.210  1.00  0.00     0.004 A 
BRANCH  10  19
ATOM     19  C   UNL A   1      30.150  27.646  22.980  1.00  0.00     0.294 C 
ATOM     20  O   UNL A   1      30.896  27.276  22.066  1.00  0.00    -0.265 OA
BRANCH  19  21
ATOM     21  C   UNL A   1      29.046  28.565  22.740  1.00  0.00     0.192 A 
ATOM     22  C   UNL A   1      28.039  31.306  20.666  1.00  0.00     0.087 C 
ATOM     23  C   UNL A   1      28.080  30.262  21.708  1.00  0.00     0.101 A 
ATOM     24  C   UNL A   1      27.275  29.961  22.782  1.00  0.00     0.046 A 
ATOM     25  O   UNL A   1      29.141  29.411  21.665  1.00  0.00    -0.456 OA
ATOM     26  C   UNL A   1      27.898  28.880  23.451  1.00  0.00     0.056 A 
ENDBRANCH  19  21
ENDBRANCH  10  19
ENDBRANCH   6   9
ENDBRANCH   4   5
ENDBRANCH   3   4
ENDBRANCH   2   3
ENDBRANCH   1   2
BRANCH   1  27
ATOM     27  C   UNL A   1      35.940  22.149  24.253  1.00  0.00     0.021 C 
BRANCH  27  28
ATOM     28  C   UNL A   1      36.641  22.056  25.607  1.00  0.00     0.116 C 
BRANCH  28  29
ATOM     29  N   UNL A   1      37.628  20.990  25.648  1.00  0.00    -0.352 N 
ATOM     30  C   UNL A   1      38.965  21.059  25.958  1.00  0.00     0.251 C 
ATOM     31  H   UNL A   1      37.291  20.093  25.422  1.00  0.00     0.163 HD
ATOM     32  O   UNL A   1      39.682  20.078  25.780  1.00  0.00    -0.269 OA
BRANCH  30  33
ATOM     33  C   UNL A   1      39.541  22.320  26.475  1.00  0.00     0.039 A 
ATOM     34  C   UNL A   1      40.454  22.264  27.531  1.00  0.00     0.014 A 
ATOM     35  C   UNL A   1      39.179  23.552  25.922  1.00  0.00     0.014 A 
ATOM     36  C   UNL A   1      41.059  23.438  27.989  1.00  0.00     0.010 A 
ATOM     37  C   UNL A   1      39.819  24.716  26.348  1.00  0.00     0.010 A 
ATOM     38  C   UNL A   1      40.770  24.669  27.379  1.00  0.00    -0.014 A 
BRANCH  38  39
ATOM     39  C   UNL A   1      41.456  25.920  27.793  1.00  0.00     0.031 A 
ATOM     40  C   UNL A   1      40.696  26.986  28.531  1.00  0.00     0.074 A 
ATOM     41  C   UNL A   1      42.737  26.128  27.430  1.00  0.00     0.049 A 
ATOM     42  N   UNL A   1      41.074  28.193  28.862  1.00  0.00    -0.248 NA
ATOM     43  C   UNL A   1      39.319  26.655  28.921  1.00  0.00     0.031 C 
ATOM     44  C   UNL A   1      43.570  25.181  26.686  1.00  0.00     0.029 A 
ATOM     45  N   UNL A   1      43.555  27.213  27.618  1.00  0.00    -0.354 N 
ATOM     46  C   UNL A   1      39.976  28.776  29.484  1.00  0.00     0.074 A 
ATOM     47  C   UNL A   1      38.907  27.801  29.443  1.00  0.00     0.031 C 
ATOM     48  C   UNL A   1      44.780  25.727  26.483  1.00  0.00     0.029 A 
ATOM     49  C   UNL A   1      44.796  27.074  27.044  1.00  0.00     0.049 A 
ATOM     50  H   UNL A   1      43.278  28.016  28.115  1.00  0.00     0.167 HD
ATOM     51  C   UNL A   1      39.875  30.006  30.049  1.00  0.00     0.034 A 
ATOM     52  C   UNL A   1      45.825  27.940  26.962  1.00  0.00     0.034 A 
ATOM     53  C   UNL A   1      40.953  30.963  30.096  1.00  0.00     0.049 A 
ATOM     54  C   UNL A   1      45.685  29.306  27.580  1.00  0.00     0.074 A 
ATOM     55  C   UNL A   1      40.977  32.210  30.697  1.00  0.00     0.029 A 
ATOM     56  N   UNL A   1      42.201  30.781  29.515  1.00  0.00    -0.354 N 
ATOM     57  N   UNL A   1      44.650  29.831  28.193  1.00  0.00    -0.248 NA
ATOM     58  C   UNL A   1      46.853  30.192  27.498  1.00  0.00     0.031 C 
ATOM     59  C   UNL A   1      42.219  32.803  30.435  1.00  0.00     0.029 A 
ATOM     60  C   UNL A   1      42.991  31.902  29.719  1.00  0.00     0.049 A 
ATOM     61  H   UNL A   1      42.484  29.974  29.028  1.00  0.00     0.167 HD
ATOM     62  C   UNL A   1      45.051  31.103  28.588  1.00  0.00     0.074 A 
ATOM     63  C   UNL A   1      46.424  31.263  28.152  1.00  0.00     0.031 C 
ATOM     64  C   UNL A   1      44.351  32.051  29.260  1.00  0.00     0.034 A 
BRANCH  51  65
ATOM     65  C   UNL A   1      38.536  30.388  30.629  1.00  0.00     0.023 A 
ATOM     66  C   UNL A   1      37.567  31.061  29.866  1.00  0.00     0.031 A 
ATOM     67  C   UNL A   1      38.239  30.111  31.975  1.00  0.00     0.131 A 
ATOM     68  C   UNL A   1      36.382  31.503  30.471  1.00  0.00     0.055 A 
ATOM     69  C   UNL A   1      37.025  30.486  32.554  1.00  0.00     0.041 A 
ATOM     70  F   UNL A   1      39.134  29.487  32.758  1.00  0.00    -0.206 F 
ATOM     71  C   UNL A   1      36.093  31.201  31.804  1.00  0.00     0.022 A 
BRANCH  68  72
ATOM     72  S   UNL A   1      35.287  32.601  29.530  1.00  0.00     0.124 S 
ATOM     73  O   UNL A   1      36.212  33.652  29.115  1.00  0.00    -0.237 OA
ATOM     74  O   UNL A   1      34.796  31.726  28.473  1.00  0.00    -0.237 OA
ATOM     75  O   UNL A   1      34.287  33.013  30.514  1.00  0.00    -0.744 OA
ENDBRANCH  68  72
ENDBRANCH  51  65
BRANCH  52  76
ATOM     76  C   UNL A   1      47.071  27.557  26.245  1.00  0.00     0.023 A 
ATOM     77  C   UNL A   1      47.215  27.799  24.870  1.00  0.00     0.031 A 
ATOM     78  C   UNL A   1      48.124  26.917  26.920  1.00  0.00     0.131 A 
ATOM     79  C   UNL A   1      48.374  27.372  24.205  1.00  0.00     0.055 A 
ATOM     80  C   UNL A   1      49.291  26.526  26.262  1.00  0.00     0.041 A 
ATOM     81  F   UNL A   1      48.035  26.672  28.238  1.00  0.00    -0.206 F 
ATOM     82  C   UNL A   1      49.416  26.745  24.893  1.00  0.00     0.022 A 
BRANCH  79  83
ATOM     83  S   UNL A   1      48.477  27.597  22.408  1.00  0.00     0.124 S 
ATOM     84  O   UNL A   1      49.640  28.467  22.284  1.00  0.00    -0.237 OA
ATOM     85  O   UNL A   1      48.648  26.224  21.943  1.00  0.00    -0.237 OA
ATOM     86  O   UNL A   1      47.196  28.212  22.068  1.00  0.00    -0.744 OA
ENDBRANCH  79  83
ENDBRANCH  52  76
BRANCH  64  87
ATOM     87  C   UNL A   1      45.081  33.326  29.590  1.00  0.00     0.023 A 
ATOM     88  C   UNL A   1      45.025  34.446  28.743  1.00  0.00     0.031 A 
ATOM     89  C   UNL A   1      45.855  33.412  30.759  1.00  0.00     0.131 A 
ATOM     90  C   UNL A   1      45.768  35.594  29.058  1.00  0.00     0.055 A 
ATOM     91  C   UNL A   1      46.557  34.572  31.089  1.00  0.00     0.041 A 
ATOM     92  F   UNL A   1      45.942  32.368  31.599  1.00  0.00    -0.206 F 
ATOM     93  C   UNL A   1      46.523  35.668  30.232  1.00  0.00     0.022 A 
BRANCH  90  94
ATOM     94  S   UNL A   1      45.785  36.973  27.879  1.00  0.00     0.124 S 
ATOM     95  O   UNL A   1      44.922  36.471  26.814  1.00  0.00    -0.237 OA
ATOM     96  O   UNL A   1      45.243  38.071  28.674  1.00  0.00    -0.237 OA
ATOM     97  O   UNL A   1      47.196  37.104  27.524  1.00  0.00    -0.744 OA
ENDBRANCH  90  94
ENDBRANCH  64  87
ENDBRANCH  38  39
ENDBRANCH  30  33
ENDBRANCH  28  29
ENDBRANCH  27  28
ENDBRANCH   1  27
TORSDOF 18
ENDMDL
MODEL 3
REMARK VINA RESULT:     -12.7      5.141      8.915
REMARK SMILES Cc1ccc(C(=O)N2C[C@H](C(=O)NCCCCCCNC(=O)c3ccc(-c4c5nc(c(-c6cc(S(=O)(=O)[O-])ccc6F)c6ccc([nH]6)c(-c6cc(S(=O)(=O)[O-])ccc6F)c6nc(c(-c7cc(S(=O)(=O)[O-])ccc7F)c7ccc4[nH]7)C=C6)C=C5)cc3)Oc3ccccc32)o1
REMARK SMILES IDX 17 1 16 2 15 3 14 4 13 5 11 6 12 7 10 9 8 10 9 11 92 12
REMARK SMILES IDX 87 13 91 14 86 15 88 16 90 17 89 18 6 19 7 20 5 21 1 22 2 23
REMARK SMILES IDX 3 24 93 25 4 26 18 27 19 28 20 29 21 30 22 32 23 33 24 34
REMARK SMILES IDX 85 35 25 36 84 37 26 38 27 39 28 40 78 41 29 42 83 43 77 44
REMARK SMILES IDX 79 45 30 46 82 47 76 48 75 49 31 51 63 52 43 53 62 54 44 55
REMARK SMILES IDX 47 56 61 57 80 58 45 59 46 60 60 62 81 63 48 64 32 65 33 66
REMARK SMILES IDX 41 67 34 68 40 69 42 70 39 71 35 72 36 73 37 74 38 75 64 76
REMARK SMILES IDX 65 77 73 78 66 79 72 80 74 81 71 82 67 83 68 84 69 85 70 86
REMARK SMILES IDX 49 87 50 88 58 89 51 90 57 91 59 92 56 93 52 94 53 95 54 96
REMARK SMILES IDX 55 97
REMARK H PARENT 13 8 20 31 79 50 47 61
REMARK Flexibility Score: inf
ROOT
ATOM      1  C   UNL A   1      34.888  23.340  24.289  1.00  0.00     0.002 C 
ENDROOT
BRANCH   1   2
ATOM      2  C   UNL A   1      34.626  23.925  25.681  1.00  0.00     0.002 C 
BRANCH   2   3
ATOM      3  C   UNL A   1      33.704  23.094  26.580  1.00  0.00     0.021 C 
BRANCH   3   4
ATOM      4  C   UNL A   1      32.548  22.416  25.846  1.00  0.00     0.116 C 
BRANCH   4   5
ATOM      5  N   UNL A   1      31.279  22.682  26.508  1.00  0.00    -0.353 N 
ATOM      6  C   UNL A   1      30.572  23.845  26.619  1.00  0.00     0.262 C 
ATOM      7  O   UNL A   1      29.521  23.819  27.267  1.00  0.00    -0.271 OA
ATOM      8  H   UNL A   1      30.867  21.902  26.942  1.00  0.00     0.163 HD
BRANCH   6   9
ATOM      9  C   UNL A   1      31.085  25.152  26.009  1.00  0.00     0.281 C 
ATOM     10  N   UNL A   1      30.525  26.956  24.423  1.00  0.00    -0.298 N 
ATOM     11  C   UNL A   1      30.088  25.675  24.980  1.00  0.00     0.181 C 
ATOM     12  C   UNL A   1      31.198  27.826  25.333  1.00  0.00     0.087 A 
ATOM     13  C   UNL A   1      31.538  27.369  26.619  1.00  0.00     0.144 A 
ATOM     14  C   UNL A   1      31.441  29.172  25.025  1.00  0.00     0.030 A 
ATOM     15  O   UNL A   1      31.345  26.084  27.058  1.00  0.00    -0.477 OA
ATOM     16  C   UNL A   1      32.074  28.241  27.571  1.00  0.00     0.049 A 
ATOM     17  C   UNL A   1      31.982  30.041  25.977  1.00  0.00     0.002 A 
ATOM     18  C   UNL A   1      32.293  29.578  27.251  1.00  0.00     0.004 A 
BRANCH  10  19
ATOM     19  C   UNL A   1      30.309  27.293  23.083  1.00  0.00     0.294 C 
ATOM     20  O   UNL A   1      31.085  26.916  22.196  1.00  0.00    -0.265 OA
BRANCH  19  21
ATOM     21  C   UNL A   1      29.169  28.148  22.787  1.00  0.00     0.192 A 
ATOM     22  C   UNL A   1      28.233  31.107  20.997  1.00  0.00     0.087 C 
ATOM     23  C   UNL A   1      28.212  29.911  21.862  1.00  0.00     0.101 A 
ATOM     24  C   UNL A   1      27.277  29.374  22.715  1.00  0.00     0.046 A 
ATOM     25  O   UNL A   1      29.350  29.166  21.885  1.00  0.00    -0.456 OA
ATOM     26  C   UNL A   1      27.892  28.249  23.317  1.00  0.00     0.056 A 
ENDBRANCH  19  21
ENDBRANCH  10  19
ENDBRANCH   6   9
ENDBRANCH   4   5
ENDBRANCH   3   4
ENDBRANCH   2   3
ENDBRANCH   1   2
BRANCH   1  27
ATOM     27  C   UNL A   1      36.225  22.614  24.116  1.00  0.00     0.021 C 
BRANCH  27  28
ATOM     28  C   UNL A   1      37.427  23.293  24.772  1.00  0.00     0.116 C 
BRANCH  28  29
ATOM     29  N   UNL A   1      38.241  22.360  25.534  1.00  0.00    -0.352 N 
ATOM     30  C   UNL A   1      39.269  22.620  26.407  1.00  0.00     0.251 C 
ATOM     31  H   UNL A   1      38.025  21.408  25.406  1.00  0.00     0.163 HD
ATOM     32  O   UNL A   1      39.953  21.695  26.835  1.00  0.00    -0.269 OA
BRANCH  30  33
ATOM     33  C   UNL A   1      39.567  24.014  26.804  1.00  0.00     0.039 A 
ATOM     34  C   UNL A   1      39.238  24.436  28.096  1.00  0.00     0.014 A 
ATOM     35  C   UNL A   1      40.166  24.903  25.905  1.00  0.00     0.014 A 
ATOM     36  C   UNL A   1      39.572  25.727  28.510  1.00  0.00     0.010 A 
ATOM     37  C   UNL A   1      40.541  26.175  26.336  1.00  0.00     0.010 A 
ATOM     38  C   UNL A   1      40.255  26.596  27.645  1.00  0.00    -0.014 A 
BRANCH  38  39
ATOM     39  C   UNL A   1      40.691  27.946  28.085  1.00  0.00     0.031 A 
ATOM     40  C   UNL A   1      42.153  28.295  28.108  1.00  0.00     0.074 A 
ATOM     41  C   UNL A   1      39.777  28.824  28.544  1.00  0.00     0.049 A 
ATOM     42  N   UNL A   1      42.742  29.364  28.578  1.00  0.00    -0.248 NA
ATOM     43  C   UNL A   1      43.072  27.293  27.552  1.00  0.00     0.031 C 
ATOM     44  C   UNL A   1      38.333  28.589  28.600  1.00  0.00     0.029 A 
ATOM     45  N   UNL A   1      39.931  30.081  29.071  1.00  0.00    -0.354 N 
ATOM     46  C   UNL A   1      44.104  29.158  28.393  1.00  0.00     0.074 A 
ATOM     47  C   UNL A   1      44.251  27.842  27.806  1.00  0.00     0.031 C 
ATOM     48  C   UNL A   1      37.734  29.668  29.130  1.00  0.00     0.029 A 
ATOM     49  C   UNL A   1      38.751  30.652  29.488  1.00  0.00     0.049 A 
ATOM     50  H   UNL A   1      40.802  30.532  29.144  1.00  0.00     0.167 HD
ATOM     51  C   UNL A   1      45.135  29.994  28.674  1.00  0.00     0.034 A 
ATOM     52  C   UNL A   1      38.517  31.825  30.107  1.00  0.00     0.034 A 
ATOM     53  C   UNL A   1      44.974  31.309  29.245  1.00  0.00     0.049 A 
ATOM     54  C   UNL A   1      39.677  32.730  30.425  1.00  0.00     0.074 A 
ATOM     55  C   UNL A   1      45.943  32.260  29.512  1.00  0.00     0.029 A 
ATOM     56  N   UNL A   1      43.761  31.857  29.644  1.00  0.00    -0.354 N 
ATOM     57  N   UNL A   1      40.958  32.535  30.215  1.00  0.00    -0.248 NA
ATOM     58  C   UNL A   1      39.358  34.016  31.061  1.00  0.00     0.031 C 
ATOM     59  C   UNL A   1      45.325  33.362  30.119  1.00  0.00     0.029 A 
ATOM     60  C   UNL A   1      43.962  33.120  30.179  1.00  0.00     0.049 A 
ATOM     61  H   UNL A   1      42.887  31.413  29.560  1.00  0.00     0.167 HD
ATOM     62  C   UNL A   1      41.596  33.683  30.674  1.00  0.00     0.074 A 
ATOM     63  C   UNL A   1      40.559  34.568  31.165  1.00  0.00     0.031 C 
ATOM     64  C   UNL A   1      42.919  33.982  30.680  1.00  0.00     0.034 A 
BRANCH  51  65
ATOM     65  C   UNL A   1      46.528  29.487  28.393  1.00  0.00     0.023 A 
ATOM     66  C   UNL A   1      47.270  28.796  29.366  1.00  0.00     0.031 A 
ATOM     67  C   UNL A   1      47.137  29.734  27.150  1.00  0.00     0.131 A 
ATOM     68  C   UNL A   1      48.603  28.444  29.109  1.00  0.00     0.055 A 
ATOM     69  C   UNL A   1      48.439  29.313  26.873  1.00  0.00     0.041 A 
ATOM     70  F   UNL A   1      46.483  30.407  26.190  1.00  0.00    -0.206 F 
ATOM     71  C   UNL A   1      49.187  28.677  27.862  1.00  0.00     0.022 A 
BRANCH  68  72
ATOM     72  S   UNL A   1      49.607  27.804  30.477  1.00  0.00     0.124 S 
ATOM     73  O   UNL A   1      50.553  26.943  29.770  1.00  0.00    -0.237 OA
ATOM     74  O   UNL A   1      50.161  29.021  31.058  1.00  0.00    -0.237 OA
ATOM     75  O   UNL A   1      48.637  27.098  31.313  1.00  0.00    -0.744 OA
ENDBRANCH  68  72
ENDBRANCH  51  65
BRANCH  52  76
ATOM     76  C   UNL A   1      37.131  32.205  30.494  1.00  0.00     0.023 A 
ATOM     77  C   UNL A   1      36.268  32.816  29.572  1.00  0.00     0.031 A 
ATOM     78  C   UNL A   1      36.662  31.986  31.801  1.00  0.00     0.131 A 
ATOM     79  C   UNL A   1      34.987  33.221  29.980  1.00  0.00     0.055 A 
ATOM     80  C   UNL A   1      35.375  32.357  32.192  1.00  0.00     0.041 A 
ATOM     81  F   UNL A   1      37.450  31.396  32.714  1.00  0.00    -0.206 F 
ATOM     82  C   UNL A   1      34.533  32.988  31.280  1.00  0.00     0.022 A 
BRANCH  79  83
ATOM     83  S   UNL A   1      33.941  34.112  28.797  1.00  0.00     0.124 S 
ATOM     84  O   UNL A   1      33.575  33.050  27.866  1.00  0.00    -0.237 OA
ATOM     85  O   UNL A   1      32.872  34.610  29.657  1.00  0.00    -0.237 OA
ATOM     86  O   UNL A   1      34.832  35.136  28.258  1.00  0.00    -0.744 OA
ENDBRANCH  79  83
ENDBRANCH  52  76
BRANCH  64  87
ATOM     87  C   UNL A   1      43.303  35.340  31.204  1.00  0.00     0.023 A 
ATOM     88  C   UNL A   1      43.478  36.438  30.345  1.00  0.00     0.031 A 
ATOM     89  C   UNL A   1      43.512  35.531  32.580  1.00  0.00     0.131 A 
ATOM     90  C   UNL A   1      43.894  37.672  30.867  1.00  0.00     0.055 A 
ATOM     91  C   UNL A   1      43.884  36.771  33.100  1.00  0.00     0.041 A 
ATOM     92  F   UNL A   1      43.360  34.512  33.442  1.00  0.00    -0.206 F 
ATOM     93  C   UNL A   1      44.085  37.848  32.241  1.00  0.00     0.022 A 
BRANCH  90  94
ATOM     94  S   UNL A   1      44.242  39.033  29.720  1.00  0.00     0.124 S 
ATOM     95  O   UNL A   1      44.134  38.372  28.424  1.00  0.00    -0.237 OA
ATOM     96  O   UNL A   1      43.186  39.989  30.038  1.00  0.00    -0.237 OA
ATOM     97  O   UNL A   1      45.591  39.457  30.089  1.00  0.00    -0.744 OA
ENDBRANCH  90  94
ENDBRANCH  64  87
ENDBRANCH  38  39
ENDBRANCH  30  33
ENDBRANCH  28  29
ENDBRANCH  27  28
ENDBRANCH   1  27
TORSDOF 18
ENDMDL
