MODEL 1
REMARK VINA RESULT:     -12.5      0.000      0.000
REMARK SMILES Cc1ccc(O[C@H](C)C(=O)Nc2ccsc2C(=O)NCCCCCCNC(=O)c2ccc(-c3c4nc(c(-c5cc(S(=O)(=O)[O-])ccc5F)c5ccc([nH]5)c(-c5cc(S(=O)(=O)[O-])ccc5F)c5nc(c(-c6cc(S(=O)(=O)[O-])ccc6F)c6ccc3[nH]6)C=C5)C=C4)cc2)cc1
REMARK SMILES IDX 22 1 21 2 20 3 19 4 17 5 18 6 16 8 12 9 13 10 14 11 15 12
REMARK SMILES IDX 11 13 9 14 10 15 7 17 8 18 6 19 5 20 1 21 2 22 3 23 93 24
REMARK SMILES IDX 4 25 92 26 23 27 24 28 25 29 26 30 27 31 28 33 29 34 30 35
REMARK SMILES IDX 91 36 31 37 90 38 32 39 33 40 34 41 84 42 35 43 89 44 83 45
REMARK SMILES IDX 85 46 36 47 88 48 82 49 81 50 37 52 69 53 49 54 68 55 50 56
REMARK SMILES IDX 53 57 67 58 86 59 51 60 52 61 66 63 87 64 54 65 38 66 39 67
REMARK SMILES IDX 47 68 40 69 46 70 48 71 45 72 41 73 42 74 43 75 44 76 70 77
REMARK SMILES IDX 71 78 79 79 72 80 78 81 80 82 77 83 73 84 74 85 75 86 76 87
REMARK SMILES IDX 55 88 56 89 64 90 57 91 63 92 65 93 62 94 58 95 59 96 60 97
REMARK SMILES IDX 61 98
REMARK H PARENT 19 7 11 16 26 32 85 51 53 62
REMARK Flexibility Score: inf
ROOT
ATOM      1  C   UNL A   1      31.823  28.517  27.313  1.00  0.00     0.002 C 
ENDROOT
BRANCH   1   2
ATOM      2  C   UNL A   1      31.878  27.571  26.108  1.00  0.00     0.021 C 
BRANCH   2   3
ATOM      3  C   UNL A   1      32.218  26.105  26.354  1.00  0.00     0.116 C 
BRANCH   3   4
ATOM      4  N   UNL A   1      31.152  25.284  26.875  1.00  0.00    -0.351 N 
ATOM      5  C   UNL A   1      30.672  24.050  26.492  1.00  0.00     0.263 C 
ATOM      6  O   UNL A   1      29.759  23.618  27.205  1.00  0.00    -0.268 OA
ATOM      7  H   UNL A   1      30.680  25.678  27.644  1.00  0.00     0.163 HD
BRANCH   5   8
ATOM      8  C   UNL A   1      31.164  23.303  25.327  1.00  0.00     0.115 A 
ATOM      9  C   UNL A   1      31.230  23.520  23.952  1.00  0.00     0.065 A 
ATOM     10  C   UNL A   1      31.865  22.436  23.263  1.00  0.00     0.038 A 
ATOM     11  C   UNL A   1      32.209  21.397  24.088  1.00  0.00     0.068 A 
ATOM     12  S   UNL A   1      31.818  21.731  25.704  1.00  0.00    -0.137 S 
BRANCH   9  13
ATOM     13  N   UNL A   1      30.846  24.685  23.314  1.00  0.00    -0.321 N 
ATOM     14  C   UNL A   1      31.627  25.660  22.747  1.00  0.00     0.265 C 
ATOM     15  O   UNL A   1      31.035  26.625  22.243  1.00  0.00    -0.270 OA
ATOM     16  H   UNL A   1      29.875  24.837  23.261  1.00  0.00     0.170 HD
BRANCH  14  17
ATOM     17  C   UNL A   1      33.177  25.590  22.690  1.00  0.00     0.259 C 
ATOM     18  C   UNL A   1      33.645  26.766  21.845  1.00  0.00     0.064 C 
BRANCH  17  19
ATOM     19  O   UNL A   1      33.729  25.314  23.968  1.00  0.00    -0.481 OA
BRANCH  19  20
ATOM     20  C   UNL A   1      34.781  24.530  24.308  1.00  0.00     0.120 A 
ATOM     21  C   UNL A   1      37.765  21.471  25.005  1.00  0.00     0.044 C 
ATOM     22  C   UNL A   1      36.775  22.562  24.732  1.00  0.00    -0.051 A 
ATOM     23  C   UNL A   1      36.422  23.463  25.740  1.00  0.00     0.007 A 
ATOM     24  C   UNL A   1      36.137  22.665  23.496  1.00  0.00     0.007 A 
ATOM     25  C   UNL A   1      35.443  24.445  25.523  1.00  0.00     0.047 A 
ATOM     26  C   UNL A   1      35.155  23.640  23.292  1.00  0.00     0.047 A 
ENDBRANCH  19  20
ENDBRANCH  17  19
ENDBRANCH  14  17
ENDBRANCH   9  13
ENDBRANCH   5   8
ENDBRANCH   3   4
ENDBRANCH   2   3
ENDBRANCH   1   2
BRANCH   1  27
ATOM     27  C   UNL A   1      31.741  30.031  27.079  1.00  0.00     0.002 C 
BRANCH  27  28
ATOM     28  C   UNL A   1      33.051  30.807  26.966  1.00  0.00     0.021 C 
BRANCH  28  29
ATOM     29  C   UNL A   1      34.227  30.247  27.761  1.00  0.00     0.116 C 
BRANCH  29  30
ATOM     30  N   UNL A   1      35.003  31.253  28.469  1.00  0.00    -0.352 N 
ATOM     31  C   UNL A   1      36.272  31.118  29.031  1.00  0.00     0.251 C 
ATOM     32  H   UNL A   1      34.580  32.137  28.562  1.00  0.00     0.163 HD
ATOM     33  O   UNL A   1      36.815  32.031  29.639  1.00  0.00    -0.269 OA
BRANCH  31  34
ATOM     34  C   UNL A   1      37.009  29.867  28.768  1.00  0.00     0.039 A 
ATOM     35  C   UNL A   1      37.164  28.981  29.840  1.00  0.00     0.014 A 
ATOM     36  C   UNL A   1      37.756  29.714  27.602  1.00  0.00     0.014 A 
ATOM     37  C   UNL A   1      38.238  28.095  29.840  1.00  0.00     0.010 A 
ATOM     38  C   UNL A   1      38.875  28.902  27.639  1.00  0.00     0.010 A 
ATOM     39  C   UNL A   1      39.155  28.152  28.788  1.00  0.00    -0.014 A 
BRANCH  39  40
ATOM     40  C   UNL A   1      40.503  27.602  28.899  1.00  0.00     0.031 A 
ATOM     41  C   UNL A   1      40.800  26.210  28.512  1.00  0.00     0.074 A 
ATOM     42  C   UNL A   1      41.511  28.395  29.323  1.00  0.00     0.049 A 
ATOM     43  N   UNL A   1      41.805  25.525  28.946  1.00  0.00    -0.248 NA
ATOM     44  C   UNL A   1      39.923  25.449  27.637  1.00  0.00     0.031 C 
ATOM     45  C   UNL A   1      42.945  28.129  29.256  1.00  0.00     0.029 A 
ATOM     46  N   UNL A   1      41.402  29.502  30.160  1.00  0.00    -0.354 N 
ATOM     47  C   UNL A   1      41.899  24.390  28.174  1.00  0.00     0.074 A 
ATOM     48  C   UNL A   1      40.642  24.338  27.464  1.00  0.00     0.031 C 
ATOM     49  C   UNL A   1      43.564  28.857  30.200  1.00  0.00     0.029 A 
ATOM     50  C   UNL A   1      42.534  29.503  30.991  1.00  0.00     0.049 A 
ATOM     51  H   UNL A   1      40.670  30.160  30.168  1.00  0.00     0.167 HD
ATOM     52  C   UNL A   1      43.094  23.731  28.102  1.00  0.00     0.034 A 
ATOM     53  C   UNL A   1      42.409  29.409  32.347  1.00  0.00     0.034 A 
ATOM     54  C   UNL A   1      44.062  24.252  29.081  1.00  0.00     0.049 A 
ATOM     55  C   UNL A   1      43.108  28.206  32.939  1.00  0.00     0.074 A 
ATOM     56  C   UNL A   1      45.196  25.040  28.972  1.00  0.00     0.029 A 
ATOM     57  N   UNL A   1      43.771  24.181  30.443  1.00  0.00    -0.354 N 
ATOM     58  N   UNL A   1      43.503  27.168  32.253  1.00  0.00    -0.248 NA
ATOM     59  C   UNL A   1      43.403  28.077  34.361  1.00  0.00     0.031 C 
ATOM     60  C   UNL A   1      45.555  25.486  30.272  1.00  0.00     0.029 A 
ATOM     61  C   UNL A   1      44.655  24.951  31.178  1.00  0.00     0.049 A 
ATOM     62  H   UNL A   1      43.035  23.655  30.830  1.00  0.00     0.167 HD
ATOM     63  C   UNL A   1      44.077  26.246  33.094  1.00  0.00     0.074 A 
ATOM     64  C   UNL A   1      44.011  26.878  34.401  1.00  0.00     0.031 C 
ATOM     65  C   UNL A   1      44.546  25.043  32.634  1.00  0.00     0.034 A 
BRANCH  52  66
ATOM     66  C   UNL A   1      43.494  22.858  26.916  1.00  0.00     0.023 A 
ATOM     67  C   UNL A   1      42.989  21.542  26.820  1.00  0.00     0.031 A 
ATOM     68  C   UNL A   1      44.418  23.205  25.911  1.00  0.00     0.131 A 
ATOM     69  C   UNL A   1      43.486  20.622  25.873  1.00  0.00     0.055 A 
ATOM     70  C   UNL A   1      44.956  22.278  25.005  1.00  0.00     0.041 A 
ATOM     71  F   UNL A   1      44.801  24.468  25.702  1.00  0.00    -0.206 F 
ATOM     72  C   UNL A   1      44.503  20.971  24.994  1.00  0.00     0.022 A 
BRANCH  69  73
ATOM     73  S   UNL A   1      42.784  18.950  25.802  1.00  0.00     0.124 S 
ATOM     74  O   UNL A   1      42.956  18.482  27.173  1.00  0.00    -0.237 OA
ATOM     75  O   UNL A   1      41.414  19.209  25.373  1.00  0.00    -0.237 OA
ATOM     76  O   UNL A   1      43.620  18.273  24.811  1.00  0.00    -0.744 OA
ENDBRANCH  69  73
ENDBRANCH  52  66
BRANCH  53  77
ATOM     77  C   UNL A   1      41.166  30.044  32.873  1.00  0.00     0.023 A 
ATOM     78  C   UNL A   1      41.118  31.455  32.878  1.00  0.00     0.031 A 
ATOM     79  C   UNL A   1      39.957  29.345  32.986  1.00  0.00     0.131 A 
ATOM     80  C   UNL A   1      39.887  32.121  32.819  1.00  0.00     0.055 A 
ATOM     81  C   UNL A   1      38.728  30.019  32.999  1.00  0.00     0.041 A 
ATOM     82  F   UNL A   1      39.937  28.005  32.959  1.00  0.00    -0.206 F 
ATOM     83  C   UNL A   1      38.688  31.409  32.869  1.00  0.00     0.022 A 
BRANCH  80  84
ATOM     84  S   UNL A   1      39.846  33.896  32.421  1.00  0.00     0.124 S 
ATOM     85  O   UNL A   1      40.026  33.889  30.973  1.00  0.00    -0.237 OA
ATOM     86  O   UNL A   1      38.529  34.320  32.889  1.00  0.00    -0.237 OA
ATOM     87  O   UNL A   1      40.961  34.431  33.198  1.00  0.00    -0.744 OA
ENDBRANCH  80  84
ENDBRANCH  53  77
BRANCH  65  88
ATOM     88  C   UNL A   1      45.038  23.880  33.484  1.00  0.00     0.023 A 
ATOM     89  C   UNL A   1      46.370  23.712  33.892  1.00  0.00     0.031 A 
ATOM     90  C   UNL A   1      44.136  22.899  33.971  1.00  0.00     0.131 A 
ATOM     91  C   UNL A   1      46.777  22.596  34.650  1.00  0.00     0.055 A 
ATOM     92  C   UNL A   1      44.528  21.827  34.783  1.00  0.00     0.041 A 
ATOM     93  F   UNL A   1      42.825  22.940  33.692  1.00  0.00    -0.206 F 
ATOM     94  C   UNL A   1      45.861  21.659  35.115  1.00  0.00     0.022 A 
BRANCH  91  95
ATOM     95  S   UNL A   1      48.548  22.371  34.972  1.00  0.00     0.124 S 
ATOM     96  O   UNL A   1      49.118  23.570  34.365  1.00  0.00    -0.237 OA
ATOM     97  O   UNL A   1      48.597  22.314  36.429  1.00  0.00    -0.237 OA
ATOM     98  O   UNL A   1      48.868  21.119  34.291  1.00  0.00    -0.744 OA
ENDBRANCH  91  95
ENDBRANCH  65  88
ENDBRANCH  39  40
ENDBRANCH  31  34
ENDBRANCH  29  30
ENDBRANCH  28  29
ENDBRANCH  27  28
ENDBRANCH   1  27
TORSDOF 20
ENDMDL
MODEL 2
REMARK VINA RESULT:     -12.4      1.367      2.570
REMARK SMILES Cc1ccc(O[C@H](C)C(=O)Nc2ccsc2C(=O)NCCCCCCNC(=O)c2ccc(-c3c4nc(c(-c5cc(S(=O)(=O)[O-])ccc5F)c5ccc([nH]5)c(-c5cc(S(=O)(=O)[O-])ccc5F)c5nc(c(-c6cc(S(=O)(=O)[O-])ccc6F)c6ccc3[nH]6)C=C5)C=C4)cc2)cc1
REMARK SMILES IDX 22 1 21 2 20 3 19 4 17 5 18 6 16 8 12 9 13 10 14 11 15 12
REMARK SMILES IDX 11 13 9 14 10 15 7 17 8 18 6 19 5 20 1 21 2 22 3 23 93 24
REMARK SMILES IDX 4 25 92 26 23 27 24 28 25 29 26 30 27 31 28 33 29 34 30 35
REMARK SMILES IDX 91 36 31 37 90 38 32 39 33 40 34 41 84 42 35 43 89 44 83 45
REMARK SMILES IDX 85 46 36 47 88 48 82 49 81 50 37 52 69 53 49 54 68 55 50 56
REMARK SMILES IDX 53 57 67 58 86 59 51 60 52 61 66 63 87 64 54 65 38 66 39 67
REMARK SMILES IDX 47 68 40 69 46 70 48 71 45 72 41 73 42 74 43 75 44 76 70 77
REMARK SMILES IDX 71 78 79 79 72 80 78 81 80 82 77 83 73 84 74 85 75 86 76 87
REMARK SMILES IDX 55 88 56 89 64 90 57 91 63 92 65 93 62 94 58 95 59 96 60 97
REMARK SMILES IDX 61 98
REMARK H PARENT 19 7 11 16 26 32 85 51 53 62
REMARK Flexibility Score: inf
ROOT
ATOM      1  C   UNL A   1      32.868  27.892  26.880  1.00  0.00     0.002 C 
ENDROOT
BRANCH   1   2
ATOM      2  C   UNL A   1      32.401  26.777  25.937  1.00  0.00     0.021 C 
BRANCH   2   3
ATOM      3  C   UNL A   1      33.176  25.464  25.929  1.00  0.00     0.116 C 
BRANCH   3   4
ATOM      4  N   UNL A   1      32.684  24.430  26.806  1.00  0.00    -0.351 N 
ATOM      5  C   UNL A   1      33.146  23.160  27.079  1.00  0.00     0.263 C 
ATOM      6  O   UNL A   1      32.489  22.554  27.933  1.00  0.00    -0.268 OA
ATOM      7  H   UNL A   1      31.868  24.675  27.299  1.00  0.00     0.163 HD
BRANCH   5   8
ATOM      8  C   UNL A   1      34.300  22.545  26.410  1.00  0.00     0.115 A 
ATOM      9  C   UNL A   1      34.668  21.256  26.029  1.00  0.00     0.065 A 
ATOM     10  C   UNL A   1      35.930  21.232  25.352  1.00  0.00     0.038 A 
ATOM     11  C   UNL A   1      36.533  22.462  25.283  1.00  0.00     0.068 A 
ATOM     12  S   UNL A   1      35.568  23.666  25.987  1.00  0.00    -0.137 S 
BRANCH   9  13
ATOM     13  N   UNL A   1      33.874  20.132  26.167  1.00  0.00    -0.321 N 
ATOM     14  C   UNL A   1      32.940  19.621  25.302  1.00  0.00     0.265 C 
ATOM     15  O   UNL A   1      32.346  18.596  25.668  1.00  0.00    -0.270 OA
ATOM     16  H   UNL A   1      33.996  19.630  27.004  1.00  0.00     0.170 HD
BRANCH  14  17
ATOM     17  C   UNL A   1      32.628  20.241  23.914  1.00  0.00     0.259 C 
ATOM     18  C   UNL A   1      32.284  19.090  22.980  1.00  0.00     0.064 C 
BRANCH  17  19
ATOM     19  O   UNL A   1      31.799  21.387  24.034  1.00  0.00    -0.481 OA
BRANCH  19  20
ATOM     20  C   UNL A   1      31.907  22.602  23.444  1.00  0.00     0.120 A 
ATOM     21  C   UNL A   1      32.965  26.489  21.858  1.00  0.00     0.044 C 
ATOM     22  C   UNL A   1      32.594  25.123  22.349  1.00  0.00    -0.051 A 
ATOM     23  C   UNL A   1      31.317  24.881  22.862  1.00  0.00     0.007 A 
ATOM     24  C   UNL A   1      33.524  24.085  22.366  1.00  0.00     0.007 A 
ATOM     25  C   UNL A   1      30.975  23.627  23.392  1.00  0.00     0.047 A 
ATOM     26  C   UNL A   1      33.180  22.841  22.907  1.00  0.00     0.047 A 
ENDBRANCH  19  20
ENDBRANCH  17  19
ENDBRANCH  14  17
ENDBRANCH   9  13
ENDBRANCH   5   8
ENDBRANCH   3   4
ENDBRANCH   2   3
ENDBRANCH   1   2
BRANCH   1  27
ATOM     27  C   UNL A   1      32.339  29.319  26.679  1.00  0.00     0.002 C 
BRANCH  27  28
ATOM     28  C   UNL A   1      33.018  30.446  27.453  1.00  0.00     0.021 C 
BRANCH  28  29
ATOM     29  C   UNL A   1      34.530  30.556  27.281  1.00  0.00     0.116 C 
BRANCH  29  30
ATOM     30  N   UNL A   1      35.178  31.438  28.238  1.00  0.00    -0.352 N 
ATOM     31  C   UNL A   1      36.303  31.177  29.020  1.00  0.00     0.251 C 
ATOM     32  H   UNL A   1      34.772  32.329  28.348  1.00  0.00     0.163 HD
ATOM     33  O   UNL A   1      36.740  31.990  29.823  1.00  0.00    -0.269 OA
BRANCH  31  34
ATOM     34  C   UNL A   1      37.040  29.924  28.764  1.00  0.00     0.039 A 
ATOM     35  C   UNL A   1      37.205  29.050  29.844  1.00  0.00     0.014 A 
ATOM     36  C   UNL A   1      37.777  29.759  27.594  1.00  0.00     0.014 A 
ATOM     37  C   UNL A   1      38.280  28.166  29.845  1.00  0.00     0.010 A 
ATOM     38  C   UNL A   1      38.898  28.949  27.631  1.00  0.00     0.010 A 
ATOM     39  C   UNL A   1      39.188  28.211  28.786  1.00  0.00    -0.014 A 
BRANCH  39  40
ATOM     40  C   UNL A   1      40.538  27.664  28.892  1.00  0.00     0.031 A 
ATOM     41  C   UNL A   1      40.831  26.265  28.532  1.00  0.00     0.074 A 
ATOM     42  C   UNL A   1      41.550  28.466  29.288  1.00  0.00     0.049 A 
ATOM     43  N   UNL A   1      41.841  25.590  28.968  1.00  0.00    -0.248 NA
ATOM     44  C   UNL A   1      39.944  25.486  27.683  1.00  0.00     0.031 C 
ATOM     45  C   UNL A   1      42.983  28.199  29.210  1.00  0.00     0.029 A 
ATOM     46  N   UNL A   1      41.451  29.591  30.103  1.00  0.00    -0.354 N 
ATOM     47  C   UNL A   1      41.926  24.439  28.218  1.00  0.00     0.074 A 
ATOM     48  C   UNL A   1      40.661  24.371  27.524  1.00  0.00     0.031 C 
ATOM     49  C   UNL A   1      43.613  28.947  30.130  1.00  0.00     0.029 A 
ATOM     50  C   UNL A   1      42.592  29.610  30.920  1.00  0.00     0.049 A 
ATOM     51  H   UNL A   1      40.718  30.249  30.106  1.00  0.00     0.167 HD
ATOM     52  C   UNL A   1      43.121  23.778  28.146  1.00  0.00     0.034 A 
ATOM     53  C   UNL A   1      42.483  29.543  32.279  1.00  0.00     0.034 A 
ATOM     54  C   UNL A   1      44.099  24.320  29.102  1.00  0.00     0.049 A 
ATOM     55  C   UNL A   1      43.189  28.353  32.888  1.00  0.00     0.074 A 
ATOM     56  C   UNL A   1      45.232  25.106  28.963  1.00  0.00     0.029 A 
ATOM     57  N   UNL A   1      43.825  24.278  30.469  1.00  0.00    -0.354 N 
ATOM     58  N   UNL A   1      43.577  27.301  32.219  1.00  0.00    -0.248 NA
ATOM     59  C   UNL A   1      43.502  28.254  34.308  1.00  0.00     0.031 C 
ATOM     60  C   UNL A   1      45.606  25.578  30.250  1.00  0.00     0.029 A 
ATOM     61  C   UNL A   1      44.717  25.062  31.177  1.00  0.00     0.049 A 
ATOM     62  H   UNL A   1      43.094  23.759  30.876  1.00  0.00     0.167 HD
ATOM     63  C   UNL A   1      44.161  26.397  33.073  1.00  0.00     0.074 A 
ATOM     64  C   UNL A   1      44.111  27.057  34.367  1.00  0.00     0.031 C 
ATOM     65  C   UNL A   1      44.625  25.185  32.632  1.00  0.00     0.034 A 
BRANCH  52  66
ATOM     66  C   UNL A   1      43.507  22.881  26.974  1.00  0.00     0.023 A 
ATOM     67  C   UNL A   1      42.962  21.580  26.886  1.00  0.00     0.031 A 
ATOM     68  C   UNL A   1      44.453  23.188  25.976  1.00  0.00     0.131 A 
ATOM     69  C   UNL A   1      43.441  20.635  25.954  1.00  0.00     0.055 A 
ATOM     70  C   UNL A   1      44.972  22.235  25.086  1.00  0.00     0.041 A 
ATOM     71  F   UNL A   1      44.877  24.437  25.759  1.00  0.00    -0.206 F 
ATOM     72  C   UNL A   1      44.479  20.943  25.084  1.00  0.00     0.022 A 
BRANCH  69  73
ATOM     73  S   UNL A   1      42.688  18.985  25.892  1.00  0.00     0.124 S 
ATOM     74  O   UNL A   1      41.348  19.273  25.392  1.00  0.00    -0.237 OA
ATOM     75  O   UNL A   1      43.580  18.274  24.982  1.00  0.00    -0.237 OA
ATOM     76  O   UNL A   1      42.743  18.534  27.282  1.00  0.00    -0.744 OA
ENDBRANCH  69  73
ENDBRANCH  52  66
BRANCH  53  77
ATOM     77  C   UNL A   1      41.246  30.189  32.807  1.00  0.00     0.023 A 
ATOM     78  C   UNL A   1      41.218  31.601  32.829  1.00  0.00     0.031 A 
ATOM     79  C   UNL A   1      40.028  29.506  32.905  1.00  0.00     0.131 A 
ATOM     80  C   UNL A   1      39.997  32.285  32.771  1.00  0.00     0.055 A 
ATOM     81  C   UNL A   1      38.808  30.197  32.920  1.00  0.00     0.041 A 
ATOM     82  F   UNL A   1      39.989  28.166  32.861  1.00  0.00    -0.206 F 
ATOM     83  C   UNL A   1      38.787  31.588  32.807  1.00  0.00     0.022 A 
BRANCH  80  84
ATOM     84  S   UNL A   1      39.982  34.065  32.394  1.00  0.00     0.124 S 
ATOM     85  O   UNL A   1      41.395  34.338  32.158  1.00  0.00    -0.237 OA
ATOM     86  O   UNL A   1      39.118  34.156  31.220  1.00  0.00    -0.237 OA
ATOM     87  O   UNL A   1      39.414  34.650  33.606  1.00  0.00    -0.744 OA
ENDBRANCH  80  84
ENDBRANCH  53  77
BRANCH  65  88
ATOM     88  C   UNL A   1      45.128  24.040  33.500  1.00  0.00     0.023 A 
ATOM     89  C   UNL A   1      46.442  23.936  33.982  1.00  0.00     0.031 A 
ATOM     90  C   UNL A   1      44.252  23.009  33.927  1.00  0.00     0.131 A 
ATOM     91  C   UNL A   1      46.862  22.835  34.754  1.00  0.00     0.055 A 
ATOM     92  C   UNL A   1      44.652  21.950  34.753  1.00  0.00     0.041 A 
ATOM     93  F   UNL A   1      42.959  22.985  33.575  1.00  0.00    -0.206 F 
ATOM     94  C   UNL A   1      45.971  21.847  35.159  1.00  0.00     0.022 A 
BRANCH  91  95
ATOM     95  S   UNL A   1      48.621  22.697  35.175  1.00  0.00     0.124 S 
ATOM     96  O   UNL A   1      48.623  23.072  36.587  1.00  0.00    -0.237 OA
ATOM     97  O   UNL A   1      48.902  21.293  34.893  1.00  0.00    -0.237 OA
ATOM     98  O   UNL A   1      49.268  23.652  34.279  1.00  0.00    -0.744 OA
ENDBRANCH  91  95
ENDBRANCH  65  88
ENDBRANCH  39  40
ENDBRANCH  31  34
ENDBRANCH  29  30
ENDBRANCH  28  29
ENDBRANCH  27  28
ENDBRANCH   1  27
TORSDOF 20
ENDMDL
MODEL 3
REMARK VINA RESULT:     -12.3      3.970     10.270
REMARK SMILES Cc1ccc(O[C@H](C)C(=O)Nc2ccsc2C(=O)NCCCCCCNC(=O)c2ccc(-c3c4nc(c(-c5cc(S(=O)(=O)[O-])ccc5F)c5ccc([nH]5)c(-c5cc(S(=O)(=O)[O-])ccc5F)c5nc(c(-c6cc(S(=O)(=O)[O-])ccc6F)c6ccc3[nH]6)C=C5)C=C4)cc2)cc1
REMARK SMILES IDX 22 1 21 2 20 3 19 4 17 5 18 6 16 8 12 9 13 10 14 11 15 12
REMARK SMILES IDX 11 13 9 14 10 15 7 17 8 18 6 19 5 20 1 21 2 22 3 23 93 24
REMARK SMILES IDX 4 25 92 26 23 27 24 28 25 29 26 30 27 31 28 33 29 34 30 35
REMARK SMILES IDX 91 36 31 37 90 38 32 39 33 40 34 41 84 42 35 43 89 44 83 45
REMARK SMILES IDX 85 46 36 47 88 48 82 49 81 50 37 52 69 53 49 54 68 55 50 56
REMARK SMILES IDX 53 57 67 58 86 59 51 60 52 61 66 63 87 64 54 65 38 66 39 67
REMARK SMILES IDX 47 68 40 69 46 70 48 71 45 72 41 73 42 74 43 75 44 76 70 77
REMARK SMILES IDX 71 78 79 79 72 80 78 81 80 82 77 83 73 84 74 85 75 86 76 87
REMARK SMILES IDX 55 88 56 89 64 90 57 91 63 92 65 93 62 94 58 95 59 96 60 97
REMARK SMILES IDX 61 98
REMARK H PARENT 19 7 11 16 26 32 85 51 53 62
REMARK Flexibility Score: inf
ROOT
ATOM      1  C   UNL A   1      36.751  23.248  24.817  1.00  0.00     0.002 C 
ENDROOT
BRANCH   1   2
ATOM      2  C   UNL A   1      35.660  23.655  25.815  1.00  0.00     0.021 C 
BRANCH   2   3
ATOM      3  C   UNL A   1      34.817  24.887  25.504  1.00  0.00     0.116 C 
BRANCH   3   4
ATOM      4  N   UNL A   1      33.516  24.939  26.124  1.00  0.00    -0.351 N 
ATOM      5  C   UNL A   1      32.607  25.966  26.266  1.00  0.00     0.263 C 
ATOM      6  O   UNL A   1      31.554  25.637  26.824  1.00  0.00    -0.268 OA
ATOM      7  H   UNL A   1      33.223  24.086  26.519  1.00  0.00     0.163 HD
BRANCH   5   8
ATOM      8  C   UNL A   1      32.852  27.347  25.828  1.00  0.00     0.115 A 
ATOM      9  C   UNL A   1      33.392  27.959  24.699  1.00  0.00     0.065 A 
ATOM     10  C   UNL A   1      33.354  29.388  24.789  1.00  0.00     0.038 A 
ATOM     11  C   UNL A   1      32.860  29.844  25.984  1.00  0.00     0.068 A 
ATOM     12  S   UNL A   1      32.392  28.562  26.991  1.00  0.00    -0.137 S 
BRANCH   9  13
ATOM     13  N   UNL A   1      33.811  27.294  23.561  1.00  0.00    -0.321 N 
ATOM     14  C   UNL A   1      33.099  26.467  22.730  1.00  0.00     0.265 C 
ATOM     15  O   UNL A   1      33.714  25.979  21.771  1.00  0.00    -0.270 OA
ATOM     16  H   UNL A   1      34.753  27.434  23.314  1.00  0.00     0.170 HD
BRANCH  14  17
ATOM     17  C   UNL A   1      31.591  26.152  22.922  1.00  0.00     0.259 C 
ATOM     18  C   UNL A   1      30.813  27.239  22.194  1.00  0.00     0.064 C 
BRANCH  17  19
ATOM     19  O   UNL A   1      31.323  24.772  22.725  1.00  0.00    -0.481 OA
BRANCH  19  20
ATOM     20  C   UNL A   1      31.641  23.707  23.499  1.00  0.00     0.120 A 
ATOM     21  C   UNL A   1      32.836  19.958  25.306  1.00  0.00     0.044 C 
ATOM     22  C   UNL A   1      32.469  21.283  24.710  1.00  0.00    -0.051 A 
ATOM     23  C   UNL A   1      31.360  21.987  25.187  1.00  0.00     0.007 A 
ATOM     24  C   UNL A   1      33.180  21.812  23.634  1.00  0.00     0.007 A 
ATOM     25  C   UNL A   1      30.960  23.195  24.593  1.00  0.00     0.047 A 
ATOM     26  C   UNL A   1      32.767  23.010  23.040  1.00  0.00     0.047 A 
ENDBRANCH  19  20
ENDBRANCH  17  19
ENDBRANCH  14  17
ENDBRANCH   9  13
ENDBRANCH   5   8
ENDBRANCH   3   4
ENDBRANCH   2   3
ENDBRANCH   1   2
BRANCH   1  27
ATOM     27  C   UNL A   1      37.266  21.803  24.812  1.00  0.00     0.002 C 
BRANCH  27  28
ATOM     28  C   UNL A   1      38.622  21.528  25.456  1.00  0.00     0.021 C 
BRANCH  28  29
ATOM     29  C   UNL A   1      39.105  22.568  26.463  1.00  0.00     0.116 C 
BRANCH  29  30
ATOM     30  N   UNL A   1      40.545  22.778  26.461  1.00  0.00    -0.352 N 
ATOM     31  C   UNL A   1      41.235  23.984  26.575  1.00  0.00     0.251 C 
ATOM     32  H   UNL A   1      41.099  21.969  26.367  1.00  0.00     0.163 HD
ATOM     33  O   UNL A   1      42.456  24.043  26.525  1.00  0.00    -0.269 OA
BRANCH  31  34
ATOM     34  C   UNL A   1      40.451  25.196  26.887  1.00  0.00     0.039 A 
ATOM     35  C   UNL A   1      40.764  26.357  26.171  1.00  0.00     0.014 A 
ATOM     36  C   UNL A   1      39.652  25.253  28.026  1.00  0.00     0.014 A 
ATOM     37  C   UNL A   1      40.482  27.599  26.735  1.00  0.00     0.010 A 
ATOM     38  C   UNL A   1      39.454  26.481  28.630  1.00  0.00     0.010 A 
ATOM     39  C   UNL A   1      39.937  27.645  28.019  1.00  0.00    -0.014 A 
BRANCH  39  40
ATOM     40  C   UNL A   1      40.009  28.842  28.854  1.00  0.00     0.031 A 
ATOM     41  C   UNL A   1      38.981  29.896  28.775  1.00  0.00     0.074 A 
ATOM     42  C   UNL A   1      41.013  28.968  29.749  1.00  0.00     0.049 A 
ATOM     43  N   UNL A   1      39.160  31.124  29.132  1.00  0.00    -0.248 NA
ATOM     44  C   UNL A   1      37.664  29.649  28.211  1.00  0.00     0.031 C 
ATOM     45  C   UNL A   1      41.121  29.934  30.838  1.00  0.00     0.029 A 
ATOM     46  N   UNL A   1      42.280  28.397  29.663  1.00  0.00    -0.354 N 
ATOM     47  C   UNL A   1      37.926  31.731  29.165  1.00  0.00     0.074 A 
ATOM     48  C   UNL A   1      37.057  30.809  28.471  1.00  0.00     0.031 C 
ATOM     49  C   UNL A   1      42.417  30.088  31.152  1.00  0.00     0.029 A 
ATOM     50  C   UNL A   1      43.189  29.334  30.181  1.00  0.00     0.049 A 
ATOM     51  H   UNL A   1      42.498  27.506  29.307  1.00  0.00     0.167 HD
ATOM     52  C   UNL A   1      37.757  32.856  29.923  1.00  0.00     0.034 A 
ATOM     53  C   UNL A   1      44.189  29.844  29.405  1.00  0.00     0.034 A 
ATOM     54  C   UNL A   1      39.040  33.370  30.426  1.00  0.00     0.049 A 
ATOM     55  C   UNL A   1      44.136  31.347  29.254  1.00  0.00     0.074 A 
ATOM     56  C   UNL A   1      39.644  33.370  31.673  1.00  0.00     0.029 A 
ATOM     57  N   UNL A   1      40.024  33.773  29.522  1.00  0.00    -0.354 N 
ATOM     58  N   UNL A   1      43.091  32.081  29.524  1.00  0.00    -0.248 NA
ATOM     59  C   UNL A   1      45.261  32.139  28.773  1.00  0.00     0.031 C 
ATOM     60  C   UNL A   1      41.009  33.725  31.506  1.00  0.00     0.029 A 
ATOM     61  C   UNL A   1      41.235  33.965  30.162  1.00  0.00     0.049 A 
ATOM     62  H   UNL A   1      39.876  33.903  28.558  1.00  0.00     0.167 HD
ATOM     63  C   UNL A   1      43.366  33.399  29.256  1.00  0.00     0.074 A 
ATOM     64  C   UNL A   1      44.751  33.382  28.812  1.00  0.00     0.031 C 
ATOM     65  C   UNL A   1      42.424  34.381  29.418  1.00  0.00     0.034 A 
BRANCH  52  66
ATOM     66  C   UNL A   1      36.406  33.282  30.493  1.00  0.00     0.023 A 
ATOM     67  C   UNL A   1      35.523  34.039  29.691  1.00  0.00     0.031 A 
ATOM     68  C   UNL A   1      35.962  33.068  31.812  1.00  0.00     0.131 A 
ATOM     69  C   UNL A   1      34.364  34.641  30.227  1.00  0.00     0.055 A 
ATOM     70  C   UNL A   1      34.843  33.711  32.363  1.00  0.00     0.041 A 
ATOM     71  F   UNL A   1      36.542  32.176  32.621  1.00  0.00    -0.206 F 
ATOM     72  C   UNL A   1      34.045  34.518  31.573  1.00  0.00     0.022 A 
BRANCH  69  73
ATOM     73  S   UNL A   1      33.270  35.594  29.137  1.00  0.00     0.124 S 
ATOM     74  O   UNL A   1      34.219  36.330  28.310  1.00  0.00    -0.237 OA
ATOM     75  O   UNL A   1      32.508  34.544  28.470  1.00  0.00    -0.237 OA
ATOM     76  O   UNL A   1      32.497  36.417  30.067  1.00  0.00    -0.744 OA
ENDBRANCH  69  73
ENDBRANCH  52  66
BRANCH  53  77
ATOM     77  C   UNL A   1      44.696  28.881  28.385  1.00  0.00     0.023 A 
ATOM     78  C   UNL A   1      45.529  27.837  28.844  1.00  0.00     0.031 A 
ATOM     79  C   UNL A   1      44.099  28.739  27.126  1.00  0.00     0.131 A 
ATOM     80  C   UNL A   1      45.605  26.630  28.137  1.00  0.00     0.055 A 
ATOM     81  C   UNL A   1      44.236  27.555  26.387  1.00  0.00     0.041 A 
ATOM     82  F   UNL A   1      43.276  29.684  26.648  1.00  0.00    -0.206 F 
ATOM     83  C   UNL A   1      44.953  26.479  26.912  1.00  0.00     0.022 A 
BRANCH  80  84
ATOM     84  S   UNL A   1      46.344  25.169  28.933  1.00  0.00     0.124 S 
ATOM     85  O   UNL A   1      47.485  24.895  28.067  1.00  0.00    -0.237 OA
ATOM     86  O   UNL A   1      46.672  25.643  30.275  1.00  0.00    -0.237 OA
ATOM     87  O   UNL A   1      45.261  24.191  28.887  1.00  0.00    -0.744 OA
ENDBRANCH  80  84
ENDBRANCH  53  77
BRANCH  65  88
ATOM     88  C   UNL A   1      42.553  35.838  28.995  1.00  0.00     0.023 A 
ATOM     89  C   UNL A   1      43.291  36.801  29.701  1.00  0.00     0.031 A 
ATOM     90  C   UNL A   1      41.960  36.303  27.792  1.00  0.00     0.131 A 
ATOM     91  C   UNL A   1      43.348  38.144  29.280  1.00  0.00     0.055 A 
ATOM     92  C   UNL A   1      42.074  37.623  27.337  1.00  0.00     0.041 A 
ATOM     93  F   UNL A   1      41.249  35.495  26.993  1.00  0.00    -0.206 F 
ATOM     94  C   UNL A   1      42.758  38.561  28.091  1.00  0.00     0.022 A 
BRANCH  91  95
ATOM     95  S   UNL A   1      44.171  39.350  30.356  1.00  0.00     0.124 S 
ATOM     96  O   UNL A   1      45.229  39.856  29.486  1.00  0.00    -0.237 OA
ATOM     97  O   UNL A   1      43.095  40.290  30.654  1.00  0.00    -0.237 OA
ATOM     98  O   UNL A   1      44.628  38.550  31.489  1.00  0.00    -0.744 OA
ENDBRANCH  91  95
ENDBRANCH  65  88
ENDBRANCH  39  40
ENDBRANCH  31  34
ENDBRANCH  29  30
ENDBRANCH  28  29
ENDBRANCH  27  28
ENDBRANCH   1  27
TORSDOF 20
ENDMDL
