MODEL 1
REMARK VINA RESULT:     -12.3      0.000      0.000
REMARK SMILES Cc1cc2cc(-c3ccc([C@@H](C)C(=O)NCCCCCCNC(=O)c4ccc(-c5c6nc(c(-c7cc(S(=O)(=O)[O-])ccc7F)c7ccc([nH]7)c(-c7cc(S(=O)(=O)[O-])ccc7F)c7nc(c(-c8cc(S(=O)(=O)[O-])ccc8F)c8ccc5[nH]8)C=C7)C=C6)cc4)cc3)ccc2[nH]1
REMARK SMILES IDX 19 1 18 2 17 3 16 4 15 5 13 6 14 7 11 9 12 10 10 11 7 12
REMARK SMILES IDX 8 13 89 14 9 15 88 16 6 17 1 18 2 19 3 20 93 21 4 22 92 23
REMARK SMILES IDX 5 25 91 26 90 27 20 28 21 29 22 30 23 31 24 33 25 34 26 35
REMARK SMILES IDX 87 36 27 37 86 38 28 39 29 40 30 41 80 42 31 43 85 44 79 45
REMARK SMILES IDX 81 46 32 47 84 48 78 49 77 50 33 52 65 53 45 54 64 55 46 56
REMARK SMILES IDX 49 57 63 58 82 59 47 60 48 61 62 63 83 64 50 65 34 66 35 67
REMARK SMILES IDX 43 68 36 69 42 70 44 71 41 72 37 73 38 74 39 75 40 76 66 77
REMARK SMILES IDX 67 78 75 79 68 80 74 81 76 82 73 83 69 84 70 85 71 86 72 87
REMARK SMILES IDX 51 88 52 89 60 90 53 91 59 92 61 93 58 94 54 95 55 96 56 97
REMARK SMILES IDX 57 98
REMARK H PARENT 15 8 93 24 22 32 81 51 49 62
REMARK Flexibility Score: inf
ROOT
ATOM      1  C   UNL A   1      35.015  22.721  25.667  1.00  0.00     0.002 C 
ENDROOT
BRANCH   1   2
ATOM      2  C   UNL A   1      34.986  24.191  25.226  1.00  0.00     0.002 C 
BRANCH   2   3
ATOM      3  C   UNL A   1      34.047  25.091  26.035  1.00  0.00     0.021 C 
BRANCH   3   4
ATOM      4  C   UNL A   1      34.000  26.540  25.541  1.00  0.00     0.116 C 
BRANCH   4   5
ATOM      5  N   UNL A   1      32.648  27.060  25.527  1.00  0.00    -0.356 N 
ATOM      6  C   UNL A   1      31.716  27.136  24.538  1.00  0.00     0.227 C 
ATOM      7  O   UNL A   1      30.661  27.717  24.822  1.00  0.00    -0.274 OA
ATOM      8  H   UNL A   1      32.348  27.425  26.392  1.00  0.00     0.163 HD
BRANCH   6   9
ATOM      9  C   UNL A   1      31.901  26.533  23.137  1.00  0.00     0.105 C 
ATOM     10  C   UNL A   1      31.028  27.182  22.063  1.00  0.00     0.023 C 
BRANCH   9  11
ATOM     11  C   UNL A   1      31.940  25.013  23.129  1.00  0.00    -0.036 A 
ATOM     12  C   UNL A   1      32.148  22.164  23.161  1.00  0.00    -0.018 A 
ATOM     13  C   UNL A   1      31.262  22.853  24.004  1.00  0.00     0.009 A 
ATOM     14  C   UNL A   1      32.923  22.937  22.286  1.00  0.00     0.009 A 
ATOM     15  C   UNL A   1      31.129  24.240  23.958  1.00  0.00     0.005 A 
ATOM     16  C   UNL A   1      32.835  24.338  22.283  1.00  0.00     0.005 A 
BRANCH  12  17
ATOM     17  C   UNL A   1      32.220  20.689  23.216  1.00  0.00    -0.018 A 
ATOM     18  C   UNL A   1      33.215  15.197  25.750  1.00  0.00     0.064 C 
ATOM     19  C   UNL A   1      32.944  16.491  25.081  1.00  0.00     0.013 A 
ATOM     20  C   UNL A   1      32.851  17.762  25.605  1.00  0.00     0.031 A 
ATOM     21  N   UNL A   1      32.740  16.592  23.725  1.00  0.00    -0.359 N 
ATOM     22  C   UNL A   1      32.589  18.655  24.536  1.00  0.00     0.000 A 
ATOM     23  C   UNL A   1      32.526  17.905  23.367  1.00  0.00     0.046 A 
ATOM     24  H   UNL A   1      32.746  15.833  23.099  1.00  0.00     0.166 HD
ATOM     25  C   UNL A   1      32.413  20.047  24.457  1.00  0.00     0.019 A 
ATOM     26  C   UNL A   1      32.294  18.489  22.116  1.00  0.00     0.027 A 
ATOM     27  C   UNL A   1      32.152  19.887  22.065  1.00  0.00     0.011 A 
ENDBRANCH  12  17
ENDBRANCH   9  11
ENDBRANCH   6   9
ENDBRANCH   4   5
ENDBRANCH   3   4
ENDBRANCH   2   3
ENDBRANCH   1   2
BRANCH   1  28
ATOM     28  C   UNL A   1      35.582  21.737  24.639  1.00  0.00     0.021 C 
BRANCH  28  29
ATOM     29  C   UNL A   1      37.092  21.827  24.435  1.00  0.00     0.116 C 
BRANCH  29  30
ATOM     30  N   UNL A   1      37.791  20.752  25.121  1.00  0.00    -0.352 N 
ATOM     31  C   UNL A   1      38.958  20.787  25.843  1.00  0.00     0.251 C 
ATOM     32  H   UNL A   1      37.363  19.868  25.058  1.00  0.00     0.163 HD
ATOM     33  O   UNL A   1      39.528  19.737  26.125  1.00  0.00    -0.269 OA
BRANCH  31  34
ATOM     34  C   UNL A   1      39.528  22.084  26.270  1.00  0.00     0.039 A 
ATOM     35  C   UNL A   1      40.756  22.101  26.936  1.00  0.00     0.014 A 
ATOM     36  C   UNL A   1      38.838  23.279  26.043  1.00  0.00     0.014 A 
ATOM     37  C   UNL A   1      41.318  23.320  27.324  1.00  0.00     0.010 A 
ATOM     38  C   UNL A   1      39.431  24.497  26.368  1.00  0.00     0.010 A 
ATOM     39  C   UNL A   1      40.675  24.531  27.017  1.00  0.00    -0.014 A 
BRANCH  39  40
ATOM     40  C   UNL A   1      41.278  25.839  27.381  1.00  0.00     0.031 A 
ATOM     41  C   UNL A   1      42.693  26.155  26.977  1.00  0.00     0.074 A 
ATOM     42  C   UNL A   1      40.571  26.717  28.119  1.00  0.00     0.049 A 
ATOM     43  N   UNL A   1      43.424  27.201  27.267  1.00  0.00    -0.248 NA
ATOM     44  C   UNL A   1      43.386  25.144  26.165  1.00  0.00     0.031 C 
ATOM     45  C   UNL A   1      39.201  26.512  28.594  1.00  0.00     0.029 A 
ATOM     46  N   UNL A   1      40.907  27.956  28.607  1.00  0.00    -0.354 N 
ATOM     47  C   UNL A   1      44.664  26.971  26.679  1.00  0.00     0.074 A 
ATOM     48  C   UNL A   1      44.603  25.657  26.076  1.00  0.00     0.031 C 
ATOM     49  C   UNL A   1      38.806  27.596  29.283  1.00  0.00     0.029 A 
ATOM     50  C   UNL A   1      39.907  28.552  29.341  1.00  0.00     0.049 A 
ATOM     51  H   UNL A   1      41.782  28.378  28.448  1.00  0.00     0.167 HD
ATOM     52  C   UNL A   1      45.743  27.792  26.624  1.00  0.00     0.034 A 
ATOM     53  C   UNL A   1      39.885  29.729  29.998  1.00  0.00     0.034 A 
ATOM     54  C   UNL A   1      45.784  29.103  27.226  1.00  0.00     0.049 A 
ATOM     55  C   UNL A   1      41.112  30.606  29.959  1.00  0.00     0.074 A 
ATOM     56  C   UNL A   1      46.810  30.032  27.203  1.00  0.00     0.029 A 
ATOM     57  N   UNL A   1      44.754  29.670  27.968  1.00  0.00    -0.354 N 
ATOM     58  N   UNL A   1      42.265  30.391  29.366  1.00  0.00    -0.248 NA
ATOM     59  C   UNL A   1      41.032  31.889  30.669  1.00  0.00     0.031 C 
ATOM     60  C   UNL A   1      46.429  31.129  27.984  1.00  0.00     0.029 A 
ATOM     61  C   UNL A   1      45.133  30.922  28.429  1.00  0.00     0.049 A 
ATOM     62  H   UNL A   1      43.883  29.245  28.140  1.00  0.00     0.167 HD
ATOM     63  C   UNL A   1      43.030  31.530  29.602  1.00  0.00     0.074 A 
ATOM     64  C   UNL A   1      42.204  32.430  30.379  1.00  0.00     0.031 C 
ATOM     65  C   UNL A   1      44.300  31.808  29.210  1.00  0.00     0.034 A 
BRANCH  52  66
ATOM     66  C   UNL A   1      46.970  27.278  25.907  1.00  0.00     0.023 A 
ATOM     67  C   UNL A   1      47.981  26.576  26.587  1.00  0.00     0.031 A 
ATOM     68  C   UNL A   1      47.148  27.518  24.532  1.00  0.00     0.131 A 
ATOM     69  C   UNL A   1      49.155  26.208  25.913  1.00  0.00     0.055 A 
ATOM     70  C   UNL A   1      48.282  27.074  23.848  1.00  0.00     0.041 A 
ATOM     71  F   UNL A   1      46.230  28.202  23.832  1.00  0.00    -0.206 F 
ATOM     72  C   UNL A   1      49.302  26.429  24.542  1.00  0.00     0.022 A 
BRANCH  69  73
ATOM     73  S   UNL A   1      50.548  25.574  26.885  1.00  0.00     0.124 S 
ATOM     74  O   UNL A   1      51.492  25.198  25.836  1.00  0.00    -0.237 OA
ATOM     75  O   UNL A   1      50.919  26.728  27.695  1.00  0.00    -0.237 OA
ATOM     76  O   UNL A   1      49.970  24.453  27.624  1.00  0.00    -0.744 OA
ENDBRANCH  69  73
ENDBRANCH  52  66
BRANCH  53  77
ATOM     77  C   UNL A   1      38.672  30.153  30.755  1.00  0.00     0.023 A 
ATOM     78  C   UNL A   1      37.650  30.885  30.130  1.00  0.00     0.031 A 
ATOM     79  C   UNL A   1      38.540  29.878  32.128  1.00  0.00     0.131 A 
ATOM     80  C   UNL A   1      36.569  31.364  30.884  1.00  0.00     0.055 A 
ATOM     81  C   UNL A   1      37.433  30.308  32.863  1.00  0.00     0.041 A 
ATOM     82  F   UNL A   1      39.485  29.179  32.776  1.00  0.00    -0.206 F 
ATOM     83  C   UNL A   1      36.446  31.069  32.244  1.00  0.00     0.022 A 
BRANCH  80  84
ATOM     84  S   UNL A   1      35.371  32.466  30.083  1.00  0.00     0.124 S 
ATOM     85  O   UNL A   1      36.213  33.596  29.708  1.00  0.00    -0.237 OA
ATOM     86  O   UNL A   1      34.884  31.635  28.987  1.00  0.00    -0.237 OA
ATOM     87  O   UNL A   1      34.397  32.735  31.139  1.00  0.00    -0.744 OA
ENDBRANCH  80  84
ENDBRANCH  53  77
BRANCH  65  88
ATOM     88  C   UNL A   1      44.848  33.167  29.573  1.00  0.00     0.023 A 
ATOM     89  C   UNL A   1      44.587  34.306  28.792  1.00  0.00     0.031 A 
ATOM     90  C   UNL A   1      45.657  33.319  30.714  1.00  0.00     0.131 A 
ATOM     91  C   UNL A   1      45.176  35.534  29.128  1.00  0.00     0.055 A 
ATOM     92  C   UNL A   1      46.188  34.556  31.080  1.00  0.00     0.041 A 
ATOM     93  F   UNL A   1      45.941  32.264  31.496  1.00  0.00    -0.206 F 
ATOM     94  C   UNL A   1      45.960  35.670  30.277  1.00  0.00     0.022 A 
BRANCH  91  95
ATOM     95  S   UNL A   1      44.980  36.934  27.992  1.00  0.00     0.124 S 
ATOM     96  O   UNL A   1      43.970  37.737  28.673  1.00  0.00    -0.237 OA
ATOM     97  O   UNL A   1      46.325  37.498  27.957  1.00  0.00    -0.237 OA
ATOM     98  O   UNL A   1      44.539  36.308  26.747  1.00  0.00    -0.744 OA
ENDBRANCH  91  95
ENDBRANCH  65  88
ENDBRANCH  39  40
ENDBRANCH  31  34
ENDBRANCH  29  30
ENDBRANCH  28  29
ENDBRANCH   1  28
TORSDOF 18
ENDMDL
MODEL 2
REMARK VINA RESULT:     -12.2      0.548      7.609
REMARK SMILES Cc1cc2cc(-c3ccc([C@@H](C)C(=O)NCCCCCCNC(=O)c4ccc(-c5c6nc(c(-c7cc(S(=O)(=O)[O-])ccc7F)c7ccc([nH]7)c(-c7cc(S(=O)(=O)[O-])ccc7F)c7nc(c(-c8cc(S(=O)(=O)[O-])ccc8F)c8ccc5[nH]8)C=C7)C=C6)cc4)cc3)ccc2[nH]1
REMARK SMILES IDX 19 1 18 2 17 3 16 4 15 5 13 6 14 7 11 9 12 10 10 11 7 12
REMARK SMILES IDX 8 13 89 14 9 15 88 16 6 17 1 18 2 19 3 20 93 21 4 22 92 23
REMARK SMILES IDX 5 25 91 26 90 27 20 28 21 29 22 30 23 31 24 33 25 34 26 35
REMARK SMILES IDX 87 36 27 37 86 38 28 39 29 40 30 41 80 42 31 43 85 44 79 45
REMARK SMILES IDX 81 46 32 47 84 48 78 49 77 50 33 52 65 53 45 54 64 55 46 56
REMARK SMILES IDX 49 57 63 58 82 59 47 60 48 61 62 63 83 64 50 65 34 66 35 67
REMARK SMILES IDX 43 68 36 69 42 70 44 71 41 72 37 73 38 74 39 75 40 76 66 77
REMARK SMILES IDX 67 78 75 79 68 80 74 81 76 82 73 83 69 84 70 85 71 86 72 87
REMARK SMILES IDX 51 88 52 89 60 90 53 91 59 92 61 93 58 94 54 95 55 96 56 97
REMARK SMILES IDX 57 98
REMARK H PARENT 15 8 93 24 22 32 81 51 49 62
REMARK Flexibility Score: inf
ROOT
ATOM      1  C   UNL A   1      35.051  22.783  25.723  1.00  0.00     0.002 C 
ENDROOT
BRANCH   1   2
ATOM      2  C   UNL A   1      35.184  24.281  25.416  1.00  0.00     0.002 C 
BRANCH   2   3
ATOM      3  C   UNL A   1      33.999  25.142  25.865  1.00  0.00     0.021 C 
BRANCH   3   4
ATOM      4  C   UNL A   1      34.068  26.592  25.377  1.00  0.00     0.116 C 
BRANCH   4   5
ATOM      5  N   UNL A   1      32.787  27.260  25.494  1.00  0.00    -0.356 N 
ATOM      6  C   UNL A   1      31.787  27.467  24.595  1.00  0.00     0.227 C 
ATOM      7  O   UNL A   1      30.834  28.154  24.983  1.00  0.00    -0.274 OA
ATOM      8  H   UNL A   1      32.608  27.632  26.388  1.00  0.00     0.163 HD
BRANCH   6   9
ATOM      9  C   UNL A   1      31.779  26.885  23.173  1.00  0.00     0.105 C 
ATOM     10  C   UNL A   1      30.755  27.538  22.242  1.00  0.00     0.023 C 
BRANCH   9  11
ATOM     11  C   UNL A   1      31.833  25.367  23.136  1.00  0.00    -0.036 A 
ATOM     12  C   UNL A   1      32.060  22.519  23.135  1.00  0.00    -0.018 A 
ATOM     13  C   UNL A   1      31.043  23.182  23.840  1.00  0.00     0.009 A 
ATOM     14  C   UNL A   1      32.959  23.316  22.415  1.00  0.00     0.009 A 
ATOM     15  C   UNL A   1      30.906  24.569  23.805  1.00  0.00     0.005 A 
ATOM     16  C   UNL A   1      32.859  24.716  22.430  1.00  0.00     0.005 A 
BRANCH  12  17
ATOM     17  C   UNL A   1      32.136  21.043  23.167  1.00  0.00    -0.018 A 
ATOM     18  C   UNL A   1      33.127  15.514  25.621  1.00  0.00     0.064 C 
ATOM     19  C   UNL A   1      32.857  16.818  24.971  1.00  0.00     0.013 A 
ATOM     20  C   UNL A   1      32.757  18.080  25.514  1.00  0.00     0.031 A 
ATOM     21  N   UNL A   1      32.664  16.940  23.614  1.00  0.00    -0.359 N 
ATOM     22  C   UNL A   1      32.501  18.989  24.457  1.00  0.00     0.000 A 
ATOM     23  C   UNL A   1      32.449  18.258  23.276  1.00  0.00     0.046 A 
ATOM     24  H   UNL A   1      32.677  16.191  22.976  1.00  0.00     0.166 HD
ATOM     25  C   UNL A   1      32.321  20.381  24.399  1.00  0.00     0.019 A 
ATOM     26  C   UNL A   1      32.225  18.861  22.033  1.00  0.00     0.027 A 
ATOM     27  C   UNL A   1      32.079  20.259  22.003  1.00  0.00     0.011 A 
ENDBRANCH  12  17
ENDBRANCH   9  11
ENDBRANCH   6   9
ENDBRANCH   4   5
ENDBRANCH   3   4
ENDBRANCH   2   3
ENDBRANCH   1   2
BRANCH   1  28
ATOM     28  C   UNL A   1      35.528  21.839  24.615  1.00  0.00     0.021 C 
BRANCH  28  29
ATOM     29  C   UNL A   1      37.039  21.820  24.400  1.00  0.00     0.116 C 
BRANCH  29  30
ATOM     30  N   UNL A   1      37.659  20.678  25.052  1.00  0.00    -0.352 N 
ATOM     31  C   UNL A   1      38.821  20.610  25.780  1.00  0.00     0.251 C 
ATOM     32  H   UNL A   1      37.173  19.827  24.959  1.00  0.00     0.163 HD
ATOM     33  O   UNL A   1      39.318  19.516  26.028  1.00  0.00    -0.269 OA
BRANCH  31  34
ATOM     34  C   UNL A   1      39.476  21.851  26.251  1.00  0.00     0.039 A 
ATOM     35  C   UNL A   1      40.636  21.757  27.023  1.00  0.00     0.014 A 
ATOM     36  C   UNL A   1      38.928  23.104  25.959  1.00  0.00     0.014 A 
ATOM     37  C   UNL A   1      41.277  22.920  27.456  1.00  0.00     0.010 A 
ATOM     38  C   UNL A   1      39.607  24.263  26.332  1.00  0.00     0.010 A 
ATOM     39  C   UNL A   1      40.785  24.184  27.089  1.00  0.00    -0.014 A 
BRANCH  39  40
ATOM     40  C   UNL A   1      41.479  25.432  27.501  1.00  0.00     0.031 A 
ATOM     41  C   UNL A   1      40.738  26.483  28.282  1.00  0.00     0.074 A 
ATOM     42  C   UNL A   1      42.755  25.641  27.124  1.00  0.00     0.049 A 
ATOM     43  N   UNL A   1      41.138  27.669  28.664  1.00  0.00    -0.248 NA
ATOM     44  C   UNL A   1      39.352  26.167  28.659  1.00  0.00     0.031 C 
ATOM     45  C   UNL A   1      43.569  24.709  26.341  1.00  0.00     0.029 A 
ATOM     46  N   UNL A   1      43.594  26.707  27.342  1.00  0.00    -0.354 N 
ATOM     47  C   UNL A   1      40.053  28.243  29.318  1.00  0.00     0.074 A 
ATOM     48  C   UNL A   1      38.959  27.300  29.220  1.00  0.00     0.031 C 
ATOM     49  C   UNL A   1      44.794  25.233  26.166  1.00  0.00     0.029 A 
ATOM     50  C   UNL A   1      44.840  26.555  26.779  1.00  0.00     0.049 A 
ATOM     51  H   UNL A   1      43.327  27.506  27.852  1.00  0.00     0.167 HD
ATOM     52  C   UNL A   1      39.983  29.435  29.963  1.00  0.00     0.034 A 
ATOM     53  C   UNL A   1      45.896  27.393  26.751  1.00  0.00     0.034 A 
ATOM     54  C   UNL A   1      41.086  30.362  30.056  1.00  0.00     0.049 A 
ATOM     55  C   UNL A   1      45.781  28.731  27.438  1.00  0.00     0.074 A 
ATOM     56  C   UNL A   1      41.138  31.579  30.713  1.00  0.00     0.029 A 
ATOM     57  N   UNL A   1      42.331  30.177  29.467  1.00  0.00    -0.354 N 
ATOM     58  N   UNL A   1      44.759  29.244  28.086  1.00  0.00    -0.248 NA
ATOM     59  C   UNL A   1      46.965  29.599  27.399  1.00  0.00     0.031 C 
ATOM     60  C   UNL A   1      42.387  32.159  30.466  1.00  0.00     0.029 A 
ATOM     61  C   UNL A   1      43.146  31.269  29.723  1.00  0.00     0.049 A 
ATOM     62  H   UNL A   1      42.596  29.386  28.945  1.00  0.00     0.167 HD
ATOM     63  C   UNL A   1      45.194  30.478  28.562  1.00  0.00     0.074 A 
ATOM     64  C   UNL A   1      46.570  30.624  28.138  1.00  0.00     0.031 C 
ATOM     65  C   UNL A   1      44.517  31.405  29.287  1.00  0.00     0.034 A 
BRANCH  52  66
ATOM     66  C   UNL A   1      38.661  29.806  30.596  1.00  0.00     0.023 A 
ATOM     67  C   UNL A   1      37.693  30.549  29.897  1.00  0.00     0.031 A 
ATOM     68  C   UNL A   1      38.375  29.439  31.923  1.00  0.00     0.131 A 
ATOM     69  C   UNL A   1      36.524  30.968  30.549  1.00  0.00     0.055 A 
ATOM     70  C   UNL A   1      37.171  29.786  32.539  1.00  0.00     0.041 A 
ATOM     71  F   UNL A   1      39.267  28.748  32.649  1.00  0.00    -0.206 F 
ATOM     72  C   UNL A   1      36.244  30.570  31.858  1.00  0.00     0.022 A 
BRANCH  69  73
ATOM     73  S   UNL A   1      35.449  32.165  29.714  1.00  0.00     0.124 S 
ATOM     74  O   UNL A   1      34.493  32.490  30.771  1.00  0.00    -0.237 OA
ATOM     75  O   UNL A   1      36.381  33.225  29.348  1.00  0.00    -0.237 OA
ATOM     76  O   UNL A   1      34.894  31.406  28.595  1.00  0.00    -0.744 OA
ENDBRANCH  69  73
ENDBRANCH  52  66
BRANCH  53  77
ATOM     77  C   UNL A   1      47.152  27.007  26.045  1.00  0.00     0.023 A 
ATOM     78  C   UNL A   1      48.178  26.326  26.719  1.00  0.00     0.031 A 
ATOM     79  C   UNL A   1      47.368  27.358  24.700  1.00  0.00     0.131 A 
ATOM     80  C   UNL A   1      49.392  26.066  26.067  1.00  0.00     0.055 A 
ATOM     81  C   UNL A   1      48.557  27.046  24.038  1.00  0.00     0.041 A 
ATOM     82  F   UNL A   1      46.419  28.008  24.006  1.00  0.00    -0.206 F 
ATOM     83  C   UNL A   1      49.584  26.409  24.727  1.00  0.00     0.022 A 
BRANCH  80  84
ATOM     84  S   UNL A   1      50.759  25.358  27.027  1.00  0.00     0.124 S 
ATOM     85  O   UNL A   1      50.087  24.288  27.754  1.00  0.00    -0.237 OA
ATOM     86  O   UNL A   1      51.681  24.941  25.976  1.00  0.00    -0.237 OA
ATOM     87  O   UNL A   1      51.216  26.479  27.846  1.00  0.00    -0.744 OA
ENDBRANCH  80  84
ENDBRANCH  53  77
BRANCH  65  88
ATOM     88  C   UNL A   1      45.282  32.635  29.712  1.00  0.00     0.023 A 
ATOM     89  C   UNL A   1      45.368  33.775  28.894  1.00  0.00     0.031 A 
ATOM     90  C   UNL A   1      45.948  32.659  30.951  1.00  0.00     0.131 A 
ATOM     91  C   UNL A   1      46.150  34.868  29.298  1.00  0.00     0.055 A 
ATOM     92  C   UNL A   1      46.671  33.774  31.376  1.00  0.00     0.041 A 
ATOM     93  F   UNL A   1      45.901  31.597  31.773  1.00  0.00    -0.206 F 
ATOM     94  C   UNL A   1      46.786  34.882  30.542  1.00  0.00     0.022 A 
BRANCH  91  95
ATOM     95  S   UNL A   1      46.400  36.238  28.135  1.00  0.00     0.124 S 
ATOM     96  O   UNL A   1      47.806  36.563  28.349  1.00  0.00    -0.237 OA
ATOM     97  O   UNL A   1      46.077  35.622  26.853  1.00  0.00    -0.237 OA
ATOM     98  O   UNL A   1      45.452  37.253  28.592  1.00  0.00    -0.744 OA
ENDBRANCH  91  95
ENDBRANCH  65  88
ENDBRANCH  39  40
ENDBRANCH  31  34
ENDBRANCH  29  30
ENDBRANCH  28  29
ENDBRANCH   1  28
TORSDOF 18
ENDMDL
MODEL 3
REMARK VINA RESULT:     -12.1      2.051      7.624
REMARK SMILES Cc1cc2cc(-c3ccc([C@@H](C)C(=O)NCCCCCCNC(=O)c4ccc(-c5c6nc(c(-c7cc(S(=O)(=O)[O-])ccc7F)c7ccc([nH]7)c(-c7cc(S(=O)(=O)[O-])ccc7F)c7nc(c(-c8cc(S(=O)(=O)[O-])ccc8F)c8ccc5[nH]8)C=C7)C=C6)cc4)cc3)ccc2[nH]1
REMARK SMILES IDX 19 1 18 2 17 3 16 4 15 5 13 6 14 7 11 9 12 10 10 11 7 12
REMARK SMILES IDX 8 13 89 14 9 15 88 16 6 17 1 18 2 19 3 20 93 21 4 22 92 23
REMARK SMILES IDX 5 25 91 26 90 27 20 28 21 29 22 30 23 31 24 33 25 34 26 35
REMARK SMILES IDX 87 36 27 37 86 38 28 39 29 40 30 41 80 42 31 43 85 44 79 45
REMARK SMILES IDX 81 46 32 47 84 48 78 49 77 50 33 52 65 53 45 54 64 55 46 56
REMARK SMILES IDX 49 57 63 58 82 59 47 60 48 61 62 63 83 64 50 65 34 66 35 67
REMARK SMILES IDX 43 68 36 69 42 70 44 71 41 72 37 73 38 74 39 75 40 76 66 77
REMARK SMILES IDX 67 78 75 79 68 80 74 81 76 82 73 83 69 84 70 85 71 86 72 87
REMARK SMILES IDX 51 88 52 89 60 90 53 91 59 92 61 93 58 94 54 95 55 96 56 97
REMARK SMILES IDX 57 98
REMARK H PARENT 15 8 93 24 22 32 81 51 49 62
REMARK Flexibility Score: inf
ROOT
ATOM      1  C   UNL A   1      35.155  24.130  24.631  1.00  0.00     0.002 C 
ENDROOT
BRANCH   1   2
ATOM      2  C   UNL A   1      34.052  24.561  25.608  1.00  0.00     0.002 C 
BRANCH   2   3
ATOM      3  C   UNL A   1      34.065  26.045  25.986  1.00  0.00     0.021 C 
BRANCH   3   4
ATOM      4  C   UNL A   1      33.850  26.988  24.799  1.00  0.00     0.116 C 
BRANCH   4   5
ATOM      5  N   UNL A   1      32.772  27.924  25.044  1.00  0.00    -0.356 N 
ATOM      6  C   UNL A   1      31.697  28.286  24.292  1.00  0.00     0.227 C 
ATOM      7  O   UNL A   1      30.984  29.187  24.752  1.00  0.00    -0.274 OA
ATOM      8  H   UNL A   1      32.827  28.382  25.915  1.00  0.00     0.163 HD
BRANCH   6   9
ATOM      9  C   UNL A   1      31.330  27.632  22.951  1.00  0.00     0.105 C 
ATOM     10  C   UNL A   1      30.059  28.196  22.314  1.00  0.00     0.023 C 
BRANCH   9  11
ATOM     11  C   UNL A   1      31.448  26.117  22.961  1.00  0.00    -0.036 A 
ATOM     12  C   UNL A   1      31.803  23.283  23.031  1.00  0.00    -0.018 A 
ATOM     13  C   UNL A   1      30.849  23.931  23.830  1.00  0.00     0.009 A 
ATOM     14  C   UNL A   1      32.572  24.087  22.180  1.00  0.00     0.009 A 
ATOM     15  C   UNL A   1      30.645  25.309  23.764  1.00  0.00     0.005 A 
ATOM     16  C   UNL A   1      32.411  25.482  22.159  1.00  0.00     0.005 A 
BRANCH  12  17
ATOM     17  C   UNL A   1      31.950  21.814  23.105  1.00  0.00    -0.018 A 
ATOM     18  C   UNL A   1      33.252  16.414  25.698  1.00  0.00     0.064 C 
ATOM     19  C   UNL A   1      32.907  17.684  25.016  1.00  0.00     0.013 A 
ATOM     20  C   UNL A   1      32.758  18.956  25.524  1.00  0.00     0.031 A 
ATOM     21  N   UNL A   1      32.681  17.755  23.661  1.00  0.00    -0.359 N 
ATOM     22  C   UNL A   1      32.438  19.820  24.446  1.00  0.00     0.000 A 
ATOM     23  C   UNL A   1      32.397  19.051  23.288  1.00  0.00     0.046 A 
ATOM     24  H   UNL A   1      32.718  16.989  23.045  1.00  0.00     0.166 HD
ATOM     25  C   UNL A   1      32.191  21.199  24.352  1.00  0.00     0.019 A 
ATOM     26  C   UNL A   1      32.121  19.605  22.033  1.00  0.00     0.027 A 
ATOM     27  C   UNL A   1      31.908  20.994  21.966  1.00  0.00     0.011 A 
ENDBRANCH  12  17
ENDBRANCH   9  11
ENDBRANCH   6   9
ENDBRANCH   4   5
ENDBRANCH   3   4
ENDBRANCH   2   3
ENDBRANCH   1   2
BRANCH   1  28
ATOM     28  C   UNL A   1      35.512  22.641  24.655  1.00  0.00     0.021 C 
BRANCH  28  29
ATOM     29  C   UNL A   1      36.015  22.128  26.002  1.00  0.00     0.116 C 
BRANCH  29  30
ATOM     30  N   UNL A   1      36.982  21.054  25.839  1.00  0.00    -0.352 N 
ATOM     31  C   UNL A   1      38.353  21.108  25.807  1.00  0.00     0.251 C 
ATOM     32  H   UNL A   1      36.596  20.154  25.738  1.00  0.00     0.163 HD
ATOM     33  O   UNL A   1      38.989  20.140  25.400  1.00  0.00    -0.269 OA
BRANCH  31  34
ATOM     34  C   UNL A   1      39.058  22.331  26.250  1.00  0.00     0.039 A 
ATOM     35  C   UNL A   1      40.133  22.214  27.134  1.00  0.00     0.014 A 
ATOM     36  C   UNL A   1      38.640  23.594  25.820  1.00  0.00     0.014 A 
ATOM     37  C   UNL A   1      40.823  23.358  27.543  1.00  0.00     0.010 A 
ATOM     38  C   UNL A   1      39.371  24.727  26.173  1.00  0.00     0.010 A 
ATOM     39  C   UNL A   1      40.467  24.621  27.043  1.00  0.00    -0.014 A 
BRANCH  39  40
ATOM     40  C   UNL A   1      41.218  25.845  27.430  1.00  0.00     0.031 A 
ATOM     41  C   UNL A   1      40.558  26.894  28.283  1.00  0.00     0.074 A 
ATOM     42  C   UNL A   1      42.469  26.033  26.969  1.00  0.00     0.049 A 
ATOM     43  N   UNL A   1      41.012  28.062  28.660  1.00  0.00    -0.248 NA
ATOM     44  C   UNL A   1      39.195  26.601  28.750  1.00  0.00     0.031 C 
ATOM     45  C   UNL A   1      43.204  25.100  26.111  1.00  0.00     0.029 A 
ATOM     46  N   UNL A   1      43.346  27.075  27.149  1.00  0.00    -0.354 N 
ATOM     47  C   UNL A   1      39.989  28.646  29.400  1.00  0.00     0.074 A 
ATOM     48  C   UNL A   1      38.869  27.730  29.360  1.00  0.00     0.031 C 
ATOM     49  C   UNL A   1      44.425  25.600  25.861  1.00  0.00     0.029 A 
ATOM     50  C   UNL A   1      44.546  26.908  26.497  1.00  0.00     0.049 A 
ATOM     51  H   UNL A   1      43.135  27.868  27.693  1.00  0.00     0.167 HD
ATOM     52  C   UNL A   1      39.993  29.825  30.072  1.00  0.00     0.034 A 
ATOM     53  C   UNL A   1      45.617  27.723  26.411  1.00  0.00     0.034 A 
ATOM     54  C   UNL A   1      41.121  30.724  30.106  1.00  0.00     0.049 A 
ATOM     55  C   UNL A   1      45.582  29.047  27.132  1.00  0.00     0.074 A 
ATOM     56  C   UNL A   1      41.248  31.925  30.783  1.00  0.00     0.029 A 
ATOM     57  N   UNL A   1      42.318  30.524  29.428  1.00  0.00    -0.354 N 
ATOM     58  N   UNL A   1      44.620  29.568  27.861  1.00  0.00    -0.248 NA
ATOM     59  C   UNL A   1      46.781  29.889  27.028  1.00  0.00     0.031 C 
ATOM     60  C   UNL A   1      42.491  32.482  30.461  1.00  0.00     0.029 A 
ATOM     61  C   UNL A   1      43.174  31.593  29.648  1.00  0.00     0.049 A 
ATOM     62  H   UNL A   1      42.527  29.739  28.872  1.00  0.00     0.167 HD
ATOM     63  C   UNL A   1      45.117  30.782  28.330  1.00  0.00     0.074 A 
ATOM     64  C   UNL A   1      46.463  30.906  27.813  1.00  0.00     0.031 C 
ATOM     65  C   UNL A   1      44.515  31.707  29.120  1.00  0.00     0.034 A 
BRANCH  52  66
ATOM     66  C   UNL A   1      38.728  30.211  30.804  1.00  0.00     0.023 A 
ATOM     67  C   UNL A   1      37.691  30.911  30.162  1.00  0.00     0.031 A 
ATOM     68  C   UNL A   1      38.567  29.903  32.167  1.00  0.00     0.131 A 
ATOM     69  C   UNL A   1      36.579  31.347  30.898  1.00  0.00     0.055 A 
ATOM     70  C   UNL A   1      37.418  30.267  32.873  1.00  0.00     0.041 A 
ATOM     71  F   UNL A   1      39.531  29.256  32.841  1.00  0.00    -0.206 F 
ATOM     72  C   UNL A   1      36.423  31.008  32.243  1.00  0.00     0.022 A 
BRANCH  69  73
ATOM     73  S   UNL A   1      35.416  32.494  30.109  1.00  0.00     0.124 S 
ATOM     74  O   UNL A   1      36.263  33.663  29.883  1.00  0.00    -0.237 OA
ATOM     75  O   UNL A   1      35.008  31.759  28.917  1.00  0.00    -0.237 OA
ATOM     76  O   UNL A   1      34.374  32.674  31.118  1.00  0.00    -0.744 OA
ENDBRANCH  69  73
ENDBRANCH  52  66
BRANCH  53  77
ATOM     77  C   UNL A   1      46.811  27.324  25.611  1.00  0.00     0.023 A 
ATOM     78  C   UNL A   1      47.003  27.813  24.309  1.00  0.00     0.031 A 
ATOM     79  C   UNL A   1      47.752  26.410  26.117  1.00  0.00     0.131 A 
ATOM     80  C   UNL A   1      48.076  27.345  23.536  1.00  0.00     0.055 A 
ATOM     81  C   UNL A   1      48.851  25.990  25.364  1.00  0.00     0.041 A 
ATOM     82  F   UNL A   1      47.620  25.913  27.357  1.00  0.00    -0.206 F 
ATOM     83  C   UNL A   1      49.010  26.447  24.059  1.00  0.00     0.022 A 
BRANCH  80  84
ATOM     84  S   UNL A   1      48.180  27.852  21.798  1.00  0.00     0.124 S 
ATOM     85  O   UNL A   1      49.343  28.731  21.815  1.00  0.00    -0.237 OA
ATOM     86  O   UNL A   1      48.351  26.572  21.120  1.00  0.00    -0.237 OA
ATOM     87  O   UNL A   1      46.899  28.515  21.559  1.00  0.00    -0.744 OA
ENDBRANCH  80  84
ENDBRANCH  53  77
BRANCH  65  88
ATOM     88  C   UNL A   1      45.337  32.911  29.514  1.00  0.00     0.023 A 
ATOM     89  C   UNL A   1      46.140  32.915  30.667  1.00  0.00     0.031 A 
ATOM     90  C   UNL A   1      45.302  34.077  28.728  1.00  0.00     0.131 A 
ATOM     91  C   UNL A   1      46.830  34.081  31.033  1.00  0.00     0.055 A 
ATOM     92  C   UNL A   1      46.041  35.212  29.062  1.00  0.00     0.041 A 
ATOM     93  F   UNL A   1      44.549  34.129  27.616  1.00  0.00    -0.206 F 
ATOM     94  C   UNL A   1      46.800  35.223  30.228  1.00  0.00     0.022 A 
BRANCH  91  95
ATOM     95  S   UNL A   1      47.697  34.117  32.626  1.00  0.00     0.124 S 
ATOM     96  O   UNL A   1      49.047  33.713  32.246  1.00  0.00    -0.237 OA
ATOM     97  O   UNL A   1      47.539  35.507  33.036  1.00  0.00    -0.237 OA
ATOM     98  O   UNL A   1      46.965  33.145  33.438  1.00  0.00    -0.744 OA
ENDBRANCH  91  95
ENDBRANCH  65  88
ENDBRANCH  39  40
ENDBRANCH  31  34
ENDBRANCH  29  30
ENDBRANCH  28  29
ENDBRANCH   1  28
TORSDOF 18
ENDMDL
