MODEL 1
REMARK VINA RESULT:     -13.2      0.000      0.000
REMARK SMILES Cc1ccc(C(=O)NCCCCCCNC(=O)c2ccc(-c3c4nc(c(-c5cc(S(=O)(=O)[O-])ccc5F)c5ccc([nH]5)c(-c5cc(S(=O)(=O)[O-])ccc5F)c5nc(c(-c6cc(S(=O)(=O)[O-])ccc6F)c6ccc3[nH]6)C=C5)C=C4)cc2)c2c1N[C@H](c1ccccc1F)[C@H]1CC=C[C@@H]21
REMARK SMILES IDX 12 1 11 2 10 3 9 4 8 5 6 6 7 7 5 9 1 10 2 11 3 12 82 13 4 14
REMARK SMILES IDX 81 15 83 16 96 17 84 18 92 20 95 21 93 22 94 23 85 24 86 25
REMARK SMILES IDX 90 26 87 27 89 28 91 29 88 30 13 31 14 32 15 33 16 34 17 36
REMARK SMILES IDX 18 37 19 38 80 39 20 40 79 41 21 42 22 43 23 44 73 45 24 46
REMARK SMILES IDX 78 47 72 48 74 49 25 50 77 51 71 52 70 53 26 55 58 56 38 57
REMARK SMILES IDX 57 58 39 59 42 60 56 61 75 62 40 63 41 64 55 66 76 67 43 68
REMARK SMILES IDX 27 69 28 70 36 71 29 72 35 73 37 74 34 75 30 76 31 77 32 78
REMARK SMILES IDX 33 79 59 80 60 81 68 82 61 83 67 84 69 85 66 86 62 87 63 88
REMARK SMILES IDX 64 89 65 90 44 91 45 92 53 93 46 94 52 95 54 96 51 97 47 98
REMARK SMILES IDX 48 99 49 100 50 101
REMARK H PARENT 8 8 83 19 15 35 74 54 42 65
REMARK Flexibility Score: inf
ROOT
ATOM      1  C   UNL A   1      31.627  30.740  26.107  1.00  0.00     0.002 C 
ENDROOT
BRANCH   1   2
ATOM      2  C   UNL A   1      32.264  29.735  27.075  1.00  0.00     0.002 C 
BRANCH   2   3
ATOM      3  C   UNL A   1      33.710  29.335  26.734  1.00  0.00     0.021 C 
BRANCH   3   4
ATOM      4  C   UNL A   1      33.826  27.917  26.160  1.00  0.00     0.116 C 
BRANCH   4   5
ATOM      5  N   UNL A   1      32.709  27.126  26.633  1.00  0.00    -0.352 N 
ATOM      6  C   UNL A   1      31.834  26.254  26.042  1.00  0.00     0.251 C 
ATOM      7  O   UNL A   1      30.804  26.068  26.690  1.00  0.00    -0.269 OA
ATOM      8  H   UNL A   1      32.541  27.241  27.597  1.00  0.00     0.163 HD
BRANCH   6   9
ATOM      9  C   UNL A   1      32.089  25.524  24.744  1.00  0.00     0.045 A 
ATOM     10  C   UNL A   1      33.049  23.604  20.973  1.00  0.00     0.046 C 
ATOM     11  C   UNL A   1      32.669  24.211  22.298  1.00  0.00    -0.028 A 
ATOM     12  C   UNL A   1      32.180  25.518  22.312  1.00  0.00     0.006 A 
ATOM     13  C   UNL A   1      32.792  23.500  23.511  1.00  0.00     0.042 A 
ATOM     14  C   UNL A   1      31.854  26.143  23.514  1.00  0.00     0.014 A 
ATOM     15  C   UNL A   1      32.530  24.163  24.739  1.00  0.00    -0.005 A 
ATOM     16  N   UNL A   1      33.123  22.152  23.478  1.00  0.00    -0.377 N 
ATOM     17  C   UNL A   1      32.663  23.375  26.025  1.00  0.00     0.050 C 
ATOM     18  C   UNL A   1      33.598  21.445  24.656  1.00  0.00     0.117 C 
ATOM     19  H   UNL A   1      33.035  21.659  22.630  1.00  0.00     0.161 HD
ATOM     20  C   UNL A   1      32.765  21.847  25.881  1.00  0.00     0.031 C 
ATOM     21  C   UNL A   1      33.875  23.684  26.865  1.00  0.00    -0.023 C 
ATOM     22  C   UNL A   1      33.447  21.410  27.192  1.00  0.00     0.034 C 
ATOM     23  C   UNL A   1      34.292  22.598  27.528  1.00  0.00    -0.030 C 
BRANCH  18  24
ATOM     24  C   UNL A   1      33.654  19.951  24.335  1.00  0.00     0.010 A 
ATOM     25  C   UNL A   1      32.525  19.354  23.738  1.00  0.00     0.009 A 
ATOM     26  C   UNL A   1      34.756  19.123  24.586  1.00  0.00     0.128 A 
ATOM     27  C   UNL A   1      32.513  17.995  23.403  1.00  0.00     0.001 A 
ATOM     28  C   UNL A   1      34.751  17.768  24.248  1.00  0.00     0.039 A 
ATOM     29  F   UNL A   1      35.880  19.595  25.141  1.00  0.00    -0.207 F 
ATOM     30  C   UNL A   1      33.629  17.202  23.655  1.00  0.00     0.003 A 
ENDBRANCH  18  24
ENDBRANCH   6   9
ENDBRANCH   4   5
ENDBRANCH   3   4
ENDBRANCH   2   3
ENDBRANCH   1   2
BRANCH   1  31
ATOM     31  C   UNL A   1      31.473  32.155  26.670  1.00  0.00     0.021 C 
BRANCH  31  32
ATOM     32  C   UNL A   1      32.736  32.692  27.334  1.00  0.00     0.116 C 
BRANCH  32  33
ATOM     33  N   UNL A   1      32.578  34.087  27.711  1.00  0.00    -0.352 N 
ATOM     34  C   UNL A   1      33.186  34.755  28.746  1.00  0.00     0.251 C 
ATOM     35  H   UNL A   1      31.959  34.617  27.159  1.00  0.00     0.163 HD
ATOM     36  O   UNL A   1      32.784  35.851  29.109  1.00  0.00    -0.269 OA
BRANCH  34  37
ATOM     37  C   UNL A   1      34.339  34.118  29.412  1.00  0.00     0.039 A 
ATOM     38  C   UNL A   1      35.631  34.402  28.968  1.00  0.00     0.014 A 
ATOM     39  C   UNL A   1      34.126  33.253  30.492  1.00  0.00     0.014 A 
ATOM     40  C   UNL A   1      36.722  33.837  29.630  1.00  0.00     0.010 A 
ATOM     41  C   UNL A   1      35.214  32.732  31.180  1.00  0.00     0.010 A 
ATOM     42  C   UNL A   1      36.520  33.007  30.744  1.00  0.00    -0.014 A 
BRANCH  42  43
ATOM     43  C   UNL A   1      37.661  32.374  31.444  1.00  0.00     0.031 A 
ATOM     44  C   UNL A   1      38.368  31.215  30.802  1.00  0.00     0.074 A 
ATOM     45  C   UNL A   1      38.019  32.801  32.669  1.00  0.00     0.049 A 
ATOM     46  N   UNL A   1      39.361  30.501  31.261  1.00  0.00    -0.248 NA
ATOM     47  C   UNL A   1      37.882  30.789  29.478  1.00  0.00     0.031 C 
ATOM     48  C   UNL A   1      37.374  33.889  33.401  1.00  0.00     0.029 A 
ATOM     49  N   UNL A   1      39.004  32.362  33.518  1.00  0.00    -0.354 N 
ATOM     50  C   UNL A   1      39.618  29.544  30.288  1.00  0.00     0.074 A 
ATOM     51  C   UNL A   1      38.642  29.731  29.239  1.00  0.00     0.031 C 
ATOM     52  C   UNL A   1      37.984  34.039  34.588  1.00  0.00     0.029 A 
ATOM     53  C   UNL A   1      39.048  33.043  34.712  1.00  0.00     0.049 A 
ATOM     54  H   UNL A   1      39.622  31.628  33.294  1.00  0.00     0.167 HD
ATOM     55  C   UNL A   1      40.598  28.612  30.262  1.00  0.00     0.034 A 
ATOM     56  C   UNL A   1      39.852  32.884  35.782  1.00  0.00     0.034 A 
ATOM     57  C   UNL A   1      41.574  28.449  31.304  1.00  0.00     0.049 A 
ATOM     58  C   UNL A   1      40.938  31.840  35.730  1.00  0.00     0.074 A 
ATOM     59  C   UNL A   1      42.642  27.571  31.344  1.00  0.00     0.029 A 
ATOM     60  N   UNL A   1      41.608  29.179  32.483  1.00  0.00    -0.354 N 
ATOM     61  N   UNL A   1      41.228  31.003  34.762  1.00  0.00    -0.248 NA
ATOM     62  C   UNL A   1      41.816  31.723  36.903  1.00  0.00     0.031 C 
ATOM     63  C   UNL A   1      43.295  27.738  32.566  1.00  0.00     0.029 A 
ATOM     64  C   UNL A   1      42.669  28.758  33.266  1.00  0.00     0.049 A 
ATOM     65  H   UNL A   1      40.973  29.891  32.727  1.00  0.00     0.167 HD
ATOM     66  C   UNL A   1      42.338  30.282  35.196  1.00  0.00     0.074 A 
ATOM     67  C   UNL A   1      42.675  30.790  36.509  1.00  0.00     0.031 C 
ATOM     68  C   UNL A   1      43.013  29.291  34.562  1.00  0.00     0.034 A 
BRANCH  55  69
ATOM     69  C   UNL A   1      40.695  27.711  29.060  1.00  0.00     0.023 A 
ATOM     70  C   UNL A   1      41.629  27.985  28.046  1.00  0.00     0.031 A 
ATOM     71  C   UNL A   1      39.790  26.652  28.870  1.00  0.00     0.131 A 
ATOM     72  C   UNL A   1      41.618  27.223  26.871  1.00  0.00     0.055 A 
ATOM     73  C   UNL A   1      39.806  25.874  27.713  1.00  0.00     0.041 A 
ATOM     74  F   UNL A   1      38.884  26.353  29.815  1.00  0.00    -0.206 F 
ATOM     75  C   UNL A   1      40.718  26.166  26.703  1.00  0.00     0.022 A 
BRANCH  72  76
ATOM     76  S   UNL A   1      42.749  27.595  25.504  1.00  0.00     0.124 S 
ATOM     77  O   UNL A   1      42.832  26.306  24.820  1.00  0.00    -0.237 OA
ATOM     78  O   UNL A   1      42.024  28.638  24.785  1.00  0.00    -0.237 OA
ATOM     79  O   UNL A   1      43.975  28.022  26.170  1.00  0.00    -0.744 OA
ENDBRANCH  72  76
ENDBRANCH  55  69
BRANCH  56  80
ATOM     80  C   UNL A   1      39.690  33.792  36.952  1.00  0.00     0.023 A 
ATOM     81  C   UNL A   1      39.088  33.344  38.141  1.00  0.00     0.031 A 
ATOM     82  C   UNL A   1      40.046  35.148  36.858  1.00  0.00     0.131 A 
ATOM     83  C   UNL A   1      38.811  34.257  39.167  1.00  0.00     0.055 A 
ATOM     84  C   UNL A   1      39.821  36.042  37.905  1.00  0.00     0.041 A 
ATOM     85  F   UNL A   1      40.612  35.621  35.737  1.00  0.00    -0.206 F 
ATOM     86  C   UNL A   1      39.188  35.600  39.064  1.00  0.00     0.022 A 
BRANCH  83  87
ATOM     87  S   UNL A   1      37.866  33.753  40.632  1.00  0.00     0.124 S 
ATOM     88  O   UNL A   1      36.749  33.021  40.041  1.00  0.00    -0.237 OA
ATOM     89  O   UNL A   1      38.845  32.939  41.349  1.00  0.00    -0.237 OA
ATOM     90  O   UNL A   1      37.521  35.017  41.272  1.00  0.00    -0.744 OA
ENDBRANCH  83  87
ENDBRANCH  56  80
BRANCH  68  91
ATOM     91  C   UNL A   1      44.207  28.675  35.245  1.00  0.00     0.023 A 
ATOM     92  C   UNL A   1      44.017  27.662  36.204  1.00  0.00     0.031 A 
ATOM     93  C   UNL A   1      45.497  29.206  35.077  1.00  0.00     0.131 A 
ATOM     94  C   UNL A   1      45.093  27.244  36.995  1.00  0.00     0.055 A 
ATOM     95  C   UNL A   1      46.574  28.755  35.839  1.00  0.00     0.041 A 
ATOM     96  F   UNL A   1      45.721  30.179  34.182  1.00  0.00    -0.206 F 
ATOM     97  C   UNL A   1      46.372  27.780  36.813  1.00  0.00     0.022 A 
BRANCH  94  98
ATOM     98  S   UNL A   1      44.857  26.047  38.336  1.00  0.00     0.124 S 
ATOM     99  O   UNL A   1      44.599  24.811  37.599  1.00  0.00    -0.237 OA
ATOM    100  O   UNL A   1      46.143  26.104  39.027  1.00  0.00    -0.237 OA
ATOM    101  O   UNL A   1      43.718  26.571  39.082  1.00  0.00    -0.744 OA
ENDBRANCH  94  98
ENDBRANCH  68  91
ENDBRANCH  42  43
ENDBRANCH  34  37
ENDBRANCH  32  33
ENDBRANCH  31  32
ENDBRANCH   1  31
TORSDOF 17
ENDMDL
MODEL 2
REMARK VINA RESULT:     -12.6      1.923      7.555
REMARK SMILES Cc1ccc(C(=O)NCCCCCCNC(=O)c2ccc(-c3c4nc(c(-c5cc(S(=O)(=O)[O-])ccc5F)c5ccc([nH]5)c(-c5cc(S(=O)(=O)[O-])ccc5F)c5nc(c(-c6cc(S(=O)(=O)[O-])ccc6F)c6ccc3[nH]6)C=C5)C=C4)cc2)c2c1N[C@H](c1ccccc1F)[C@H]1CC=C[C@@H]21
REMARK SMILES IDX 12 1 11 2 10 3 9 4 8 5 6 6 7 7 5 9 1 10 2 11 3 12 82 13 4 14
REMARK SMILES IDX 81 15 83 16 96 17 84 18 92 20 95 21 93 22 94 23 85 24 86 25
REMARK SMILES IDX 90 26 87 27 89 28 91 29 88 30 13 31 14 32 15 33 16 34 17 36
REMARK SMILES IDX 18 37 19 38 80 39 20 40 79 41 21 42 22 43 23 44 73 45 24 46
REMARK SMILES IDX 78 47 72 48 74 49 25 50 77 51 71 52 70 53 26 55 58 56 38 57
REMARK SMILES IDX 57 58 39 59 42 60 56 61 75 62 40 63 41 64 55 66 76 67 43 68
REMARK SMILES IDX 27 69 28 70 36 71 29 72 35 73 37 74 34 75 30 76 31 77 32 78
REMARK SMILES IDX 33 79 59 80 60 81 68 82 61 83 67 84 69 85 66 86 62 87 63 88
REMARK SMILES IDX 64 89 65 90 44 91 45 92 53 93 46 94 52 95 54 96 51 97 47 98
REMARK SMILES IDX 48 99 49 100 50 101
REMARK H PARENT 8 8 83 19 15 35 74 54 42 65
REMARK Flexibility Score: inf
ROOT
ATOM      1  C   UNL A   1      31.506  30.581  26.478  1.00  0.00     0.002 C 
ENDROOT
BRANCH   1   2
ATOM      2  C   UNL A   1      32.840  30.088  25.904  1.00  0.00     0.002 C 
BRANCH   2   3
ATOM      3  C   UNL A   1      33.656  29.184  26.846  1.00  0.00     0.021 C 
BRANCH   3   4
ATOM      4  C   UNL A   1      33.773  27.739  26.347  1.00  0.00     0.116 C 
BRANCH   4   5
ATOM      5  N   UNL A   1      32.564  27.023  26.695  1.00  0.00    -0.352 N 
ATOM      6  C   UNL A   1      31.685  26.231  26.003  1.00  0.00     0.251 C 
ATOM      7  O   UNL A   1      30.590  26.108  26.551  1.00  0.00    -0.269 OA
ATOM      8  H   UNL A   1      32.317  27.127  27.643  1.00  0.00     0.163 HD
BRANCH   6   9
ATOM      9  C   UNL A   1      32.004  25.515  24.712  1.00  0.00     0.045 A 
ATOM     10  C   UNL A   1      33.145  23.635  20.971  1.00  0.00     0.046 C 
ATOM     11  C   UNL A   1      32.702  24.228  22.283  1.00  0.00    -0.028 A 
ATOM     12  C   UNL A   1      32.195  25.529  22.285  1.00  0.00     0.006 A 
ATOM     13  C   UNL A   1      32.783  23.510  23.495  1.00  0.00     0.042 A 
ATOM     14  C   UNL A   1      31.811  26.140  23.477  1.00  0.00     0.014 A 
ATOM     15  C   UNL A   1      32.462  24.160  24.716  1.00  0.00    -0.005 A 
ATOM     16  N   UNL A   1      33.134  22.166  23.466  1.00  0.00    -0.377 N 
ATOM     17  C   UNL A   1      32.552  23.364  26.000  1.00  0.00     0.050 C 
ATOM     18  C   UNL A   1      33.568  21.456  24.658  1.00  0.00     0.117 C 
ATOM     19  H   UNL A   1      33.087  21.679  22.612  1.00  0.00     0.161 HD
ATOM     20  C   UNL A   1      32.679  21.838  25.850  1.00  0.00     0.031 C 
ATOM     21  C   UNL A   1      33.724  23.682  26.892  1.00  0.00    -0.023 C 
ATOM     22  C   UNL A   1      33.312  21.400  27.185  1.00  0.00     0.034 C 
ATOM     23  C   UNL A   1      34.127  22.597  27.565  1.00  0.00    -0.030 C 
BRANCH  18  24
ATOM     24  C   UNL A   1      33.657  19.966  24.329  1.00  0.00     0.010 A 
ATOM     25  C   UNL A   1      32.553  19.353  23.702  1.00  0.00     0.009 A 
ATOM     26  C   UNL A   1      34.767  19.154  24.601  1.00  0.00     0.128 A 
ATOM     27  C   UNL A   1      32.572  17.997  23.358  1.00  0.00     0.001 A 
ATOM     28  C   UNL A   1      34.792  17.802  24.255  1.00  0.00     0.039 A 
ATOM     29  F   UNL A   1      35.869  19.642  25.186  1.00  0.00    -0.207 F 
ATOM     30  C   UNL A   1      33.695  17.222  23.631  1.00  0.00     0.003 A 
ENDBRANCH  18  24
ENDBRANCH   6   9
ENDBRANCH   4   5
ENDBRANCH   3   4
ENDBRANCH   2   3
ENDBRANCH   1   2
BRANCH   1  31
ATOM     31  C   UNL A   1      31.444  32.089  26.733  1.00  0.00     0.021 C 
BRANCH  31  32
ATOM     32  C   UNL A   1      32.803  32.722  27.011  1.00  0.00     0.116 C 
BRANCH  32  33
ATOM     33  N   UNL A   1      32.657  34.036  27.614  1.00  0.00    -0.352 N 
ATOM     34  C   UNL A   1      33.292  34.528  28.729  1.00  0.00     0.251 C 
ATOM     35  H   UNL A   1      32.025  34.648  27.171  1.00  0.00     0.163 HD
ATOM     36  O   UNL A   1      32.901  35.549  29.276  1.00  0.00    -0.269 OA
BRANCH  34  37
ATOM     37  C   UNL A   1      34.460  33.794  29.254  1.00  0.00     0.039 A 
ATOM     38  C   UNL A   1      35.744  34.193  28.883  1.00  0.00     0.014 A 
ATOM     39  C   UNL A   1      34.267  32.719  30.129  1.00  0.00     0.014 A 
ATOM     40  C   UNL A   1      36.849  33.529  29.419  1.00  0.00     0.010 A 
ATOM     41  C   UNL A   1      35.368  32.092  30.699  1.00  0.00     0.010 A 
ATOM     42  C   UNL A   1      36.667  32.482  30.336  1.00  0.00    -0.014 A 
BRANCH  42  43
ATOM     43  C   UNL A   1      37.822  31.744  30.894  1.00  0.00     0.031 A 
ATOM     44  C   UNL A   1      38.311  32.073  32.275  1.00  0.00     0.074 A 
ATOM     45  C   UNL A   1      38.460  30.826  30.144  1.00  0.00     0.049 A 
ATOM     46  N   UNL A   1      39.323  31.572  32.930  1.00  0.00    -0.248 NA
ATOM     47  C   UNL A   1      37.578  33.120  33.008  1.00  0.00     0.031 C 
ATOM     48  C   UNL A   1      38.095  30.458  28.776  1.00  0.00     0.029 A 
ATOM     49  N   UNL A   1      39.555  30.047  30.421  1.00  0.00    -0.354 N 
ATOM     50  C   UNL A   1      39.351  32.240  34.148  1.00  0.00     0.074 A 
ATOM     51  C   UNL A   1      38.290  33.221  34.120  1.00  0.00     0.031 C 
ATOM     52  C   UNL A   1      38.947  29.519  28.335  1.00  0.00     0.029 A 
ATOM     53  C   UNL A   1      39.932  29.234  29.377  1.00  0.00     0.049 A 
ATOM     54  H   UNL A   1      40.027  30.066  31.285  1.00  0.00     0.167 HD
ATOM     55  C   UNL A   1      40.170  32.032  35.204  1.00  0.00     0.034 A 
ATOM     56  C   UNL A   1      40.954  28.361  29.273  1.00  0.00     0.034 A 
ATOM     57  C   UNL A   1      41.210  31.039  35.226  1.00  0.00     0.049 A 
ATOM     58  C   UNL A   1      41.854  28.144  30.462  1.00  0.00     0.074 A 
ATOM     59  C   UNL A   1      42.057  30.712  36.269  1.00  0.00     0.029 A 
ATOM     60  N   UNL A   1      41.541  30.211  34.163  1.00  0.00    -0.354 N 
ATOM     61  N   UNL A   1      41.810  28.717  31.642  1.00  0.00    -0.248 NA
ATOM     62  C   UNL A   1      42.933  27.156  30.319  1.00  0.00     0.031 C 
ATOM     63  C   UNL A   1      42.930  29.719  35.825  1.00  0.00     0.029 A 
ATOM     64  C   UNL A   1      42.593  29.387  34.521  1.00  0.00     0.049 A 
ATOM     65  H   UNL A   1      41.095  30.211  33.286  1.00  0.00     0.167 HD
ATOM     66  C   UNL A   1      42.833  28.139  32.389  1.00  0.00     0.074 A 
ATOM     67  C   UNL A   1      43.472  27.162  31.533  1.00  0.00     0.031 C 
ATOM     68  C   UNL A   1      43.205  28.396  33.668  1.00  0.00     0.034 A 
BRANCH  55  69
ATOM     69  C   UNL A   1      39.967  32.864  36.441  1.00  0.00     0.023 A 
ATOM     70  C   UNL A   1      39.077  32.435  37.443  1.00  0.00     0.031 A 
ATOM     71  C   UNL A   1      40.566  34.128  36.574  1.00  0.00     0.131 A 
ATOM     72  C   UNL A   1      38.791  33.279  38.522  1.00  0.00     0.055 A 
ATOM     73  C   UNL A   1      40.305  34.951  37.670  1.00  0.00     0.041 A 
ATOM     74  F   UNL A   1      41.425  34.575  35.644  1.00  0.00    -0.206 F 
ATOM     75  C   UNL A   1      39.405  34.530  38.645  1.00  0.00     0.022 A 
BRANCH  72  76
ATOM     76  S   UNL A   1      37.588  32.801  39.791  1.00  0.00     0.124 S 
ATOM     77  O   UNL A   1      36.413  32.474  38.986  1.00  0.00    -0.237 OA
ATOM     78  O   UNL A   1      38.248  31.663  40.423  1.00  0.00    -0.237 OA
ATOM     79  O   UNL A   1      37.457  33.996  40.618  1.00  0.00    -0.744 OA
ENDBRANCH  72  76
ENDBRANCH  55  69
BRANCH  56  80
ATOM     80  C   UNL A   1      41.118  27.584  28.011  1.00  0.00     0.023 A 
ATOM     81  C   UNL A   1      40.806  26.214  27.956  1.00  0.00     0.031 A 
ATOM     82  C   UNL A   1      41.684  28.182  26.873  1.00  0.00     0.131 A 
ATOM     83  C   UNL A   1      41.112  25.477  26.805  1.00  0.00     0.055 A 
ATOM     84  C   UNL A   1      41.934  27.457  25.708  1.00  0.00     0.041 A 
ATOM     85  F   UNL A   1      42.009  29.484  26.886  1.00  0.00    -0.206 F 
ATOM     86  C   UNL A   1      41.659  26.092  25.674  1.00  0.00     0.022 A 
BRANCH  83  87
ATOM     87  S   UNL A   1      40.900  23.675  26.769  1.00  0.00     0.124 S 
ATOM     88  O   UNL A   1      41.924  23.264  25.812  1.00  0.00    -0.237 OA
ATOM     89  O   UNL A   1      41.160  23.320  28.163  1.00  0.00    -0.237 OA
ATOM     90  O   UNL A   1      39.521  23.499  26.330  1.00  0.00    -0.744 OA
ENDBRANCH  83  87
ENDBRANCH  56  80
BRANCH  68  91
ATOM     91  C   UNL A   1      44.348  27.614  34.262  1.00  0.00     0.023 A 
ATOM     92  C   UNL A   1      45.671  28.059  34.074  1.00  0.00     0.031 A 
ATOM     93  C   UNL A   1      44.141  26.355  34.850  1.00  0.00     0.131 A 
ATOM     94  C   UNL A   1      46.740  27.228  34.430  1.00  0.00     0.055 A 
ATOM     95  C   UNL A   1      45.211  25.550  35.242  1.00  0.00     0.041 A 
ATOM     96  F   UNL A   1      42.898  25.887  35.039  1.00  0.00    -0.206 F 
ATOM     97  C   UNL A   1      46.517  25.979  35.019  1.00  0.00     0.022 A 
BRANCH  94  98
ATOM     98  S   UNL A   1      48.452  27.705  34.072  1.00  0.00     0.124 S 
ATOM     99  O   UNL A   1      49.209  26.706  34.824  1.00  0.00    -0.237 OA
ATOM    100  O   UNL A   1      48.511  27.568  32.619  1.00  0.00    -0.237 OA
ATOM    101  O   UNL A   1      48.553  29.068  34.581  1.00  0.00    -0.744 OA
ENDBRANCH  94  98
ENDBRANCH  68  91
ENDBRANCH  42  43
ENDBRANCH  34  37
ENDBRANCH  32  33
ENDBRANCH  31  32
ENDBRANCH   1  31
TORSDOF 17
ENDMDL
MODEL 3
REMARK VINA RESULT:     -12.5      1.860      7.310
REMARK SMILES Cc1ccc(C(=O)NCCCCCCNC(=O)c2ccc(-c3c4nc(c(-c5cc(S(=O)(=O)[O-])ccc5F)c5ccc([nH]5)c(-c5cc(S(=O)(=O)[O-])ccc5F)c5nc(c(-c6cc(S(=O)(=O)[O-])ccc6F)c6ccc3[nH]6)C=C5)C=C4)cc2)c2c1N[C@H](c1ccccc1F)[C@H]1CC=C[C@@H]21
REMARK SMILES IDX 12 1 11 2 10 3 9 4 8 5 6 6 7 7 5 9 1 10 2 11 3 12 82 13 4 14
REMARK SMILES IDX 81 15 83 16 96 17 84 18 92 20 95 21 93 22 94 23 85 24 86 25
REMARK SMILES IDX 90 26 87 27 89 28 91 29 88 30 13 31 14 32 15 33 16 34 17 36
REMARK SMILES IDX 18 37 19 38 80 39 20 40 79 41 21 42 22 43 23 44 73 45 24 46
REMARK SMILES IDX 78 47 72 48 74 49 25 50 77 51 71 52 70 53 26 55 58 56 38 57
REMARK SMILES IDX 57 58 39 59 42 60 56 61 75 62 40 63 41 64 55 66 76 67 43 68
REMARK SMILES IDX 27 69 28 70 36 71 29 72 35 73 37 74 34 75 30 76 31 77 32 78
REMARK SMILES IDX 33 79 59 80 60 81 68 82 61 83 67 84 69 85 66 86 62 87 63 88
REMARK SMILES IDX 64 89 65 90 44 91 45 92 53 93 46 94 52 95 54 96 51 97 47 98
REMARK SMILES IDX 48 99 49 100 50 101
REMARK H PARENT 8 8 83 19 15 35 74 54 42 65
REMARK Flexibility Score: inf
ROOT
ATOM      1  C   UNL A   1      31.399  30.631  26.145  1.00  0.00     0.002 C 
ENDROOT
BRANCH   1   2
ATOM      2  C   UNL A   1      32.772  30.084  25.735  1.00  0.00     0.002 C 
BRANCH   2   3
ATOM      3  C   UNL A   1      33.443  29.171  26.778  1.00  0.00     0.021 C 
BRANCH   3   4
ATOM      4  C   UNL A   1      33.619  27.728  26.293  1.00  0.00     0.116 C 
BRANCH   4   5
ATOM      5  N   UNL A   1      32.461  26.954  26.690  1.00  0.00    -0.352 N 
ATOM      6  C   UNL A   1      31.602  26.110  26.036  1.00  0.00     0.251 C 
ATOM      7  O   UNL A   1      30.534  25.938  26.623  1.00  0.00    -0.269 OA
ATOM      8  H   UNL A   1      32.242  27.057  27.644  1.00  0.00     0.163 HD
BRANCH   6   9
ATOM      9  C   UNL A   1      31.914  25.396  24.742  1.00  0.00     0.045 A 
ATOM     10  C   UNL A   1      33.030  23.529  20.987  1.00  0.00     0.046 C 
ATOM     11  C   UNL A   1      32.598  24.116  22.305  1.00  0.00    -0.028 A 
ATOM     12  C   UNL A   1      32.058  25.404  22.312  1.00  0.00     0.006 A 
ATOM     13  C   UNL A   1      32.721  23.406  23.518  1.00  0.00     0.042 A 
ATOM     14  C   UNL A   1      31.681  26.011  23.509  1.00  0.00     0.014 A 
ATOM     15  C   UNL A   1      32.408  24.053  24.742  1.00  0.00    -0.005 A 
ATOM     16  N   UNL A   1      33.106  22.072  23.488  1.00  0.00    -0.377 N 
ATOM     17  C   UNL A   1      32.543  23.267  26.028  1.00  0.00     0.050 C 
ATOM     18  C   UNL A   1      33.582  21.379  24.675  1.00  0.00     0.117 C 
ATOM     19  H   UNL A   1      33.055  21.580  22.637  1.00  0.00     0.161 HD
ATOM     20  C   UNL A   1      32.707  21.744  25.882  1.00  0.00     0.031 C 
ATOM     21  C   UNL A   1      33.723  23.619  26.895  1.00  0.00    -0.023 C 
ATOM     22  C   UNL A   1      33.377  21.329  27.206  1.00  0.00     0.034 C 
ATOM     23  C   UNL A   1      34.168  22.547  27.565  1.00  0.00    -0.030 C 
BRANCH  18  24
ATOM     24  C   UNL A   1      33.703  19.890  24.350  1.00  0.00     0.010 A 
ATOM     25  C   UNL A   1      32.600  19.245  23.754  1.00  0.00     0.009 A 
ATOM     26  C   UNL A   1      34.841  19.110  24.597  1.00  0.00     0.128 A 
ATOM     27  C   UNL A   1      32.647  17.887  23.416  1.00  0.00     0.001 A 
ATOM     28  C   UNL A   1      34.894  17.758  24.257  1.00  0.00     0.039 A 
ATOM     29  F   UNL A   1      35.944  19.631  25.151  1.00  0.00    -0.207 F 
ATOM     30  C   UNL A   1      33.797  17.144  23.664  1.00  0.00     0.003 A 
ENDBRANCH  18  24
ENDBRANCH   6   9
ENDBRANCH   4   5
ENDBRANCH   3   4
ENDBRANCH   2   3
ENDBRANCH   1   2
BRANCH   1  31
ATOM     31  C   UNL A   1      31.402  32.103  26.566  1.00  0.00     0.021 C 
BRANCH  31  32
ATOM     32  C   UNL A   1      32.736  32.578  27.130  1.00  0.00     0.116 C 
BRANCH  32  33
ATOM     33  N   UNL A   1      32.627  33.922  27.674  1.00  0.00    -0.352 N 
ATOM     34  C   UNL A   1      33.308  34.458  28.741  1.00  0.00     0.251 C 
ATOM     35  H   UNL A   1      31.988  34.520  27.225  1.00  0.00     0.163 HD
ATOM     36  O   UNL A   1      32.949  35.509  29.251  1.00  0.00    -0.269 OA
BRANCH  34  37
ATOM     37  C   UNL A   1      34.485  33.733  29.259  1.00  0.00     0.039 A 
ATOM     38  C   UNL A   1      35.764  34.133  28.867  1.00  0.00     0.014 A 
ATOM     39  C   UNL A   1      34.308  32.667  30.148  1.00  0.00     0.014 A 
ATOM     40  C   UNL A   1      36.877  33.479  29.396  1.00  0.00     0.010 A 
ATOM     41  C   UNL A   1      35.418  32.050  30.711  1.00  0.00     0.010 A 
ATOM     42  C   UNL A   1      36.711  32.441  30.326  1.00  0.00    -0.014 A 
BRANCH  42  43
ATOM     43  C   UNL A   1      37.876  31.713  30.878  1.00  0.00     0.031 A 
ATOM     44  C   UNL A   1      38.392  32.071  32.242  1.00  0.00     0.074 A 
ATOM     45  C   UNL A   1      38.498  30.779  30.135  1.00  0.00     0.049 A 
ATOM     46  N   UNL A   1      39.416  31.582  32.888  1.00  0.00    -0.248 NA
ATOM     47  C   UNL A   1      37.674  33.134  32.967  1.00  0.00     0.031 C 
ATOM     48  C   UNL A   1      38.107  30.383  28.783  1.00  0.00     0.029 A 
ATOM     49  N   UNL A   1      39.598  30.004  30.407  1.00  0.00    -0.354 N 
ATOM     50  C   UNL A   1      39.467  32.276  34.091  1.00  0.00     0.074 A 
ATOM     51  C   UNL A   1      38.407  33.257  34.063  1.00  0.00     0.031 C 
ATOM     52  C   UNL A   1      38.950  29.434  28.345  1.00  0.00     0.029 A 
ATOM     53  C   UNL A   1      39.954  29.169  29.374  1.00  0.00     0.049 A 
ATOM     54  H   UNL A   1      40.086  30.041  31.261  1.00  0.00     0.167 HD
ATOM     55  C   UNL A   1      40.307  32.089  35.135  1.00  0.00     0.034 A 
ATOM     56  C   UNL A   1      40.973  28.292  29.268  1.00  0.00     0.034 A 
ATOM     57  C   UNL A   1      41.346  31.096  35.158  1.00  0.00     0.049 A 
ATOM     58  C   UNL A   1      41.896  28.100  30.444  1.00  0.00     0.074 A 
ATOM     59  C   UNL A   1      42.212  30.790  36.191  1.00  0.00     0.029 A 
ATOM     60  N   UNL A   1      41.656  30.245  34.107  1.00  0.00    -0.354 N 
ATOM     61  N   UNL A   1      41.874  28.697  31.613  1.00  0.00    -0.248 NA
ATOM     62  C   UNL A   1      42.971  27.108  30.301  1.00  0.00     0.031 C 
ATOM     63  C   UNL A   1      43.076  29.786  35.751  1.00  0.00     0.029 A 
ATOM     64  C   UNL A   1      42.714  29.427  34.461  1.00  0.00     0.049 A 
ATOM     65  H   UNL A   1      41.193  30.226  33.238  1.00  0.00     0.167 HD
ATOM     66  C   UNL A   1      42.911  28.134  32.352  1.00  0.00     0.074 A 
ATOM     67  C   UNL A   1      43.533  27.139  31.505  1.00  0.00     0.031 C 
ATOM     68  C   UNL A   1      43.308  28.418  33.618  1.00  0.00     0.034 A 
BRANCH  55  69
ATOM     69  C   UNL A   1      40.128  32.947  36.358  1.00  0.00     0.023 A 
ATOM     70  C   UNL A   1      41.004  34.019  36.604  1.00  0.00     0.031 A 
ATOM     71  C   UNL A   1      39.163  32.633  37.331  1.00  0.00     0.131 A 
ATOM     72  C   UNL A   1      40.914  34.724  37.810  1.00  0.00     0.055 A 
ATOM     73  C   UNL A   1      39.055  33.361  38.516  1.00  0.00     0.041 A 
ATOM     74  F   UNL A   1      38.304  31.621  37.135  1.00  0.00    -0.206 F 
ATOM     75  C   UNL A   1      39.940  34.406  38.763  1.00  0.00     0.022 A 
BRANCH  72  76
ATOM     76  S   UNL A   1      42.076  36.058  38.204  1.00  0.00     0.124 S 
ATOM     77  O   UNL A   1      43.328  35.326  38.387  1.00  0.00    -0.237 OA
ATOM     78  O   UNL A   1      42.008  36.886  37.003  1.00  0.00    -0.237 OA
ATOM     79  O   UNL A   1      41.527  36.656  39.416  1.00  0.00    -0.744 OA
ENDBRANCH  72  76
ENDBRANCH  55  69
BRANCH  56  80
ATOM     80  C   UNL A   1      41.112  27.489  28.021  1.00  0.00     0.023 A 
ATOM     81  C   UNL A   1      40.794  26.120  27.999  1.00  0.00     0.031 A 
ATOM     82  C   UNL A   1      41.660  28.061  26.861  1.00  0.00     0.131 A 
ATOM     83  C   UNL A   1      41.077  25.358  26.859  1.00  0.00     0.055 A 
ATOM     84  C   UNL A   1      41.887  27.311  25.706  1.00  0.00     0.041 A 
ATOM     85  F   UNL A   1      41.990  29.362  26.841  1.00  0.00    -0.206 F 
ATOM     86  C   UNL A   1      41.607  25.947  25.706  1.00  0.00     0.022 A 
BRANCH  83  87
ATOM     87  S   UNL A   1      40.857  23.557  26.864  1.00  0.00     0.124 S 
ATOM     88  O   UNL A   1      39.442  23.418  26.530  1.00  0.00    -0.237 OA
ATOM     89  O   UNL A   1      41.795  23.141  25.823  1.00  0.00    -0.237 OA
ATOM     90  O   UNL A   1      41.224  23.168  28.221  1.00  0.00    -0.744 OA
ENDBRANCH  83  87
ENDBRANCH  56  80
BRANCH  68  91
ATOM     91  C   UNL A   1      44.462  27.647  34.206  1.00  0.00     0.023 A 
ATOM     92  C   UNL A   1      44.220  26.430  34.873  1.00  0.00     0.031 A 
ATOM     93  C   UNL A   1      45.754  28.196  34.261  1.00  0.00     0.131 A 
ATOM     94  C   UNL A   1      45.247  25.825  35.606  1.00  0.00     0.055 A 
ATOM     95  C   UNL A   1      46.784  27.566  34.959  1.00  0.00     0.041 A 
ATOM     96  F   UNL A   1      46.026  29.359  33.648  1.00  0.00    -0.206 F 
ATOM     97  C   UNL A   1      46.529  26.383  35.648  1.00  0.00     0.022 A 
BRANCH  94  98
ATOM     98  S   UNL A   1      44.937  24.337  36.595  1.00  0.00     0.124 S 
ATOM     99  O   UNL A   1      46.266  23.729  36.654  1.00  0.00    -0.237 OA
ATOM    100  O   UNL A   1      44.452  24.899  37.852  1.00  0.00    -0.237 OA
ATOM    101  O   UNL A   1      43.952  23.594  35.816  1.00  0.00    -0.744 OA
ENDBRANCH  94  98
ENDBRANCH  68  91
ENDBRANCH  42  43
ENDBRANCH  34  37
ENDBRANCH  32  33
ENDBRANCH  31  32
ENDBRANCH   1  31
TORSDOF 17
ENDMDL
