MODEL 1
REMARK VINA RESULT:     -12.0      0.000      0.000
REMARK SMILES O=C(NCCCCCCNC(=O)c1ccc(-c2c3nc(c(-c4cc(S(=O)(=O)[O-])ccc4F)c4ccc([nH]4)c(-c4cc(S(=O)(=O)[O-])ccc4F)c4nc(c(-c5cc(S(=O)(=O)[O-])ccc5F)c5ccc2[nH]5)C=C4)C=C3)cc1)C1=Cc2c(ccc(Cl)c2-c2ccccc2)O[C@H]1C(F)(F)F
REMARK SMILES IDX 7 1 6 2 5 3 4 4 3 5 1 6 2 7 76 9 77 10 92 11 78 12 91 13
REMARK SMILES IDX 79 14 84 15 80 16 82 17 81 18 83 19 93 20 94 21 95 22 96 23
REMARK SMILES IDX 85 24 86 25 90 26 87 27 89 28 88 29 8 30 9 31 10 32 11 33
REMARK SMILES IDX 12 35 13 36 14 37 75 38 15 39 74 40 16 41 17 42 18 43 68 44
REMARK SMILES IDX 19 45 73 46 67 47 69 48 20 49 72 50 66 51 65 52 21 54 53 55
REMARK SMILES IDX 33 56 52 57 34 58 37 59 51 60 70 61 35 62 36 63 50 65 71 66
REMARK SMILES IDX 38 67 22 68 23 69 31 70 24 71 30 72 32 73 29 74 25 75 26 76
REMARK SMILES IDX 27 77 28 78 54 79 55 80 63 81 56 82 62 83 64 84 61 85 57 86
REMARK SMILES IDX 58 87 59 88 60 89 39 90 40 91 48 92 41 93 47 94 49 95 46 96
REMARK SMILES IDX 42 97 43 98 44 99 45 100
REMARK H PARENT 3 8 10 34 69 53 37 64
REMARK Flexibility Score: inf
ROOT
ATOM      1  C   UNL A   1      35.965  22.465  25.277  1.00  0.00     0.002 C 
ENDROOT
BRANCH   1   2
ATOM      2  C   UNL A   1      35.372  23.082  26.550  1.00  0.00     0.002 C 
BRANCH   2   3
ATOM      3  C   UNL A   1      34.750  22.126  27.573  1.00  0.00     0.021 C 
BRANCH   3   4
ATOM      4  C   UNL A   1      33.364  21.578  27.242  1.00  0.00     0.116 C 
BRANCH   4   5
ATOM      5  N   UNL A   1      32.255  22.467  27.538  1.00  0.00    -0.352 N 
ATOM      6  O   UNL A   1      30.745  24.094  27.176  1.00  0.00    -0.270 OA
ATOM      7  C   UNL A   1      31.650  23.391  26.731  1.00  0.00     0.251 C 
ATOM      8  H   UNL A   1      31.886  22.393  28.446  1.00  0.00     0.163 HD
BRANCH   7   9
ATOM      9  C   UNL A   1      32.046  23.553  25.314  1.00  0.00     0.067 C 
ATOM     10  C   UNL A   1      32.674  24.682  24.969  1.00  0.00     0.026 C 
ATOM     11  C   UNL A   1      31.417  22.754  24.217  1.00  0.00     0.314 C 
ATOM     12  C   UNL A   1      31.698  25.568  24.275  1.00  0.00     0.027 A 
ATOM     13  O   UNL A   1      30.610  23.600  23.322  1.00  0.00    -0.475 OA
ATOM     14  C   UNL A   1      30.697  24.965  23.494  1.00  0.00     0.128 A 
ATOM     15  C   UNL A   1      31.697  26.956  24.575  1.00  0.00     0.011 A 
ATOM     16  C   UNL A   1      29.665  25.748  22.995  1.00  0.00     0.049 A 
ATOM     17  C   UNL A   1      30.627  27.715  24.090  1.00  0.00     0.049 A 
ATOM     18  C   UNL A   1      29.623  27.114  23.307  1.00  0.00     0.025 A 
ATOM     19  Cl  UNL A   1      30.447  29.382  24.497  1.00  0.00    -0.084 Cl
BRANCH  11  20
ATOM     20  C   UNL A   1      32.472  21.952  23.416  1.00  0.00     0.429 C 
ATOM     21  F   UNL A   1      31.996  21.455  22.247  1.00  0.00    -0.167 F 
ATOM     22  F   UNL A   1      33.538  22.727  23.102  1.00  0.00    -0.167 F 
ATOM     23  F   UNL A   1      32.944  20.890  24.113  1.00  0.00    -0.167 F 
ENDBRANCH  11  20
BRANCH  15  24
ATOM     24  C   UNL A   1      32.754  27.419  25.504  1.00  0.00    -0.016 A 
ATOM     25  C   UNL A   1      33.871  28.093  24.985  1.00  0.00     0.009 A 
ATOM     26  C   UNL A   1      32.434  27.600  26.862  1.00  0.00     0.009 A 
ATOM     27  C   UNL A   1      34.540  29.052  25.748  1.00  0.00     0.001 A 
ATOM     28  C   UNL A   1      33.095  28.568  27.619  1.00  0.00     0.001 A 
ATOM     29  C   UNL A   1      34.122  29.319  27.050  1.00  0.00     0.000 A 
ENDBRANCH  15  24
ENDBRANCH   7   9
ENDBRANCH   4   5
ENDBRANCH   3   4
ENDBRANCH   2   3
ENDBRANCH   1   2
BRANCH   1  30
ATOM     30  C   UNL A   1      36.683  21.121  25.415  1.00  0.00     0.021 C 
BRANCH  30  31
ATOM     31  C   UNL A   1      38.135  21.077  24.952  1.00  0.00     0.116 C 
BRANCH  31  32
ATOM     32  N   UNL A   1      38.967  20.213  25.771  1.00  0.00    -0.352 N 
ATOM     33  C   UNL A   1      40.013  20.517  26.607  1.00  0.00     0.251 C 
ATOM     34  H   UNL A   1      38.744  19.255  25.719  1.00  0.00     0.163 HD
ATOM     35  O   UNL A   1      40.670  19.592  27.095  1.00  0.00    -0.269 OA
BRANCH  33  36
ATOM     36  C   UNL A   1      40.382  21.921  26.911  1.00  0.00     0.039 A 
ATOM     37  C   UNL A   1      41.351  22.162  27.891  1.00  0.00     0.014 A 
ATOM     38  C   UNL A   1      39.764  23.002  26.277  1.00  0.00     0.014 A 
ATOM     39  C   UNL A   1      41.739  23.473  28.189  1.00  0.00     0.010 A 
ATOM     40  C   UNL A   1      40.207  24.304  26.519  1.00  0.00     0.010 A 
ATOM     41  C   UNL A   1      41.195  24.557  27.482  1.00  0.00    -0.014 A 
BRANCH  41  42
ATOM     42  C   UNL A   1      41.638  25.955  27.750  1.00  0.00     0.031 A 
ATOM     43  C   UNL A   1      42.986  26.429  27.269  1.00  0.00     0.074 A 
ATOM     44  C   UNL A   1      40.848  26.785  28.461  1.00  0.00     0.049 A 
ATOM     45  N   UNL A   1      43.572  27.584  27.455  1.00  0.00    -0.248 NA
ATOM     46  C   UNL A   1      43.792  25.467  26.502  1.00  0.00     0.031 C 
ATOM     47  C   UNL A   1      39.532  26.438  29.004  1.00  0.00     0.029 A 
ATOM     48  N   UNL A   1      41.031  28.088  28.855  1.00  0.00    -0.354 N 
ATOM     49  C   UNL A   1      44.819  27.484  26.843  1.00  0.00     0.074 A 
ATOM     50  C   UNL A   1      44.923  26.135  26.330  1.00  0.00     0.031 C 
ATOM     51  C   UNL A   1      39.017  27.509  29.628  1.00  0.00     0.029 A 
ATOM     52  C   UNL A   1      39.981  28.602  29.583  1.00  0.00     0.049 A 
ATOM     53  H   UNL A   1      41.841  28.606  28.638  1.00  0.00     0.167 HD
ATOM     54  C   UNL A   1      45.777  28.434  26.705  1.00  0.00     0.034 A 
ATOM     55  C   UNL A   1      39.819  29.812  30.157  1.00  0.00     0.034 A 
ATOM     56  C   UNL A   1      45.650  29.782  27.204  1.00  0.00     0.049 A 
ATOM     57  C   UNL A   1      40.917  30.839  30.020  1.00  0.00     0.074 A 
ATOM     58  C   UNL A   1      46.533  30.839  27.061  1.00  0.00     0.029 A 
ATOM     59  N   UNL A   1      44.580  30.260  27.949  1.00  0.00    -0.354 N 
ATOM     60  N   UNL A   1      42.066  30.740  29.390  1.00  0.00    -0.248 NA
ATOM     61  C   UNL A   1      40.693  32.141  30.660  1.00  0.00     0.031 C 
ATOM     62  C   UNL A   1      46.038  31.926  27.787  1.00  0.00     0.029 A 
ATOM     63  C   UNL A   1      44.801  31.581  28.307  1.00  0.00     0.049 A 
ATOM     64  H   UNL A   1      43.780  29.737  28.188  1.00  0.00     0.167 HD
ATOM     65  C   UNL A   1      42.681  31.984  29.528  1.00  0.00     0.074 A 
ATOM     66  C   UNL A   1      41.769  32.815  30.285  1.00  0.00     0.031 C 
ATOM     67  C   UNL A   1      43.886  32.402  29.066  1.00  0.00     0.034 A 
BRANCH  54  68
ATOM     68  C   UNL A   1      47.062  28.042  26.012  1.00  0.00     0.023 A 
ATOM     69  C   UNL A   1      47.217  28.144  24.619  1.00  0.00     0.031 A 
ATOM     70  C   UNL A   1      48.151  27.561  26.761  1.00  0.00     0.131 A 
ATOM     71  C   UNL A   1      48.406  27.710  24.012  1.00  0.00     0.055 A 
ATOM     72  C   UNL A   1      49.361  27.208  26.160  1.00  0.00     0.041 A 
ATOM     73  F   UNL A   1      48.057  27.420  28.092  1.00  0.00    -0.206 F 
ATOM     74  C   UNL A   1      49.490  27.270  24.776  1.00  0.00     0.022 A 
BRANCH  71  75
ATOM     75  S   UNL A   1      48.469  27.604  22.203  1.00  0.00     0.124 S 
ATOM     76  O   UNL A   1      47.196  28.216  21.829  1.00  0.00    -0.237 OA
ATOM     77  O   UNL A   1      49.666  28.372  21.882  1.00  0.00    -0.237 OA
ATOM     78  O   UNL A   1      48.560  26.169  21.946  1.00  0.00    -0.744 OA
ENDBRANCH  71  75
ENDBRANCH  54  68
BRANCH  55  79
ATOM     79  C   UNL A   1      38.581  30.132  30.929  1.00  0.00     0.023 A 
ATOM     80  C   UNL A   1      37.563  30.920  30.368  1.00  0.00     0.031 A 
ATOM     81  C   UNL A   1      38.427  29.716  32.265  1.00  0.00     0.131 A 
ATOM     82  C   UNL A   1      36.471  31.320  31.154  1.00  0.00     0.055 A 
ATOM     83  C   UNL A   1      37.306  30.061  33.022  1.00  0.00     0.041 A 
ATOM     84  F   UNL A   1      39.368  28.962  32.854  1.00  0.00    -0.206 F 
ATOM     85  C   UNL A   1      36.327  30.883  32.472  1.00  0.00     0.022 A 
BRANCH  82  86
ATOM     86  S   UNL A   1      35.300  32.522  30.464  1.00  0.00     0.124 S 
ATOM     87  O   UNL A   1      34.823  31.822  29.277  1.00  0.00    -0.237 OA
ATOM     88  O   UNL A   1      34.340  32.667  31.553  1.00  0.00    -0.237 OA
ATOM     89  O   UNL A   1      36.130  33.696  30.207  1.00  0.00    -0.744 OA
ENDBRANCH  82  86
ENDBRANCH  55  79
BRANCH  67  90
ATOM     90  C   UNL A   1      44.262  33.842  29.320  1.00  0.00     0.023 A 
ATOM     91  C   UNL A   1      43.937  34.867  28.414  1.00  0.00     0.031 A 
ATOM     92  C   UNL A   1      44.966  34.193  30.486  1.00  0.00     0.131 A 
ATOM     93  C   UNL A   1      44.366  36.180  28.659  1.00  0.00     0.055 A 
ATOM     94  C   UNL A   1      45.331  35.512  30.758  1.00  0.00     0.041 A 
ATOM     95  F   UNL A   1      45.307  33.257  31.386  1.00  0.00    -0.206 F 
ATOM     96  C   UNL A   1      45.044  36.512  29.834  1.00  0.00     0.022 A 
BRANCH  93  97
ATOM     97  S   UNL A   1      44.115  37.433  27.370  1.00  0.00     0.124 S 
ATOM     98  O   UNL A   1      45.404  37.424  26.684  1.00  0.00    -0.237 OA
ATOM     99  O   UNL A   1      42.990  36.887  26.619  1.00  0.00    -0.237 OA
ATOM    100  O   UNL A   1      43.824  38.649  28.127  1.00  0.00    -0.744 OA
ENDBRANCH  93  97
ENDBRANCH  67  90
ENDBRANCH  41  42
ENDBRANCH  33  36
ENDBRANCH  31  32
ENDBRANCH  30  31
ENDBRANCH   1  30
TORSDOF 18
ENDMDL
MODEL 2
REMARK VINA RESULT:     -11.9      5.540      8.853
REMARK SMILES O=C(NCCCCCCNC(=O)c1ccc(-c2c3nc(c(-c4cc(S(=O)(=O)[O-])ccc4F)c4ccc([nH]4)c(-c4cc(S(=O)(=O)[O-])ccc4F)c4nc(c(-c5cc(S(=O)(=O)[O-])ccc5F)c5ccc2[nH]5)C=C4)C=C3)cc1)C1=Cc2c(ccc(Cl)c2-c2ccccc2)O[C@H]1C(F)(F)F
REMARK SMILES IDX 7 1 6 2 5 3 4 4 3 5 1 6 2 7 76 9 77 10 92 11 78 12 91 13
REMARK SMILES IDX 79 14 84 15 80 16 82 17 81 18 83 19 93 20 94 21 95 22 96 23
REMARK SMILES IDX 85 24 86 25 90 26 87 27 89 28 88 29 8 30 9 31 10 32 11 33
REMARK SMILES IDX 12 35 13 36 14 37 75 38 15 39 74 40 16 41 17 42 18 43 68 44
REMARK SMILES IDX 19 45 73 46 67 47 69 48 20 49 72 50 66 51 65 52 21 54 53 55
REMARK SMILES IDX 33 56 52 57 34 58 37 59 51 60 70 61 35 62 36 63 50 65 71 66
REMARK SMILES IDX 38 67 22 68 23 69 31 70 24 71 30 72 32 73 29 74 25 75 26 76
REMARK SMILES IDX 27 77 28 78 54 79 55 80 63 81 56 82 62 83 64 84 61 85 57 86
REMARK SMILES IDX 58 87 59 88 60 89 39 90 40 91 48 92 41 93 47 94 49 95 46 96
REMARK SMILES IDX 42 97 43 98 44 99 45 100
REMARK H PARENT 3 8 10 34 69 53 37 64
REMARK Flexibility Score: inf
ROOT
ATOM      1  C   UNL A   1      31.597  30.343  26.067  1.00  0.00     0.002 C 
ENDROOT
BRANCH   1   2
ATOM      2  C   UNL A   1      32.200  29.324  27.042  1.00  0.00     0.002 C 
BRANCH   2   3
ATOM      3  C   UNL A   1      31.451  28.002  27.233  1.00  0.00     0.021 C 
BRANCH   3   4
ATOM      4  C   UNL A   1      31.722  26.907  26.204  1.00  0.00     0.116 C 
BRANCH   4   5
ATOM      5  N   UNL A   1      31.538  25.547  26.677  1.00  0.00    -0.352 N 
ATOM      6  O   UNL A   1      31.419  23.304  26.554  1.00  0.00    -0.270 OA
ATOM      7  C   UNL A   1      31.664  24.370  25.991  1.00  0.00     0.251 C 
ATOM      8  H   UNL A   1      31.288  25.459  27.624  1.00  0.00     0.163 HD
BRANCH   7   9
ATOM      9  C   UNL A   1      32.115  24.344  24.582  1.00  0.00     0.067 C 
ATOM     10  C   UNL A   1      32.333  23.149  24.021  1.00  0.00     0.026 C 
ATOM     11  C   UNL A   1      32.734  25.536  23.923  1.00  0.00     0.314 C 
ATOM     12  C   UNL A   1      33.804  22.918  23.971  1.00  0.00     0.027 A 
ATOM     13  O   UNL A   1      34.155  25.309  23.612  1.00  0.00    -0.475 OA
ATOM     14  C   UNL A   1      34.643  24.031  23.784  1.00  0.00     0.128 A 
ATOM     15  C   UNL A   1      34.308  21.631  24.298  1.00  0.00     0.011 A 
ATOM     16  C   UNL A   1      36.015  23.874  23.923  1.00  0.00     0.049 A 
ATOM     17  C   UNL A   1      35.691  21.509  24.469  1.00  0.00     0.049 A 
ATOM     18  C   UNL A   1      36.534  22.622  24.281  1.00  0.00     0.025 A 
ATOM     19  Cl  UNL A   1      36.407  20.030  24.994  1.00  0.00    -0.084 Cl
BRANCH  11  20
ATOM     20  C   UNL A   1      31.952  25.960  22.656  1.00  0.00     0.429 C 
ATOM     21  F   UNL A   1      30.614  25.760  22.759  1.00  0.00    -0.167 F 
ATOM     22  F   UNL A   1      32.128  27.277  22.392  1.00  0.00    -0.167 F 
ATOM     23  F   UNL A   1      32.351  25.277  21.556  1.00  0.00    -0.167 F 
ENDBRANCH  11  20
BRANCH  15  24
ATOM     24  C   UNL A   1      33.293  20.589  24.577  1.00  0.00    -0.016 A 
ATOM     25  C   UNL A   1      32.772  19.841  23.508  1.00  0.00     0.009 A 
ATOM     26  C   UNL A   1      33.207  20.053  25.874  1.00  0.00     0.009 A 
ATOM     27  C   UNL A   1      32.343  18.528  23.704  1.00  0.00     0.001 A 
ATOM     28  C   UNL A   1      32.790  18.735  26.067  1.00  0.00     0.001 A 
ATOM     29  C   UNL A   1      32.394  17.962  24.976  1.00  0.00     0.000 A 
ENDBRANCH  15  24
ENDBRANCH   7   9
ENDBRANCH   4   5
ENDBRANCH   3   4
ENDBRANCH   2   3
ENDBRANCH   1   2
BRANCH   1  30
ATOM     30  C   UNL A   1      31.487  31.793  26.542  1.00  0.00     0.021 C 
BRANCH  30  31
ATOM     31  C   UNL A   1      32.734  32.393  27.182  1.00  0.00     0.116 C 
BRANCH  31  32
ATOM     32  N   UNL A   1      32.555  33.777  27.587  1.00  0.00    -0.352 N 
ATOM     33  C   UNL A   1      33.202  34.513  28.549  1.00  0.00     0.251 C 
ATOM     34  H   UNL A   1      31.858  34.265  27.091  1.00  0.00     0.163 HD
ATOM     35  O   UNL A   1      32.777  35.641  28.817  1.00  0.00    -0.269 OA
BRANCH  33  36
ATOM     36  C   UNL A   1      34.372  33.974  29.284  1.00  0.00     0.039 A 
ATOM     37  C   UNL A   1      34.153  33.024  30.288  1.00  0.00     0.014 A 
ATOM     38  C   UNL A   1      35.673  34.415  29.030  1.00  0.00     0.014 A 
ATOM     39  C   UNL A   1      35.235  32.480  30.989  1.00  0.00     0.010 A 
ATOM     40  C   UNL A   1      36.757  33.815  29.674  1.00  0.00     0.010 A 
ATOM     41  C   UNL A   1      36.551  32.844  30.666  1.00  0.00    -0.014 A 
BRANCH  41  42
ATOM     42  C   UNL A   1      37.717  32.231  31.365  1.00  0.00     0.031 A 
ATOM     43  C   UNL A   1      38.480  31.102  30.721  1.00  0.00     0.074 A 
ATOM     44  C   UNL A   1      38.063  32.660  32.596  1.00  0.00     0.049 A 
ATOM     45  N   UNL A   1      39.479  30.401  31.195  1.00  0.00    -0.248 NA
ATOM     46  C   UNL A   1      38.043  30.687  29.379  1.00  0.00     0.031 C 
ATOM     47  C   UNL A   1      37.388  33.729  33.337  1.00  0.00     0.029 A 
ATOM     48  N   UNL A   1      39.062  32.253  33.445  1.00  0.00    -0.354 N 
ATOM     49  C   UNL A   1      39.781  29.456  30.218  1.00  0.00     0.074 A 
ATOM     50  C   UNL A   1      38.820  29.638  29.151  1.00  0.00     0.031 C 
ATOM     51  C   UNL A   1      38.013  33.913  34.511  1.00  0.00     0.029 A 
ATOM     52  C   UNL A   1      39.096  32.944  34.636  1.00  0.00     0.049 A 
ATOM     53  H   UNL A   1      39.696  31.533  33.223  1.00  0.00     0.167 HD
ATOM     54  C   UNL A   1      40.778  28.536  30.204  1.00  0.00     0.034 A 
ATOM     55  C   UNL A   1      39.900  32.805  35.711  1.00  0.00     0.034 A 
ATOM     56  C   UNL A   1      41.741  28.380  31.267  1.00  0.00     0.049 A 
ATOM     57  C   UNL A   1      40.977  31.748  35.684  1.00  0.00     0.074 A 
ATOM     58  C   UNL A   1      42.828  27.524  31.323  1.00  0.00     0.029 A 
ATOM     59  N   UNL A   1      41.733  29.086  32.463  1.00  0.00    -0.354 N 
ATOM     60  N   UNL A   1      41.279  30.900  34.727  1.00  0.00    -0.248 NA
ATOM     61  C   UNL A   1      41.828  31.637  36.876  1.00  0.00     0.031 C 
ATOM     62  C   UNL A   1      43.424  27.652  32.581  1.00  0.00     0.029 A 
ATOM     63  C   UNL A   1      42.769  28.655  33.278  1.00  0.00     0.049 A 
ATOM     64  H   UNL A   1      41.086  29.790  32.697  1.00  0.00     0.167 HD
ATOM     65  C   UNL A   1      42.382  30.183  35.191  1.00  0.00     0.074 A 
ATOM     66  C   UNL A   1      42.696  30.711  36.502  1.00  0.00     0.031 C 
ATOM     67  C   UNL A   1      43.073  29.185  34.587  1.00  0.00     0.034 A 
BRANCH  54  68
ATOM     68  C   UNL A   1      40.860  27.604  29.017  1.00  0.00     0.023 A 
ATOM     69  C   UNL A   1      41.795  27.795  27.985  1.00  0.00     0.031 A 
ATOM     70  C   UNL A   1      39.988  26.506  28.918  1.00  0.00     0.131 A 
ATOM     71  C   UNL A   1      41.794  26.941  26.871  1.00  0.00     0.055 A 
ATOM     72  C   UNL A   1      40.046  25.612  27.847  1.00  0.00     0.041 A 
ATOM     73  F   UNL A   1      39.057  26.284  29.860  1.00  0.00    -0.206 F 
ATOM     74  C   UNL A   1      40.945  25.834  26.808  1.00  0.00     0.022 A 
BRANCH  71  75
ATOM     75  S   UNL A   1      42.826  27.374  25.444  1.00  0.00     0.124 S 
ATOM     76  O   UNL A   1      42.071  28.481  24.860  1.00  0.00    -0.237 OA
ATOM     77  O   UNL A   1      44.097  27.724  26.067  1.00  0.00    -0.237 OA
ATOM     78  O   UNL A   1      42.837  26.150  24.646  1.00  0.00    -0.744 OA
ENDBRANCH  71  75
ENDBRANCH  54  68
BRANCH  55  79
ATOM     79  C   UNL A   1      39.722  33.671  36.915  1.00  0.00     0.023 A 
ATOM     80  C   UNL A   1      39.093  33.180  38.070  1.00  0.00     0.031 A 
ATOM     81  C   UNL A   1      40.112  35.023  36.904  1.00  0.00     0.131 A 
ATOM     82  C   UNL A   1      38.817  34.045  39.140  1.00  0.00     0.055 A 
ATOM     83  C   UNL A   1      39.893  35.864  37.998  1.00  0.00     0.041 A 
ATOM     84  F   UNL A   1      40.715  35.548  35.827  1.00  0.00    -0.206 F 
ATOM     85  C   UNL A   1      39.226  35.380  39.119  1.00  0.00     0.022 A 
BRANCH  82  86
ATOM     86  S   UNL A   1      37.802  33.430  40.514  1.00  0.00     0.124 S 
ATOM     87  O   UNL A   1      37.590  34.645  41.291  1.00  0.00    -0.237 OA
ATOM     88  O   UNL A   1      36.635  32.903  39.814  1.00  0.00    -0.237 OA
ATOM     89  O   UNL A   1      38.656  32.425  41.143  1.00  0.00    -0.744 OA
ENDBRANCH  82  86
ENDBRANCH  55  79
BRANCH  67  90
ATOM     90  C   UNL A   1      44.276  28.637  35.317  1.00  0.00     0.023 A 
ATOM     91  C   UNL A   1      44.160  27.628  36.290  1.00  0.00     0.031 A 
ATOM     92  C   UNL A   1      45.559  29.141  35.041  1.00  0.00     0.131 A 
ATOM     93  C   UNL A   1      45.296  27.200  36.992  1.00  0.00     0.055 A 
ATOM     94  C   UNL A   1      46.696  28.662  35.693  1.00  0.00     0.041 A 
ATOM     95  F   UNL A   1      45.731  30.107  34.124  1.00  0.00    -0.206 F 
ATOM     96  C   UNL A   1      46.566  27.696  36.686  1.00  0.00     0.022 A 
BRANCH  93  97
ATOM     97  S   UNL A   1      45.081  26.055  38.383  1.00  0.00     0.124 S 
ATOM     98  O   UNL A   1      46.283  26.307  39.172  1.00  0.00    -0.237 OA
ATOM     99  O   UNL A   1      43.826  26.511  38.971  1.00  0.00    -0.237 OA
ATOM    100  O   UNL A   1      45.023  24.742  37.742  1.00  0.00    -0.744 OA
ENDBRANCH  93  97
ENDBRANCH  67  90
ENDBRANCH  41  42
ENDBRANCH  33  36
ENDBRANCH  31  32
ENDBRANCH  30  31
ENDBRANCH   1  30
TORSDOF 18
ENDMDL
MODEL 3
REMARK VINA RESULT:     -11.9      1.928      7.797
REMARK SMILES O=C(NCCCCCCNC(=O)c1ccc(-c2c3nc(c(-c4cc(S(=O)(=O)[O-])ccc4F)c4ccc([nH]4)c(-c4cc(S(=O)(=O)[O-])ccc4F)c4nc(c(-c5cc(S(=O)(=O)[O-])ccc5F)c5ccc2[nH]5)C=C4)C=C3)cc1)C1=Cc2c(ccc(Cl)c2-c2ccccc2)O[C@H]1C(F)(F)F
REMARK SMILES IDX 7 1 6 2 5 3 4 4 3 5 1 6 2 7 76 9 77 10 92 11 78 12 91 13
REMARK SMILES IDX 79 14 84 15 80 16 82 17 81 18 83 19 93 20 94 21 95 22 96 23
REMARK SMILES IDX 85 24 86 25 90 26 87 27 89 28 88 29 8 30 9 31 10 32 11 33
REMARK SMILES IDX 12 35 13 36 14 37 75 38 15 39 74 40 16 41 17 42 18 43 68 44
REMARK SMILES IDX 19 45 73 46 67 47 69 48 20 49 72 50 66 51 65 52 21 54 53 55
REMARK SMILES IDX 33 56 52 57 34 58 37 59 51 60 70 61 35 62 36 63 50 65 71 66
REMARK SMILES IDX 38 67 22 68 23 69 31 70 24 71 30 72 32 73 29 74 25 75 26 76
REMARK SMILES IDX 27 77 28 78 54 79 55 80 63 81 56 82 62 83 64 84 61 85 57 86
REMARK SMILES IDX 58 87 59 88 60 89 39 90 40 91 48 92 41 93 47 94 49 95 46 96
REMARK SMILES IDX 42 97 43 98 44 99 45 100
REMARK H PARENT 3 8 10 34 69 53 37 64
REMARK Flexibility Score: inf
ROOT
ATOM      1  C   UNL A   1      34.612  22.844  23.664  1.00  0.00     0.002 C 
ENDROOT
BRANCH   1   2
ATOM      2  C   UNL A   1      33.393  22.643  22.755  1.00  0.00     0.002 C 
BRANCH   2   3
ATOM      3  C   UNL A   1      33.270  23.556  21.530  1.00  0.00     0.021 C 
BRANCH   3   4
ATOM      4  C   UNL A   1      32.477  24.847  21.717  1.00  0.00     0.116 C 
BRANCH   4   5
ATOM      5  N   UNL A   1      33.274  26.052  21.865  1.00  0.00    -0.352 N 
ATOM      6  O   UNL A   1      34.021  27.942  22.828  1.00  0.00    -0.270 OA
ATOM      7  C   UNL A   1      33.309  26.942  22.903  1.00  0.00     0.251 C 
ATOM      8  H   UNL A   1      33.874  26.256  21.112  1.00  0.00     0.163 HD
BRANCH   7   9
ATOM      9  C   UNL A   1      32.522  26.718  24.136  1.00  0.00     0.067 C 
ATOM     10  C   UNL A   1      31.303  27.264  24.204  1.00  0.00     0.026 C 
ATOM     11  C   UNL A   1      33.163  26.306  25.424  1.00  0.00     0.314 C 
ATOM     12  C   UNL A   1      31.379  28.473  25.072  1.00  0.00     0.027 A 
ATOM     13  O   UNL A   1      33.073  27.367  26.440  1.00  0.00    -0.475 OA
ATOM     14  C   UNL A   1      32.286  28.460  26.145  1.00  0.00     0.128 A 
ATOM     15  C   UNL A   1      30.682  29.646  24.677  1.00  0.00     0.011 A 
ATOM     16  C   UNL A   1      32.516  29.633  26.850  1.00  0.00     0.049 A 
ATOM     17  C   UNL A   1      30.959  30.822  25.381  1.00  0.00     0.049 A 
ATOM     18  C   UNL A   1      31.867  30.813  26.458  1.00  0.00     0.025 A 
ATOM     19  Cl  UNL A   1      30.275  32.335  24.912  1.00  0.00    -0.084 Cl
BRANCH  11  20
ATOM     20  C   UNL A   1      32.570  24.978  25.958  1.00  0.00     0.429 C 
ATOM     21  F   UNL A   1      33.501  24.155  26.502  1.00  0.00    -0.167 F 
ATOM     22  F   UNL A   1      31.646  25.210  26.922  1.00  0.00    -0.167 F 
ATOM     23  F   UNL A   1      31.957  24.264  24.984  1.00  0.00    -0.167 F 
ENDBRANCH  11  20
BRANCH  15  24
ATOM     24  C   UNL A   1      29.850  29.526  23.457  1.00  0.00    -0.016 A 
ATOM     25  C   UNL A   1      28.458  29.402  23.590  1.00  0.00     0.009 A 
ATOM     26  C   UNL A   1      30.368  29.989  22.234  1.00  0.00     0.009 A 
ATOM     27  C   UNL A   1      27.604  29.891  22.600  1.00  0.00     0.001 A 
ATOM     28  C   UNL A   1      29.513  30.490  21.251  1.00  0.00     0.001 A 
ATOM     29  C   UNL A   1      28.133  30.475  21.452  1.00  0.00     0.000 A 
ENDBRANCH  15  24
ENDBRANCH   7   9
ENDBRANCH   4   5
ENDBRANCH   3   4
ENDBRANCH   2   3
ENDBRANCH   1   2
BRANCH   1  30
ATOM     30  C   UNL A   1      34.931  21.736  24.670  1.00  0.00     0.021 C 
BRANCH  30  31
ATOM     31  C   UNL A   1      36.101  21.994  25.614  1.00  0.00     0.116 C 
BRANCH  31  32
ATOM     32  N   UNL A   1      37.101  20.940  25.579  1.00  0.00    -0.352 N 
ATOM     33  C   UNL A   1      38.462  20.999  25.747  1.00  0.00     0.251 C 
ATOM     34  H   UNL A   1      36.744  20.037  25.410  1.00  0.00     0.163 HD
ATOM     35  O   UNL A   1      39.131  19.984  25.529  1.00  0.00    -0.269 OA
BRANCH  33  36
ATOM     36  C   UNL A   1      39.141  22.254  26.152  1.00  0.00     0.039 A 
ATOM     37  C   UNL A   1      40.367  22.167  26.819  1.00  0.00     0.014 A 
ATOM     38  C   UNL A   1      38.573  23.510  25.922  1.00  0.00     0.014 A 
ATOM     39  C   UNL A   1      41.046  23.330  27.199  1.00  0.00     0.010 A 
ATOM     40  C   UNL A   1      39.286  24.670  26.231  1.00  0.00     0.010 A 
ATOM     41  C   UNL A   1      40.528  24.596  26.878  1.00  0.00    -0.014 A 
BRANCH  41  42
ATOM     42  C   UNL A   1      41.267  25.844  27.226  1.00  0.00     0.031 A 
ATOM     43  C   UNL A   1      40.606  26.907  28.065  1.00  0.00     0.074 A 
ATOM     44  C   UNL A   1      42.514  26.039  26.753  1.00  0.00     0.049 A 
ATOM     45  N   UNL A   1      41.060  28.082  28.421  1.00  0.00    -0.248 NA
ATOM     46  C   UNL A   1      39.244  26.623  28.544  1.00  0.00     0.031 C 
ATOM     47  C   UNL A   1      43.255  25.096  25.909  1.00  0.00     0.029 A 
ATOM     48  N   UNL A   1      43.383  27.092  26.907  1.00  0.00    -0.354 N 
ATOM     49  C   UNL A   1      40.038  28.683  29.151  1.00  0.00     0.074 A 
ATOM     50  C   UNL A   1      38.921  27.763  29.136  1.00  0.00     0.031 C 
ATOM     51  C   UNL A   1      44.472  25.599  25.651  1.00  0.00     0.029 A 
ATOM     52  C   UNL A   1      44.586  26.920  26.258  1.00  0.00     0.049 A 
ATOM     53  H   UNL A   1      43.165  27.897  27.431  1.00  0.00     0.167 HD
ATOM     54  C   UNL A   1      40.039  29.880  29.789  1.00  0.00     0.034 A 
ATOM     55  C   UNL A   1      45.654  27.738  26.155  1.00  0.00     0.034 A 
ATOM     56  C   UNL A   1      41.168  30.777  29.812  1.00  0.00     0.049 A 
ATOM     57  C   UNL A   1      45.613  29.081  26.844  1.00  0.00     0.074 A 
ATOM     58  C   UNL A   1      41.296  31.982  30.481  1.00  0.00     0.029 A 
ATOM     59  N   UNL A   1      42.362  30.576  29.130  1.00  0.00    -0.354 N 
ATOM     60  N   UNL A   1      44.656  29.607  27.574  1.00  0.00    -0.248 NA
ATOM     61  C   UNL A   1      46.800  29.935  26.705  1.00  0.00     0.031 C 
ATOM     62  C   UNL A   1      42.528  32.547  30.139  1.00  0.00     0.029 A 
ATOM     63  C   UNL A   1      43.212  31.653  29.330  1.00  0.00     0.049 A 
ATOM     64  H   UNL A   1      42.573  29.784  28.585  1.00  0.00     0.167 HD
ATOM     65  C   UNL A   1      45.146  30.836  28.012  1.00  0.00     0.074 A 
ATOM     66  C   UNL A   1      46.485  30.963  27.476  1.00  0.00     0.031 C 
ATOM     67  C   UNL A   1      44.545  31.773  28.789  1.00  0.00     0.034 A 
BRANCH  54  68
ATOM     68  C   UNL A   1      38.769  30.305  30.490  1.00  0.00     0.023 A 
ATOM     69  C   UNL A   1      37.772  31.050  29.837  1.00  0.00     0.031 A 
ATOM     70  C   UNL A   1      38.552  29.954  31.835  1.00  0.00     0.131 A 
ATOM     71  C   UNL A   1      36.637  31.475  30.545  1.00  0.00     0.055 A 
ATOM     72  C   UNL A   1      37.384  30.310  32.511  1.00  0.00     0.041 A 
ATOM     73  F   UNL A   1      39.477  29.263  32.519  1.00  0.00    -0.206 F 
ATOM     74  C   UNL A   1      36.422  31.086  31.870  1.00  0.00     0.022 A 
BRANCH  71  75
ATOM     75  S   UNL A   1      35.509  32.653  29.752  1.00  0.00     0.124 S 
ATOM     76  O   UNL A   1      34.376  32.642  30.676  1.00  0.00    -0.237 OA
ATOM     77  O   UNL A   1      36.299  33.878  29.724  1.00  0.00    -0.237 OA
ATOM     78  O   UNL A   1      35.244  32.049  28.448  1.00  0.00    -0.744 OA
ENDBRANCH  71  75
ENDBRANCH  54  68
BRANCH  55  79
ATOM     79  C   UNL A   1      46.853  27.333  25.362  1.00  0.00     0.023 A 
ATOM     80  C   UNL A   1      47.059  27.825  24.063  1.00  0.00     0.031 A 
ATOM     81  C   UNL A   1      47.773  26.393  25.861  1.00  0.00     0.131 A 
ATOM     82  C   UNL A   1      48.118  27.331  23.286  1.00  0.00     0.055 A 
ATOM     83  C   UNL A   1      48.864  25.954  25.107  1.00  0.00     0.041 A 
ATOM     84  F   UNL A   1      47.625  25.887  27.095  1.00  0.00    -0.206 F 
ATOM     85  C   UNL A   1      49.031  26.410  23.803  1.00  0.00     0.022 A 
BRANCH  82  86
ATOM     86  S   UNL A   1      48.213  27.818  21.540  1.00  0.00     0.124 S 
ATOM     87  O   UNL A   1      46.840  28.228  21.272  1.00  0.00    -0.237 OA
ATOM     88  O   UNL A   1      49.206  28.887  21.579  1.00  0.00    -0.237 OA
ATOM     89  O   UNL A   1      48.643  26.594  20.868  1.00  0.00    -0.744 OA
ENDBRANCH  82  86
ENDBRANCH  55  79
BRANCH  67  90
ATOM     90  C   UNL A   1      45.358  32.992  29.153  1.00  0.00     0.023 A 
ATOM     91  C   UNL A   1      45.327  34.165  28.379  1.00  0.00     0.031 A 
ATOM     92  C   UNL A   1      46.185  32.975  30.291  1.00  0.00     0.131 A 
ATOM     93  C   UNL A   1      46.152  35.249  28.718  1.00  0.00     0.055 A 
ATOM     94  C   UNL A   1      46.951  34.080  30.662  1.00  0.00     0.041 A 
ATOM     95  F   UNL A   1      46.258  31.881  31.066  1.00  0.00    -0.206 F 
ATOM     96  C   UNL A   1      46.949  35.221  29.864  1.00  0.00     0.022 A 
BRANCH  93  97
ATOM     97  S   UNL A   1      46.247  36.660  27.581  1.00  0.00     0.124 S 
ATOM     98  O   UNL A   1      47.431  37.362  28.068  1.00  0.00    -0.237 OA
ATOM     99  O   UNL A   1      46.382  36.007  26.283  1.00  0.00    -0.237 OA
ATOM    100  O   UNL A   1      44.980  37.358  27.795  1.00  0.00    -0.744 OA
ENDBRANCH  93  97
ENDBRANCH  67  90
ENDBRANCH  41  42
ENDBRANCH  33  36
ENDBRANCH  31  32
ENDBRANCH  30  31
ENDBRANCH   1  30
TORSDOF 18
ENDMDL
