MODEL 1
REMARK VINA RESULT:     -11.2      0.000      0.000
REMARK SMILES C[C@@H](C(=O)NCCCCCCNC(=O)c1ccc(-c2c3nc(c(-c4cc(S(=O)(=O)[O-])ccc4F)c4ccc([nH]4)c(-c4cc(S(=O)(=O)[O-])ccc4F)c4nc(c(-c5cc(S(=O)(=O)[O-])ccc5F)c5ccc2[nH]5)C=C4)C=C3)cc1)c1ccc(C[C@H]2CCC[C@@H]2O)cc1
REMARK SMILES IDX 8 1 7 2 6 3 5 4 3 5 4 6 2 8 1 9 78 10 79 11 90 12 80 13
REMARK SMILES IDX 89 14 81 15 82 16 83 17 84 18 87 19 85 20 86 21 88 22 9 24
REMARK SMILES IDX 10 25 11 26 12 27 13 28 14 30 15 31 16 32 77 33 17 34 76 35
REMARK SMILES IDX 18 36 19 37 20 38 70 39 21 40 75 41 69 42 71 43 22 44 74 45
REMARK SMILES IDX 68 46 67 47 23 49 55 50 35 51 54 52 36 53 39 54 53 55 72 56
REMARK SMILES IDX 37 57 38 58 52 60 73 61 40 62 24 63 25 64 33 65 26 66 32 67
REMARK SMILES IDX 34 68 31 69 27 70 28 71 29 72 30 73 56 74 57 75 65 76 58 77
REMARK SMILES IDX 64 78 66 79 63 80 59 81 60 82 61 83 62 84 41 85 42 86 50 87
REMARK SMILES IDX 43 88 49 89 51 90 48 91 44 92 45 93 46 94 47 95
REMARK H PARENT 5 7 88 23 12 29 71 48 39 59
REMARK Flexibility Score: inf
ROOT
ATOM      1  C   UNL A   1      34.728  24.391  24.640  1.00  0.00     0.002 C 
ENDROOT
BRANCH   1   2
ATOM      2  C   UNL A   1      34.378  25.740  25.285  1.00  0.00     0.021 C 
BRANCH   2   3
ATOM      3  C   UNL A   1      32.947  26.203  25.002  1.00  0.00     0.116 C 
BRANCH   3   4
ATOM      4  N   UNL A   1      32.776  26.447  23.584  1.00  0.00    -0.356 N 
ATOM      5  C   UNL A   1      31.949  25.836  22.690  1.00  0.00     0.227 C 
ATOM      6  O   UNL A   1      32.162  26.053  21.496  1.00  0.00    -0.274 OA
ATOM      7  H   UNL A   1      33.343  27.160  23.210  1.00  0.00     0.163 HD
BRANCH   5   8
ATOM      8  C   UNL A   1      30.786  24.974  23.200  1.00  0.00     0.105 C 
ATOM      9  C   UNL A   1      29.946  25.673  24.276  1.00  0.00     0.023 C 
BRANCH   8  10
ATOM     10  C   UNL A   1      31.273  23.619  23.694  1.00  0.00    -0.036 A 
ATOM     11  C   UNL A   1      32.011  22.785  22.842  1.00  0.00     0.005 A 
ATOM     12  C   UNL A   1      31.015  23.182  25.001  1.00  0.00     0.005 A 
ATOM     13  C   UNL A   1      32.406  21.515  23.263  1.00  0.00     0.004 A 
ATOM     14  C   UNL A   1      31.388  21.904  25.411  1.00  0.00     0.004 A 
ATOM     15  C   UNL A   1      32.045  21.040  24.528  1.00  0.00    -0.048 A 
BRANCH  15  16
ATOM     16  C   UNL A   1      32.303  19.608  24.928  1.00  0.00     0.041 C 
BRANCH  16  17
ATOM     17  C   UNL A   1      33.296  18.845  24.031  1.00  0.00     0.022 C 
ATOM     18  C   UNL A   1      34.647  18.468  24.667  1.00  0.00     0.007 C 
ATOM     19  C   UNL A   1      32.767  17.533  23.446  1.00  0.00     0.117 C 
ATOM     20  C   UNL A   1      34.996  17.075  24.132  1.00  0.00     0.003 C 
ATOM     21  C   UNL A   1      34.034  16.830  22.983  1.00  0.00     0.032 C 
BRANCH  19  22
ATOM     22  O   UNL A   1      31.882  17.777  22.367  1.00  0.00    -0.393 OA
ATOM     23  H   UNL A   1      30.997  17.452  22.595  1.00  0.00     0.210 HD
ENDBRANCH  19  22
ENDBRANCH  16  17
ENDBRANCH  15  16
ENDBRANCH   8  10
ENDBRANCH   5   8
ENDBRANCH   3   4
ENDBRANCH   2   3
ENDBRANCH   1   2
BRANCH   1  24
ATOM     24  C   UNL A   1      34.757  23.206  25.609  1.00  0.00     0.002 C 
BRANCH  24  25
ATOM     25  C   UNL A   1      36.021  22.346  25.531  1.00  0.00     0.021 C 
BRANCH  25  26
ATOM     26  C   UNL A   1      37.285  23.038  26.030  1.00  0.00     0.116 C 
BRANCH  26  27
ATOM     27  N   UNL A   1      38.401  22.114  26.128  1.00  0.00    -0.352 N 
ATOM     28  C   UNL A   1      39.721  22.380  26.384  1.00  0.00     0.251 C 
ATOM     29  H   UNL A   1      38.180  21.164  25.994  1.00  0.00     0.163 HD
ATOM     30  O   UNL A   1      40.564  21.498  26.205  1.00  0.00    -0.269 OA
BRANCH  28  31
ATOM     31  C   UNL A   1      40.131  23.721  26.849  1.00  0.00     0.039 A 
ATOM     32  C   UNL A   1      40.107  24.789  25.948  1.00  0.00     0.014 A 
ATOM     33  C   UNL A   1      40.560  23.925  28.165  1.00  0.00     0.014 A 
ATOM     34  C   UNL A   1      40.473  26.066  26.377  1.00  0.00     0.010 A 
ATOM     35  C   UNL A   1      40.850  25.212  28.611  1.00  0.00     0.010 A 
ATOM     36  C   UNL A   1      40.827  26.293  27.717  1.00  0.00    -0.014 A 
BRANCH  36  37
ATOM     37  C   UNL A   1      41.206  27.651  28.190  1.00  0.00     0.031 A 
ATOM     38  C   UNL A   1      42.651  28.074  28.183  1.00  0.00     0.074 A 
ATOM     39  C   UNL A   1      40.258  28.482  28.663  1.00  0.00     0.049 A 
ATOM     40  N   UNL A   1      43.189  29.196  28.587  1.00  0.00    -0.248 NA
ATOM     41  C   UNL A   1      43.621  27.089  27.682  1.00  0.00     0.031 C 
ATOM     42  C   UNL A   1      38.830  28.171  28.755  1.00  0.00     0.029 A 
ATOM     43  N   UNL A   1      40.351  29.760  29.157  1.00  0.00    -0.354 N 
ATOM     44  C   UNL A   1      44.560  29.046  28.407  1.00  0.00     0.074 A 
ATOM     45  C   UNL A   1      44.772  27.700  27.920  1.00  0.00     0.031 C 
ATOM     46  C   UNL A   1      38.178  29.240  29.238  1.00  0.00     0.029 A 
ATOM     47  C   UNL A   1      39.141  30.297  29.532  1.00  0.00     0.049 A 
ATOM     48  H   UNL A   1      41.202  30.246  29.236  1.00  0.00     0.167 HD
ATOM     49  C   UNL A   1      45.548  29.955  28.605  1.00  0.00     0.034 A 
ATOM     50  C   UNL A   1      38.843  31.504  30.053  1.00  0.00     0.034 A 
ATOM     51  C   UNL A   1      45.314  31.299  29.076  1.00  0.00     0.049 A 
ATOM     52  C   UNL A   1      39.961  32.490  30.286  1.00  0.00     0.074 A 
ATOM     53  C   UNL A   1      46.229  32.324  29.253  1.00  0.00     0.029 A 
ATOM     54  N   UNL A   1      44.077  31.806  29.455  1.00  0.00    -0.354 N 
ATOM     55  N   UNL A   1      41.246  32.356  30.054  1.00  0.00    -0.248 NA
ATOM     56  C   UNL A   1      39.580  33.797  30.836  1.00  0.00     0.031 C 
ATOM     57  C   UNL A   1      45.560  33.420  29.806  1.00  0.00     0.029 A 
ATOM     58  C   UNL A   1      44.210  33.114  29.898  1.00  0.00     0.049 A 
ATOM     59  H   UNL A   1      43.228  31.309  29.416  1.00  0.00     0.167 HD
ATOM     60  C   UNL A   1      41.822  33.576  30.397  1.00  0.00     0.074 A 
ATOM     61  C   UNL A   1      40.741  34.435  30.837  1.00  0.00     0.031 C 
ATOM     62  C   UNL A   1      43.125  33.956  30.346  1.00  0.00     0.034 A 
BRANCH  49  63
ATOM     63  C   UNL A   1      46.968  29.505  28.342  1.00  0.00     0.023 A 
ATOM     64  C   UNL A   1      47.764  28.934  29.351  1.00  0.00     0.031 A 
ATOM     65  C   UNL A   1      47.550  29.688  27.076  1.00  0.00     0.131 A 
ATOM     66  C   UNL A   1      49.116  28.654  29.104  1.00  0.00     0.055 A 
ATOM     67  C   UNL A   1      48.871  29.321  26.810  1.00  0.00     0.041 A 
ATOM     68  F   UNL A   1      46.850  30.246  26.075  1.00  0.00    -0.206 F 
ATOM     69  C   UNL A   1      49.670  28.818  27.834  1.00  0.00     0.022 A 
BRANCH  66  70
ATOM     70  S   UNL A   1      50.184  28.234  30.512  1.00  0.00     0.124 S 
ATOM     71  O   UNL A   1      51.175  27.367  29.880  1.00  0.00    -0.237 OA
ATOM     72  O   UNL A   1      50.661  29.542  30.945  1.00  0.00    -0.237 OA
ATOM     73  O   UNL A   1      49.278  27.559  31.439  1.00  0.00    -0.744 OA
ENDBRANCH  66  70
ENDBRANCH  49  63
BRANCH  50  74
ATOM     74  C   UNL A   1      37.434  31.859  30.384  1.00  0.00     0.023 A 
ATOM     75  C   UNL A   1      36.537  32.253  29.378  1.00  0.00     0.031 A 
ATOM     76  C   UNL A   1      36.974  31.853  31.712  1.00  0.00     0.131 A 
ATOM     77  C   UNL A   1      35.242  32.670  29.719  1.00  0.00     0.055 A 
ATOM     78  C   UNL A   1      35.667  32.217  32.041  1.00  0.00     0.041 A 
ATOM     79  F   UNL A   1      37.787  31.479  32.712  1.00  0.00    -0.206 F 
ATOM     80  C   UNL A   1      34.797  32.643  31.042  1.00  0.00     0.022 A 
BRANCH  77  81
ATOM     81  S   UNL A   1      34.172  33.333  28.413  1.00  0.00     0.124 S 
ATOM     82  O   UNL A   1      33.243  34.156  29.179  1.00  0.00    -0.237 OA
ATOM     83  O   UNL A   1      35.127  34.051  27.575  1.00  0.00    -0.237 OA
ATOM     84  O   UNL A   1      33.594  32.135  27.807  1.00  0.00    -0.744 OA
ENDBRANCH  77  81
ENDBRANCH  50  74
BRANCH  62  85
ATOM     85  C   UNL A   1      43.437  35.383  30.730  1.00  0.00     0.023 A 
ATOM     86  C   UNL A   1      43.568  35.779  32.071  1.00  0.00     0.031 A 
ATOM     87  C   UNL A   1      43.580  36.366  29.733  1.00  0.00     0.131 A 
ATOM     88  C   UNL A   1      43.770  37.133  32.385  1.00  0.00     0.055 A 
ATOM     89  C   UNL A   1      43.846  37.699  30.048  1.00  0.00     0.041 A 
ATOM     90  F   UNL A   1      43.462  36.046  28.435  1.00  0.00    -0.206 F 
ATOM     91  C   UNL A   1      43.927  38.092  31.381  1.00  0.00     0.022 A 
BRANCH  88  92
ATOM     92  S   UNL A   1      43.713  37.641  34.125  1.00  0.00     0.124 S 
ATOM     93  O   UNL A   1      43.214  36.436  34.778  1.00  0.00    -0.237 OA
ATOM     94  O   UNL A   1      45.106  37.982  34.396  1.00  0.00    -0.237 OA
ATOM     95  O   UNL A   1      42.788  38.773  34.122  1.00  0.00    -0.744 OA
ENDBRANCH  88  92
ENDBRANCH  62  85
ENDBRANCH  36  37
ENDBRANCH  28  31
ENDBRANCH  26  27
ENDBRANCH  25  26
ENDBRANCH  24  25
ENDBRANCH   1  24
TORSDOF 20
ENDMDL
MODEL 2
REMARK VINA RESULT:     -11.2      5.269     10.185
REMARK SMILES C[C@@H](C(=O)NCCCCCCNC(=O)c1ccc(-c2c3nc(c(-c4cc(S(=O)(=O)[O-])ccc4F)c4ccc([nH]4)c(-c4cc(S(=O)(=O)[O-])ccc4F)c4nc(c(-c5cc(S(=O)(=O)[O-])ccc5F)c5ccc2[nH]5)C=C4)C=C3)cc1)c1ccc(C[C@H]2CCC[C@@H]2O)cc1
REMARK SMILES IDX 8 1 7 2 6 3 5 4 3 5 4 6 2 8 1 9 78 10 79 11 90 12 80 13
REMARK SMILES IDX 89 14 81 15 82 16 83 17 84 18 87 19 85 20 86 21 88 22 9 24
REMARK SMILES IDX 10 25 11 26 12 27 13 28 14 30 15 31 16 32 77 33 17 34 76 35
REMARK SMILES IDX 18 36 19 37 20 38 70 39 21 40 75 41 69 42 71 43 22 44 74 45
REMARK SMILES IDX 68 46 67 47 23 49 55 50 35 51 54 52 36 53 39 54 53 55 72 56
REMARK SMILES IDX 37 57 38 58 52 60 73 61 40 62 24 63 25 64 33 65 26 66 32 67
REMARK SMILES IDX 34 68 31 69 27 70 28 71 29 72 30 73 56 74 57 75 65 76 58 77
REMARK SMILES IDX 64 78 66 79 63 80 59 81 60 82 61 83 62 84 41 85 42 86 50 87
REMARK SMILES IDX 43 88 49 89 51 90 48 91 44 92 45 93 46 94 47 95
REMARK H PARENT 5 7 88 23 12 29 71 48 39 59
REMARK Flexibility Score: inf
ROOT
ATOM      1  C   UNL A   1      31.728  30.091  25.841  1.00  0.00     0.002 C 
ENDROOT
BRANCH   1   2
ATOM      2  C   UNL A   1      32.166  29.046  26.879  1.00  0.00     0.021 C 
BRANCH   2   3
ATOM      3  C   UNL A   1      33.492  28.362  26.540  1.00  0.00     0.116 C 
BRANCH   3   4
ATOM      4  N   UNL A   1      33.960  28.803  25.242  1.00  0.00    -0.356 N 
ATOM      5  C   UNL A   1      33.928  28.159  24.042  1.00  0.00     0.227 C 
ATOM      6  O   UNL A   1      34.607  28.640  23.133  1.00  0.00    -0.274 OA
ATOM      7  H   UNL A   1      34.362  29.701  25.224  1.00  0.00     0.163 HD
BRANCH   5   8
ATOM      8  C   UNL A   1      33.027  26.929  23.865  1.00  0.00     0.105 C 
ATOM      9  C   UNL A   1      33.552  25.944  22.812  1.00  0.00     0.023 C 
BRANCH   8  10
ATOM     10  C   UNL A   1      31.591  27.331  23.557  1.00  0.00    -0.036 A 
ATOM     11  C   UNL A   1      31.329  28.308  22.587  1.00  0.00     0.005 A 
ATOM     12  C   UNL A   1      30.507  26.730  24.213  1.00  0.00     0.005 A 
ATOM     13  C   UNL A   1      30.022  28.730  22.343  1.00  0.00     0.004 A 
ATOM     14  C   UNL A   1      29.205  27.169  23.986  1.00  0.00     0.004 A 
ATOM     15  C   UNL A   1      28.955  28.209  23.083  1.00  0.00    -0.048 A 
BRANCH  15  16
ATOM     16  C   UNL A   1      27.565  28.784  22.963  1.00  0.00     0.041 C 
BRANCH  16  17
ATOM     17  C   UNL A   1      27.503  30.297  22.676  1.00  0.00     0.022 C 
ATOM     18  C   UNL A   1      28.008  31.229  23.792  1.00  0.00     0.007 C 
ATOM     19  C   UNL A   1      28.257  30.752  21.423  1.00  0.00     0.117 C 
ATOM     20  C   UNL A   1      28.742  32.376  23.089  1.00  0.00     0.003 C 
ATOM     21  C   UNL A   1      28.371  32.255  21.621  1.00  0.00     0.032 C 
BRANCH  19  22
ATOM     22  O   UNL A   1      27.531  30.434  20.249  1.00  0.00    -0.393 OA
ATOM     23  H   UNL A   1      26.696  30.927  20.242  1.00  0.00     0.210 HD
ENDBRANCH  19  22
ENDBRANCH  16  17
ENDBRANCH  15  16
ENDBRANCH   8  10
ENDBRANCH   5   8
ENDBRANCH   3   4
ENDBRANCH   2   3
ENDBRANCH   1   2
BRANCH   1  24
ATOM     24  C   UNL A   1      31.439  31.481  26.413  1.00  0.00     0.002 C 
BRANCH  24  25
ATOM     25  C   UNL A   1      32.398  31.932  27.517  1.00  0.00     0.021 C 
BRANCH  25  26
ATOM     26  C   UNL A   1      33.243  33.149  27.159  1.00  0.00     0.116 C 
BRANCH  26  27
ATOM     27  N   UNL A   1      32.948  34.282  28.019  1.00  0.00    -0.352 N 
ATOM     28  C   UNL A   1      33.474  34.594  29.245  1.00  0.00     0.251 C 
ATOM     29  H   UNL A   1      32.277  34.914  27.674  1.00  0.00     0.163 HD
ATOM     30  O   UNL A   1      32.940  35.470  29.930  1.00  0.00    -0.269 OA
BRANCH  28  31
ATOM     31  C   UNL A   1      34.659  33.870  29.751  1.00  0.00     0.039 A 
ATOM     32  C   UNL A   1      34.478  32.811  30.643  1.00  0.00     0.014 A 
ATOM     33  C   UNL A   1      35.950  34.247  29.364  1.00  0.00     0.014 A 
ATOM     34  C   UNL A   1      35.586  32.105  31.115  1.00  0.00     0.010 A 
ATOM     35  C   UNL A   1      37.047  33.494  29.775  1.00  0.00     0.010 A 
ATOM     36  C   UNL A   1      36.878  32.425  30.668  1.00  0.00    -0.014 A 
BRANCH  36  37
ATOM     37  C   UNL A   1      38.065  31.673  31.152  1.00  0.00     0.031 A 
ATOM     38  C   UNL A   1      38.642  31.970  32.511  1.00  0.00     0.074 A 
ATOM     39  C   UNL A   1      38.647  30.756  30.354  1.00  0.00     0.049 A 
ATOM     40  N   UNL A   1      39.691  31.453  33.098  1.00  0.00    -0.248 NA
ATOM     41  C   UNL A   1      37.965  33.010  33.299  1.00  0.00     0.031 C 
ATOM     42  C   UNL A   1      38.202  30.408  29.003  1.00  0.00     0.029 A 
ATOM     43  N   UNL A   1      39.738  29.949  30.562  1.00  0.00    -0.354 N 
ATOM     44  C   UNL A   1      39.810  32.117  34.315  1.00  0.00     0.074 A 
ATOM     45  C   UNL A   1      38.765  33.118  34.349  1.00  0.00     0.031 C 
ATOM     46  C   UNL A   1      38.988  29.434  28.519  1.00  0.00     0.029 A 
ATOM     47  C   UNL A   1      40.019  29.117  29.503  1.00  0.00     0.049 A 
ATOM     48  H   UNL A   1      40.268  29.964  31.390  1.00  0.00     0.167 HD
ATOM     49  C   UNL A   1      40.692  31.894  35.323  1.00  0.00     0.034 A 
ATOM     50  C   UNL A   1      40.998  28.204  29.344  1.00  0.00     0.034 A 
ATOM     51  C   UNL A   1      41.717  30.879  35.277  1.00  0.00     0.049 A 
ATOM     52  C   UNL A   1      41.981  27.990  30.468  1.00  0.00     0.074 A 
ATOM     53  C   UNL A   1      42.623  30.522  36.261  1.00  0.00     0.029 A 
ATOM     54  N   UNL A   1      41.979  30.061  34.184  1.00  0.00    -0.354 N 
ATOM     55  N   UNL A   1      42.044  28.583  31.637  1.00  0.00    -0.248 NA
ATOM     56  C   UNL A   1      43.015  26.970  30.252  1.00  0.00     0.031 C 
ATOM     57  C   UNL A   1      43.477  29.545  35.739  1.00  0.00     0.029 A 
ATOM     58  C   UNL A   1      43.054  29.228  34.457  1.00  0.00     0.049 A 
ATOM     59  H   UNL A   1      41.476  30.072  33.338  1.00  0.00     0.167 HD
ATOM     60  C   UNL A   1      43.104  27.980  32.311  1.00  0.00     0.074 A 
ATOM     61  C   UNL A   1      43.638  26.970  31.420  1.00  0.00     0.031 C 
ATOM     62  C   UNL A   1      43.586  28.233  33.555  1.00  0.00     0.034 A 
BRANCH  49  63
ATOM     63  C   UNL A   1      40.600  32.791  36.537  1.00  0.00     0.023 A 
ATOM     64  C   UNL A   1      39.762  32.484  37.625  1.00  0.00     0.031 A 
ATOM     65  C   UNL A   1      41.327  33.993  36.592  1.00  0.00     0.131 A 
ATOM     66  C   UNL A   1      39.603  33.405  38.670  1.00  0.00     0.055 A 
ATOM     67  C   UNL A   1      41.235  34.864  37.679  1.00  0.00     0.041 A 
ATOM     68  F   UNL A   1      42.129  34.354  35.577  1.00  0.00    -0.206 F 
ATOM     69  C   UNL A   1      40.352  34.581  38.719  1.00  0.00     0.022 A 
BRANCH  66  70
ATOM     70  S   UNL A   1      38.275  33.124  39.875  1.00  0.00     0.124 S 
ATOM     71  O   UNL A   1      38.272  34.388  40.609  1.00  0.00    -0.237 OA
ATOM     72  O   UNL A   1      37.120  32.878  39.020  1.00  0.00    -0.237 OA
ATOM     73  O   UNL A   1      38.745  31.971  40.640  1.00  0.00    -0.744 OA
ENDBRANCH  66  70
ENDBRANCH  49  63
BRANCH  50  74
ATOM     74  C   UNL A   1      41.099  27.415  28.083  1.00  0.00     0.023 A 
ATOM     75  C   UNL A   1      40.760  26.053  28.060  1.00  0.00     0.031 A 
ATOM     76  C   UNL A   1      41.577  27.996  26.896  1.00  0.00     0.131 A 
ATOM     77  C   UNL A   1      40.948  25.304  26.888  1.00  0.00     0.055 A 
ATOM     78  C   UNL A   1      41.711  27.260  25.718  1.00  0.00     0.041 A 
ATOM     79  F   UNL A   1      41.910  29.296  26.862  1.00  0.00    -0.206 F 
ATOM     80  C   UNL A   1      41.410  25.902  25.713  1.00  0.00     0.022 A 
BRANCH  77  81
ATOM     81  S   UNL A   1      40.662  23.515  26.946  1.00  0.00     0.124 S 
ATOM     82  O   UNL A   1      39.243  23.430  26.618  1.00  0.00    -0.237 OA
ATOM     83  O   UNL A   1      41.587  23.027  25.928  1.00  0.00    -0.237 OA
ATOM     84  O   UNL A   1      41.009  23.160  28.321  1.00  0.00    -0.744 OA
ENDBRANCH  77  81
ENDBRANCH  50  74
BRANCH  62  85
ATOM     85  C   UNL A   1      44.720  27.360  34.039  1.00  0.00     0.023 A 
ATOM     86  C   UNL A   1      44.493  26.099  34.616  1.00  0.00     0.031 A 
ATOM     87  C   UNL A   1      46.049  27.813  33.940  1.00  0.00     0.131 A 
ATOM     88  C   UNL A   1      45.571  25.362  35.132  1.00  0.00     0.055 A 
ATOM     89  C   UNL A   1      47.123  27.046  34.396  1.00  0.00     0.041 A 
ATOM     90  F   UNL A   1      46.325  29.010  33.401  1.00  0.00    -0.206 F 
ATOM     91  C   UNL A   1      46.885  25.820  35.010  1.00  0.00     0.022 A 
BRANCH  88  92
ATOM     92  S   UNL A   1      45.220  23.847  36.065  1.00  0.00     0.124 S 
ATOM     93  O   UNL A   1      43.944  23.427  35.496  1.00  0.00    -0.237 OA
ATOM     94  O   UNL A   1      46.369  23.007  35.741  1.00  0.00    -0.237 OA
ATOM     95  O   UNL A   1      45.159  24.304  37.452  1.00  0.00    -0.744 OA
ENDBRANCH  88  92
ENDBRANCH  62  85
ENDBRANCH  36  37
ENDBRANCH  28  31
ENDBRANCH  26  27
ENDBRANCH  25  26
ENDBRANCH  24  25
ENDBRANCH   1  24
TORSDOF 20
ENDMDL
MODEL 3
REMARK VINA RESULT:     -11.1      3.998      8.856
REMARK SMILES C[C@@H](C(=O)NCCCCCCNC(=O)c1ccc(-c2c3nc(c(-c4cc(S(=O)(=O)[O-])ccc4F)c4ccc([nH]4)c(-c4cc(S(=O)(=O)[O-])ccc4F)c4nc(c(-c5cc(S(=O)(=O)[O-])ccc5F)c5ccc2[nH]5)C=C4)C=C3)cc1)c1ccc(C[C@H]2CCC[C@@H]2O)cc1
REMARK SMILES IDX 8 1 7 2 6 3 5 4 3 5 4 6 2 8 1 9 78 10 79 11 90 12 80 13
REMARK SMILES IDX 89 14 81 15 82 16 83 17 84 18 87 19 85 20 86 21 88 22 9 24
REMARK SMILES IDX 10 25 11 26 12 27 13 28 14 30 15 31 16 32 77 33 17 34 76 35
REMARK SMILES IDX 18 36 19 37 20 38 70 39 21 40 75 41 69 42 71 43 22 44 74 45
REMARK SMILES IDX 68 46 67 47 23 49 55 50 35 51 54 52 36 53 39 54 53 55 72 56
REMARK SMILES IDX 37 57 38 58 52 60 73 61 40 62 24 63 25 64 33 65 26 66 32 67
REMARK SMILES IDX 34 68 31 69 27 70 28 71 29 72 30 73 56 74 57 75 65 76 58 77
REMARK SMILES IDX 64 78 66 79 63 80 59 81 60 82 61 83 62 84 41 85 42 86 50 87
REMARK SMILES IDX 43 88 49 89 51 90 48 91 44 92 45 93 46 94 47 95
REMARK H PARENT 5 7 88 23 12 29 71 48 39 59
REMARK Flexibility Score: inf
ROOT
ATOM      1  C   UNL A   1      30.856  29.220  24.359  1.00  0.00     0.002 C 
ENDROOT
BRANCH   1   2
ATOM      2  C   UNL A   1      31.301  28.955  22.914  1.00  0.00     0.021 C 
BRANCH   2   3
ATOM      3  C   UNL A   1      32.796  28.658  22.775  1.00  0.00     0.116 C 
BRANCH   3   4
ATOM      4  N   UNL A   1      32.997  27.516  21.907  1.00  0.00    -0.356 N 
ATOM      5  C   UNL A   1      33.287  26.223  22.224  1.00  0.00     0.227 C 
ATOM      6  O   UNL A   1      33.651  25.491  21.302  1.00  0.00    -0.274 OA
ATOM      7  H   UNL A   1      32.911  27.702  20.944  1.00  0.00     0.163 HD
BRANCH   5   8
ATOM      8  C   UNL A   1      33.099  25.736  23.667  1.00  0.00     0.105 C 
ATOM      9  C   UNL A   1      34.230  26.178  24.605  1.00  0.00     0.023 C 
BRANCH   8  10
ATOM     10  C   UNL A   1      32.913  24.225  23.725  1.00  0.00    -0.036 A 
ATOM     11  C   UNL A   1      31.669  23.660  23.414  1.00  0.00     0.005 A 
ATOM     12  C   UNL A   1      33.970  23.372  24.069  1.00  0.00     0.005 A 
ATOM     13  C   UNL A   1      31.469  22.284  23.526  1.00  0.00     0.004 A 
ATOM     14  C   UNL A   1      33.763  22.001  24.205  1.00  0.00     0.004 A 
ATOM     15  C   UNL A   1      32.496  21.450  23.982  1.00  0.00    -0.048 A 
BRANCH  15  16
ATOM     16  C   UNL A   1      32.245  19.994  24.285  1.00  0.00     0.041 C 
BRANCH  16  17
ATOM     17  C   UNL A   1      33.273  19.012  23.688  1.00  0.00     0.022 C 
ATOM     18  C   UNL A   1      34.475  18.651  24.579  1.00  0.00     0.007 C 
ATOM     19  C   UNL A   1      32.702  17.663  23.245  1.00  0.00     0.117 C 
ATOM     20  C   UNL A   1      34.754  17.164  24.335  1.00  0.00     0.003 C 
ATOM     21  C   UNL A   1      33.943  16.797  23.104  1.00  0.00     0.032 C 
BRANCH  19  22
ATOM     22  O   UNL A   1      32.007  17.783  22.017  1.00  0.00    -0.393 OA
ATOM     23  H   UNL A   1      31.379  18.521  22.071  1.00  0.00     0.210 HD
ENDBRANCH  19  22
ENDBRANCH  16  17
ENDBRANCH  15  16
ENDBRANCH   8  10
ENDBRANCH   5   8
ENDBRANCH   3   4
ENDBRANCH   2   3
ENDBRANCH   1   2
BRANCH   1  24
ATOM     24  C   UNL A   1      31.309  28.167  25.374  1.00  0.00     0.002 C 
BRANCH  24  25
ATOM     25  C   UNL A   1      32.036  28.728  26.599  1.00  0.00     0.021 C 
BRANCH  25  26
ATOM     26  C   UNL A   1      33.278  29.549  26.272  1.00  0.00     0.116 C 
BRANCH  26  27
ATOM     27  N   UNL A   1      33.074  30.963  26.539  1.00  0.00    -0.352 N 
ATOM     28  C   UNL A   1      33.737  31.779  27.418  1.00  0.00     0.251 C 
ATOM     29  H   UNL A   1      32.363  31.396  26.014  1.00  0.00     0.163 HD
ATOM     30  O   UNL A   1      33.278  32.894  27.674  1.00  0.00    -0.269 OA
BRANCH  28  31
ATOM     31  C   UNL A   1      34.979  31.314  28.070  1.00  0.00     0.039 A 
ATOM     32  C   UNL A   1      35.034  30.012  28.574  1.00  0.00     0.014 A 
ATOM     33  C   UNL A   1      36.081  32.165  28.205  1.00  0.00     0.014 A 
ATOM     34  C   UNL A   1      36.207  29.552  29.177  1.00  0.00     0.010 A 
ATOM     35  C   UNL A   1      37.274  31.680  28.736  1.00  0.00     0.010 A 
ATOM     36  C   UNL A   1      37.344  30.374  29.243  1.00  0.00    -0.014 A 
BRANCH  36  37
ATOM     37  C   UNL A   1      38.603  29.891  29.870  1.00  0.00     0.031 A 
ATOM     38  C   UNL A   1      39.010  30.397  31.228  1.00  0.00     0.074 A 
ATOM     39  C   UNL A   1      39.397  29.034  29.199  1.00  0.00     0.049 A 
ATOM     40  N   UNL A   1      40.084  30.129  31.926  1.00  0.00    -0.248 NA
ATOM     41  C   UNL A   1      38.100  31.358  31.871  1.00  0.00     0.031 C 
ATOM     42  C   UNL A   1      39.127  28.502  27.862  1.00  0.00     0.029 A 
ATOM     43  N   UNL A   1      40.592  28.458  29.550  1.00  0.00    -0.354 N 
ATOM     44  C   UNL A   1      39.988  30.900  33.080  1.00  0.00     0.074 A 
ATOM     45  C   UNL A   1      38.785  31.694  32.953  1.00  0.00     0.031 C 
ATOM     46  C   UNL A   1      40.108  27.651  27.522  1.00  0.00     0.029 A 
ATOM     47  C   UNL A   1      41.098  27.608  28.593  1.00  0.00     0.049 A 
ATOM     48  H   UNL A   1      41.046  28.636  30.405  1.00  0.00     0.167 HD
ATOM     49  C   UNL A   1      40.814  30.924  34.157  1.00  0.00     0.034 A 
ATOM     50  C   UNL A   1      42.231  26.878  28.583  1.00  0.00     0.034 A 
ATOM     51  C   UNL A   1      42.001  30.112  34.272  1.00  0.00     0.049 A 
ATOM     52  C   UNL A   1      43.145  26.938  29.781  1.00  0.00     0.074 A 
ATOM     53  C   UNL A   1      42.876  30.007  35.340  1.00  0.00     0.029 A 
ATOM     54  N   UNL A   1      42.488  29.270  33.279  1.00  0.00    -0.354 N 
ATOM     55  N   UNL A   1      43.011  27.626  30.892  1.00  0.00    -0.248 NA
ATOM     56  C   UNL A   1      44.355  26.109  29.728  1.00  0.00     0.031 C 
ATOM     57  C   UNL A   1      43.927  29.162  34.967  1.00  0.00     0.029 A 
ATOM     58  C   UNL A   1      43.668  28.671  33.696  1.00  0.00     0.049 A 
ATOM     59  H   UNL A   1      42.058  29.120  32.406  1.00  0.00     0.167 HD
ATOM     60  C   UNL A   1      44.104  27.282  31.684  1.00  0.00     0.074 A 
ATOM     61  C   UNL A   1      44.875  26.317  30.928  1.00  0.00     0.031 C 
ATOM     62  C   UNL A   1      44.435  27.718  32.927  1.00  0.00     0.034 A 
BRANCH  49  63
ATOM     63  C   UNL A   1      40.470  31.885  35.273  1.00  0.00     0.023 A 
ATOM     64  C   UNL A   1      39.483  31.589  36.230  1.00  0.00     0.031 A 
ATOM     65  C   UNL A   1      41.110  33.134  35.361  1.00  0.00     0.131 A 
ATOM     66  C   UNL A   1      39.099  32.560  37.167  1.00  0.00     0.055 A 
ATOM     67  C   UNL A   1      40.789  34.061  36.354  1.00  0.00     0.041 A 
ATOM     68  F   UNL A   1      42.048  33.486  34.466  1.00  0.00    -0.206 F 
ATOM     69  C   UNL A   1      39.763  33.784  37.254  1.00  0.00     0.022 A 
BRANCH  66  70
ATOM     70  S   UNL A   1      37.607  32.264  38.158  1.00  0.00     0.124 S 
ATOM     71  O   UNL A   1      37.410  30.828  37.970  1.00  0.00    -0.237 OA
ATOM     72  O   UNL A   1      38.026  32.684  39.490  1.00  0.00    -0.237 OA
ATOM     73  O   UNL A   1      36.600  33.111  37.522  1.00  0.00    -0.744 OA
ENDBRANCH  66  70
ENDBRANCH  49  63
BRANCH  50  74
ATOM     74  C   UNL A   1      42.568  26.021  27.411  1.00  0.00     0.023 A 
ATOM     75  C   UNL A   1      42.114  24.694  27.338  1.00  0.00     0.031 A 
ATOM     76  C   UNL A   1      43.383  26.497  26.370  1.00  0.00     0.131 A 
ATOM     77  C   UNL A   1      42.517  23.874  26.273  1.00  0.00     0.055 A 
ATOM     78  C   UNL A   1      43.736  25.694  25.284  1.00  0.00     0.041 A 
ATOM     79  F   UNL A   1      43.839  27.759  26.387  1.00  0.00    -0.206 F 
ATOM     80  C   UNL A   1      43.314  24.369  25.239  1.00  0.00     0.022 A 
BRANCH  77  81
ATOM     81  S   UNL A   1      42.052  22.122  26.303  1.00  0.00     0.124 S 
ATOM     82  O   UNL A   1      40.599  22.198  26.202  1.00  0.00    -0.237 OA
ATOM     83  O   UNL A   1      42.751  21.602  25.132  1.00  0.00    -0.237 OA
ATOM     84  O   UNL A   1      42.566  21.656  27.589  1.00  0.00    -0.744 OA
ENDBRANCH  77  81
ENDBRANCH  50  74
BRANCH  62  85
ATOM     85  C   UNL A   1      45.663  27.108  33.561  1.00  0.00     0.023 A 
ATOM     86  C   UNL A   1      46.930  27.706  33.451  1.00  0.00     0.031 A 
ATOM     87  C   UNL A   1      45.564  25.894  34.265  1.00  0.00     0.131 A 
ATOM     88  C   UNL A   1      48.057  27.057  33.980  1.00  0.00     0.055 A 
ATOM     89  C   UNL A   1      46.678  25.287  34.845  1.00  0.00     0.041 A 
ATOM     90  F   UNL A   1      44.379  25.276  34.398  1.00  0.00    -0.206 F 
ATOM     91  C   UNL A   1      47.936  25.861  34.691  1.00  0.00     0.022 A 
BRANCH  88  92
ATOM     92  S   UNL A   1      49.699  27.744  33.630  1.00  0.00     0.124 S 
ATOM     93  O   UNL A   1      50.359  26.628  32.959  1.00  0.00    -0.237 OA
ATOM     94  O   UNL A   1      49.385  28.895  32.790  1.00  0.00    -0.237 OA
ATOM     95  O   UNL A   1      50.225  28.069  34.955  1.00  0.00    -0.744 OA
ENDBRANCH  88  92
ENDBRANCH  62  85
ENDBRANCH  36  37
ENDBRANCH  28  31
ENDBRANCH  26  27
ENDBRANCH  25  26
ENDBRANCH  24  25
ENDBRANCH   1  24
TORSDOF 20
ENDMDL
