MODEL 1
REMARK VINA RESULT:     -12.1      0.000      0.000
REMARK SMILES Cc1ccc(/[NH+]=C2/S[C@@H](CC(=O)Nc3ccc(C(=O)NCCCCCCNC(=O)c4ccc(-c5c6nc(c(-c7cc(S(=O)(=O)[O-])ccc7F)c7ccc([nH]7)c(-c7cc(S(=O)(=O)[O-])ccc7F)c7nc(c(-c8cc(S(=O)(=O)[O-])ccc8F)c8ccc5[nH]8)C=C7)C=C6)cc4)cc3)C(=O)N2C)cc1
REMARK SMILES IDX 23 1 22 2 21 3 20 4 18 5 19 6 17 8 14 9 15 10 94 11 16 12
REMARK SMILES IDX 93 13 13 14 11 15 12 16 10 18 9 19 6 20 7 21 8 23 97 24
REMARK SMILES IDX 95 25 98 26 96 27 5 28 1 29 2 30 3 31 100 32 4 33 99 34
REMARK SMILES IDX 24 35 25 36 26 37 27 38 28 39 29 41 30 42 31 43 92 44 32 45
REMARK SMILES IDX 91 46 33 47 34 48 35 49 85 50 36 51 90 52 84 53 86 54 37 55
REMARK SMILES IDX 89 56 83 57 82 58 38 60 70 61 50 62 69 63 51 64 54 65 68 66
REMARK SMILES IDX 87 67 52 68 53 69 67 71 88 72 55 73 39 74 40 75 48 76 41 77
REMARK SMILES IDX 47 78 49 79 46 80 42 81 43 82 44 83 45 84 71 85 72 86 80 87
REMARK SMILES IDX 73 88 79 89 81 90 78 91 74 92 75 93 76 94 77 95 56 96 57 97
REMARK SMILES IDX 65 98 58 99 64 100 66 101 63 102 59 103 60 104 61 105 62 106
REMARK H PARENT 20 7 13 17 6 22 27 40 86 59 54 70
REMARK Flexibility Score: inf
ROOT
ATOM      1  C   UNL A   1      39.914  28.365  28.338  1.00  0.00     0.002 C 
ENDROOT
BRANCH   1   2
ATOM      2  C   UNL A   1      39.028  29.406  27.632  1.00  0.00     0.021 C 
BRANCH   2   3
ATOM      3  C   UNL A   1      37.510  29.276  27.812  1.00  0.00     0.116 C 
BRANCH   3   4
ATOM      4  N   UNL A   1      36.934  30.270  28.707  1.00  0.00    -0.352 N 
ATOM      5  C   UNL A   1      35.682  30.837  28.766  1.00  0.00     0.251 C 
ATOM      6  O   UNL A   1      35.453  31.703  29.610  1.00  0.00    -0.269 OA
ATOM      7  H   UNL A   1      37.556  30.597  29.397  1.00  0.00     0.163 HD
BRANCH   5   8
ATOM      8  C   UNL A   1      34.586  30.472  27.828  1.00  0.00     0.039 A 
ATOM      9  C   UNL A   1      32.465  29.906  26.028  1.00  0.00     0.041 A 
ATOM     10  C   UNL A   1      33.414  28.934  26.348  1.00  0.00     0.027 A 
ATOM     11  C   UNL A   1      32.540  31.138  26.695  1.00  0.00     0.027 A 
ATOM     12  C   UNL A   1      34.460  29.208  27.250  1.00  0.00     0.016 A 
ATOM     13  C   UNL A   1      33.588  31.420  27.582  1.00  0.00     0.016 A 
BRANCH   9  14
ATOM     14  N   UNL A   1      31.433  29.787  25.075  1.00  0.00    -0.326 N 
ATOM     15  C   UNL A   1      31.278  29.145  23.883  1.00  0.00     0.226 C 
ATOM     16  O   UNL A   1      30.201  29.290  23.291  1.00  0.00    -0.275 OA
ATOM     17  H   UNL A   1      30.628  30.291  25.334  1.00  0.00     0.169 HD
BRANCH  15  18
ATOM     18  C   UNL A   1      32.358  28.321  23.230  1.00  0.00     0.128 C 
BRANCH  18  19
ATOM     19  C   UNL A   1      31.941  26.880  22.959  1.00  0.00     0.183 C 
ATOM     20  N   UNL A   1      31.777  23.633  24.914  1.00  0.00    -0.235 N 
ATOM     21  C   UNL A   1      32.187  24.676  24.274  1.00  0.00     0.319 C 
ATOM     22  H   UNL A   1      31.011  23.732  25.527  1.00  0.00     0.313 HD
ATOM     23  S   UNL A   1      31.230  26.135  24.453  1.00  0.00    -0.022 SA
ATOM     24  N   UNL A   1      33.237  24.907  23.428  1.00  0.00    -0.193 N 
ATOM     25  C   UNL A   1      33.054  25.946  22.542  1.00  0.00     0.324 C 
ATOM     26  C   UNL A   1      34.445  24.116  23.275  1.00  0.00     0.301 C 
ATOM     27  O   UNL A   1      33.669  26.065  21.487  1.00  0.00    -0.245 OA
BRANCH  20  28
ATOM     28  C   UNL A   1      32.363  22.375  24.784  1.00  0.00     0.125 A 
ATOM     29  C   UNL A   1      33.271  18.205  24.750  1.00  0.00     0.044 C 
ATOM     30  C   UNL A   1      33.118  19.690  24.665  1.00  0.00    -0.051 A 
ATOM     31  C   UNL A   1      32.438  20.280  23.601  1.00  0.00     0.008 A 
ATOM     32  C   UNL A   1      33.579  20.494  25.703  1.00  0.00     0.008 A 
ATOM     33  C   UNL A   1      32.044  21.613  23.665  1.00  0.00     0.052 A 
ATOM     34  C   UNL A   1      33.250  21.848  25.727  1.00  0.00     0.052 A 
ENDBRANCH  20  28
ENDBRANCH  18  19
ENDBRANCH  15  18
ENDBRANCH   9  14
ENDBRANCH   5   8
ENDBRANCH   3   4
ENDBRANCH   2   3
ENDBRANCH   1   2
BRANCH   1  35
ATOM     35  C   UNL A   1      39.275  27.000  28.640  1.00  0.00     0.002 C 
BRANCH  35  36
ATOM     36  C   UNL A   1      39.358  25.928  27.540  1.00  0.00     0.021 C 
BRANCH  36  37
ATOM     37  C   UNL A   1      39.304  24.467  28.032  1.00  0.00     0.116 C 
BRANCH  37  38
ATOM     38  N   UNL A   1      40.217  23.616  27.250  1.00  0.00    -0.352 N 
ATOM     39  C   UNL A   1      41.541  23.285  27.440  1.00  0.00     0.251 C 
ATOM     40  H   UNL A   1      39.808  23.211  26.452  1.00  0.00     0.163 HD
ATOM     41  O   UNL A   1      42.122  22.478  26.717  1.00  0.00    -0.269 OA
BRANCH  39  42
ATOM     42  C   UNL A   1      42.263  23.882  28.571  1.00  0.00     0.039 A 
ATOM     43  C   UNL A   1      42.360  25.273  28.636  1.00  0.00     0.014 A 
ATOM     44  C   UNL A   1      42.985  23.070  29.437  1.00  0.00     0.014 A 
ATOM     45  C   UNL A   1      43.372  25.844  29.402  1.00  0.00     0.010 A 
ATOM     46  C   UNL A   1      44.012  23.640  30.179  1.00  0.00     0.010 A 
ATOM     47  C   UNL A   1      44.281  25.013  30.066  1.00  0.00    -0.014 A 
BRANCH  47  48
ATOM     48  C   UNL A   1      45.654  25.466  30.336  1.00  0.00     0.031 A 
ATOM     49  C   UNL A   1      46.776  25.323  29.385  1.00  0.00     0.074 A 
ATOM     50  C   UNL A   1      45.912  26.113  31.500  1.00  0.00     0.049 A 
ATOM     51  N   UNL A   1      48.017  25.273  29.747  1.00  0.00    -0.248 NA
ATOM     52  C   UNL A   1      46.600  25.197  27.950  1.00  0.00     0.031 C 
ATOM     53  C   UNL A   1      47.106  26.882  31.849  1.00  0.00     0.029 A 
ATOM     54  N   UNL A   1      45.192  26.069  32.684  1.00  0.00    -0.354 N 
ATOM     55  C   UNL A   1      48.800  25.426  28.628  1.00  0.00     0.074 A 
ATOM     56  C   UNL A   1      47.868  25.277  27.529  1.00  0.00     0.031 C 
ATOM     57  C   UNL A   1      47.165  27.019  33.181  1.00  0.00     0.029 A 
ATOM     58  C   UNL A   1      46.082  26.243  33.749  1.00  0.00     0.049 A 
ATOM     59  H   UNL A   1      44.220  25.939  32.762  1.00  0.00     0.167 HD
ATOM     60  C   UNL A   1      50.111  25.793  28.766  1.00  0.00     0.034 A 
ATOM     61  C   UNL A   1      46.217  25.286  34.710  1.00  0.00     0.034 A 
ATOM     62  C   UNL A   1      50.513  25.890  30.179  1.00  0.00     0.049 A 
ATOM     63  C   UNL A   1      47.598  24.674  34.771  1.00  0.00     0.074 A 
ATOM     64  C   UNL A   1      50.809  26.956  31.016  1.00  0.00     0.029 A 
ATOM     65  N   UNL A   1      50.464  24.765  30.997  1.00  0.00    -0.354 N 
ATOM     66  N   UNL A   1      48.541  24.879  33.893  1.00  0.00    -0.248 NA
ATOM     67  C   UNL A   1      48.009  23.748  35.817  1.00  0.00     0.031 C 
ATOM     68  C   UNL A   1      50.930  26.461  32.343  1.00  0.00     0.029 A 
ATOM     69  C   UNL A   1      50.718  25.094  32.317  1.00  0.00     0.049 A 
ATOM     70  H   UNL A   1      50.274  23.852  30.678  1.00  0.00     0.167 HD
ATOM     71  C   UNL A   1      49.636  24.101  34.190  1.00  0.00     0.074 A 
ATOM     72  C   UNL A   1      49.257  23.440  35.428  1.00  0.00     0.031 C 
ATOM     73  C   UNL A   1      50.730  24.067  33.363  1.00  0.00     0.034 A 
BRANCH  60  74
ATOM     74  C   UNL A   1      50.995  26.329  27.643  1.00  0.00     0.023 A 
ATOM     75  C   UNL A   1      51.997  25.499  27.083  1.00  0.00     0.031 A 
ATOM     76  C   UNL A   1      50.942  27.627  27.097  1.00  0.00     0.131 A 
ATOM     77  C   UNL A   1      52.931  25.985  26.143  1.00  0.00     0.055 A 
ATOM     78  C   UNL A   1      51.899  28.127  26.200  1.00  0.00     0.041 A 
ATOM     79  F   UNL A   1      49.926  28.459  27.345  1.00  0.00    -0.206 F 
ATOM     80  C   UNL A   1      52.910  27.309  25.728  1.00  0.00     0.022 A 
BRANCH  77  81
ATOM     81  S   UNL A   1      54.186  24.858  25.469  1.00  0.00     0.124 S 
ATOM     82  O   UNL A   1      53.394  23.682  25.128  1.00  0.00    -0.237 OA
ATOM     83  O   UNL A   1      54.723  25.625  24.351  1.00  0.00    -0.237 OA
ATOM     84  O   UNL A   1      55.110  24.673  26.588  1.00  0.00    -0.744 OA
ENDBRANCH  77  81
ENDBRANCH  60  74
BRANCH  61  85
ATOM     85  C   UNL A   1      44.937  24.596  35.030  1.00  0.00     0.023 A 
ATOM     86  C   UNL A   1      44.059  25.272  35.904  1.00  0.00     0.031 A 
ATOM     87  C   UNL A   1      44.413  23.568  34.237  1.00  0.00     0.131 A 
ATOM     88  C   UNL A   1      42.681  25.030  35.851  1.00  0.00     0.055 A 
ATOM     89  C   UNL A   1      43.041  23.281  34.237  1.00  0.00     0.041 A 
ATOM     90  F   UNL A   1      45.189  22.918  33.357  1.00  0.00    -0.206 F 
ATOM     91  C   UNL A   1      42.163  24.044  35.011  1.00  0.00     0.022 A 
BRANCH  88  92
ATOM     92  S   UNL A   1      41.561  26.204  36.674  1.00  0.00     0.124 S 
ATOM     93  O   UNL A   1      42.421  26.780  37.700  1.00  0.00    -0.237 OA
ATOM     94  O   UNL A   1      41.175  27.101  35.586  1.00  0.00    -0.237 OA
ATOM     95  O   UNL A   1      40.478  25.353  37.159  1.00  0.00    -0.744 OA
ENDBRANCH  88  92
ENDBRANCH  61  85
BRANCH  73  96
ATOM     96  C   UNL A   1      51.940  23.140  33.472  1.00  0.00     0.023 A 
ATOM     97  C   UNL A   1      53.238  23.567  33.791  1.00  0.00     0.031 A 
ATOM     98  C   UNL A   1      51.815  21.741  33.267  1.00  0.00     0.131 A 
ATOM     99  C   UNL A   1      54.326  22.672  33.855  1.00  0.00     0.055 A 
ATOM    100  C   UNL A   1      52.888  20.845  33.365  1.00  0.00     0.041 A 
ATOM    101  F   UNL A   1      50.639  21.167  32.978  1.00  0.00    -0.206 F 
ATOM    102  C   UNL A   1      54.161  21.309  33.651  1.00  0.00     0.022 A 
BRANCH  99 103
ATOM    103  S   UNL A   1      55.976  23.353  34.181  1.00  0.00     0.124 S 
ATOM    104  O   UNL A   1      55.669  24.730  34.557  1.00  0.00    -0.237 OA
ATOM    105  O   UNL A   1      56.456  22.497  35.260  1.00  0.00    -0.237 OA
ATOM    106  O   UNL A   1      56.675  23.199  32.907  1.00  0.00    -0.744 OA
ENDBRANCH  99 103
ENDBRANCH  73  96
ENDBRANCH  47  48
ENDBRANCH  39  42
ENDBRANCH  37  38
ENDBRANCH  36  37
ENDBRANCH  35  36
ENDBRANCH   1  35
TORSDOF 20
ENDMDL
MODEL 2
REMARK VINA RESULT:     -12.0      8.704     14.063
REMARK SMILES Cc1ccc(/[NH+]=C2/S[C@@H](CC(=O)Nc3ccc(C(=O)NCCCCCCNC(=O)c4ccc(-c5c6nc(c(-c7cc(S(=O)(=O)[O-])ccc7F)c7ccc([nH]7)c(-c7cc(S(=O)(=O)[O-])ccc7F)c7nc(c(-c8cc(S(=O)(=O)[O-])ccc8F)c8ccc5[nH]8)C=C7)C=C6)cc4)cc3)C(=O)N2C)cc1
REMARK SMILES IDX 23 1 22 2 21 3 20 4 18 5 19 6 17 8 14 9 15 10 94 11 16 12
REMARK SMILES IDX 93 13 13 14 11 15 12 16 10 18 9 19 6 20 7 21 8 23 97 24
REMARK SMILES IDX 95 25 98 26 96 27 5 28 1 29 2 30 3 31 100 32 4 33 99 34
REMARK SMILES IDX 24 35 25 36 26 37 27 38 28 39 29 41 30 42 31 43 92 44 32 45
REMARK SMILES IDX 91 46 33 47 34 48 35 49 85 50 36 51 90 52 84 53 86 54 37 55
REMARK SMILES IDX 89 56 83 57 82 58 38 60 70 61 50 62 69 63 51 64 54 65 68 66
REMARK SMILES IDX 87 67 52 68 53 69 67 71 88 72 55 73 39 74 40 75 48 76 41 77
REMARK SMILES IDX 47 78 49 79 46 80 42 81 43 82 44 83 45 84 71 85 72 86 80 87
REMARK SMILES IDX 73 88 79 89 81 90 78 91 74 92 75 93 76 94 77 95 56 96 57 97
REMARK SMILES IDX 65 98 58 99 64 100 66 101 63 102 59 103 60 104 61 105 62 106
REMARK H PARENT 20 7 13 17 6 22 27 40 86 59 54 70
REMARK Flexibility Score: inf
ROOT
ATOM      1  C   UNL A   1      39.329  28.750  28.468  1.00  0.00     0.002 C 
ENDROOT
BRANCH   1   2
ATOM      2  C   UNL A   1      40.805  28.892  28.062  1.00  0.00     0.021 C 
BRANCH   2   3
ATOM      3  C   UNL A   1      41.128  28.875  26.562  1.00  0.00     0.116 C 
BRANCH   3   4
ATOM      4  N   UNL A   1      42.539  29.074  26.259  1.00  0.00    -0.352 N 
ATOM      5  C   UNL A   1      43.580  28.187  26.108  1.00  0.00     0.251 C 
ATOM      6  O   UNL A   1      44.711  28.620  25.889  1.00  0.00    -0.269 OA
ATOM      7  H   UNL A   1      42.795  30.018  26.141  1.00  0.00     0.163 HD
BRANCH   5   8
ATOM      8  C   UNL A   1      43.408  26.714  26.227  1.00  0.00     0.039 A 
ATOM      9  C   UNL A   1      43.095  23.916  26.590  1.00  0.00     0.041 A 
ATOM     10  C   UNL A   1      42.765  24.524  25.378  1.00  0.00     0.027 A 
ATOM     11  C   UNL A   1      43.672  24.716  27.588  1.00  0.00     0.027 A 
ATOM     12  C   UNL A   1      42.931  25.910  25.192  1.00  0.00     0.016 A 
ATOM     13  C   UNL A   1      43.824  26.098  27.412  1.00  0.00     0.016 A 
BRANCH   9  14
ATOM     14  N   UNL A   1      42.889  22.564  26.932  1.00  0.00    -0.326 N 
ATOM     15  C   UNL A   1      41.835  21.821  27.372  1.00  0.00     0.226 C 
ATOM     16  O   UNL A   1      42.036  20.621  27.598  1.00  0.00    -0.275 OA
ATOM     17  H   UNL A   1      43.706  22.025  26.827  1.00  0.00     0.169 HD
BRANCH  15  18
ATOM     18  C   UNL A   1      40.467  22.391  27.648  1.00  0.00     0.128 C 
BRANCH  18  19
ATOM     19  C   UNL A   1      39.698  22.759  26.385  1.00  0.00     0.183 C 
ATOM     20  N   UNL A   1      36.336  24.303  25.542  1.00  0.00    -0.235 N 
ATOM     21  C   UNL A   1      37.271  23.501  25.927  1.00  0.00     0.319 C 
ATOM     22  H   UNL A   1      36.423  25.260  25.760  1.00  0.00     0.313 HD
ATOM     23  S   UNL A   1      38.681  24.235  26.669  1.00  0.00    -0.022 SA
ATOM     24  N   UNL A   1      37.430  22.144  25.862  1.00  0.00    -0.193 N 
ATOM     25  C   UNL A   1      38.737  21.709  25.875  1.00  0.00     0.324 C 
ATOM     26  C   UNL A   1      36.403  21.137  25.658  1.00  0.00     0.301 C 
ATOM     27  O   UNL A   1      39.103  20.618  25.448  1.00  0.00    -0.245 OA
BRANCH  20  28
ATOM     28  C   UNL A   1      35.209  23.884  24.836  1.00  0.00     0.125 A 
ATOM     29  C   UNL A   1      32.063  21.686  22.969  1.00  0.00     0.044 C 
ATOM     30  C   UNL A   1      33.066  22.615  23.576  1.00  0.00    -0.051 A 
ATOM     31  C   UNL A   1      32.978  22.987  24.917  1.00  0.00     0.008 A 
ATOM     32  C   UNL A   1      34.155  23.047  22.825  1.00  0.00     0.008 A 
ATOM     33  C   UNL A   1      34.051  23.603  25.552  1.00  0.00     0.052 A 
ATOM     34  C   UNL A   1      35.196  23.733  23.446  1.00  0.00     0.052 A 
ENDBRANCH  20  28
ENDBRANCH  18  19
ENDBRANCH  15  18
ENDBRANCH   9  14
ENDBRANCH   5   8
ENDBRANCH   3   4
ENDBRANCH   2   3
ENDBRANCH   1   2
BRANCH   1  35
ATOM     35  C   UNL A   1      38.282  29.305  27.488  1.00  0.00     0.002 C 
BRANCH  35  36
ATOM     36  C   UNL A   1      36.813  29.279  27.941  1.00  0.00     0.021 C 
BRANCH  36  37
ATOM     37  C   UNL A   1      36.503  30.064  29.232  1.00  0.00     0.116 C 
BRANCH  37  38
ATOM     38  N   UNL A   1      35.784  31.313  28.926  1.00  0.00    -0.352 N 
ATOM     39  C   UNL A   1      36.224  32.612  28.806  1.00  0.00     0.251 C 
ATOM     40  H   UNL A   1      34.817  31.197  28.782  1.00  0.00     0.163 HD
ATOM     41  O   UNL A   1      35.479  33.525  28.456  1.00  0.00    -0.269 OA
BRANCH  39  42
ATOM     42  C   UNL A   1      37.642  32.903  29.059  1.00  0.00     0.039 A 
ATOM     43  C   UNL A   1      38.436  31.900  29.619  1.00  0.00     0.014 A 
ATOM     44  C   UNL A   1      38.118  34.202  28.921  1.00  0.00     0.014 A 
ATOM     45  C   UNL A   1      39.614  32.255  30.269  1.00  0.00     0.010 A 
ATOM     46  C   UNL A   1      39.279  34.558  29.594  1.00  0.00     0.010 A 
ATOM     47  C   UNL A   1      39.961  33.606  30.369  1.00  0.00    -0.014 A 
BRANCH  47  48
ATOM     48  C   UNL A   1      40.764  34.093  31.500  1.00  0.00     0.031 A 
ATOM     49  C   UNL A   1      40.200  34.496  32.805  1.00  0.00     0.074 A 
ATOM     50  C   UNL A   1      42.115  34.123  31.378  1.00  0.00     0.049 A 
ATOM     51  N   UNL A   1      40.779  35.330  33.607  1.00  0.00    -0.248 NA
ATOM     52  C   UNL A   1      38.925  34.019  33.309  1.00  0.00     0.031 C 
ATOM     53  C   UNL A   1      43.105  34.295  32.442  1.00  0.00     0.029 A 
ATOM     54  N   UNL A   1      42.871  34.160  30.218  1.00  0.00    -0.354 N 
ATOM     55  C   UNL A   1      40.148  35.264  34.827  1.00  0.00     0.074 A 
ATOM     56  C   UNL A   1      38.944  34.506  34.556  1.00  0.00     0.031 C 
ATOM     57  C   UNL A   1      44.272  34.665  31.898  1.00  0.00     0.029 A 
ATOM     58  C   UNL A   1      44.050  34.865  30.480  1.00  0.00     0.049 A 
ATOM     59  H   UNL A   1      42.622  33.758  29.354  1.00  0.00     0.167 HD
ATOM     60  C   UNL A   1      40.784  35.739  35.941  1.00  0.00     0.034 A 
ATOM     61  C   UNL A   1      44.359  35.996  29.785  1.00  0.00     0.034 A 
ATOM     62  C   UNL A   1      42.083  36.354  35.619  1.00  0.00     0.049 A 
ATOM     63  C   UNL A   1      44.432  37.238  30.643  1.00  0.00     0.074 A 
ATOM     64  C   UNL A   1      43.399  35.973  35.834  1.00  0.00     0.029 A 
ATOM     65  N   UNL A   1      42.140  37.468  34.785  1.00  0.00    -0.354 N 
ATOM     66  N   UNL A   1      44.066  37.300  31.894  1.00  0.00    -0.248 NA
ATOM     67  C   UNL A   1      44.895  38.523  30.139  1.00  0.00     0.031 C 
ATOM     68  C   UNL A   1      44.244  36.862  35.117  1.00  0.00     0.029 A 
ATOM     69  C   UNL A   1      43.448  37.792  34.472  1.00  0.00     0.049 A 
ATOM     70  H   UNL A   1      41.351  37.961  34.460  1.00  0.00     0.167 HD
ATOM     71  C   UNL A   1      44.171  38.593  32.350  1.00  0.00     0.074 A 
ATOM     72  C   UNL A   1      44.730  39.309  31.216  1.00  0.00     0.031 C 
ATOM     73  C   UNL A   1      43.756  38.938  33.612  1.00  0.00     0.034 A 
BRANCH  60  74
ATOM     74  C   UNL A   1      40.378  35.432  37.381  1.00  0.00     0.023 A 
ATOM     75  C   UNL A   1      40.199  36.495  38.300  1.00  0.00     0.031 A 
ATOM     76  C   UNL A   1      40.184  34.149  37.929  1.00  0.00     0.131 A 
ATOM     77  C   UNL A   1      39.961  36.265  39.672  1.00  0.00     0.055 A 
ATOM     78  C   UNL A   1      39.996  33.915  39.300  1.00  0.00     0.041 A 
ATOM     79  F   UNL A   1      40.093  33.058  37.163  1.00  0.00    -0.206 F 
ATOM     80  C   UNL A   1      39.898  34.976  40.183  1.00  0.00     0.022 A 
BRANCH  77  81
ATOM     81  S   UNL A   1      39.738  37.679  40.789  1.00  0.00     0.124 S 
ATOM     82  O   UNL A   1      38.989  38.615  39.957  1.00  0.00    -0.237 OA
ATOM     83  O   UNL A   1      39.017  37.083  41.906  1.00  0.00    -0.237 OA
ATOM     84  O   UNL A   1      41.109  38.091  41.091  1.00  0.00    -0.744 OA
ENDBRANCH  77  81
ENDBRANCH  60  74
BRANCH  61  85
ATOM     85  C   UNL A   1      43.933  35.938  28.359  1.00  0.00     0.023 A 
ATOM     86  C   UNL A   1      44.634  35.039  27.528  1.00  0.00     0.031 A 
ATOM     87  C   UNL A   1      42.684  36.399  27.924  1.00  0.00     0.131 A 
ATOM     88  C   UNL A   1      44.021  34.501  26.391  1.00  0.00     0.055 A 
ATOM     89  C   UNL A   1      42.101  35.909  26.748  1.00  0.00     0.041 A 
ATOM     90  F   UNL A   1      41.952  37.222  28.690  1.00  0.00    -0.206 F 
ATOM     91  C   UNL A   1      42.749  34.922  26.000  1.00  0.00     0.022 A 
BRANCH  88  92
ATOM     92  S   UNL A   1      44.781  33.050  25.599  1.00  0.00     0.124 S 
ATOM     93  O   UNL A   1      44.121  31.946  26.285  1.00  0.00    -0.237 OA
ATOM     94  O   UNL A   1      44.430  33.228  24.191  1.00  0.00    -0.237 OA
ATOM     95  O   UNL A   1      46.203  33.215  25.886  1.00  0.00    -0.744 OA
ENDBRANCH  88  92
ENDBRANCH  61  85
BRANCH  73  96
ATOM     96  C   UNL A   1      43.660  40.346  34.198  1.00  0.00     0.023 A 
ATOM     97  C   UNL A   1      44.362  40.782  35.332  1.00  0.00     0.031 A 
ATOM     98  C   UNL A   1      42.838  41.336  33.599  1.00  0.00     0.131 A 
ATOM     99  C   UNL A   1      44.218  42.087  35.846  1.00  0.00     0.055 A 
ATOM    100  C   UNL A   1      42.720  42.645  34.088  1.00  0.00     0.041 A 
ATOM    101  F   UNL A   1      42.118  41.091  32.496  1.00  0.00    -0.206 F 
ATOM    102  C   UNL A   1      43.406  43.028  35.228  1.00  0.00     0.022 A 
BRANCH  99 103
ATOM    103  S   UNL A   1      45.103  42.507  37.374  1.00  0.00     0.124 S 
ATOM    104  O   UNL A   1      45.824  43.716  36.986  1.00  0.00    -0.237 OA
ATOM    105  O   UNL A   1      44.009  42.702  38.320  1.00  0.00    -0.237 OA
ATOM    106  O   UNL A   1      45.941  41.337  37.624  1.00  0.00    -0.744 OA
ENDBRANCH  99 103
ENDBRANCH  73  96
ENDBRANCH  47  48
ENDBRANCH  39  42
ENDBRANCH  37  38
ENDBRANCH  36  37
ENDBRANCH  35  36
ENDBRANCH   1  35
TORSDOF 20
ENDMDL
MODEL 3
REMARK VINA RESULT:     -11.9      2.469      3.691
REMARK SMILES Cc1ccc(/[NH+]=C2/S[C@@H](CC(=O)Nc3ccc(C(=O)NCCCCCCNC(=O)c4ccc(-c5c6nc(c(-c7cc(S(=O)(=O)[O-])ccc7F)c7ccc([nH]7)c(-c7cc(S(=O)(=O)[O-])ccc7F)c7nc(c(-c8cc(S(=O)(=O)[O-])ccc8F)c8ccc5[nH]8)C=C7)C=C6)cc4)cc3)C(=O)N2C)cc1
REMARK SMILES IDX 23 1 22 2 21 3 20 4 18 5 19 6 17 8 14 9 15 10 94 11 16 12
REMARK SMILES IDX 93 13 13 14 11 15 12 16 10 18 9 19 6 20 7 21 8 23 97 24
REMARK SMILES IDX 95 25 98 26 96 27 5 28 1 29 2 30 3 31 100 32 4 33 99 34
REMARK SMILES IDX 24 35 25 36 26 37 27 38 28 39 29 41 30 42 31 43 92 44 32 45
REMARK SMILES IDX 91 46 33 47 34 48 35 49 85 50 36 51 90 52 84 53 86 54 37 55
REMARK SMILES IDX 89 56 83 57 82 58 38 60 70 61 50 62 69 63 51 64 54 65 68 66
REMARK SMILES IDX 87 67 52 68 53 69 67 71 88 72 55 73 39 74 40 75 48 76 41 77
REMARK SMILES IDX 47 78 49 79 46 80 42 81 43 82 44 83 45 84 71 85 72 86 80 87
REMARK SMILES IDX 73 88 79 89 81 90 78 91 74 92 75 93 76 94 77 95 56 96 57 97
REMARK SMILES IDX 65 98 58 99 64 100 66 101 63 102 59 103 60 104 61 105 62 106
REMARK H PARENT 20 7 13 17 6 22 27 40 86 59 54 70
REMARK Flexibility Score: inf
ROOT
ATOM      1  C   UNL A   1      41.881  28.007  25.824  1.00  0.00     0.002 C 
ENDROOT
BRANCH   1   2
ATOM      2  C   UNL A   1      41.743  28.728  27.176  1.00  0.00     0.021 C 
BRANCH   2   3
ATOM      3  C   UNL A   1      40.440  28.514  27.958  1.00  0.00     0.116 C 
BRANCH   3   4
ATOM      4  N   UNL A   1      40.618  28.475  29.403  1.00  0.00    -0.352 N 
ATOM      5  C   UNL A   1      39.994  29.153  30.424  1.00  0.00     0.251 C 
ATOM      6  O   UNL A   1      40.363  28.967  31.583  1.00  0.00    -0.269 OA
ATOM      7  H   UNL A   1      41.315  27.847  29.705  1.00  0.00     0.163 HD
BRANCH   5   8
ATOM      8  C   UNL A   1      38.901  30.135  30.190  1.00  0.00     0.039 A 
ATOM      9  C   UNL A   1      36.747  31.951  29.845  1.00  0.00     0.041 A 
ATOM     10  C   UNL A   1      37.979  32.175  29.231  1.00  0.00     0.027 A 
ATOM     11  C   UNL A   1      36.579  30.756  30.559  1.00  0.00     0.027 A 
ATOM     12  C   UNL A   1      39.046  31.269  29.390  1.00  0.00     0.016 A 
ATOM     13  C   UNL A   1      37.642  29.859  30.734  1.00  0.00     0.016 A 
BRANCH   9  14
ATOM     14  N   UNL A   1      35.638  32.823  29.840  1.00  0.00    -0.326 N 
ATOM     15  C   UNL A   1      34.587  33.056  29.005  1.00  0.00     0.226 C 
ATOM     16  O   UNL A   1      33.791  33.949  29.324  1.00  0.00    -0.275 OA
ATOM     17  H   UNL A   1      35.620  33.405  30.633  1.00  0.00     0.169 HD
BRANCH  15  18
ATOM     18  C   UNL A   1      34.377  32.330  27.701  1.00  0.00     0.128 C 
BRANCH  18  19
ATOM     19  C   UNL A   1      33.742  30.955  27.869  1.00  0.00     0.183 C 
ATOM     20  N   UNL A   1      34.177  27.502  26.359  1.00  0.00    -0.235 N 
ATOM     21  C   UNL A   1      33.893  28.747  26.546  1.00  0.00     0.319 C 
ATOM     22  H   UNL A   1      35.017  27.152  26.737  1.00  0.00     0.313 HD
ATOM     23  S   UNL A   1      34.972  29.650  27.593  1.00  0.00    -0.022 SA
ATOM     24  N   UNL A   1      32.879  29.555  26.111  1.00  0.00    -0.193 N 
ATOM     25  C   UNL A   1      32.609  30.638  26.919  1.00  0.00     0.324 C 
ATOM     26  C   UNL A   1      31.989  29.337  24.984  1.00  0.00     0.301 C 
ATOM     27  O   UNL A   1      31.539  31.238  26.929  1.00  0.00    -0.245 OA
BRANCH  20  28
ATOM     28  C   UNL A   1      33.356  26.627  25.647  1.00  0.00     0.125 A 
ATOM     29  C   UNL A   1      30.491  24.803  23.063  1.00  0.00     0.044 C 
ATOM     30  C   UNL A   1      31.558  25.264  24.003  1.00  0.00    -0.051 A 
ATOM     31  C   UNL A   1      32.829  25.598  23.537  1.00  0.00     0.008 A 
ATOM     32  C   UNL A   1      31.262  25.449  25.351  1.00  0.00     0.008 A 
ATOM     33  C   UNL A   1      33.720  26.293  24.348  1.00  0.00     0.052 A 
ATOM     34  C   UNL A   1      32.187  26.077  26.183  1.00  0.00     0.052 A 
ENDBRANCH  20  28
ENDBRANCH  18  19
ENDBRANCH  15  18
ENDBRANCH   9  14
ENDBRANCH   5   8
ENDBRANCH   3   4
ENDBRANCH   2   3
ENDBRANCH   1   2
BRANCH   1  35
ATOM     35  C   UNL A   1      42.725  26.721  25.806  1.00  0.00     0.002 C 
BRANCH  35  36
ATOM     36  C   UNL A   1      41.995  25.409  25.478  1.00  0.00     0.021 C 
BRANCH  36  37
ATOM     37  C   UNL A   1      40.667  25.182  26.229  1.00  0.00     0.116 C 
BRANCH  37  38
ATOM     38  N   UNL A   1      40.418  23.744  26.433  1.00  0.00    -0.352 N 
ATOM     39  C   UNL A   1      40.817  22.882  27.430  1.00  0.00     0.251 C 
ATOM     40  H   UNL A   1      39.867  23.326  25.732  1.00  0.00     0.163 HD
ATOM     41  O   UNL A   1      40.434  21.716  27.477  1.00  0.00    -0.269 OA
BRANCH  39  42
ATOM     42  C   UNL A   1      41.691  23.392  28.496  1.00  0.00     0.039 A 
ATOM     43  C   UNL A   1      41.689  24.764  28.755  1.00  0.00     0.014 A 
ATOM     44  C   UNL A   1      42.626  22.550  29.087  1.00  0.00     0.014 A 
ATOM     45  C   UNL A   1      42.780  25.329  29.410  1.00  0.00     0.010 A 
ATOM     46  C   UNL A   1      43.726  23.119  29.715  1.00  0.00     0.010 A 
ATOM     47  C   UNL A   1      43.860  24.515  29.769  1.00  0.00    -0.014 A 
BRANCH  47  48
ATOM     48  C   UNL A   1      45.219  25.069  29.860  1.00  0.00     0.031 A 
ATOM     49  C   UNL A   1      46.261  24.884  28.828  1.00  0.00     0.074 A 
ATOM     50  C   UNL A   1      45.536  25.853  30.920  1.00  0.00     0.049 A 
ATOM     51  N   UNL A   1      47.529  24.941  29.075  1.00  0.00    -0.248 NA
ATOM     52  C   UNL A   1      45.968  24.591  27.437  1.00  0.00     0.031 C 
ATOM     53  C   UNL A   1      46.705  26.720  31.074  1.00  0.00     0.029 A 
ATOM     54  N   UNL A   1      44.927  25.901  32.165  1.00  0.00    -0.354 N 
ATOM     55  C   UNL A   1      48.200  25.013  27.877  1.00  0.00     0.074 A 
ATOM     56  C   UNL A   1      47.188  24.693  26.892  1.00  0.00     0.031 C 
ATOM     57  C   UNL A   1      46.871  27.005  32.372  1.00  0.00     0.029 A 
ATOM     58  C   UNL A   1      45.894  26.238  33.117  1.00  0.00     0.049 A 
ATOM     59  H   UNL A   1      43.976  25.727  32.347  1.00  0.00     0.167 HD
ATOM     60  C   UNL A   1      49.492  25.463  27.853  1.00  0.00     0.034 A 
ATOM     61  C   UNL A   1      46.173  25.402  34.156  1.00  0.00     0.034 A 
ATOM     62  C   UNL A   1      50.009  25.737  29.204  1.00  0.00     0.049 A 
ATOM     63  C   UNL A   1      47.591  24.876  34.151  1.00  0.00     0.074 A 
ATOM     64  C   UNL A   1      50.308  26.902  29.894  1.00  0.00     0.029 A 
ATOM     65  N   UNL A   1      50.105  24.707  30.136  1.00  0.00    -0.354 N 
ATOM     66  N   UNL A   1      48.438  25.034  33.172  1.00  0.00    -0.248 NA
ATOM     67  C   UNL A   1      48.150  24.094  35.245  1.00  0.00     0.031 C 
ATOM     68  C   UNL A   1      50.576  26.564  31.248  1.00  0.00     0.029 A 
ATOM     69  C   UNL A   1      50.451  25.193  31.385  1.00  0.00     0.049 A 
ATOM     70  H   UNL A   1      49.945  23.756  29.934  1.00  0.00     0.167 HD
ATOM     71  C   UNL A   1      49.603  24.354  33.445  1.00  0.00     0.074 A 
ATOM     72  C   UNL A   1      49.377  23.813  34.775  1.00  0.00     0.031 C 
ATOM     73  C   UNL A   1      50.620  24.289  32.526  1.00  0.00     0.034 A 
BRANCH  60  74
ATOM     74  C   UNL A   1      50.238  25.920  26.602  1.00  0.00     0.023 A 
ATOM     75  C   UNL A   1      49.513  26.476  25.518  1.00  0.00     0.031 A 
ATOM     76  C   UNL A   1      51.625  25.818  26.383  1.00  0.00     0.131 A 
ATOM     77  C   UNL A   1      50.130  26.785  24.288  1.00  0.00     0.055 A 
ATOM     78  C   UNL A   1      52.233  26.078  25.145  1.00  0.00     0.041 A 
ATOM     79  F   UNL A   1      52.479  25.530  27.370  1.00  0.00    -0.206 F 
ATOM     80  C   UNL A   1      51.483  26.552  24.083  1.00  0.00     0.022 A 
BRANCH  77  81
ATOM     81  S   UNL A   1      49.135  27.498  22.945  1.00  0.00     0.124 S 
ATOM     82  O   UNL A   1      50.034  28.509  22.398  1.00  0.00    -0.237 OA
ATOM     83  O   UNL A   1      48.875  26.337  22.102  1.00  0.00    -0.237 OA
ATOM     84  O   UNL A   1      47.963  28.030  23.639  1.00  0.00    -0.744 OA
ENDBRANCH  77  81
ENDBRANCH  60  74
BRANCH  61  85
ATOM     85  C   UNL A   1      44.973  24.683  34.666  1.00  0.00     0.023 A 
ATOM     86  C   UNL A   1      44.154  25.388  35.572  1.00  0.00     0.031 A 
ATOM     87  C   UNL A   1      44.428  23.567  34.018  1.00  0.00     0.131 A 
ATOM     88  C   UNL A   1      42.793  25.079  35.686  1.00  0.00     0.055 A 
ATOM     89  C   UNL A   1      43.082  23.218  34.187  1.00  0.00     0.041 A 
ATOM     90  F   UNL A   1      45.144  22.882  33.115  1.00  0.00    -0.206 F 
ATOM     91  C   UNL A   1      42.247  24.002  34.988  1.00  0.00     0.022 A 
BRANCH  88  92
ATOM     92  S   UNL A   1      41.700  26.265  36.528  1.00  0.00     0.124 S 
ATOM     93  O   UNL A   1      41.655  27.368  35.577  1.00  0.00    -0.237 OA
ATOM     94  O   UNL A   1      40.460  25.507  36.687  1.00  0.00    -0.237 OA
ATOM     95  O   UNL A   1      42.400  26.537  37.781  1.00  0.00    -0.744 OA
ENDBRANCH  88  92
ENDBRANCH  61  85
BRANCH  73  96
ATOM     96  C   UNL A   1      51.892  23.447  32.618  1.00  0.00     0.023 A 
ATOM     97  C   UNL A   1      53.193  23.966  32.530  1.00  0.00     0.031 A 
ATOM     98  C   UNL A   1      51.831  22.044  32.822  1.00  0.00     0.131 A 
ATOM     99  C   UNL A   1      54.334  23.140  32.597  1.00  0.00     0.055 A 
ATOM    100  C   UNL A   1      52.965  21.225  32.923  1.00  0.00     0.041 A 
ATOM    101  F   UNL A   1      50.666  21.393  32.949  1.00  0.00    -0.206 F 
ATOM    102  C   UNL A   1      54.231  21.770  32.800  1.00  0.00     0.022 A 
BRANCH  99 103
ATOM    103  S   UNL A   1      55.962  23.910  32.374  1.00  0.00     0.124 S 
ATOM    104  O   UNL A   1      55.686  25.306  32.702  1.00  0.00    -0.237 OA
ATOM    105  O   UNL A   1      56.781  23.186  33.340  1.00  0.00    -0.237 OA
ATOM    106  O   UNL A   1      56.280  23.653  30.972  1.00  0.00    -0.744 OA
ENDBRANCH  99 103
ENDBRANCH  73  96
ENDBRANCH  47  48
ENDBRANCH  39  42
ENDBRANCH  37  38
ENDBRANCH  36  37
ENDBRANCH  35  36
ENDBRANCH   1  35
TORSDOF 20
ENDMDL
