MODEL 1
REMARK VINA RESULT:     -12.5      0.000      0.000
REMARK SMILES O=C(NCCCCCCNC(=O)c1ccc(-c2c3nc(c(-c4cc(S(=O)(=O)[O-])ccc4F)c4ccc([nH]4)c(-c4cc(S(=O)(=O)[O-])ccc4F)c4nc(c(-c5cc(S(=O)(=O)[O-])ccc5F)c5ccc2[nH]5)C=C4)C=C3)cc1)C1=Cc2cc(OC(F)(F)F)ccc2O[C@@H]1C(F)(F)F
REMARK SMILES IDX 7 1 6 2 5 3 4 4 3 5 1 6 2 7 76 9 77 10 90 11 78 12 89 13
REMARK SMILES IDX 79 14 88 15 80 16 87 17 86 18 91 19 92 20 93 21 94 22 81 23
REMARK SMILES IDX 82 24 83 25 84 26 85 27 8 28 9 29 10 30 11 31 12 33 13 34
REMARK SMILES IDX 14 35 75 36 15 37 74 38 16 39 17 40 18 41 68 42 19 43 73 44
REMARK SMILES IDX 67 45 69 46 20 47 72 48 66 49 65 50 21 52 53 53 33 54 52 55
REMARK SMILES IDX 34 56 37 57 51 58 70 59 35 60 36 61 50 63 71 64 38 65 22 66
REMARK SMILES IDX 23 67 31 68 24 69 30 70 32 71 29 72 25 73 26 74 27 75 28 76
REMARK SMILES IDX 54 77 55 78 63 79 56 80 62 81 64 82 61 83 57 84 58 85 59 86
REMARK SMILES IDX 60 87 39 88 40 89 48 90 41 91 47 92 49 93 46 94 42 95 43 96
REMARK SMILES IDX 44 97 45 98
REMARK H PARENT 3 8 10 32 69 51 37 62
REMARK Flexibility Score: inf
ROOT
ATOM      1  C   UNL A   1      31.617  30.310  26.142  1.00  0.00     0.002 C 
ENDROOT
BRANCH   1   2
ATOM      2  C   UNL A   1      32.369  29.370  27.092  1.00  0.00     0.002 C 
BRANCH   2   3
ATOM      3  C   UNL A   1      31.669  28.068  27.473  1.00  0.00     0.021 C 
BRANCH   3   4
ATOM      4  C   UNL A   1      31.879  26.884  26.537  1.00  0.00     0.116 C 
BRANCH   4   5
ATOM      5  N   UNL A   1      31.068  25.710  26.809  1.00  0.00    -0.352 N 
ATOM      6  O   UNL A   1      30.613  23.536  27.132  1.00  0.00    -0.270 OA
ATOM      7  C   UNL A   1      31.394  24.385  26.703  1.00  0.00     0.251 C 
ATOM      8  H   UNL A   1      30.152  25.894  27.117  1.00  0.00     0.163 HD
BRANCH   7   9
ATOM      9  C   UNL A   1      32.710  23.919  26.168  1.00  0.00     0.067 C 
ATOM     10  C   UNL A   1      33.295  22.772  26.561  1.00  0.00     0.025 C 
ATOM     11  C   UNL A   1      32.963  24.412  24.760  1.00  0.00     0.314 C 
ATOM     12  C   UNL A   1      33.177  21.729  25.503  1.00  0.00     0.021 A 
ATOM     13  O   UNL A   1      32.638  23.384  23.783  1.00  0.00    -0.475 OA
ATOM     14  C   UNL A   1      33.243  20.378  25.873  1.00  0.00     0.058 A 
ATOM     15  C   UNL A   1      32.744  22.084  24.215  1.00  0.00     0.128 A 
ATOM     16  C   UNL A   1      32.760  19.396  25.006  1.00  0.00     0.130 A 
ATOM     17  C   UNL A   1      32.289  21.099  23.345  1.00  0.00     0.051 A 
ATOM     18  C   UNL A   1      32.280  19.759  23.745  1.00  0.00     0.050 A 
BRANCH  11  19
ATOM     19  C   UNL A   1      34.386  24.960  24.566  1.00  0.00     0.429 C 
ATOM     20  F   UNL A   1      35.233  23.992  24.139  1.00  0.00    -0.167 F 
ATOM     21  F   UNL A   1      34.418  25.943  23.634  1.00  0.00    -0.167 F 
ATOM     22  F   UNL A   1      34.908  25.477  25.703  1.00  0.00    -0.167 F 
ENDBRANCH  11  19
BRANCH  16  23
ATOM     23  O   UNL A   1      32.868  18.098  25.417  1.00  0.00    -0.406 OA
BRANCH  23  24
ATOM     24  C   UNL A   1      33.764  17.297  24.653  1.00  0.00     0.573 C 
ATOM     25  F   UNL A   1      33.078  16.374  23.938  1.00  0.00    -0.132 F 
ATOM     26  F   UNL A   1      34.512  18.035  23.806  1.00  0.00    -0.132 F 
ATOM     27  F   UNL A   1      34.591  16.642  25.493  1.00  0.00    -0.132 F 
ENDBRANCH  23  24
ENDBRANCH  16  23
ENDBRANCH   7   9
ENDBRANCH   4   5
ENDBRANCH   3   4
ENDBRANCH   2   3
ENDBRANCH   1   2
BRANCH   1  28
ATOM     28  C   UNL A   1      31.490  31.777  26.564  1.00  0.00     0.021 C 
BRANCH  28  29
ATOM     29  C   UNL A   1      32.730  32.421  27.181  1.00  0.00     0.116 C 
BRANCH  29  30
ATOM     30  N   UNL A   1      32.517  33.793  27.601  1.00  0.00    -0.352 N 
ATOM     31  C   UNL A   1      33.166  34.534  28.564  1.00  0.00     0.251 C 
ATOM     32  H   UNL A   1      31.799  34.268  27.124  1.00  0.00     0.163 HD
ATOM     33  O   UNL A   1      32.740  35.649  28.842  1.00  0.00    -0.269 OA
BRANCH  31  34
ATOM     34  C   UNL A   1      34.342  33.987  29.289  1.00  0.00     0.039 A 
ATOM     35  C   UNL A   1      34.114  33.124  30.366  1.00  0.00     0.014 A 
ATOM     36  C   UNL A   1      35.654  34.332  28.950  1.00  0.00     0.014 A 
ATOM     37  C   UNL A   1      35.193  32.567  31.060  1.00  0.00     0.010 A 
ATOM     38  C   UNL A   1      36.730  33.719  29.597  1.00  0.00     0.010 A 
ATOM     39  C   UNL A   1      36.514  32.832  30.663  1.00  0.00    -0.014 A 
BRANCH  39  40
ATOM     40  C   UNL A   1      37.665  32.198  31.369  1.00  0.00     0.031 A 
ATOM     41  C   UNL A   1      38.412  31.054  30.735  1.00  0.00     0.074 A 
ATOM     42  C   UNL A   1      38.027  32.638  32.592  1.00  0.00     0.049 A 
ATOM     43  N   UNL A   1      39.412  30.353  31.208  1.00  0.00    -0.248 NA
ATOM     44  C   UNL A   1      37.962  30.627  29.402  1.00  0.00     0.031 C 
ATOM     45  C   UNL A   1      37.369  33.719  33.328  1.00  0.00     0.029 A 
ATOM     46  N   UNL A   1      39.034  32.232  33.434  1.00  0.00    -0.354 N 
ATOM     47  C   UNL A   1      39.711  29.406  30.234  1.00  0.00     0.074 A 
ATOM     48  C   UNL A   1      38.740  29.579  29.175  1.00  0.00     0.031 C 
ATOM     49  C   UNL A   1      38.003  33.907  34.497  1.00  0.00     0.029 A 
ATOM     50  C   UNL A   1      39.081  32.929  34.621  1.00  0.00     0.049 A 
ATOM     51  H   UNL A   1      39.664  31.510  33.210  1.00  0.00     0.167 HD
ATOM     52  C   UNL A   1      40.717  28.496  30.210  1.00  0.00     0.034 A 
ATOM     53  C   UNL A   1      39.885  32.789  35.695  1.00  0.00     0.034 A 
ATOM     54  C   UNL A   1      41.681  28.332  31.272  1.00  0.00     0.049 A 
ATOM     55  C   UNL A   1      40.966  31.735  35.666  1.00  0.00     0.074 A 
ATOM     56  C   UNL A   1      42.756  27.461  31.332  1.00  0.00     0.029 A 
ATOM     57  N   UNL A   1      41.686  29.046  32.463  1.00  0.00    -0.354 N 
ATOM     58  N   UNL A   1      41.258  30.876  34.716  1.00  0.00    -0.248 NA
ATOM     59  C   UNL A   1      41.834  31.640  36.847  1.00  0.00     0.031 C 
ATOM     60  C   UNL A   1      43.362  27.596  32.585  1.00  0.00     0.029 A 
ATOM     61  C   UNL A   1      42.723  28.612  33.275  1.00  0.00     0.049 A 
ATOM     62  H   UNL A   1      41.045  29.757  32.698  1.00  0.00     0.167 HD
ATOM     63  C   UNL A   1      42.365  30.165  35.175  1.00  0.00     0.074 A 
ATOM     64  C   UNL A   1      42.697  30.708  36.474  1.00  0.00     0.031 C 
ATOM     65  C   UNL A   1      43.046  29.156  34.575  1.00  0.00     0.034 A 
BRANCH  52  66
ATOM     66  C   UNL A   1      40.811  27.593  29.002  1.00  0.00     0.023 A 
ATOM     67  C   UNL A   1      41.777  27.801  28.002  1.00  0.00     0.031 A 
ATOM     68  C   UNL A   1      39.923  26.515  28.842  1.00  0.00     0.131 A 
ATOM     69  C   UNL A   1      41.788  26.990  26.857  1.00  0.00     0.055 A 
ATOM     70  C   UNL A   1      39.992  25.660  27.741  1.00  0.00     0.041 A 
ATOM     71  F   UNL A   1      38.966  26.278  29.752  1.00  0.00    -0.206 F 
ATOM     72  C   UNL A   1      40.920  25.904  26.732  1.00  0.00     0.022 A 
BRANCH  69  73
ATOM     73  S   UNL A   1      42.856  27.464  25.470  1.00  0.00     0.124 S 
ATOM     74  O   UNL A   1      44.057  27.922  26.167  1.00  0.00    -0.237 OA
ATOM     75  O   UNL A   1      42.985  26.215  24.730  1.00  0.00    -0.237 OA
ATOM     76  O   UNL A   1      42.098  28.514  24.795  1.00  0.00    -0.744 OA
ENDBRANCH  69  73
ENDBRANCH  52  66
BRANCH  53  77
ATOM     77  C   UNL A   1      39.691  33.643  36.905  1.00  0.00     0.023 A 
ATOM     78  C   UNL A   1      39.054  33.148  38.054  1.00  0.00     0.031 A 
ATOM     79  C   UNL A   1      40.086  34.994  36.904  1.00  0.00     0.131 A 
ATOM     80  C   UNL A   1      38.775  34.009  39.127  1.00  0.00     0.055 A 
ATOM     81  C   UNL A   1      39.866  35.830  38.001  1.00  0.00     0.041 A 
ATOM     82  F   UNL A   1      40.698  35.522  35.833  1.00  0.00    -0.206 F 
ATOM     83  C   UNL A   1      39.191  35.342  39.116  1.00  0.00     0.022 A 
BRANCH  80  84
ATOM     84  S   UNL A   1      37.758  33.391  40.498  1.00  0.00     0.124 S 
ATOM     85  O   UNL A   1      38.592  32.316  41.023  1.00  0.00    -0.237 OA
ATOM     86  O   UNL A   1      37.634  34.577  41.339  1.00  0.00    -0.237 OA
ATOM     87  O   UNL A   1      36.526  32.962  39.840  1.00  0.00    -0.744 OA
ENDBRANCH  80  84
ENDBRANCH  53  77
BRANCH  65  88
ATOM     88  C   UNL A   1      44.253  28.609  35.299  1.00  0.00     0.023 A 
ATOM     89  C   UNL A   1      44.143  27.608  36.281  1.00  0.00     0.031 A 
ATOM     90  C   UNL A   1      45.536  29.105  35.006  1.00  0.00     0.131 A 
ATOM     91  C   UNL A   1      45.285  27.179  36.974  1.00  0.00     0.055 A 
ATOM     92  C   UNL A   1      46.677  28.625  35.651  1.00  0.00     0.041 A 
ATOM     93  F   UNL A   1      45.705  30.064  34.081  1.00  0.00    -0.206 F 
ATOM     94  C   UNL A   1      46.554  27.667  36.652  1.00  0.00     0.022 A 
BRANCH  91  95
ATOM     95  S   UNL A   1      45.080  26.044  38.374  1.00  0.00     0.124 S 
ATOM     96  O   UNL A   1      46.380  26.135  39.032  1.00  0.00    -0.237 OA
ATOM     97  O   UNL A   1      43.959  26.638  39.097  1.00  0.00    -0.237 OA
ATOM     98  O   UNL A   1      44.794  24.760  37.738  1.00  0.00    -0.744 OA
ENDBRANCH  91  95
ENDBRANCH  65  88
ENDBRANCH  39  40
ENDBRANCH  31  34
ENDBRANCH  29  30
ENDBRANCH  28  29
ENDBRANCH   1  28
TORSDOF 19
ENDMDL
MODEL 2
REMARK VINA RESULT:     -12.3      3.538      8.502
REMARK SMILES O=C(NCCCCCCNC(=O)c1ccc(-c2c3nc(c(-c4cc(S(=O)(=O)[O-])ccc4F)c4ccc([nH]4)c(-c4cc(S(=O)(=O)[O-])ccc4F)c4nc(c(-c5cc(S(=O)(=O)[O-])ccc5F)c5ccc2[nH]5)C=C4)C=C3)cc1)C1=Cc2cc(OC(F)(F)F)ccc2O[C@@H]1C(F)(F)F
REMARK SMILES IDX 7 1 6 2 5 3 4 4 3 5 1 6 2 7 76 9 77 10 90 11 78 12 89 13
REMARK SMILES IDX 79 14 88 15 80 16 87 17 86 18 91 19 92 20 93 21 94 22 81 23
REMARK SMILES IDX 82 24 83 25 84 26 85 27 8 28 9 29 10 30 11 31 12 33 13 34
REMARK SMILES IDX 14 35 75 36 15 37 74 38 16 39 17 40 18 41 68 42 19 43 73 44
REMARK SMILES IDX 67 45 69 46 20 47 72 48 66 49 65 50 21 52 53 53 33 54 52 55
REMARK SMILES IDX 34 56 37 57 51 58 70 59 35 60 36 61 50 63 71 64 38 65 22 66
REMARK SMILES IDX 23 67 31 68 24 69 30 70 32 71 29 72 25 73 26 74 27 75 28 76
REMARK SMILES IDX 54 77 55 78 63 79 56 80 62 81 64 82 61 83 57 84 58 85 59 86
REMARK SMILES IDX 60 87 39 88 40 89 48 90 41 91 47 92 49 93 46 94 42 95 43 96
REMARK SMILES IDX 44 97 45 98
REMARK H PARENT 3 8 10 32 69 51 37 62
REMARK Flexibility Score: inf
ROOT
ATOM      1  C   UNL A   1      31.622  29.256  24.652  1.00  0.00     0.002 C 
ENDROOT
BRANCH   1   2
ATOM      2  C   UNL A   1      30.988  28.192  23.748  1.00  0.00     0.002 C 
BRANCH   2   3
ATOM      3  C   UNL A   1      31.922  27.451  22.794  1.00  0.00     0.021 C 
BRANCH   3   4
ATOM      4  C   UNL A   1      31.336  26.248  22.066  1.00  0.00     0.116 C 
BRANCH   4   5
ATOM      5  N   UNL A   1      32.298  25.291  21.547  1.00  0.00    -0.352 N 
ATOM      6  O   UNL A   1      33.527  23.414  21.487  1.00  0.00    -0.270 OA
ATOM      7  C   UNL A   1      32.844  24.193  22.152  1.00  0.00     0.251 C 
ATOM      8  H   UNL A   1      32.599  25.457  20.625  1.00  0.00     0.163 HD
BRANCH   7   9
ATOM      9  C   UNL A   1      32.570  23.838  23.579  1.00  0.00     0.067 C 
ATOM     10  C   UNL A   1      31.926  22.713  23.943  1.00  0.00     0.025 C 
ATOM     11  C   UNL A   1      33.604  24.415  24.521  1.00  0.00     0.314 C 
ATOM     12  C   UNL A   1      32.881  21.718  24.508  1.00  0.00     0.021 A 
ATOM     13  O   UNL A   1      34.605  23.417  24.868  1.00  0.00    -0.475 OA
ATOM     14  C   UNL A   1      32.543  20.358  24.469  1.00  0.00     0.058 A 
ATOM     15  C   UNL A   1      34.193  22.107  24.824  1.00  0.00     0.128 A 
ATOM     16  C   UNL A   1      33.538  19.390  24.620  1.00  0.00     0.130 A 
ATOM     17  C   UNL A   1      35.175  21.139  25.000  1.00  0.00     0.051 A 
ATOM     18  C   UNL A   1      34.853  19.782  24.881  1.00  0.00     0.050 A 
BRANCH  11  19
ATOM     19  C   UNL A   1      32.981  25.061  25.769  1.00  0.00     0.429 C 
ATOM     20  F   UNL A   1      31.745  25.550  25.506  1.00  0.00    -0.167 F 
ATOM     21  F   UNL A   1      32.839  24.164  26.775  1.00  0.00    -0.167 F 
ATOM     22  F   UNL A   1      33.722  26.084  26.254  1.00  0.00    -0.167 F 
ENDBRANCH  11  19
BRANCH  16  23
ATOM     23  O   UNL A   1      33.143  18.084  24.590  1.00  0.00    -0.406 OA
BRANCH  23  24
ATOM     24  C   UNL A   1      33.469  17.383  23.393  1.00  0.00     0.573 C 
ATOM     25  F   UNL A   1      32.881  17.976  22.326  1.00  0.00    -0.132 F 
ATOM     26  F   UNL A   1      34.800  17.328  23.180  1.00  0.00    -0.132 F 
ATOM     27  F   UNL A   1      32.997  16.123  23.481  1.00  0.00    -0.132 F 
ENDBRANCH  23  24
ENDBRANCH  16  23
ENDBRANCH   7   9
ENDBRANCH   4   5
ENDBRANCH   3   4
ENDBRANCH   2   3
ENDBRANCH   1   2
BRANCH   1  28
ATOM     28  C   UNL A   1      33.145  29.219  24.815  1.00  0.00     0.021 C 
BRANCH  28  29
ATOM     29  C   UNL A   1      33.681  29.276  26.243  1.00  0.00     0.116 C 
BRANCH  29  30
ATOM     30  N   UNL A   1      33.544  30.582  26.859  1.00  0.00    -0.352 N 
ATOM     31  C   UNL A   1      34.340  31.210  27.791  1.00  0.00     0.251 C 
ATOM     32  H   UNL A   1      32.760  31.100  26.564  1.00  0.00     0.163 HD
ATOM     33  O   UNL A   1      33.968  32.275  28.268  1.00  0.00    -0.269 OA
BRANCH  31  34
ATOM     34  C   UNL A   1      35.614  30.597  28.247  1.00  0.00     0.039 A 
ATOM     35  C   UNL A   1      36.790  30.924  27.565  1.00  0.00     0.014 A 
ATOM     36  C   UNL A   1      35.665  29.687  29.309  1.00  0.00     0.014 A 
ATOM     37  C   UNL A   1      38.014  30.388  27.978  1.00  0.00     0.010 A 
ATOM     38  C   UNL A   1      36.896  29.210  29.765  1.00  0.00     0.010 A 
ATOM     39  C   UNL A   1      38.087  29.551  29.103  1.00  0.00    -0.014 A 
BRANCH  39  40
ATOM     40  C   UNL A   1      39.397  29.020  29.577  1.00  0.00     0.031 A 
ATOM     41  C   UNL A   1      40.127  29.692  30.710  1.00  0.00     0.074 A 
ATOM     42  C   UNL A   1      39.944  27.943  28.974  1.00  0.00     0.049 A 
ATOM     43  N   UNL A   1      41.291  29.400  31.235  1.00  0.00    -0.248 NA
ATOM     44  C   UNL A   1      39.474  30.860  31.319  1.00  0.00     0.031 C 
ATOM     45  C   UNL A   1      39.352  27.218  27.848  1.00  0.00     0.029 A 
ATOM     46  N   UNL A   1      41.117  27.271  29.219  1.00  0.00    -0.354 N 
ATOM     47  C   UNL A   1      41.509  30.343  32.235  1.00  0.00     0.074 A 
ATOM     48  C   UNL A   1      40.387  31.257  32.193  1.00  0.00     0.031 C 
ATOM     49  C   UNL A   1      40.151  26.190  27.517  1.00  0.00     0.029 A 
ATOM     50  C   UNL A   1      41.336  26.210  28.370  1.00  0.00     0.049 A 
ATOM     51  H   UNL A   1      41.742  27.525  29.934  1.00  0.00     0.167 HD
ATOM     52  C   UNL A   1      42.530  30.425  33.123  1.00  0.00     0.034 A 
ATOM     53  C   UNL A   1      42.379  25.358  28.274  1.00  0.00     0.034 A 
ATOM     54  C   UNL A   1      43.644  29.507  33.156  1.00  0.00     0.049 A 
ATOM     55  C   UNL A   1      43.529  25.499  29.241  1.00  0.00     0.074 A 
ATOM     56  C   UNL A   1      44.715  29.484  34.034  1.00  0.00     0.029 A 
ATOM     57  N   UNL A   1      43.838  28.454  32.271  1.00  0.00    -0.354 N 
ATOM     58  N   UNL A   1      43.695  26.375  30.207  1.00  0.00    -0.248 NA
ATOM     59  C   UNL A   1      44.627  24.531  29.115  1.00  0.00     0.031 C 
ATOM     60  C   UNL A   1      45.590  28.469  33.635  1.00  0.00     0.029 A 
ATOM     61  C   UNL A   1      45.025  27.799  32.563  1.00  0.00     0.049 A 
ATOM     62  H   UNL A   1      43.223  28.209  31.542  1.00  0.00     0.167 HD
ATOM     63  C   UNL A   1      44.899  26.037  30.822  1.00  0.00     0.074 A 
ATOM     64  C   UNL A   1      45.405  24.870  30.131  1.00  0.00     0.031 C 
ATOM     65  C   UNL A   1      45.528  26.637  31.864  1.00  0.00     0.034 A 
BRANCH  52  66
ATOM     66  C   UNL A   1      42.499  31.561  34.119  1.00  0.00     0.023 A 
ATOM     67  C   UNL A   1      41.737  31.485  35.298  1.00  0.00     0.031 A 
ATOM     68  C   UNL A   1      43.235  32.736  33.888  1.00  0.00     0.131 A 
ATOM     69  C   UNL A   1      41.670  32.587  36.163  1.00  0.00     0.055 A 
ATOM     70  C   UNL A   1      43.232  33.798  34.795  1.00  0.00     0.041 A 
ATOM     71  F   UNL A   1      43.966  32.877  32.772  1.00  0.00    -0.206 F 
ATOM     72  C   UNL A   1      42.434  33.733  35.934  1.00  0.00     0.022 A 
BRANCH  69  73
ATOM     73  S   UNL A   1      40.462  32.555  37.515  1.00  0.00     0.124 S 
ATOM     74  O   UNL A   1      39.456  31.635  36.989  1.00  0.00    -0.237 OA
ATOM     75  O   UNL A   1      41.255  32.063  38.635  1.00  0.00    -0.237 OA
ATOM     76  O   UNL A   1      40.028  33.946  37.620  1.00  0.00    -0.744 OA
ENDBRANCH  69  73
ENDBRANCH  52  66
BRANCH  53  77
ATOM     77  C   UNL A   1      42.407  24.310  27.210  1.00  0.00     0.023 A 
ATOM     78  C   UNL A   1      41.585  23.173  27.282  1.00  0.00     0.031 A 
ATOM     79  C   UNL A   1      43.310  24.400  26.135  1.00  0.00     0.131 A 
ATOM     80  C   UNL A   1      41.724  22.147  26.334  1.00  0.00     0.055 A 
ATOM     81  C   UNL A   1      43.397  23.407  25.157  1.00  0.00     0.041 A 
ATOM     82  F   UNL A   1      44.121  25.463  26.015  1.00  0.00    -0.206 F 
ATOM     83  C   UNL A   1      42.612  22.263  25.262  1.00  0.00     0.022 A 
BRANCH  80  84
ATOM     84  S   UNL A   1      40.805  20.602  26.583  1.00  0.00     0.124 S 
ATOM     85  O   UNL A   1      39.468  20.979  26.140  1.00  0.00    -0.237 OA
ATOM     86  O   UNL A   1      41.531  19.677  25.720  1.00  0.00    -0.237 OA
ATOM     87  O   UNL A   1      40.942  20.353  28.017  1.00  0.00    -0.744 OA
ENDBRANCH  80  84
ENDBRANCH  53  77
BRANCH  65  88
ATOM     88  C   UNL A   1      46.809  26.007  32.356  1.00  0.00     0.023 A 
ATOM     89  C   UNL A   1      48.049  26.271  31.747  1.00  0.00     0.031 A 
ATOM     90  C   UNL A   1      46.787  25.119  33.446  1.00  0.00     0.131 A 
ATOM     91  C   UNL A   1      49.204  25.610  32.195  1.00  0.00     0.055 A 
ATOM     92  C   UNL A   1      47.949  24.518  33.932  1.00  0.00     0.041 A 
ATOM     93  F   UNL A   1      45.632  24.825  34.065  1.00  0.00    -0.206 F 
ATOM     94  C   UNL A   1      49.165  24.750  33.296  1.00  0.00     0.022 A 
BRANCH  91  95
ATOM     95  S   UNL A   1      50.743  25.812  31.258  1.00  0.00     0.124 S 
ATOM     96  O   UNL A   1      51.725  25.205  32.153  1.00  0.00    -0.237 OA
ATOM     97  O   UNL A   1      50.461  25.074  30.031  1.00  0.00    -0.237 OA
ATOM     98  O   UNL A   1      50.861  27.259  31.097  1.00  0.00    -0.744 OA
ENDBRANCH  91  95
ENDBRANCH  65  88
ENDBRANCH  39  40
ENDBRANCH  31  34
ENDBRANCH  29  30
ENDBRANCH  28  29
ENDBRANCH   1  28
TORSDOF 19
ENDMDL
MODEL 3
REMARK VINA RESULT:     -12.2      5.681     10.713
REMARK SMILES O=C(NCCCCCCNC(=O)c1ccc(-c2c3nc(c(-c4cc(S(=O)(=O)[O-])ccc4F)c4ccc([nH]4)c(-c4cc(S(=O)(=O)[O-])ccc4F)c4nc(c(-c5cc(S(=O)(=O)[O-])ccc5F)c5ccc2[nH]5)C=C4)C=C3)cc1)C1=Cc2cc(OC(F)(F)F)ccc2O[C@@H]1C(F)(F)F
REMARK SMILES IDX 7 1 6 2 5 3 4 4 3 5 1 6 2 7 76 9 77 10 90 11 78 12 89 13
REMARK SMILES IDX 79 14 88 15 80 16 87 17 86 18 91 19 92 20 93 21 94 22 81 23
REMARK SMILES IDX 82 24 83 25 84 26 85 27 8 28 9 29 10 30 11 31 12 33 13 34
REMARK SMILES IDX 14 35 75 36 15 37 74 38 16 39 17 40 18 41 68 42 19 43 73 44
REMARK SMILES IDX 67 45 69 46 20 47 72 48 66 49 65 50 21 52 53 53 33 54 52 55
REMARK SMILES IDX 34 56 37 57 51 58 70 59 35 60 36 61 50 63 71 64 38 65 22 66
REMARK SMILES IDX 23 67 31 68 24 69 30 70 32 71 29 72 25 73 26 74 27 75 28 76
REMARK SMILES IDX 54 77 55 78 63 79 56 80 62 81 64 82 61 83 57 84 58 85 59 86
REMARK SMILES IDX 60 87 39 88 40 89 48 90 41 91 47 92 49 93 46 94 42 95 43 96
REMARK SMILES IDX 44 97 45 98
REMARK H PARENT 3 8 10 32 69 51 37 62
REMARK Flexibility Score: inf
ROOT
ATOM      1  C   UNL A   1      34.128  21.239  25.352  1.00  0.00     0.002 C 
ENDROOT
BRANCH   1   2
ATOM      2  C   UNL A   1      33.875  21.495  26.843  1.00  0.00     0.002 C 
BRANCH   2   3
ATOM      3  C   UNL A   1      32.860  22.581  27.194  1.00  0.00     0.021 C 
BRANCH   3   4
ATOM      4  C   UNL A   1      31.553  22.569  26.410  1.00  0.00     0.116 C 
BRANCH   4   5
ATOM      5  N   UNL A   1      30.603  23.614  26.749  1.00  0.00    -0.352 N 
ATOM      6  O   UNL A   1      29.462  25.532  26.512  1.00  0.00    -0.270 OA
ATOM      7  C   UNL A   1      30.431  24.849  26.184  1.00  0.00     0.251 C 
ATOM      8  H   UNL A   1      29.993  23.403  27.491  1.00  0.00     0.163 HD
BRANCH   7   9
ATOM      9  C   UNL A   1      31.324  25.373  25.106  1.00  0.00     0.067 C 
ATOM     10  C   UNL A   1      30.856  25.881  23.950  1.00  0.00     0.025 C 
ATOM     11  C   UNL A   1      32.629  25.909  25.653  1.00  0.00     0.314 C 
ATOM     12  C   UNL A   1      30.975  27.367  23.939  1.00  0.00     0.021 A 
ATOM     13  O   UNL A   1      32.581  27.358  25.785  1.00  0.00    -0.475 OA
ATOM     14  C   UNL A   1      30.121  28.109  23.111  1.00  0.00     0.058 A 
ATOM     15  C   UNL A   1      31.734  28.015  24.927  1.00  0.00     0.128 A 
ATOM     16  C   UNL A   1      29.930  29.470  23.351  1.00  0.00     0.130 A 
ATOM     17  C   UNL A   1      31.561  29.378  25.144  1.00  0.00     0.051 A 
ATOM     18  C   UNL A   1      30.648  30.102  24.370  1.00  0.00     0.050 A 
BRANCH  11  19
ATOM     19  C   UNL A   1      33.851  25.447  24.844  1.00  0.00     0.429 C 
ATOM     20  F   UNL A   1      34.276  26.413  23.995  1.00  0.00    -0.167 F 
ATOM     21  F   UNL A   1      34.899  25.151  25.651  1.00  0.00    -0.167 F 
ATOM     22  F   UNL A   1      33.600  24.342  24.102  1.00  0.00    -0.167 F 
ENDBRANCH  11  19
BRANCH  16  23
ATOM     23  O   UNL A   1      29.100  30.141  22.500  1.00  0.00    -0.406 OA
BRANCH  23  24
ATOM     24  C   UNL A   1      27.840  30.509  23.053  1.00  0.00     0.573 C 
ATOM     25  F   UNL A   1      27.114  31.207  22.147  1.00  0.00    -0.132 F 
ATOM     26  F   UNL A   1      27.123  29.436  23.449  1.00  0.00    -0.132 F 
ATOM     27  F   UNL A   1      28.046  31.304  24.122  1.00  0.00    -0.132 F 
ENDBRANCH  23  24
ENDBRANCH  16  23
ENDBRANCH   7   9
ENDBRANCH   4   5
ENDBRANCH   3   4
ENDBRANCH   2   3
ENDBRANCH   1   2
BRANCH   1  28
ATOM     28  C   UNL A   1      35.406  21.830  24.747  1.00  0.00     0.021 C 
BRANCH  28  29
ATOM     29  C   UNL A   1      36.524  22.186  25.724  1.00  0.00     0.116 C 
BRANCH  29  30
ATOM     30  N   UNL A   1      37.566  21.180  25.798  1.00  0.00    -0.352 N 
ATOM     31  C   UNL A   1      38.902  21.310  26.108  1.00  0.00     0.251 C 
ATOM     32  H   UNL A   1      37.273  20.262  25.596  1.00  0.00     0.163 HD
ATOM     33  O   UNL A   1      39.635  20.335  25.992  1.00  0.00    -0.269 OA
BRANCH  31  34
ATOM     34  C   UNL A   1      39.464  22.615  26.539  1.00  0.00     0.039 A 
ATOM     35  C   UNL A   1      40.437  22.619  27.544  1.00  0.00     0.014 A 
ATOM     36  C   UNL A   1      39.031  23.830  25.997  1.00  0.00     0.014 A 
ATOM     37  C   UNL A   1      41.011  23.824  27.961  1.00  0.00     0.010 A 
ATOM     38  C   UNL A   1      39.656  25.024  26.364  1.00  0.00     0.010 A 
ATOM     39  C   UNL A   1      40.652  25.038  27.353  1.00  0.00    -0.014 A 
BRANCH  39  40
ATOM     40  C   UNL A   1      41.299  26.318  27.761  1.00  0.00     0.031 A 
ATOM     41  C   UNL A   1      40.507  27.378  28.481  1.00  0.00     0.074 A 
ATOM     42  C   UNL A   1      42.598  26.538  27.465  1.00  0.00     0.049 A 
ATOM     43  N   UNL A   1      40.886  28.566  28.882  1.00  0.00    -0.248 NA
ATOM     44  C   UNL A   1      39.099  27.071  28.769  1.00  0.00     0.031 C 
ATOM     45  C   UNL A   1      43.468  25.604  26.747  1.00  0.00     0.029 A 
ATOM     46  N   UNL A   1      43.413  27.613  27.728  1.00  0.00    -0.354 N 
ATOM     47  C   UNL A   1      39.766  29.146  29.469  1.00  0.00     0.074 A 
ATOM     48  C   UNL A   1      38.678  28.205  29.309  1.00  0.00     0.031 C 
ATOM     49  C   UNL A   1      44.698  26.135  26.649  1.00  0.00     0.029 A 
ATOM     50  C   UNL A   1      44.696  27.466  27.250  1.00  0.00     0.049 A 
ATOM     51  H   UNL A   1      43.108  28.413  28.212  1.00  0.00     0.167 HD
ATOM     52  C   UNL A   1      39.659  30.338  30.108  1.00  0.00     0.034 A 
ATOM     53  C   UNL A   1      45.748  28.311  27.275  1.00  0.00     0.034 A 
ATOM     54  C   UNL A   1      40.751  31.270  30.264  1.00  0.00     0.049 A 
ATOM     55  C   UNL A   1      45.592  29.654  27.948  1.00  0.00     0.074 A 
ATOM     56  C   UNL A   1      40.755  32.489  30.920  1.00  0.00     0.029 A 
ATOM     57  N   UNL A   1      42.031  31.093  29.754  1.00  0.00    -0.354 N 
ATOM     58  N   UNL A   1      44.533  30.166  28.534  1.00  0.00    -0.248 NA
ATOM     59  C   UNL A   1      46.772  30.526  27.974  1.00  0.00     0.031 C 
ATOM     60  C   UNL A   1      42.010  33.080  30.742  1.00  0.00     0.029 A 
ATOM     61  C   UNL A   1      42.819  32.193  30.052  1.00  0.00     0.049 A 
ATOM     62  H   UNL A   1      42.333  30.301  29.252  1.00  0.00     0.167 HD
ATOM     63  C   UNL A   1      44.936  31.405  29.027  1.00  0.00     0.074 A 
ATOM     64  C   UNL A   1      46.335  31.553  28.686  1.00  0.00     0.031 C 
ATOM     65  C   UNL A   1      44.215  32.336  29.702  1.00  0.00     0.034 A 
BRANCH  52  66
ATOM     66  C   UNL A   1      38.306  30.710  30.670  1.00  0.00     0.023 A 
ATOM     67  C   UNL A   1      37.326  31.331  29.876  1.00  0.00     0.031 A 
ATOM     68  C   UNL A   1      37.992  30.447  32.014  1.00  0.00     0.131 A 
ATOM     69  C   UNL A   1      36.110  31.732  30.450  1.00  0.00     0.055 A 
ATOM     70  C   UNL A   1      36.748  30.772  32.558  1.00  0.00     0.041 A 
ATOM     71  F   UNL A   1      38.894  29.874  32.827  1.00  0.00    -0.206 F 
ATOM     72  C   UNL A   1      35.803  31.432  31.778  1.00  0.00     0.022 A 
BRANCH  69  73
ATOM     73  S   UNL A   1      34.994  32.776  29.473  1.00  0.00     0.124 S 
ATOM     74  O   UNL A   1      34.222  33.442  30.520  1.00  0.00    -0.237 OA
ATOM     75  O   UNL A   1      35.921  33.619  28.729  1.00  0.00    -0.237 OA
ATOM     76  O   UNL A   1      34.241  31.816  28.670  1.00  0.00    -0.744 OA
ENDBRANCH  69  73
ENDBRANCH  52  66
BRANCH  53  77
ATOM     77  C   UNL A   1      47.038  27.936  26.623  1.00  0.00     0.023 A 
ATOM     78  C   UNL A   1      47.217  28.056  25.235  1.00  0.00     0.031 A 
ATOM     79  C   UNL A   1      48.093  27.389  27.376  1.00  0.00     0.131 A 
ATOM     80  C   UNL A   1      48.394  27.579  24.636  1.00  0.00     0.055 A 
ATOM     81  C   UNL A   1      49.289  26.977  26.783  1.00  0.00     0.041 A 
ATOM     82  F   UNL A   1      47.979  27.249  28.706  1.00  0.00    -0.206 F 
ATOM     83  C   UNL A   1      49.438  27.056  25.402  1.00  0.00     0.022 A 
BRANCH  80  84
ATOM     84  S   UNL A   1      48.498  27.548  22.825  1.00  0.00     0.124 S 
ATOM     85  O   UNL A   1      48.478  26.115  22.553  1.00  0.00    -0.237 OA
ATOM     86  O   UNL A   1      47.302  28.291  22.442  1.00  0.00    -0.237 OA
ATOM     87  O   UNL A   1      49.764  28.220  22.545  1.00  0.00    -0.744 OA
ENDBRANCH  80  84
ENDBRANCH  53  77
BRANCH  65  88
ATOM     88  C   UNL A   1      44.944  33.576  30.164  1.00  0.00     0.023 A 
ATOM     89  C   UNL A   1      45.005  34.740  29.376  1.00  0.00     0.031 A 
ATOM     90  C   UNL A   1      45.596  33.589  31.409  1.00  0.00     0.131 A 
ATOM     91  C   UNL A   1      45.750  35.845  29.816  1.00  0.00     0.055 A 
ATOM     92  C   UNL A   1      46.279  34.715  31.873  1.00  0.00     0.041 A 
ATOM     93  F   UNL A   1      45.577  32.506  32.203  1.00  0.00    -0.206 F 
ATOM     94  C   UNL A   1      46.372  35.847  31.068  1.00  0.00     0.022 A 
BRANCH  91  95
ATOM     95  S   UNL A   1      45.981  37.246  28.689  1.00  0.00     0.124 S 
ATOM     96  O   UNL A   1      47.290  37.750  29.095  1.00  0.00    -0.237 OA
ATOM     97  O   UNL A   1      45.926  36.605  27.378  1.00  0.00    -0.237 OA
ATOM     98  O   UNL A   1      44.855  38.125  28.996  1.00  0.00    -0.744 OA
ENDBRANCH  91  95
ENDBRANCH  65  88
ENDBRANCH  39  40
ENDBRANCH  31  34
ENDBRANCH  29  30
ENDBRANCH  28  29
ENDBRANCH   1  28
TORSDOF 19
ENDMDL
