MODEL 1
REMARK VINA RESULT:     -11.0      0.000      0.000
REMARK SMILES COc1ncccc1C[N@@H+](CC(=O)NCCCCCCNC(=O)c1ccc(-c2c3nc(c(-c4cc(S(=O)(=O)[O-])ccc4F)c4ccc([nH]4)c(-c4cc(S(=O)(=O)[O-])ccc4F)c4nc(c(-c5cc(S(=O)(=O)[O-])ccc5F)c5ccc2[nH]5)C=C4)C=C3)cc1)C1CCCC1
REMARK SMILES IDX 17 1 16 2 15 3 14 4 12 5 13 6 11 8 10 9 9 11 8 12 3 13 4 14
REMARK SMILES IDX 5 15 7 16 6 17 2 18 1 19 87 20 88 21 91 22 89 23 90 24 18 25
REMARK SMILES IDX 19 26 20 27 21 28 22 29 23 31 24 32 25 33 86 34 26 35 85 36
REMARK SMILES IDX 27 37 28 38 29 39 79 40 30 41 84 42 78 43 80 44 31 45 83 46
REMARK SMILES IDX 77 47 76 48 32 50 64 51 44 52 63 53 45 54 48 55 62 56 81 57
REMARK SMILES IDX 46 58 47 59 61 61 82 62 49 63 33 64 34 65 42 66 35 67 41 68
REMARK SMILES IDX 43 69 40 70 36 71 37 72 38 73 39 74 65 75 66 76 74 77 67 78
REMARK SMILES IDX 73 79 75 80 72 81 68 82 69 83 70 84 71 85 50 86 51 87 59 88
REMARK SMILES IDX 52 89 58 90 60 91 57 92 53 93 54 94 55 95 56 96
REMARK H PARENT 14 7 10 10 21 30 80 49 48 60
REMARK Flexibility Score: inf
ROOT
ATOM      1  C   UNL A   1      32.621  29.066  26.527  1.00  0.00     0.002 C 
ENDROOT
BRANCH   1   2
ATOM      2  C   UNL A   1      31.809  27.965  27.202  1.00  0.00     0.021 C 
BRANCH   2   3
ATOM      3  C   UNL A   1      31.276  26.873  26.265  1.00  0.00     0.116 C 
BRANCH   3   4
ATOM      4  N   UNL A   1      31.400  25.565  26.881  1.00  0.00    -0.351 N 
ATOM      5  C   UNL A   1      31.160  24.318  26.385  1.00  0.00     0.275 C 
ATOM      6  O   UNL A   1      31.269  23.372  27.175  1.00  0.00    -0.269 OA
ATOM      7  H   UNL A   1      31.710  25.582  27.815  1.00  0.00     0.163 HD
BRANCH   5   8
ATOM      8  C   UNL A   1      30.811  24.068  24.909  1.00  0.00     0.364 C 
BRANCH   8   9
ATOM      9  N   UNL A   1      31.954  23.836  23.978  1.00  0.00    -0.321 N 
ATOM     10  H   UNL A   1      31.692  23.189  23.234  1.00  0.00     0.349 HD
BRANCH   9  11
ATOM     11  C   UNL A   1      33.032  23.109  24.659  1.00  0.00     0.305 C 
BRANCH  11  12
ATOM     12  C   UNL A   1      33.102  21.610  24.574  1.00  0.00     0.068 A 
ATOM     13  C   UNL A   1      33.958  20.830  25.349  1.00  0.00     0.221 A 
ATOM     14  N   UNL A   1      34.075  19.490  25.210  1.00  0.00    -0.222 NA
ATOM     15  C   UNL A   1      33.335  18.894  24.250  1.00  0.00     0.115 A 
ATOM     16  C   UNL A   1      32.368  20.947  23.575  1.00  0.00     0.017 A 
ATOM     17  C   UNL A   1      32.481  19.574  23.406  1.00  0.00     0.021 A 
BRANCH  13  18
ATOM     18  O   UNL A   1      34.914  21.382  26.158  1.00  0.00    -0.481 OA
ATOM     19  C   UNL A   1      36.199  21.430  25.554  1.00  0.00     0.280 C 
ENDBRANCH  13  18
ENDBRANCH  11  12
ENDBRANCH   9  11
BRANCH   9  20
ATOM     20  C   UNL A   1      32.273  25.011  23.152  1.00  0.00     0.184 C 
ATOM     21  C   UNL A   1      31.211  26.099  22.950  1.00  0.00     0.065 C 
ATOM     22  C   UNL A   1      33.539  25.780  23.585  1.00  0.00     0.065 C 
ATOM     23  C   UNL A   1      32.009  27.283  22.429  1.00  0.00     0.006 C 
ATOM     24  C   UNL A   1      33.296  27.249  23.237  1.00  0.00     0.006 C 
ENDBRANCH   9  20
ENDBRANCH   8   9
ENDBRANCH   5   8
ENDBRANCH   3   4
ENDBRANCH   2   3
ENDBRANCH   1   2
BRANCH   1  25
ATOM     25  C   UNL A   1      31.788  30.166  25.869  1.00  0.00     0.002 C 
BRANCH  25  26
ATOM     26  C   UNL A   1      31.607  31.443  26.697  1.00  0.00     0.021 C 
BRANCH  26  27
ATOM     27  C   UNL A   1      32.902  32.134  27.122  1.00  0.00     0.116 C 
BRANCH  27  28
ATOM     28  N   UNL A   1      32.691  33.538  27.434  1.00  0.00    -0.352 N 
ATOM     29  C   UNL A   1      33.234  34.294  28.439  1.00  0.00     0.251 C 
ATOM     30  H   UNL A   1      32.068  34.013  26.838  1.00  0.00     0.163 HD
ATOM     31  O   UNL A   1      32.743  35.396  28.705  1.00  0.00    -0.269 OA
BRANCH  29  32
ATOM     32  C   UNL A   1      34.388  33.790  29.209  1.00  0.00     0.039 A 
ATOM     33  C   UNL A   1      34.172  32.897  30.261  1.00  0.00     0.014 A 
ATOM     34  C   UNL A   1      35.686  34.215  28.904  1.00  0.00     0.014 A 
ATOM     35  C   UNL A   1      35.261  32.383  30.969  1.00  0.00     0.010 A 
ATOM     36  C   UNL A   1      36.773  33.651  29.567  1.00  0.00     0.010 A 
ATOM     37  C   UNL A   1      36.573  32.732  30.608  1.00  0.00    -0.014 A 
BRANCH  37  38
ATOM     38  C   UNL A   1      37.748  32.153  31.311  1.00  0.00     0.031 A 
ATOM     39  C   UNL A   1      38.529  31.036  30.675  1.00  0.00     0.074 A 
ATOM     40  C   UNL A   1      38.067  32.585  32.547  1.00  0.00     0.049 A 
ATOM     41  N   UNL A   1      39.521  30.335  31.162  1.00  0.00    -0.248 NA
ATOM     42  C   UNL A   1      38.119  30.636  29.320  1.00  0.00     0.031 C 
ATOM     43  C   UNL A   1      37.361  33.638  33.281  1.00  0.00     0.029 A 
ATOM     44  N   UNL A   1      39.055  32.185  33.411  1.00  0.00    -0.354 N 
ATOM     45  C   UNL A   1      39.843  29.400  30.183  1.00  0.00     0.074 A 
ATOM     46  C   UNL A   1      38.902  29.590  29.099  1.00  0.00     0.031 C 
ATOM     47  C   UNL A   1      37.949  33.810  34.477  1.00  0.00     0.029 A 
ATOM     48  C   UNL A   1      39.041  32.851  34.616  1.00  0.00     0.049 A 
ATOM     49  H   UNL A   1      39.714  31.487  33.190  1.00  0.00     0.167 HD
ATOM     50  C   UNL A   1      40.842  28.483  30.182  1.00  0.00     0.034 A 
ATOM     51  C   UNL A   1      39.806  32.695  35.714  1.00  0.00     0.034 A 
ATOM     52  C   UNL A   1      41.778  28.318  31.267  1.00  0.00     0.049 A 
ATOM     53  C   UNL A   1      40.897  31.654  35.700  1.00  0.00     0.074 A 
ATOM     54  C   UNL A   1      42.865  27.464  31.345  1.00  0.00     0.029 A 
ATOM     55  N   UNL A   1      41.737  29.015  32.469  1.00  0.00    -0.354 N 
ATOM     56  N   UNL A   1      41.221  30.810  34.745  1.00  0.00    -0.248 NA
ATOM     57  C   UNL A   1      41.730  31.549  36.903  1.00  0.00     0.031 C 
ATOM     58  C   UNL A   1      43.435  27.592  32.618  1.00  0.00     0.029 A 
ATOM     59  C   UNL A   1      42.756  28.585  33.305  1.00  0.00     0.049 A 
ATOM     60  H   UNL A   1      41.078  29.712  32.693  1.00  0.00     0.167 HD
ATOM     61  C   UNL A   1      42.317  30.098  35.225  1.00  0.00     0.074 A 
ATOM     62  C   UNL A   1      42.605  30.619  36.545  1.00  0.00     0.031 C 
ATOM     63  C   UNL A   1      43.025  29.108  34.625  1.00  0.00     0.034 A 
BRANCH  50  64
ATOM     64  C   UNL A   1      40.950  27.571  28.982  1.00  0.00     0.023 A 
ATOM     65  C   UNL A   1      41.957  27.737  28.015  1.00  0.00     0.031 A 
ATOM     66  C   UNL A   1      40.019  26.534  28.789  1.00  0.00     0.131 A 
ATOM     67  C   UNL A   1      41.964  26.934  26.864  1.00  0.00     0.055 A 
ATOM     68  C   UNL A   1      40.082  25.683  27.684  1.00  0.00     0.041 A 
ATOM     69  F   UNL A   1      39.024  26.338  29.667  1.00  0.00    -0.206 F 
ATOM     70  C   UNL A   1      41.050  25.890  26.705  1.00  0.00     0.022 A 
BRANCH  67  71
ATOM     71  S   UNL A   1      43.093  27.366  25.512  1.00  0.00     0.124 S 
ATOM     72  O   UNL A   1      44.128  28.115  26.221  1.00  0.00    -0.237 OA
ATOM     73  O   UNL A   1      43.488  26.059  25.001  1.00  0.00    -0.237 OA
ATOM     74  O   UNL A   1      42.262  28.164  24.613  1.00  0.00    -0.744 OA
ENDBRANCH  67  71
ENDBRANCH  50  64
BRANCH  51  75
ATOM     75  C   UNL A   1      39.565  33.528  36.928  1.00  0.00     0.023 A 
ATOM     76  C   UNL A   1      38.868  33.013  38.032  1.00  0.00     0.031 A 
ATOM     77  C   UNL A   1      39.996  34.865  36.985  1.00  0.00     0.131 A 
ATOM     78  C   UNL A   1      38.583  33.843  39.129  1.00  0.00     0.055 A 
ATOM     79  C   UNL A   1      39.756  35.671  38.101  1.00  0.00     0.041 A 
ATOM     80  F   UNL A   1      40.672  35.406  35.959  1.00  0.00    -0.206 F 
ATOM     81  C   UNL A   1      39.034  35.163  39.175  1.00  0.00     0.022 A 
BRANCH  78  82
ATOM     82  S   UNL A   1      37.539  33.191  40.462  1.00  0.00     0.124 S 
ATOM     83  O   UNL A   1      36.332  32.815  39.736  1.00  0.00    -0.237 OA
ATOM     84  O   UNL A   1      38.352  32.093  40.972  1.00  0.00    -0.237 OA
ATOM     85  O   UNL A   1      37.395  34.331  41.367  1.00  0.00    -0.744 OA
ENDBRANCH  78  82
ENDBRANCH  51  75
BRANCH  63  86
ATOM     86  C   UNL A   1      44.212  28.559  35.379  1.00  0.00     0.023 A 
ATOM     87  C   UNL A   1      44.080  27.525  36.321  1.00  0.00     0.031 A 
ATOM     88  C   UNL A   1      45.497  29.085  35.149  1.00  0.00     0.131 A 
ATOM     89  C   UNL A   1      45.205  27.084  37.036  1.00  0.00     0.055 A 
ATOM     90  C   UNL A   1      46.621  28.601  35.819  1.00  0.00     0.041 A 
ATOM     91  F   UNL A   1      45.681  30.076  34.261  1.00  0.00    -0.206 F 
ATOM     92  C   UNL A   1      46.477  27.603  36.778  1.00  0.00     0.022 A 
BRANCH  89  93
ATOM     93  S   UNL A   1      44.972  25.881  38.373  1.00  0.00     0.124 S 
ATOM     94  O   UNL A   1      44.663  24.662  37.634  1.00  0.00    -0.237 OA
ATOM     95  O   UNL A   1      46.267  25.907  39.047  1.00  0.00    -0.237 OA
ATOM     96  O   UNL A   1      43.862  26.436  39.146  1.00  0.00    -0.744 OA
ENDBRANCH  89  93
ENDBRANCH  63  86
ENDBRANCH  37  38
ENDBRANCH  29  32
ENDBRANCH  27  28
ENDBRANCH  26  27
ENDBRANCH  25  26
ENDBRANCH   1  25
TORSDOF 21
ENDMDL
MODEL 2
REMARK VINA RESULT:     -10.9      4.940      8.089
REMARK SMILES COc1ncccc1C[N@@H+](CC(=O)NCCCCCCNC(=O)c1ccc(-c2c3nc(c(-c4cc(S(=O)(=O)[O-])ccc4F)c4ccc([nH]4)c(-c4cc(S(=O)(=O)[O-])ccc4F)c4nc(c(-c5cc(S(=O)(=O)[O-])ccc5F)c5ccc2[nH]5)C=C4)C=C3)cc1)C1CCCC1
REMARK SMILES IDX 17 1 16 2 15 3 14 4 12 5 13 6 11 8 10 9 9 11 8 12 3 13 4 14
REMARK SMILES IDX 5 15 7 16 6 17 2 18 1 19 87 20 88 21 91 22 89 23 90 24 18 25
REMARK SMILES IDX 19 26 20 27 21 28 22 29 23 31 24 32 25 33 86 34 26 35 85 36
REMARK SMILES IDX 27 37 28 38 29 39 79 40 30 41 84 42 78 43 80 44 31 45 83 46
REMARK SMILES IDX 77 47 76 48 32 50 64 51 44 52 63 53 45 54 48 55 62 56 81 57
REMARK SMILES IDX 46 58 47 59 61 61 82 62 49 63 33 64 34 65 42 66 35 67 41 68
REMARK SMILES IDX 43 69 40 70 36 71 37 72 38 73 39 74 65 75 66 76 74 77 67 78
REMARK SMILES IDX 73 79 75 80 72 81 68 82 69 83 70 84 71 85 50 86 51 87 59 88
REMARK SMILES IDX 52 89 58 90 60 91 57 92 53 93 54 94 55 95 56 96
REMARK H PARENT 14 7 10 10 21 30 80 49 48 60
REMARK Flexibility Score: inf
ROOT
ATOM      1  C   UNL A   1      34.544  23.752  24.707  1.00  0.00     0.002 C 
ENDROOT
BRANCH   1   2
ATOM      2  C   UNL A   1      34.036  25.175  24.500  1.00  0.00     0.021 C 
BRANCH   2   3
ATOM      3  C   UNL A   1      33.913  25.621  23.037  1.00  0.00     0.116 C 
BRANCH   3   4
ATOM      4  N   UNL A   1      33.772  27.063  22.953  1.00  0.00    -0.351 N 
ATOM      5  C   UNL A   1      32.711  27.837  22.582  1.00  0.00     0.275 C 
ATOM      6  O   UNL A   1      32.904  29.057  22.521  1.00  0.00    -0.269 OA
ATOM      7  H   UNL A   1      34.578  27.568  23.206  1.00  0.00     0.163 HD
BRANCH   5   8
ATOM      8  C   UNL A   1      31.321  27.249  22.293  1.00  0.00     0.364 C 
BRANCH   8   9
ATOM      9  N   UNL A   1      30.235  27.581  23.262  1.00  0.00    -0.321 N 
ATOM     10  H   UNL A   1      30.621  27.985  24.116  1.00  0.00     0.349 HD
BRANCH   9  11
ATOM     11  C   UNL A   1      29.595  26.357  23.757  1.00  0.00     0.305 C 
BRANCH  11  12
ATOM     12  C   UNL A   1      30.225  25.574  24.874  1.00  0.00     0.068 A 
ATOM     13  C   UNL A   1      30.808  26.159  25.996  1.00  0.00     0.221 A 
ATOM     14  N   UNL A   1      31.446  25.454  26.958  1.00  0.00    -0.222 NA
ATOM     15  C   UNL A   1      31.535  24.116  26.797  1.00  0.00     0.115 A 
ATOM     16  C   UNL A   1      30.361  24.181  24.741  1.00  0.00     0.017 A 
ATOM     17  C   UNL A   1      31.021  23.438  25.709  1.00  0.00     0.021 A 
BRANCH  13  18
ATOM     18  O   UNL A   1      30.982  27.512  26.105  1.00  0.00    -0.481 OA
ATOM     19  C   UNL A   1      31.625  27.899  27.312  1.00  0.00     0.280 C 
ENDBRANCH  13  18
ENDBRANCH  11  12
ENDBRANCH   9  11
BRANCH   9  20
ATOM     20  C   UNL A   1      29.405  28.717  22.832  1.00  0.00     0.184 C 
ATOM     21  C   UNL A   1      27.886  28.658  23.030  1.00  0.00     0.065 C 
ATOM     22  C   UNL A   1      29.820  30.081  23.424  1.00  0.00     0.065 C 
ATOM     23  C   UNL A   1      27.448  30.104  22.868  1.00  0.00     0.006 C 
ATOM     24  C   UNL A   1      28.538  30.903  23.563  1.00  0.00     0.006 C 
ENDBRANCH   9  20
ENDBRANCH   8   9
ENDBRANCH   5   8
ENDBRANCH   3   4
ENDBRANCH   2   3
ENDBRANCH   1   2
BRANCH   1  25
ATOM     25  C   UNL A   1      35.242  23.136  23.495  1.00  0.00     0.002 C 
BRANCH  25  26
ATOM     26  C   UNL A   1      36.700  22.715  23.715  1.00  0.00     0.021 C 
BRANCH  26  27
ATOM     27  C   UNL A   1      37.369  23.306  24.954  1.00  0.00     0.116 C 
BRANCH  27  28
ATOM     28  N   UNL A   1      38.279  22.361  25.581  1.00  0.00    -0.352 N 
ATOM     29  C   UNL A   1      39.425  22.601  26.292  1.00  0.00     0.251 C 
ATOM     30  H   UNL A   1      38.036  21.412  25.481  1.00  0.00     0.163 HD
ATOM     31  O   UNL A   1      40.203  21.671  26.527  1.00  0.00    -0.269 OA
BRANCH  29  32
ATOM     32  C   UNL A   1      39.737  23.966  26.761  1.00  0.00     0.039 A 
ATOM     33  C   UNL A   1      39.481  24.307  28.091  1.00  0.00     0.014 A 
ATOM     34  C   UNL A   1      40.267  24.917  25.882  1.00  0.00     0.014 A 
ATOM     35  C   UNL A   1      39.810  25.583  28.556  1.00  0.00     0.010 A 
ATOM     36  C   UNL A   1      40.656  26.164  26.363  1.00  0.00     0.010 A 
ATOM     37  C   UNL A   1      40.429  26.512  27.703  1.00  0.00    -0.014 A 
BRANCH  37  38
ATOM     38  C   UNL A   1      40.839  27.855  28.191  1.00  0.00     0.031 A 
ATOM     39  C   UNL A   1      42.299  28.188  28.337  1.00  0.00     0.074 A 
ATOM     40  C   UNL A   1      39.900  28.745  28.568  1.00  0.00     0.049 A 
ATOM     41  N   UNL A   1      42.860  29.261  28.832  1.00  0.00    -0.248 NA
ATOM     42  C   UNL A   1      43.255  27.162  27.892  1.00  0.00     0.031 C 
ATOM     43  C   UNL A   1      38.454  28.523  28.506  1.00  0.00     0.029 A 
ATOM     44  N   UNL A   1      40.018  30.010  29.089  1.00  0.00    -0.354 N 
ATOM     45  C   UNL A   1      44.231  29.035  28.776  1.00  0.00     0.074 A 
ATOM     46  C   UNL A   1      44.412  27.698  28.249  1.00  0.00     0.031 C 
ATOM     47  C   UNL A   1      37.821  29.619  28.956  1.00  0.00     0.029 A 
ATOM     48  C   UNL A   1      38.812  30.602  29.384  1.00  0.00     0.049 A 
ATOM     49  H   UNL A   1      40.886  30.452  29.239  1.00  0.00     0.167 HD
ATOM     50  C   UNL A   1      45.244  29.872  29.113  1.00  0.00     0.034 A 
ATOM     51  C   UNL A   1      38.534  31.794  29.950  1.00  0.00     0.034 A 
ATOM     52  C   UNL A   1      45.044  31.206  29.625  1.00  0.00     0.049 A 
ATOM     53  C   UNL A   1      39.676  32.699  30.338  1.00  0.00     0.074 A 
ATOM     54  C   UNL A   1      45.996  32.160  29.941  1.00  0.00     0.029 A 
ATOM     55  N   UNL A   1      43.807  31.775  29.904  1.00  0.00    -0.354 N 
ATOM     56  N   UNL A   1      40.969  32.490  30.232  1.00  0.00    -0.248 NA
ATOM     57  C   UNL A   1      39.323  34.002  30.914  1.00  0.00     0.031 C 
ATOM     58  C   UNL A   1      45.340  33.275  30.476  1.00  0.00     0.029 A 
ATOM     59  C   UNL A   1      43.974  33.051  30.419  1.00  0.00     0.049 A 
ATOM     60  H   UNL A   1      42.938  31.335  29.757  1.00  0.00     0.167 HD
ATOM     61  C   UNL A   1      41.580  33.650  30.698  1.00  0.00     0.074 A 
ATOM     62  C   UNL A   1      40.516  34.558  31.073  1.00  0.00     0.031 C 
ATOM     63  C   UNL A   1      42.902  33.942  30.800  1.00  0.00     0.034 A 
BRANCH  50  64
ATOM     64  C   UNL A   1      46.656  29.352  28.967  1.00  0.00     0.023 A 
ATOM     65  C   UNL A   1      47.257  29.190  27.707  1.00  0.00     0.031 A 
ATOM     66  C   UNL A   1      47.404  28.993  30.103  1.00  0.00     0.131 A 
ATOM     67  C   UNL A   1      48.532  28.611  27.606  1.00  0.00     0.055 A 
ATOM     68  C   UNL A   1      48.705  28.498  30.001  1.00  0.00     0.041 A 
ATOM     69  F   UNL A   1      46.878  29.107  31.331  1.00  0.00    -0.206 F 
ATOM     70  C   UNL A   1      49.271  28.289  28.747  1.00  0.00     0.022 A 
BRANCH  67  71
ATOM     71  S   UNL A   1      49.149  28.152  25.964  1.00  0.00     0.124 S 
ATOM     72  O   UNL A   1      47.988  28.435  25.124  1.00  0.00    -0.237 OA
ATOM     73  O   UNL A   1      50.291  29.043  25.796  1.00  0.00    -0.237 OA
ATOM     74  O   UNL A   1      49.477  26.736  26.105  1.00  0.00    -0.744 OA
ENDBRANCH  67  71
ENDBRANCH  50  64
BRANCH  51  75
ATOM     75  C   UNL A   1      37.121  32.199  30.202  1.00  0.00     0.023 A 
ATOM     76  C   UNL A   1      36.375  32.873  29.223  1.00  0.00     0.031 A 
ATOM     77  C   UNL A   1      36.508  31.950  31.443  1.00  0.00     0.131 A 
ATOM     78  C   UNL A   1      35.075  33.316  29.515  1.00  0.00     0.055 A 
ATOM     79  C   UNL A   1      35.195  32.345  31.710  1.00  0.00     0.041 A 
ATOM     80  F   UNL A   1      37.174  31.303  32.413  1.00  0.00    -0.206 F 
ATOM     81  C   UNL A   1      34.476  33.044  30.747  1.00  0.00     0.022 A 
BRANCH  78  82
ATOM     82  S   UNL A   1      34.205  34.327  28.285  1.00  0.00     0.124 S 
ATOM     83  O   UNL A   1      33.961  35.555  29.030  1.00  0.00    -0.237 OA
ATOM     84  O   UNL A   1      35.190  34.410  27.212  1.00  0.00    -0.237 OA
ATOM     85  O   UNL A   1      33.016  33.535  27.975  1.00  0.00    -0.744 OA
ENDBRANCH  78  82
ENDBRANCH  51  75
BRANCH  63  86
ATOM     86  C   UNL A   1      43.265  35.321  31.294  1.00  0.00     0.023 A 
ATOM     87  C   UNL A   1      43.314  35.629  32.665  1.00  0.00     0.031 A 
ATOM     88  C   UNL A   1      43.564  36.343  30.375  1.00  0.00     0.131 A 
ATOM     89  C   UNL A   1      43.605  36.939  33.076  1.00  0.00     0.055 A 
ATOM     90  C   UNL A   1      43.911  37.629  30.792  1.00  0.00     0.041 A 
ATOM     91  F   UNL A   1      43.530  36.106  29.054  1.00  0.00    -0.206 F 
ATOM     92  C   UNL A   1      43.921  37.936  32.149  1.00  0.00     0.022 A 
BRANCH  89  93
ATOM     93  S   UNL A   1      43.480  37.348  34.839  1.00  0.00     0.124 S 
ATOM     94  O   UNL A   1      42.059  37.145  35.098  1.00  0.00    -0.237 OA
ATOM     95  O   UNL A   1      44.384  36.379  35.449  1.00  0.00    -0.237 OA
ATOM     96  O   UNL A   1      43.929  38.738  34.902  1.00  0.00    -0.744 OA
ENDBRANCH  89  93
ENDBRANCH  63  86
ENDBRANCH  37  38
ENDBRANCH  29  32
ENDBRANCH  27  28
ENDBRANCH  26  27
ENDBRANCH  25  26
ENDBRANCH   1  25
TORSDOF 21
ENDMDL
MODEL 3
REMARK VINA RESULT:     -10.8      5.885     11.108
REMARK SMILES COc1ncccc1C[N@@H+](CC(=O)NCCCCCCNC(=O)c1ccc(-c2c3nc(c(-c4cc(S(=O)(=O)[O-])ccc4F)c4ccc([nH]4)c(-c4cc(S(=O)(=O)[O-])ccc4F)c4nc(c(-c5cc(S(=O)(=O)[O-])ccc5F)c5ccc2[nH]5)C=C4)C=C3)cc1)C1CCCC1
REMARK SMILES IDX 17 1 16 2 15 3 14 4 12 5 13 6 11 8 10 9 9 11 8 12 3 13 4 14
REMARK SMILES IDX 5 15 7 16 6 17 2 18 1 19 87 20 88 21 91 22 89 23 90 24 18 25
REMARK SMILES IDX 19 26 20 27 21 28 22 29 23 31 24 32 25 33 86 34 26 35 85 36
REMARK SMILES IDX 27 37 28 38 29 39 79 40 30 41 84 42 78 43 80 44 31 45 83 46
REMARK SMILES IDX 77 47 76 48 32 50 64 51 44 52 63 53 45 54 48 55 62 56 81 57
REMARK SMILES IDX 46 58 47 59 61 61 82 62 49 63 33 64 34 65 42 66 35 67 41 68
REMARK SMILES IDX 43 69 40 70 36 71 37 72 38 73 39 74 65 75 66 76 74 77 67 78
REMARK SMILES IDX 73 79 75 80 72 81 68 82 69 83 70 84 71 85 50 86 51 87 59 88
REMARK SMILES IDX 52 89 58 90 60 91 57 92 53 93 54 94 55 95 56 96
REMARK H PARENT 14 7 10 10 21 30 80 49 48 60
REMARK Flexibility Score: inf
ROOT
ATOM      1  C   UNL A   1      34.631  19.635  24.850  1.00  0.00     0.002 C 
ENDROOT
BRANCH   1   2
ATOM      2  C   UNL A   1      33.425  20.285  25.521  1.00  0.00     0.021 C 
BRANCH   2   3
ATOM      3  C   UNL A   1      33.756  21.315  26.609  1.00  0.00     0.116 C 
BRANCH   3   4
ATOM      4  N   UNL A   1      32.540  21.895  27.150  1.00  0.00    -0.351 N 
ATOM      5  C   UNL A   1      31.865  23.031  26.812  1.00  0.00     0.275 C 
ATOM      6  O   UNL A   1      30.890  23.330  27.511  1.00  0.00    -0.269 OA
ATOM      7  H   UNL A   1      32.135  21.382  27.885  1.00  0.00     0.163 HD
BRANCH   5   8
ATOM      8  C   UNL A   1      32.251  23.892  25.598  1.00  0.00     0.364 C 
BRANCH   8   9
ATOM      9  N   UNL A   1      33.329  24.903  25.807  1.00  0.00    -0.321 N 
ATOM     10  H   UNL A   1      33.795  24.759  26.703  1.00  0.00     0.349 HD
BRANCH   9  11
ATOM     11  C   UNL A   1      32.752  26.244  25.967  1.00  0.00     0.305 C 
BRANCH  11  12
ATOM     12  C   UNL A   1      32.733  27.199  24.808  1.00  0.00     0.068 A 
ATOM     13  C   UNL A   1      31.815  27.130  23.762  1.00  0.00     0.221 A 
ATOM     14  N   UNL A   1      31.853  27.942  22.682  1.00  0.00    -0.222 NA
ATOM     15  C   UNL A   1      32.852  28.847  22.615  1.00  0.00     0.115 A 
ATOM     16  C   UNL A   1      33.766  28.145  24.684  1.00  0.00     0.017 A 
ATOM     17  C   UNL A   1      33.832  28.981  23.579  1.00  0.00     0.021 A 
BRANCH  13  18
ATOM     18  O   UNL A   1      30.936  26.088  23.633  1.00  0.00    -0.481 OA
ATOM     19  C   UNL A   1      29.593  26.448  23.928  1.00  0.00     0.280 C 
ENDBRANCH  13  18
ENDBRANCH  11  12
ENDBRANCH   9  11
BRANCH   9  20
ATOM     20  C   UNL A   1      34.485  24.706  24.918  1.00  0.00     0.184 C 
ATOM     21  C   UNL A   1      35.769  24.084  25.480  1.00  0.00     0.065 C 
ATOM     22  C   UNL A   1      34.186  23.891  23.642  1.00  0.00     0.065 C 
ATOM     23  C   UNL A   1      36.539  23.670  24.236  1.00  0.00     0.006 C 
ATOM     24  C   UNL A   1      35.469  23.133  23.299  1.00  0.00     0.006 C 
ENDBRANCH   9  20
ENDBRANCH   8   9
ENDBRANCH   5   8
ENDBRANCH   3   4
ENDBRANCH   2   3
ENDBRANCH   1   2
BRANCH   1  25
ATOM     25  C   UNL A   1      35.954  20.374  25.051  1.00  0.00     0.002 C 
BRANCH  25  26
ATOM     26  C   UNL A   1      37.210  19.495  25.046  1.00  0.00     0.021 C 
BRANCH  26  27
ATOM     27  C   UNL A   1      38.503  20.203  25.445  1.00  0.00     0.116 C 
BRANCH  27  28
ATOM     28  N   UNL A   1      39.549  19.260  25.804  1.00  0.00    -0.352 N 
ATOM     29  C   UNL A   1      40.848  19.502  26.167  1.00  0.00     0.251 C 
ATOM     30  H   UNL A   1      39.287  18.311  25.784  1.00  0.00     0.163 HD
ATOM     31  O   UNL A   1      41.659  18.570  26.186  1.00  0.00    -0.269 OA
BRANCH  29  32
ATOM     32  C   UNL A   1      41.280  20.870  26.519  1.00  0.00     0.039 A 
ATOM     33  C   UNL A   1      42.030  21.072  27.679  1.00  0.00     0.014 A 
ATOM     34  C   UNL A   1      40.928  21.956  25.711  1.00  0.00     0.014 A 
ATOM     35  C   UNL A   1      42.479  22.356  27.999  1.00  0.00     0.010 A 
ATOM     36  C   UNL A   1      41.432  23.223  25.996  1.00  0.00     0.010 A 
ATOM     37  C   UNL A   1      42.209  23.438  27.144  1.00  0.00    -0.014 A 
BRANCH  37  38
ATOM     38  C   UNL A   1      42.724  24.802  27.436  1.00  0.00     0.031 A 
ATOM     39  C   UNL A   1      41.825  25.824  28.077  1.00  0.00     0.074 A 
ATOM     40  C   UNL A   1      43.974  25.138  27.061  1.00  0.00     0.049 A 
ATOM     41  N   UNL A   1      42.051  27.088  28.324  1.00  0.00    -0.248 NA
ATOM     42  C   UNL A   1      40.482  25.367  28.463  1.00  0.00     0.031 C 
ATOM     43  C   UNL A   1      44.927  24.243  26.400  1.00  0.00     0.029 A 
ATOM     44  N   UNL A   1      44.655  26.325  27.168  1.00  0.00    -0.354 N 
ATOM     45  C   UNL A   1      40.876  27.584  28.879  1.00  0.00     0.074 A 
ATOM     46  C   UNL A   1      39.922  26.494  28.877  1.00  0.00     0.031 C 
ATOM     47  C   UNL A   1      46.072  24.908  26.175  1.00  0.00     0.029 A 
ATOM     48  C   UNL A   1      45.921  26.287  26.630  1.00  0.00     0.049 A 
ATOM     49  H   UNL A   1      44.274  27.129  27.590  1.00  0.00     0.167 HD
ATOM     50  C   UNL A   1      40.623  28.826  29.361  1.00  0.00     0.034 A 
ATOM     51  C   UNL A   1      46.850  27.256  26.502  1.00  0.00     0.034 A 
ATOM     52  C   UNL A   1      41.590  29.896  29.365  1.00  0.00     0.049 A 
ATOM     53  C   UNL A   1      46.539  28.636  27.024  1.00  0.00     0.074 A 
ATOM     54  C   UNL A   1      41.462  31.173  29.883  1.00  0.00     0.029 A 
ATOM     55  N   UNL A   1      42.866  29.819  28.817  1.00  0.00    -0.354 N 
ATOM     56  N   UNL A   1      45.438  29.075  27.592  1.00  0.00    -0.248 NA
ATOM     57  C   UNL A   1      47.595  29.647  26.898  1.00  0.00     0.031 C 
ATOM     58  C   UNL A   1      42.628  31.887  29.586  1.00  0.00     0.029 A 
ATOM     59  C   UNL A   1      43.519  31.034  28.955  1.00  0.00     0.049 A 
ATOM     60  H   UNL A   1      43.249  29.017  28.393  1.00  0.00     0.167 HD
ATOM     61  C   UNL A   1      45.686  30.406  27.919  1.00  0.00     0.074 A 
ATOM     62  C   UNL A   1      47.041  30.692  27.496  1.00  0.00     0.031 C 
ATOM     63  C   UNL A   1      44.869  31.308  28.520  1.00  0.00     0.034 A 
BRANCH  50  64
ATOM     64  C   UNL A   1      39.235  29.097  29.894  1.00  0.00     0.023 A 
ATOM     65  C   UNL A   1      38.277  29.797  29.141  1.00  0.00     0.031 A 
ATOM     66  C   UNL A   1      38.871  28.668  31.184  1.00  0.00     0.131 A 
ATOM     67  C   UNL A   1      37.033  30.116  29.709  1.00  0.00     0.055 A 
ATOM     68  C   UNL A   1      37.602  28.914  31.711  1.00  0.00     0.041 A 
ATOM     69  F   UNL A   1      39.748  28.013  31.958  1.00  0.00    -0.206 F 
ATOM     70  C   UNL A   1      36.680  29.656  30.979  1.00  0.00     0.022 A 
BRANCH  67  71
ATOM     71  S   UNL A   1      35.943  31.262  28.821  1.00  0.00     0.124 S 
ATOM     72  O   UNL A   1      36.863  32.349  28.494  1.00  0.00    -0.237 OA
ATOM     73  O   UNL A   1      35.484  30.455  27.698  1.00  0.00    -0.237 OA
ATOM     74  O   UNL A   1      34.921  31.597  29.809  1.00  0.00    -0.744 OA
ENDBRANCH  67  71
ENDBRANCH  50  64
BRANCH  51  75
ATOM     75  C   UNL A   1      48.154  26.969  25.837  1.00  0.00     0.023 A 
ATOM     76  C   UNL A   1      49.247  26.480  26.569  1.00  0.00     0.031 A 
ATOM     77  C   UNL A   1      48.337  27.216  24.465  1.00  0.00     0.131 A 
ATOM     78  C   UNL A   1      50.487  26.295  25.936  1.00  0.00     0.055 A 
ATOM     79  C   UNL A   1      49.557  26.981  23.828  1.00  0.00     0.041 A 
ATOM     80  F   UNL A   1      47.322  27.678  23.716  1.00  0.00    -0.206 F 
ATOM     81  C   UNL A   1      50.645  26.530  24.569  1.00  0.00     0.022 A 
BRANCH  78  82
ATOM     82  S   UNL A   1      51.916  25.821  26.948  1.00  0.00     0.124 S 
ATOM     83  O   UNL A   1      52.492  24.739  26.159  1.00  0.00    -0.237 OA
ATOM     84  O   UNL A   1      52.681  27.063  26.991  1.00  0.00    -0.237 OA
ATOM     85  O   UNL A   1      51.314  25.418  28.217  1.00  0.00    -0.744 OA
ENDBRANCH  78  82
ENDBRANCH  51  75
BRANCH  63  86
ATOM     86  C   UNL A   1      45.443  32.676  28.798  1.00  0.00     0.023 A 
ATOM     87  C   UNL A   1      45.282  33.746  27.901  1.00  0.00     0.031 A 
ATOM     88  C   UNL A   1      46.164  32.909  29.984  1.00  0.00     0.131 A 
ATOM     89  C   UNL A   1      45.879  34.985  28.178  1.00  0.00     0.055 A 
ATOM     90  C   UNL A   1      46.704  34.160  30.282  1.00  0.00     0.041 A 
ATOM     91  F   UNL A   1      46.350  31.922  30.876  1.00  0.00    -0.206 F 
ATOM     92  C   UNL A   1      46.574  35.204  29.371  1.00  0.00     0.022 A 
BRANCH  89  93
ATOM     93  S   UNL A   1      45.811  36.287  26.917  1.00  0.00     0.124 S 
ATOM     94  O   UNL A   1      46.409  35.625  25.764  1.00  0.00    -0.237 OA
ATOM     95  O   UNL A   1      44.380  36.558  26.825  1.00  0.00    -0.237 OA
ATOM     96  O   UNL A   1      46.609  37.367  27.496  1.00  0.00    -0.744 OA
ENDBRANCH  89  93
ENDBRANCH  63  86
ENDBRANCH  37  38
ENDBRANCH  29  32
ENDBRANCH  27  28
ENDBRANCH  26  27
ENDBRANCH  25  26
ENDBRANCH   1  25
TORSDOF 21
ENDMDL
