MODEL 1
REMARK VINA RESULT:     -12.4      0.000      0.000
REMARK SMILES Cc1nn(CC(=O)NCCCCCCNC(=O)c2ccc(-c3c4nc(c(-c5cc(S(=O)(=O)[O-])ccc5F)c5ccc([nH]5)c(-c5cc(S(=O)(=O)[O-])ccc5F)c5nc(c(-c6cc(S(=O)(=O)[O-])ccc6F)c6ccc3[nH]6)C=C5)C=C4)cc2)c(C)c1NC(=O)C(=O)Nc1ccc(F)cc1
REMARK SMILES IDX 11 1 10 2 9 3 8 4 6 5 7 6 5 8 4 9 1 10 2 11 3 12 83 13 81 14
REMARK SMILES IDX 82 15 84 16 85 17 86 19 87 20 88 21 89 22 90 24 91 25 96 26
REMARK SMILES IDX 92 27 95 28 93 29 94 30 12 31 13 32 14 33 15 34 16 35 17 37
REMARK SMILES IDX 18 38 19 39 80 40 20 41 79 42 21 43 22 44 23 45 73 46 24 47
REMARK SMILES IDX 78 48 72 49 74 50 25 51 77 52 71 53 70 54 26 56 58 57 38 58
REMARK SMILES IDX 57 59 39 60 42 61 56 62 75 63 40 64 41 65 55 67 76 68 43 69
REMARK SMILES IDX 27 70 28 71 36 72 29 73 35 74 37 75 34 76 30 77 31 78 32 79
REMARK SMILES IDX 33 80 59 81 60 82 68 83 61 84 67 85 69 86 66 87 62 88 63 89
REMARK SMILES IDX 64 90 65 91 44 92 45 93 53 94 46 95 52 96 54 97 51 98 47 99
REMARK SMILES IDX 48 100 49 101 50 102
REMARK H PARENT 8 7 84 18 89 23 15 36 74 55 42 66
REMARK Flexibility Score: inf
ROOT
ATOM      1  C   UNL A   1      35.471  21.012  25.463  1.00  0.00     0.002 C 
ENDROOT
BRANCH   1   2
ATOM      2  C   UNL A   1      34.374  20.145  24.840  1.00  0.00     0.021 C 
BRANCH   2   3
ATOM      3  C   UNL A   1      33.046  20.218  25.585  1.00  0.00     0.116 C 
BRANCH   3   4
ATOM      4  N   UNL A   1      33.143  20.964  26.821  1.00  0.00    -0.354 N 
ATOM      5  C   UNL A   1      32.647  22.174  27.199  1.00  0.00     0.241 C 
ATOM      6  O   UNL A   1      32.920  22.526  28.356  1.00  0.00    -0.273 OA
ATOM      7  H   UNL A   1      33.666  20.510  27.520  1.00  0.00     0.163 HD
BRANCH   5   8
ATOM      8  C   UNL A   1      31.662  22.991  26.389  1.00  0.00     0.244 C 
BRANCH   8   9
ATOM      9  N   UNL A   1      32.010  24.379  26.142  1.00  0.00    -0.258 N 
ATOM     10  C   UNL A   1      31.291  27.748  26.899  1.00  0.00     0.071 C 
ATOM     11  C   UNL A   1      31.833  26.472  26.358  1.00  0.00     0.083 A 
ATOM     12  N   UNL A   1      31.349  25.322  26.825  1.00  0.00    -0.175 NA
ATOM     13  C   UNL A   1      32.818  26.270  25.338  1.00  0.00     0.086 A 
ATOM     14  C   UNL A   1      32.899  24.890  25.209  1.00  0.00     0.060 A 
ATOM     15  C   UNL A   1      33.749  23.970  24.402  1.00  0.00     0.069 C 
BRANCH  13  16
ATOM     16  N   UNL A   1      33.482  27.329  24.732  1.00  0.00    -0.315 N 
ATOM     17  C   UNL A   1      33.776  27.678  23.438  1.00  0.00     0.314 C 
ATOM     18  H   UNL A   1      33.821  27.983  25.385  1.00  0.00     0.170 HD
ATOM     19  O   UNL A   1      34.418  28.700  23.209  1.00  0.00    -0.263 OA
BRANCH  17  20
ATOM     20  C   UNL A   1      33.217  26.884  22.277  1.00  0.00     0.314 C 
ATOM     21  O   UNL A   1      33.849  25.923  21.843  1.00  0.00    -0.263 OA
ATOM     22  N   UNL A   1      32.011  27.238  21.686  1.00  0.00    -0.318 N 
ATOM     23  H   UNL A   1      31.995  27.419  20.718  1.00  0.00     0.170 HD
BRANCH  22  24
ATOM     24  C   UNL A   1      30.812  27.352  22.413  1.00  0.00     0.041 A 
ATOM     25  C   UNL A   1      30.160  28.590  22.321  1.00  0.00     0.029 A 
ATOM     26  C   UNL A   1      30.232  26.311  23.136  1.00  0.00     0.029 A 
ATOM     27  C   UNL A   1      28.884  28.750  22.851  1.00  0.00     0.041 A 
ATOM     28  C   UNL A   1      28.957  26.482  23.686  1.00  0.00     0.041 A 
ATOM     29  C   UNL A   1      28.287  27.689  23.516  1.00  0.00     0.123 A 
ATOM     30  F   UNL A   1      27.043  27.833  23.991  1.00  0.00    -0.207 F 
ENDBRANCH  22  24
ENDBRANCH  17  20
ENDBRANCH  13  16
ENDBRANCH   8   9
ENDBRANCH   5   8
ENDBRANCH   3   4
ENDBRANCH   2   3
ENDBRANCH   1   2
BRANCH   1  31
ATOM     31  C   UNL A   1      36.770  21.135  24.647  1.00  0.00     0.002 C 
BRANCH  31  32
ATOM     32  C   UNL A   1      37.795  20.001  24.804  1.00  0.00     0.021 C 
BRANCH  32  33
ATOM     33  C   UNL A   1      38.904  20.314  25.793  1.00  0.00     0.116 C 
BRANCH  33  34
ATOM     34  N   UNL A   1      39.950  19.283  25.814  1.00  0.00    -0.352 N 
ATOM     35  C   UNL A   1      41.318  19.457  25.927  1.00  0.00     0.251 C 
ATOM     36  H   UNL A   1      39.639  18.353  25.740  1.00  0.00     0.163 HD
ATOM     37  O   UNL A   1      42.096  18.576  25.562  1.00  0.00    -0.269 OA
BRANCH  35  38
ATOM     38  C   UNL A   1      41.813  20.716  26.504  1.00  0.00     0.039 A 
ATOM     39  C   UNL A   1      42.362  21.753  25.743  1.00  0.00     0.014 A 
ATOM     40  C   UNL A   1      41.651  20.854  27.876  1.00  0.00     0.014 A 
ATOM     41  C   UNL A   1      42.676  22.953  26.384  1.00  0.00     0.010 A 
ATOM     42  C   UNL A   1      41.705  22.094  28.434  1.00  0.00     0.010 A 
ATOM     43  C   UNL A   1      42.333  23.111  27.735  1.00  0.00    -0.014 A 
BRANCH  43  44
ATOM     44  C   UNL A   1      42.561  24.340  28.481  1.00  0.00     0.031 A 
ATOM     45  C   UNL A   1      41.498  25.367  28.331  1.00  0.00     0.074 A 
ATOM     46  C   UNL A   1      43.501  24.401  29.455  1.00  0.00     0.049 A 
ATOM     47  N   UNL A   1      41.590  26.526  27.772  1.00  0.00    -0.248 NA
ATOM     48  C   UNL A   1      40.122  25.005  28.710  1.00  0.00     0.031 C 
ATOM     49  C   UNL A   1      44.389  23.334  29.946  1.00  0.00     0.029 A 
ATOM     50  N   UNL A   1      43.773  25.413  30.314  1.00  0.00    -0.354 N 
ATOM     51  C   UNL A   1      40.349  27.137  27.936  1.00  0.00     0.074 A 
ATOM     52  C   UNL A   1      39.445  26.086  28.316  1.00  0.00     0.031 C 
ATOM     53  C   UNL A   1      44.897  23.678  31.151  1.00  0.00     0.029 A 
ATOM     54  C   UNL A   1      44.533  25.055  31.426  1.00  0.00     0.049 A 
ATOM     55  H   UNL A   1      43.458  26.333  30.164  1.00  0.00     0.167 HD
ATOM     56  C   UNL A   1      40.228  28.495  27.964  1.00  0.00     0.034 A 
ATOM     57  C   UNL A   1      44.820  25.832  32.506  1.00  0.00     0.034 A 
ATOM     58  C   UNL A   1      41.442  29.123  27.489  1.00  0.00     0.049 A 
ATOM     59  C   UNL A   1      44.615  27.237  32.063  1.00  0.00     0.074 A 
ATOM     60  C   UNL A   1      42.137  29.097  26.295  1.00  0.00     0.029 A 
ATOM     61  N   UNL A   1      42.345  29.574  28.429  1.00  0.00    -0.354 N 
ATOM     62  N   UNL A   1      45.327  27.797  31.121  1.00  0.00    -0.248 NA
ATOM     63  C   UNL A   1      43.301  27.827  32.276  1.00  0.00     0.031 C 
ATOM     64  C   UNL A   1      43.510  29.012  26.677  1.00  0.00     0.029 A 
ATOM     65  C   UNL A   1      43.583  29.094  28.071  1.00  0.00     0.049 A 
ATOM     66  H   UNL A   1      42.141  30.137  29.211  1.00  0.00     0.167 HD
ATOM     67  C   UNL A   1      44.416  28.505  30.349  1.00  0.00     0.074 A 
ATOM     68  C   UNL A   1      43.197  28.554  31.158  1.00  0.00     0.031 C 
ATOM     69  C   UNL A   1      44.626  28.729  29.016  1.00  0.00     0.034 A 
BRANCH  56  70
ATOM     70  C   UNL A   1      39.175  29.274  28.722  1.00  0.00     0.023 A 
ATOM     71  C   UNL A   1      39.287  29.308  30.127  1.00  0.00     0.031 A 
ATOM     72  C   UNL A   1      37.952  29.748  28.196  1.00  0.00     0.131 A 
ATOM     73  C   UNL A   1      38.201  29.692  30.934  1.00  0.00     0.055 A 
ATOM     74  C   UNL A   1      36.898  30.192  29.002  1.00  0.00     0.041 A 
ATOM     75  F   UNL A   1      37.665  29.724  26.891  1.00  0.00    -0.206 F 
ATOM     76  C   UNL A   1      37.006  30.135  30.380  1.00  0.00     0.022 A 
BRANCH  73  77
ATOM     77  S   UNL A   1      38.322  29.427  32.722  1.00  0.00     0.124 S 
ATOM     78  O   UNL A   1      37.831  30.697  33.245  1.00  0.00    -0.237 OA
ATOM     79  O   UNL A   1      37.453  28.272  32.914  1.00  0.00    -0.237 OA
ATOM     80  O   UNL A   1      39.747  29.176  32.932  1.00  0.00    -0.744 OA
ENDBRANCH  73  77
ENDBRANCH  56  70
BRANCH  57  81
ATOM     81  C   UNL A   1      44.863  25.401  33.936  1.00  0.00     0.023 A 
ATOM     82  C   UNL A   1      45.706  25.990  34.904  1.00  0.00     0.031 A 
ATOM     83  C   UNL A   1      43.866  24.521  34.421  1.00  0.00     0.131 A 
ATOM     84  C   UNL A   1      45.534  25.690  36.281  1.00  0.00     0.055 A 
ATOM     85  C   UNL A   1      43.702  24.231  35.778  1.00  0.00     0.041 A 
ATOM     86  F   UNL A   1      42.958  23.976  33.596  1.00  0.00    -0.206 F 
ATOM     87  C   UNL A   1      44.531  24.823  36.716  1.00  0.00     0.022 A 
BRANCH  84  88
ATOM     88  S   UNL A   1      46.576  26.490  37.550  1.00  0.00     0.124 S 
ATOM     89  O   UNL A   1      45.785  27.662  37.906  1.00  0.00    -0.237 OA
ATOM     90  O   UNL A   1      46.688  25.448  38.564  1.00  0.00    -0.237 OA
ATOM     91  O   UNL A   1      47.820  26.783  36.835  1.00  0.00    -0.744 OA
ENDBRANCH  84  88
ENDBRANCH  57  81
BRANCH  69  92
ATOM     92  C   UNL A   1      45.986  28.392  28.424  1.00  0.00     0.023 A 
ATOM     93  C   UNL A   1      46.336  27.156  27.828  1.00  0.00     0.031 A 
ATOM     94  C   UNL A   1      46.915  29.443  28.327  1.00  0.00     0.131 A 
ATOM     95  C   UNL A   1      47.578  27.016  27.168  1.00  0.00     0.055 A 
ATOM     96  C   UNL A   1      48.129  29.308  27.655  1.00  0.00     0.041 A 
ATOM     97  F   UNL A   1      46.631  30.648  28.850  1.00  0.00    -0.206 F 
ATOM     98  C   UNL A   1      48.466  28.092  27.075  1.00  0.00     0.022 A 
BRANCH  95  99
ATOM     99  S   UNL A   1      48.071  25.425  26.420  1.00  0.00     0.124 S 
ATOM    100  O   UNL A   1      49.031  25.816  25.394  1.00  0.00    -0.237 OA
ATOM    101  O   UNL A   1      48.614  24.690  27.559  1.00  0.00    -0.237 OA
ATOM    102  O   UNL A   1      46.811  24.889  25.898  1.00  0.00    -0.744 OA
ENDBRANCH  95  99
ENDBRANCH  69  92
ENDBRANCH  43  44
ENDBRANCH  35  38
ENDBRANCH  33  34
ENDBRANCH  32  33
ENDBRANCH  31  32
ENDBRANCH   1  31
TORSDOF 20
ENDMDL
MODEL 2
REMARK VINA RESULT:     -11.7      5.064     10.605
REMARK SMILES Cc1nn(CC(=O)NCCCCCCNC(=O)c2ccc(-c3c4nc(c(-c5cc(S(=O)(=O)[O-])ccc5F)c5ccc([nH]5)c(-c5cc(S(=O)(=O)[O-])ccc5F)c5nc(c(-c6cc(S(=O)(=O)[O-])ccc6F)c6ccc3[nH]6)C=C5)C=C4)cc2)c(C)c1NC(=O)C(=O)Nc1ccc(F)cc1
REMARK SMILES IDX 11 1 10 2 9 3 8 4 6 5 7 6 5 8 4 9 1 10 2 11 3 12 83 13 81 14
REMARK SMILES IDX 82 15 84 16 85 17 86 19 87 20 88 21 89 22 90 24 91 25 96 26
REMARK SMILES IDX 92 27 95 28 93 29 94 30 12 31 13 32 14 33 15 34 16 35 17 37
REMARK SMILES IDX 18 38 19 39 80 40 20 41 79 42 21 43 22 44 23 45 73 46 24 47
REMARK SMILES IDX 78 48 72 49 74 50 25 51 77 52 71 53 70 54 26 56 58 57 38 58
REMARK SMILES IDX 57 59 39 60 42 61 56 62 75 63 40 64 41 65 55 67 76 68 43 69
REMARK SMILES IDX 27 70 28 71 36 72 29 73 35 74 37 75 34 76 30 77 31 78 32 79
REMARK SMILES IDX 33 80 59 81 60 82 68 83 61 84 67 85 69 86 66 87 62 88 63 89
REMARK SMILES IDX 64 90 65 91 44 92 45 93 53 94 46 95 52 96 54 97 51 98 47 99
REMARK SMILES IDX 48 100 49 101 50 102
REMARK H PARENT 8 7 84 18 89 23 15 36 74 55 42 66
REMARK Flexibility Score: inf
ROOT
ATOM      1  C   UNL A   1      38.887  30.904  31.534  1.00  0.00     0.002 C 
ENDROOT
BRANCH   1   2
ATOM      2  C   UNL A   1      40.223  30.993  32.276  1.00  0.00     0.021 C 
BRANCH   2   3
ATOM      3  C   UNL A   1      41.002  32.268  31.970  1.00  0.00     0.116 C 
BRANCH   3   4
ATOM      4  N   UNL A   1      41.568  32.870  33.158  1.00  0.00    -0.354 N 
ATOM      5  C   UNL A   1      41.288  34.030  33.815  1.00  0.00     0.241 C 
ATOM      6  O   UNL A   1      41.975  34.250  34.824  1.00  0.00    -0.273 OA
ATOM      7  H   UNL A   1      42.290  32.342  33.568  1.00  0.00     0.163 HD
BRANCH   5   8
ATOM      8  C   UNL A   1      40.110  34.930  33.509  1.00  0.00     0.244 C 
BRANCH   8   9
ATOM      9  N   UNL A   1      38.796  34.439  33.883  1.00  0.00    -0.258 N 
ATOM     10  C   UNL A   1      36.717  33.395  36.535  1.00  0.00     0.071 C 
ATOM     11  C   UNL A   1      37.311  33.749  35.217  1.00  0.00     0.083 A 
ATOM     12  N   UNL A   1      38.547  34.245  35.184  1.00  0.00    -0.175 NA
ATOM     13  C   UNL A   1      36.752  33.604  33.906  1.00  0.00     0.086 A 
ATOM     14  C   UNL A   1      37.755  34.050  33.055  1.00  0.00     0.060 A 
ATOM     15  C   UNL A   1      37.855  34.247  31.582  1.00  0.00     0.069 C 
BRANCH  13  16
ATOM     16  N   UNL A   1      35.460  33.138  33.702  1.00  0.00    -0.315 N 
ATOM     17  C   UNL A   1      34.236  33.725  33.499  1.00  0.00     0.314 C 
ATOM     18  H   UNL A   1      35.411  32.155  33.701  1.00  0.00     0.170 HD
ATOM     19  O   UNL A   1      33.235  33.026  33.365  1.00  0.00    -0.263 OA
BRANCH  17  20
ATOM     20  C   UNL A   1      34.118  35.224  33.318  1.00  0.00     0.314 C 
ATOM     21  O   UNL A   1      34.667  35.973  34.123  1.00  0.00    -0.263 OA
ATOM     22  N   UNL A   1      33.384  35.759  32.268  1.00  0.00    -0.318 N 
ATOM     23  H   UNL A   1      32.653  36.386  32.474  1.00  0.00     0.170 HD
BRANCH  22  24
ATOM     24  C   UNL A   1      33.638  35.440  30.921  1.00  0.00     0.041 A 
ATOM     25  C   UNL A   1      33.203  36.384  29.981  1.00  0.00     0.029 A 
ATOM     26  C   UNL A   1      34.333  34.307  30.503  1.00  0.00     0.029 A 
ATOM     27  C   UNL A   1      33.562  36.255  28.642  1.00  0.00     0.041 A 
ATOM     28  C   UNL A   1      34.674  34.169  29.152  1.00  0.00     0.041 A 
ATOM     29  C   UNL A   1      34.308  35.155  28.242  1.00  0.00     0.123 A 
ATOM     30  F   UNL A   1      34.685  35.054  26.961  1.00  0.00    -0.207 F 
ENDBRANCH  22  24
ENDBRANCH  17  20
ENDBRANCH  13  16
ENDBRANCH   8   9
ENDBRANCH   5   8
ENDBRANCH   3   4
ENDBRANCH   2   3
ENDBRANCH   1   2
BRANCH   1  31
ATOM     31  C   UNL A   1      37.704  30.357  32.353  1.00  0.00     0.002 C 
BRANCH  31  32
ATOM     32  C   UNL A   1      36.314  30.447  31.703  1.00  0.00     0.021 C 
BRANCH  32  33
ATOM     33  C   UNL A   1      36.325  31.082  30.324  1.00  0.00     0.116 C 
BRANCH  33  34
ATOM     34  N   UNL A   1      35.695  30.232  29.305  1.00  0.00    -0.352 N 
ATOM     35  C   UNL A   1      36.311  29.449  28.344  1.00  0.00     0.251 C 
ATOM     36  H   UNL A   1      34.711  30.217  29.307  1.00  0.00     0.163 HD
ATOM     37  O   UNL A   1      35.700  29.093  27.337  1.00  0.00    -0.269 OA
BRANCH  35  38
ATOM     38  C   UNL A   1      37.708  29.048  28.568  1.00  0.00     0.039 A 
ATOM     39  C   UNL A   1      38.092  28.062  29.481  1.00  0.00     0.014 A 
ATOM     40  C   UNL A   1      38.650  29.671  27.761  1.00  0.00     0.014 A 
ATOM     41  C   UNL A   1      39.433  27.671  29.513  1.00  0.00     0.010 A 
ATOM     42  C   UNL A   1      39.879  29.107  27.609  1.00  0.00     0.010 A 
ATOM     43  C   UNL A   1      40.317  28.201  28.561  1.00  0.00    -0.014 A 
BRANCH  43  44
ATOM     44  C   UNL A   1      41.718  27.817  28.468  1.00  0.00     0.031 A 
ATOM     45  C   UNL A   1      41.971  26.554  27.727  1.00  0.00     0.074 A 
ATOM     46  C   UNL A   1      42.703  28.698  28.766  1.00  0.00     0.049 A 
ATOM     47  N   UNL A   1      42.431  25.443  28.190  1.00  0.00    -0.248 NA
ATOM     48  C   UNL A   1      41.513  26.464  26.330  1.00  0.00     0.031 C 
ATOM     49  C   UNL A   1      42.587  30.106  29.178  1.00  0.00     0.029 A 
ATOM     50  N   UNL A   1      44.044  28.552  28.633  1.00  0.00    -0.354 N 
ATOM     51  C   UNL A   1      42.544  24.583  27.100  1.00  0.00     0.074 A 
ATOM     52  C   UNL A   1      41.772  25.186  26.048  1.00  0.00     0.031 C 
ATOM     53  C   UNL A   1      43.773  30.733  29.011  1.00  0.00     0.029 A 
ATOM     54  C   UNL A   1      44.774  29.739  28.671  1.00  0.00     0.049 A 
ATOM     55  H   UNL A   1      44.472  27.673  28.519  1.00  0.00     0.167 HD
ATOM     56  C   UNL A   1      43.452  23.565  27.095  1.00  0.00     0.034 A 
ATOM     57  C   UNL A   1      46.102  29.892  28.417  1.00  0.00     0.034 A 
ATOM     58  C   UNL A   1      43.975  23.343  28.425  1.00  0.00     0.049 A 
ATOM     59  C   UNL A   1      46.707  28.545  28.589  1.00  0.00     0.074 A 
ATOM     60  C   UNL A   1      43.412  22.984  29.635  1.00  0.00     0.029 A 
ATOM     61  N   UNL A   1      45.193  23.907  28.741  1.00  0.00    -0.354 N 
ATOM     62  N   UNL A   1      46.715  27.908  29.730  1.00  0.00    -0.248 NA
ATOM     63  C   UNL A   1      46.814  27.697  27.409  1.00  0.00     0.031 C 
ATOM     64  C   UNL A   1      44.057  23.820  30.596  1.00  0.00     0.029 A 
ATOM     65  C   UNL A   1      45.043  24.563  29.940  1.00  0.00     0.049 A 
ATOM     66  H   UNL A   1      46.019  23.849  28.207  1.00  0.00     0.167 HD
ATOM     67  C   UNL A   1      46.396  26.594  29.416  1.00  0.00     0.074 A 
ATOM     68  C   UNL A   1      46.550  26.508  27.962  1.00  0.00     0.031 C 
ATOM     69  C   UNL A   1      45.752  25.778  30.306  1.00  0.00     0.034 A 
BRANCH  56  70
ATOM     70  C   UNL A   1      44.129  22.990  25.869  1.00  0.00     0.023 A 
ATOM     71  C   UNL A   1      43.962  21.610  25.631  1.00  0.00     0.031 A 
ATOM     72  C   UNL A   1      45.119  23.628  25.089  1.00  0.00     0.131 A 
ATOM     73  C   UNL A   1      44.810  20.918  24.747  1.00  0.00     0.055 A 
ATOM     74  C   UNL A   1      45.915  22.946  24.163  1.00  0.00     0.041 A 
ATOM     75  F   UNL A   1      45.442  24.917  25.239  1.00  0.00    -0.206 F 
ATOM     76  C   UNL A   1      45.787  21.578  24.011  1.00  0.00     0.022 A 
BRANCH  73  77
ATOM     77  S   UNL A   1      44.728  19.108  24.719  1.00  0.00     0.124 S 
ATOM     78  O   UNL A   1      43.698  18.841  25.717  1.00  0.00    -0.237 OA
ATOM     79  O   UNL A   1      44.364  18.846  23.331  1.00  0.00    -0.237 OA
ATOM     80  O   UNL A   1      46.080  18.702  25.096  1.00  0.00    -0.744 OA
ENDBRANCH  73  77
ENDBRANCH  56  70
BRANCH  57  81
ATOM     81  C   UNL A   1      46.749  31.015  27.675  1.00  0.00     0.023 A 
ATOM     82  C   UNL A   1      46.027  32.050  27.040  1.00  0.00     0.031 A 
ATOM     83  C   UNL A   1      48.148  31.202  27.788  1.00  0.00     0.131 A 
ATOM     84  C   UNL A   1      46.702  33.199  26.552  1.00  0.00     0.055 A 
ATOM     85  C   UNL A   1      48.806  32.336  27.307  1.00  0.00     0.041 A 
ATOM     86  F   UNL A   1      48.914  30.321  28.450  1.00  0.00    -0.206 F 
ATOM     87  C   UNL A   1      48.083  33.346  26.694  1.00  0.00     0.022 A 
BRANCH  84  88
ATOM     88  S   UNL A   1      45.776  34.573  25.783  1.00  0.00     0.124 S 
ATOM     89  O   UNL A   1      44.792  34.895  26.809  1.00  0.00    -0.237 OA
ATOM     90  O   UNL A   1      46.822  35.563  25.551  1.00  0.00    -0.237 OA
ATOM     91  O   UNL A   1      45.222  33.973  24.568  1.00  0.00    -0.744 OA
ENDBRANCH  84  88
ENDBRANCH  57  81
BRANCH  69  92
ATOM     92  C   UNL A   1      45.588  26.251  31.742  1.00  0.00     0.023 A 
ATOM     93  C   UNL A   1      44.435  26.880  32.270  1.00  0.00     0.031 A 
ATOM     94  C   UNL A   1      46.603  25.895  32.648  1.00  0.00     0.131 A 
ATOM     95  C   UNL A   1      44.336  27.128  33.658  1.00  0.00     0.055 A 
ATOM     96  C   UNL A   1      46.493  26.121  34.019  1.00  0.00     0.041 A 
ATOM     97  F   UNL A   1      47.711  25.272  32.213  1.00  0.00    -0.206 F 
ATOM     98  C   UNL A   1      45.359  26.740  34.529  1.00  0.00     0.022 A 
BRANCH  95  99
ATOM     99  S   UNL A   1      42.877  27.968  34.362  1.00  0.00     0.124 S 
ATOM    100  O   UNL A   1      43.411  29.242  34.830  1.00  0.00    -0.237 OA
ATOM    101  O   UNL A   1      41.966  28.036  33.223  1.00  0.00    -0.237 OA
ATOM    102  O   UNL A   1      42.445  27.063  35.430  1.00  0.00    -0.744 OA
ENDBRANCH  95  99
ENDBRANCH  69  92
ENDBRANCH  43  44
ENDBRANCH  35  38
ENDBRANCH  33  34
ENDBRANCH  32  33
ENDBRANCH  31  32
ENDBRANCH   1  31
TORSDOF 20
ENDMDL
MODEL 3
REMARK VINA RESULT:     -11.7      3.220      7.114
REMARK SMILES Cc1nn(CC(=O)NCCCCCCNC(=O)c2ccc(-c3c4nc(c(-c5cc(S(=O)(=O)[O-])ccc5F)c5ccc([nH]5)c(-c5cc(S(=O)(=O)[O-])ccc5F)c5nc(c(-c6cc(S(=O)(=O)[O-])ccc6F)c6ccc3[nH]6)C=C5)C=C4)cc2)c(C)c1NC(=O)C(=O)Nc1ccc(F)cc1
REMARK SMILES IDX 11 1 10 2 9 3 8 4 6 5 7 6 5 8 4 9 1 10 2 11 3 12 83 13 81 14
REMARK SMILES IDX 82 15 84 16 85 17 86 19 87 20 88 21 89 22 90 24 91 25 96 26
REMARK SMILES IDX 92 27 95 28 93 29 94 30 12 31 13 32 14 33 15 34 16 35 17 37
REMARK SMILES IDX 18 38 19 39 80 40 20 41 79 42 21 43 22 44 23 45 73 46 24 47
REMARK SMILES IDX 78 48 72 49 74 50 25 51 77 52 71 53 70 54 26 56 58 57 38 58
REMARK SMILES IDX 57 59 39 60 42 61 56 62 75 63 40 64 41 65 55 67 76 68 43 69
REMARK SMILES IDX 27 70 28 71 36 72 29 73 35 74 37 75 34 76 30 77 31 78 32 79
REMARK SMILES IDX 33 80 59 81 60 82 68 83 61 84 67 85 69 86 66 87 62 88 63 89
REMARK SMILES IDX 64 90 65 91 44 92 45 93 53 94 46 95 52 96 54 97 51 98 47 99
REMARK SMILES IDX 48 100 49 101 50 102
REMARK H PARENT 8 7 84 18 89 23 15 36 74 55 42 66
REMARK Flexibility Score: inf
ROOT
ATOM      1  C   UNL A   1      40.284  22.411  26.655  1.00  0.00     0.002 C 
ENDROOT
BRANCH   1   2
ATOM      2  C   UNL A   1      39.417  23.658  26.847  1.00  0.00     0.021 C 
BRANCH   2   3
ATOM      3  C   UNL A   1      38.099  23.605  26.082  1.00  0.00     0.116 C 
BRANCH   3   4
ATOM      4  N   UNL A   1      37.903  22.344  25.401  1.00  0.00    -0.354 N 
ATOM      5  C   UNL A   1      36.845  21.488  25.351  1.00  0.00     0.241 C 
ATOM      6  O   UNL A   1      37.011  20.473  24.658  1.00  0.00    -0.273 OA
ATOM      7  H   UNL A   1      38.681  22.049  24.874  1.00  0.00     0.163 HD
BRANCH   5   8
ATOM      8  C   UNL A   1      35.471  21.785  25.913  1.00  0.00     0.244 C 
BRANCH   8   9
ATOM      9  N   UNL A   1      34.492  22.334  24.992  1.00  0.00    -0.258 N 
ATOM     10  C   UNL A   1      32.104  21.611  22.499  1.00  0.00     0.071 C 
ATOM     11  C   UNL A   1      33.021  22.254  23.479  1.00  0.00     0.083 A 
ATOM     12  N   UNL A   1      33.780  21.477  24.251  1.00  0.00    -0.175 NA
ATOM     13  C   UNL A   1      33.259  23.647  23.715  1.00  0.00     0.086 A 
ATOM     14  C   UNL A   1      34.237  23.665  24.700  1.00  0.00     0.060 A 
ATOM     15  C   UNL A   1      34.913  24.744  25.474  1.00  0.00     0.069 C 
BRANCH  13  16
ATOM     16  N   UNL A   1      32.554  24.640  23.047  1.00  0.00    -0.315 N 
ATOM     17  C   UNL A   1      31.462  25.419  23.337  1.00  0.00     0.314 C 
ATOM     18  H   UNL A   1      32.928  24.830  22.156  1.00  0.00     0.170 HD
ATOM     19  O   UNL A   1      31.046  26.224  22.509  1.00  0.00    -0.263 OA
BRANCH  17  20
ATOM     20  C   UNL A   1      30.833  25.385  24.714  1.00  0.00     0.314 C 
ATOM     21  O   UNL A   1      30.548  24.303  25.221  1.00  0.00    -0.263 OA
ATOM     22  N   UNL A   1      30.557  26.561  25.399  1.00  0.00    -0.318 N 
ATOM     23  H   UNL A   1      29.634  26.726  25.700  1.00  0.00     0.170 HD
BRANCH  22  24
ATOM     24  C   UNL A   1      31.541  27.527  25.681  1.00  0.00     0.041 A 
ATOM     25  C   UNL A   1      31.375  28.766  25.047  1.00  0.00     0.029 A 
ATOM     26  C   UNL A   1      32.591  27.337  26.577  1.00  0.00     0.029 A 
ATOM     27  C   UNL A   1      32.184  29.843  25.393  1.00  0.00     0.041 A 
ATOM     28  C   UNL A   1      33.417  28.416  26.908  1.00  0.00     0.041 A 
ATOM     29  C   UNL A   1      33.190  29.663  26.332  1.00  0.00     0.123 A 
ATOM     30  F   UNL A   1      33.942  30.711  26.693  1.00  0.00    -0.207 F 
ENDBRANCH  22  24
ENDBRANCH  17  20
ENDBRANCH  13  16
ENDBRANCH   8   9
ENDBRANCH   5   8
ENDBRANCH   3   4
ENDBRANCH   2   3
ENDBRANCH   1   2
BRANCH   1  31
ATOM     31  C   UNL A   1      41.172  22.024  27.850  1.00  0.00     0.002 C 
BRANCH  31  32
ATOM     32  C   UNL A   1      42.317  21.038  27.570  1.00  0.00     0.021 C 
BRANCH  32  33
ATOM     33  C   UNL A   1      42.368  20.556  26.130  1.00  0.00     0.116 C 
BRANCH  33  34
ATOM     34  N   UNL A   1      43.741  20.342  25.654  1.00  0.00    -0.352 N 
ATOM     35  C   UNL A   1      44.671  21.292  25.272  1.00  0.00     0.251 C 
ATOM     36  H   UNL A   1      44.036  19.405  25.601  1.00  0.00     0.163 HD
ATOM     37  O   UNL A   1      45.623  20.988  24.554  1.00  0.00    -0.269 OA
BRANCH  35  38
ATOM     38  C   UNL A   1      44.495  22.670  25.757  1.00  0.00     0.039 A 
ATOM     39  C   UNL A   1      43.581  23.573  25.205  1.00  0.00     0.014 A 
ATOM     40  C   UNL A   1      45.261  23.022  26.860  1.00  0.00     0.014 A 
ATOM     41  C   UNL A   1      43.408  24.809  25.831  1.00  0.00     0.010 A 
ATOM     42  C   UNL A   1      44.898  24.099  27.609  1.00  0.00     0.010 A 
ATOM     43  C   UNL A   1      44.072  25.055  27.043  1.00  0.00    -0.014 A 
BRANCH  43  44
ATOM     44  C   UNL A   1      43.915  26.284  27.807  1.00  0.00     0.031 A 
ATOM     45  C   UNL A   1      44.951  27.317  27.547  1.00  0.00     0.074 A 
ATOM     46  C   UNL A   1      42.757  26.559  28.455  1.00  0.00     0.049 A 
ATOM     47  N   UNL A   1      45.847  27.763  28.360  1.00  0.00    -0.248 NA
ATOM     48  C   UNL A   1      45.112  27.808  26.167  1.00  0.00     0.031 C 
ATOM     49  C   UNL A   1      41.516  25.770  28.499  1.00  0.00     0.029 A 
ATOM     50  N   UNL A   1      42.398  27.687  29.115  1.00  0.00    -0.354 N 
ATOM     51  C   UNL A   1      46.536  28.758  27.672  1.00  0.00     0.074 A 
ATOM     52  C   UNL A   1      46.190  28.587  26.288  1.00  0.00     0.031 C 
ATOM     53  C   UNL A   1      40.492  26.546  28.922  1.00  0.00     0.029 A 
ATOM     54  C   UNL A   1      41.033  27.819  29.360  1.00  0.00     0.049 A 
ATOM     55  H   UNL A   1      43.053  28.364  29.402  1.00  0.00     0.167 HD
ATOM     56  C   UNL A   1      47.154  29.777  28.336  1.00  0.00     0.034 A 
ATOM     57  C   UNL A   1      40.393  28.908  29.867  1.00  0.00     0.034 A 
ATOM     58  C   UNL A   1      47.254  29.477  29.748  1.00  0.00     0.049 A 
ATOM     59  C   UNL A   1      41.437  29.708  30.560  1.00  0.00     0.074 A 
ATOM     60  C   UNL A   1      47.868  28.478  30.480  1.00  0.00     0.029 A 
ATOM     61  N   UNL A   1      46.308  30.021  30.591  1.00  0.00    -0.354 N 
ATOM     62  N   UNL A   1      42.099  29.268  31.598  1.00  0.00    -0.248 NA
ATOM     63  C   UNL A   1      42.113  30.746  29.794  1.00  0.00     0.031 C 
ATOM     64  C   UNL A   1      46.918  28.132  31.487  1.00  0.00     0.029 A 
ATOM     65  C   UNL A   1      45.828  29.001  31.380  1.00  0.00     0.049 A 
ATOM     66  H   UNL A   1      46.029  30.964  30.624  1.00  0.00     0.167 HD
ATOM     67  C   UNL A   1      43.417  29.644  31.377  1.00  0.00     0.074 A 
ATOM     68  C   UNL A   1      43.349  30.624  30.291  1.00  0.00     0.031 C 
ATOM     69  C   UNL A   1      44.464  28.920  31.877  1.00  0.00     0.034 A 
BRANCH  56  70
ATOM     70  C   UNL A   1      47.366  31.179  27.805  1.00  0.00     0.023 A 
ATOM     71  C   UNL A   1      46.224  31.883  27.373  1.00  0.00     0.031 A 
ATOM     72  C   UNL A   1      48.608  31.755  27.453  1.00  0.00     0.131 A 
ATOM     73  C   UNL A   1      46.338  33.022  26.557  1.00  0.00     0.055 A 
ATOM     74  C   UNL A   1      48.715  32.927  26.697  1.00  0.00     0.041 A 
ATOM     75  F   UNL A   1      49.781  31.179  27.733  1.00  0.00    -0.206 F 
ATOM     76  C   UNL A   1      47.578  33.550  26.215  1.00  0.00     0.022 A 
BRANCH  73  77
ATOM     77  S   UNL A   1      44.834  33.694  25.802  1.00  0.00     0.124 S 
ATOM     78  O   UNL A   1      44.321  34.546  26.869  1.00  0.00    -0.237 OA
ATOM     79  O   UNL A   1      45.367  34.379  24.630  1.00  0.00    -0.237 OA
ATOM     80  O   UNL A   1      44.037  32.502  25.519  1.00  0.00    -0.744 OA
ENDBRANCH  73  77
ENDBRANCH  56  70
BRANCH  57  81
ATOM     81  C   UNL A   1      39.068  29.449  29.440  1.00  0.00     0.023 A 
ATOM     82  C   UNL A   1      38.207  30.172  30.296  1.00  0.00     0.031 A 
ATOM     83  C   UNL A   1      38.733  29.449  28.064  1.00  0.00     0.131 A 
ATOM     84  C   UNL A   1      37.076  30.848  29.769  1.00  0.00     0.055 A 
ATOM     85  C   UNL A   1      37.618  30.118  27.553  1.00  0.00     0.041 A 
ATOM     86  F   UNL A   1      39.531  28.867  27.156  1.00  0.00    -0.206 F 
ATOM     87  C   UNL A   1      36.789  30.829  28.403  1.00  0.00     0.022 A 
BRANCH  84  88
ATOM     88  S   UNL A   1      35.988  31.837  30.853  1.00  0.00     0.124 S 
ATOM     89  O   UNL A   1      36.768  33.053  31.048  1.00  0.00    -0.237 OA
ATOM     90  O   UNL A   1      34.777  31.962  30.050  1.00  0.00    -0.237 OA
ATOM     91  O   UNL A   1      35.845  31.001  32.047  1.00  0.00    -0.744 OA
ENDBRANCH  84  88
ENDBRANCH  57  81
BRANCH  69  92
ATOM     92  C   UNL A   1      44.175  27.815  32.880  1.00  0.00     0.023 A 
ATOM     93  C   UNL A   1      44.261  26.426  32.617  1.00  0.00     0.031 A 
ATOM     94  C   UNL A   1      43.954  28.208  34.212  1.00  0.00     0.131 A 
ATOM     95  C   UNL A   1      44.126  25.496  33.672  1.00  0.00     0.055 A 
ATOM     96  C   UNL A   1      43.844  27.288  35.254  1.00  0.00     0.041 A 
ATOM     97  F   UNL A   1      43.888  29.512  34.531  1.00  0.00    -0.206 F 
ATOM     98  C   UNL A   1      43.928  25.928  34.987  1.00  0.00     0.022 A 
BRANCH  95  99
ATOM     99  S   UNL A   1      44.199  23.699  33.357  1.00  0.00     0.124 S 
ATOM    100  O   UNL A   1      43.053  23.179  34.094  1.00  0.00    -0.237 OA
ATOM    101  O   UNL A   1      44.111  23.626  31.901  1.00  0.00    -0.237 OA
ATOM    102  O   UNL A   1      45.500  23.310  33.906  1.00  0.00    -0.744 OA
ENDBRANCH  95  99
ENDBRANCH  69  92
ENDBRANCH  43  44
ENDBRANCH  35  38
ENDBRANCH  33  34
ENDBRANCH  32  33
ENDBRANCH  31  32
ENDBRANCH   1  31
TORSDOF 20
ENDMDL
