MODEL 1
REMARK VINA RESULT:     -12.3      0.000      0.000
REMARK SMILES Nn1c(S[C@@H](C(=O)NCCCCCCNC(=O)c2ccc(-c3c4nc(c(-c5cc(S(=O)(=O)[O-])ccc5F)c5ccc([nH]5)c(-c5cc(S(=O)(=O)[O-])ccc5F)c5nc(c(-c6cc(S(=O)(=O)[O-])ccc6F)c6ccc3[nH]6)C=C5)C=C4)cc2)c2ccccc2)nc2ccc(Br)cc2c1=O
REMARK SMILES IDX 11 1 10 2 9 3 8 4 6 5 7 6 5 8 4 9 3 10 2 11 95 12 87 13
REMARK SMILES IDX 94 14 96 15 88 16 93 17 89 18 91 19 90 20 92 21 1 22 81 25
REMARK SMILES IDX 82 26 86 27 83 28 85 29 84 30 12 31 13 32 14 33 15 34 16 35
REMARK SMILES IDX 17 37 18 38 19 39 80 40 20 41 79 42 21 43 22 44 23 45 73 46
REMARK SMILES IDX 24 47 78 48 72 49 74 50 25 51 77 52 71 53 70 54 26 56 58 57
REMARK SMILES IDX 38 58 57 59 39 60 42 61 56 62 75 63 40 64 41 65 55 67 76 68
REMARK SMILES IDX 43 69 27 70 28 71 36 72 29 73 35 74 37 75 34 76 30 77 31 78
REMARK SMILES IDX 32 79 33 80 59 81 60 82 68 83 61 84 67 85 69 86 66 87 62 88
REMARK SMILES IDX 63 89 64 90 65 91 44 92 45 93 53 94 46 95 52 96 54 97 51 98
REMARK SMILES IDX 47 99 48 100 49 101 50 102
REMARK H PARENT 8 7 1 23 1 24 15 36 74 55 42 66
REMARK Flexibility Score: inf
ROOT
ATOM      1  C   UNL A   1      33.256  30.244  26.969  1.00  0.00     0.002 C 
ENDROOT
BRANCH   1   2
ATOM      2  C   UNL A   1      33.648  28.793  26.645  1.00  0.00     0.021 C 
BRANCH   2   3
ATOM      3  C   UNL A   1      32.566  27.967  25.937  1.00  0.00     0.116 C 
BRANCH   3   4
ATOM      4  N   UNL A   1      32.708  28.039  24.494  1.00  0.00    -0.355 N 
ATOM      5  C   UNL A   1      31.780  28.062  23.488  1.00  0.00     0.238 C 
ATOM      6  O   UNL A   1      32.267  27.946  22.357  1.00  0.00    -0.273 OA
ATOM      7  H   UNL A   1      33.641  28.078  24.182  1.00  0.00     0.163 HD
BRANCH   5   8
ATOM      8  C   UNL A   1      30.270  28.263  23.789  1.00  0.00     0.174 C 
BRANCH   8   9
ATOM      9  S   UNL A   1      29.362  26.704  23.593  1.00  0.00    -0.068 SA
BRANCH   9  10
ATOM     10  C   UNL A   1      30.153  25.321  24.300  1.00  0.00     0.191 A 
ATOM     11  N   UNL A   1      30.323  25.063  25.657  1.00  0.00    -0.202 N 
ATOM     12  C   UNL A   1      30.969  23.908  26.115  1.00  0.00     0.280 A 
ATOM     13  N   UNL A   1      30.575  24.500  23.387  1.00  0.00    -0.222 NA
ATOM     14  C   UNL A   1      31.462  22.986  25.085  1.00  0.00     0.069 A 
ATOM     15  O   UNL A   1      31.150  23.652  27.306  1.00  0.00    -0.267 OA
ATOM     16  C   UNL A   1      31.240  23.331  23.757  1.00  0.00     0.079 A 
ATOM     17  C   UNL A   1      32.144  21.814  25.431  1.00  0.00     0.031 A 
ATOM     18  C   UNL A   1      31.710  22.481  22.753  1.00  0.00     0.030 A 
ATOM     19  C   UNL A   1      32.610  20.981  24.418  1.00  0.00     0.018 A 
ATOM     20  C   UNL A   1      32.395  21.308  23.079  1.00  0.00     0.018 A 
ATOM     21  Br  UNL A   1      33.547  19.402  24.861  1.00  0.00    -0.051 Br
BRANCH  11  22
ATOM     22  N   UNL A   1      29.932  25.953  26.664  1.00  0.00    -0.334 N 
ATOM     23  H   UNL A   1      30.613  26.398  27.220  1.00  0.00     0.178 HD
ATOM     24  H   UNL A   1      28.976  26.135  26.818  1.00  0.00     0.178 HD
ENDBRANCH  11  22
ENDBRANCH   9  10
ENDBRANCH   8   9
BRANCH   8  25
ATOM     25  C   UNL A   1      29.535  29.507  23.259  1.00  0.00    -0.025 A 
ATOM     26  C   UNL A   1      28.817  29.518  22.050  1.00  0.00     0.005 A 
ATOM     27  C   UNL A   1      29.604  30.727  23.966  1.00  0.00     0.005 A 
ATOM     28  C   UNL A   1      28.112  30.651  21.629  1.00  0.00     0.000 A 
ATOM     29  C   UNL A   1      28.907  31.863  23.543  1.00  0.00     0.000 A 
ATOM     30  C   UNL A   1      28.146  31.819  22.382  1.00  0.00     0.000 A 
ENDBRANCH   8  25
ENDBRANCH   5   8
ENDBRANCH   3   4
ENDBRANCH   2   3
ENDBRANCH   1   2
BRANCH   1  31
ATOM     31  C   UNL A   1      31.774  30.590  26.807  1.00  0.00     0.002 C 
BRANCH  31  32
ATOM     32  C   UNL A   1      31.423  32.068  26.978  1.00  0.00     0.021 C 
BRANCH  32  33
ATOM     33  C   UNL A   1      32.578  33.039  26.766  1.00  0.00     0.116 C 
BRANCH  33  34
ATOM     34  N   UNL A   1      32.506  34.204  27.635  1.00  0.00    -0.352 N 
ATOM     35  C   UNL A   1      33.304  34.530  28.711  1.00  0.00     0.251 C 
ATOM     36  H   UNL A   1      31.790  34.847  27.425  1.00  0.00     0.163 HD
ATOM     37  O   UNL A   1      33.024  35.489  29.417  1.00  0.00    -0.269 OA
BRANCH  35  38
ATOM     38  C   UNL A   1      34.473  33.677  29.027  1.00  0.00     0.039 A 
ATOM     39  C   UNL A   1      34.302  32.420  29.612  1.00  0.00     0.014 A 
ATOM     40  C   UNL A   1      35.757  34.172  28.789  1.00  0.00     0.014 A 
ATOM     41  C   UNL A   1      35.405  31.739  30.119  1.00  0.00     0.010 A 
ATOM     42  C   UNL A   1      36.870  33.450  29.232  1.00  0.00     0.010 A 
ATOM     43  C   UNL A   1      36.700  32.256  29.952  1.00  0.00    -0.014 A 
BRANCH  43  44
ATOM     44  C   UNL A   1      37.864  31.566  30.571  1.00  0.00     0.031 A 
ATOM     45  C   UNL A   1      38.260  31.872  31.993  1.00  0.00     0.074 A 
ATOM     46  C   UNL A   1      38.537  30.632  29.869  1.00  0.00     0.049 A 
ATOM     47  N   UNL A   1      39.263  31.400  32.689  1.00  0.00    -0.248 NA
ATOM     48  C   UNL A   1      37.420  32.830  32.733  1.00  0.00     0.031 C 
ATOM     49  C   UNL A   1      38.219  30.224  28.501  1.00  0.00     0.029 A 
ATOM     50  N   UNL A   1      39.612  29.846  30.209  1.00  0.00    -0.354 N 
ATOM     51  C   UNL A   1      39.187  32.014  33.934  1.00  0.00     0.074 A 
ATOM     52  C   UNL A   1      38.057  32.914  33.893  1.00  0.00     0.031 C 
ATOM     53  C   UNL A   1      39.047  29.234  28.134  1.00  0.00     0.029 A 
ATOM     54  C   UNL A   1      40.004  28.985  29.209  1.00  0.00     0.049 A 
ATOM     55  H   UNL A   1      40.058  29.894  31.085  1.00  0.00     0.167 HD
ATOM     56  C   UNL A   1      39.982  31.832  35.016  1.00  0.00     0.034 A 
ATOM     57  C   UNL A   1      41.029  28.108  29.155  1.00  0.00     0.034 A 
ATOM     58  C   UNL A   1      41.087  30.910  35.053  1.00  0.00     0.049 A 
ATOM     59  C   UNL A   1      41.932  27.969  30.355  1.00  0.00     0.074 A 
ATOM     60  C   UNL A   1      41.949  30.655  36.104  1.00  0.00     0.029 A 
ATOM     61  N   UNL A   1      41.474  30.084  34.008  1.00  0.00    -0.354 N 
ATOM     62  N   UNL A   1      41.838  28.551  31.527  1.00  0.00    -0.248 NA
ATOM     63  C   UNL A   1      43.081  27.061  30.230  1.00  0.00     0.031 C 
ATOM     64  C   UNL A   1      42.886  29.713  35.681  1.00  0.00     0.029 A 
ATOM     65  C   UNL A   1      42.571  29.330  34.387  1.00  0.00     0.049 A 
ATOM     66  H   UNL A   1      41.034  30.040  33.129  1.00  0.00     0.167 HD
ATOM     67  C   UNL A   1      42.894  28.054  32.287  1.00  0.00     0.074 A 
ATOM     68  C   UNL A   1      43.604  27.113  31.448  1.00  0.00     0.031 C 
ATOM     69  C   UNL A   1      43.244  28.357  33.562  1.00  0.00     0.034 A 
BRANCH  56  70
ATOM     70  C   UNL A   1      39.700  32.616  36.273  1.00  0.00     0.023 A 
ATOM     71  C   UNL A   1      38.764  32.133  37.207  1.00  0.00     0.031 A 
ATOM     72  C   UNL A   1      40.226  33.906  36.461  1.00  0.00     0.131 A 
ATOM     73  C   UNL A   1      38.346  32.955  38.262  1.00  0.00     0.055 A 
ATOM     74  C   UNL A   1      39.835  34.706  37.536  1.00  0.00     0.041 A 
ATOM     75  F   UNL A   1      41.124  34.409  35.597  1.00  0.00    -0.206 F 
ATOM     76  C   UNL A   1      38.880  34.237  38.434  1.00  0.00     0.022 A 
BRANCH  73  77
ATOM     77  S   UNL A   1      37.050  32.420  39.411  1.00  0.00     0.124 S 
ATOM     78  O   UNL A   1      37.267  33.314  40.546  1.00  0.00    -0.237 OA
ATOM     79  O   UNL A   1      35.836  32.674  38.641  1.00  0.00    -0.237 OA
ATOM     80  O   UNL A   1      37.360  31.017  39.660  1.00  0.00    -0.744 OA
ENDBRANCH  73  77
ENDBRANCH  56  70
BRANCH  57  81
ATOM     81  C   UNL A   1      41.221  27.273  27.933  1.00  0.00     0.023 A 
ATOM     82  C   UNL A   1      40.877  25.908  27.919  1.00  0.00     0.031 A 
ATOM     83  C   UNL A   1      41.825  27.811  26.783  1.00  0.00     0.131 A 
ATOM     84  C   UNL A   1      41.195  25.118  26.807  1.00  0.00     0.055 A 
ATOM     85  C   UNL A   1      42.076  27.035  25.650  1.00  0.00     0.041 A 
ATOM     86  F   UNL A   1      42.182  29.103  26.749  1.00  0.00    -0.206 F 
ATOM     87  C   UNL A   1      41.776  25.676  25.665  1.00  0.00     0.022 A 
BRANCH  84  88
ATOM     88  S   UNL A   1      40.990  23.315  26.860  1.00  0.00     0.124 S 
ATOM     89  O   UNL A   1      41.366  23.008  28.235  1.00  0.00    -0.237 OA
ATOM     90  O   UNL A   1      39.571  23.163  26.543  1.00  0.00    -0.237 OA
ATOM     91  O   UNL A   1      41.907  22.836  25.830  1.00  0.00    -0.744 OA
ENDBRANCH  84  88
ENDBRANCH  57  81
BRANCH  69  92
ATOM     92  C   UNL A   1      44.426  27.655  34.182  1.00  0.00     0.023 A 
ATOM     93  C   UNL A   1      44.218  26.513  34.980  1.00  0.00     0.031 A 
ATOM     94  C   UNL A   1      45.714  28.215  34.140  1.00  0.00     0.131 A 
ATOM     95  C   UNL A   1      45.269  25.999  35.747  1.00  0.00     0.055 A 
ATOM     96  C   UNL A   1      46.771  27.670  34.871  1.00  0.00     0.041 A 
ATOM     97  F   UNL A   1      45.958  29.310  33.404  1.00  0.00    -0.206 F 
ATOM     98  C   UNL A   1      46.547  26.567  35.692  1.00  0.00     0.022 A 
BRANCH  95  99
ATOM     99  S   UNL A   1      44.996  24.639  36.915  1.00  0.00     0.124 S 
ATOM    100  O   UNL A   1      46.256  24.617  37.655  1.00  0.00    -0.237 OA
ATOM    101  O   UNL A   1      43.838  25.109  37.669  1.00  0.00    -0.237 OA
ATOM    102  O   UNL A   1      44.761  23.480  36.059  1.00  0.00    -0.744 OA
ENDBRANCH  95  99
ENDBRANCH  69  92
ENDBRANCH  43  44
ENDBRANCH  35  38
ENDBRANCH  33  34
ENDBRANCH  32  33
ENDBRANCH  31  32
ENDBRANCH   1  31
TORSDOF 20
ENDMDL
MODEL 2
REMARK VINA RESULT:     -12.3      1.713      2.069
REMARK SMILES Nn1c(S[C@@H](C(=O)NCCCCCCNC(=O)c2ccc(-c3c4nc(c(-c5cc(S(=O)(=O)[O-])ccc5F)c5ccc([nH]5)c(-c5cc(S(=O)(=O)[O-])ccc5F)c5nc(c(-c6cc(S(=O)(=O)[O-])ccc6F)c6ccc3[nH]6)C=C5)C=C4)cc2)c2ccccc2)nc2ccc(Br)cc2c1=O
REMARK SMILES IDX 11 1 10 2 9 3 8 4 6 5 7 6 5 8 4 9 3 10 2 11 95 12 87 13
REMARK SMILES IDX 94 14 96 15 88 16 93 17 89 18 91 19 90 20 92 21 1 22 81 25
REMARK SMILES IDX 82 26 86 27 83 28 85 29 84 30 12 31 13 32 14 33 15 34 16 35
REMARK SMILES IDX 17 37 18 38 19 39 80 40 20 41 79 42 21 43 22 44 23 45 73 46
REMARK SMILES IDX 24 47 78 48 72 49 74 50 25 51 77 52 71 53 70 54 26 56 58 57
REMARK SMILES IDX 38 58 57 59 39 60 42 61 56 62 75 63 40 64 41 65 55 67 76 68
REMARK SMILES IDX 43 69 27 70 28 71 36 72 29 73 35 74 37 75 34 76 30 77 31 78
REMARK SMILES IDX 32 79 33 80 59 81 60 82 68 83 61 84 67 85 69 86 66 87 62 88
REMARK SMILES IDX 63 89 64 90 65 91 44 92 45 93 53 94 46 95 52 96 54 97 51 98
REMARK SMILES IDX 47 99 48 100 49 101 50 102
REMARK H PARENT 8 7 1 23 1 24 15 36 74 55 42 66
REMARK Flexibility Score: inf
ROOT
ATOM      1  C   UNL A   1      33.485  30.288  26.665  1.00  0.00     0.002 C 
ENDROOT
BRANCH   1   2
ATOM      2  C   UNL A   1      34.133  28.945  27.036  1.00  0.00     0.021 C 
BRANCH   2   3
ATOM      3  C   UNL A   1      33.614  27.730  26.258  1.00  0.00     0.116 C 
BRANCH   3   4
ATOM      4  N   UNL A   1      33.546  28.005  24.834  1.00  0.00    -0.355 N 
ATOM      5  C   UNL A   1      32.510  27.938  23.941  1.00  0.00     0.238 C 
ATOM      6  O   UNL A   1      32.857  28.073  22.762  1.00  0.00    -0.273 OA
ATOM      7  H   UNL A   1      34.400  28.294  24.438  1.00  0.00     0.163 HD
BRANCH   5   8
ATOM      8  C   UNL A   1      31.045  27.751  24.421  1.00  0.00     0.174 C 
BRANCH   8   9
ATOM      9  S   UNL A   1      30.633  25.989  24.558  1.00  0.00    -0.068 SA
BRANCH   9  10
ATOM     10  C   UNL A   1      31.953  24.914  24.185  1.00  0.00     0.191 A 
ATOM     11  N   UNL A   1      32.454  24.617  22.920  1.00  0.00    -0.202 N 
ATOM     12  C   UNL A   1      33.531  23.741  22.739  1.00  0.00     0.280 A 
ATOM     13  N   UNL A   1      32.465  24.402  25.263  1.00  0.00    -0.222 NA
ATOM     14  C   UNL A   1      34.101  23.149  23.954  1.00  0.00     0.069 A 
ATOM     15  O   UNL A   1      33.992  23.445  21.636  1.00  0.00    -0.267 OA
ATOM     16  C   UNL A   1      33.533  23.511  25.170  1.00  0.00     0.079 A 
ATOM     17  C   UNL A   1      35.164  22.241  23.885  1.00  0.00     0.031 A 
ATOM     18  C   UNL A   1      34.045  22.952  26.345  1.00  0.00     0.030 A 
ATOM     19  C   UNL A   1      35.657  21.690  25.064  1.00  0.00     0.018 A 
ATOM     20  C   UNL A   1      35.104  22.043  26.295  1.00  0.00     0.018 A 
ATOM     21  Br  UNL A   1      37.081  20.451  24.995  1.00  0.00    -0.051 Br
BRANCH  11  22
ATOM     22  N   UNL A   1      31.890  25.105  21.736  1.00  0.00    -0.334 N 
ATOM     23  H   UNL A   1      32.105  26.015  21.427  1.00  0.00     0.178 HD
ATOM     24  H   UNL A   1      31.278  24.540  21.211  1.00  0.00     0.178 HD
ENDBRANCH  11  22
ENDBRANCH   9  10
ENDBRANCH   8   9
BRANCH   8  25
ATOM     25  C   UNL A   1      29.924  28.631  23.839  1.00  0.00    -0.025 A 
ATOM     26  C   UNL A   1      28.796  28.105  23.186  1.00  0.00     0.005 A 
ATOM     27  C   UNL A   1      30.023  30.038  23.901  1.00  0.00     0.005 A 
ATOM     28  C   UNL A   1      27.767  28.934  22.722  1.00  0.00     0.000 A 
ATOM     29  C   UNL A   1      29.000  30.868  23.431  1.00  0.00     0.000 A 
ATOM     30  C   UNL A   1      27.863  30.314  22.856  1.00  0.00     0.000 A 
ENDBRANCH   8  25
ENDBRANCH   5   8
ENDBRANCH   3   4
ENDBRANCH   2   3
ENDBRANCH   1   2
BRANCH   1  31
ATOM     31  C   UNL A   1      31.981  30.401  26.930  1.00  0.00     0.002 C 
BRANCH  31  32
ATOM     32  C   UNL A   1      31.410  31.818  26.871  1.00  0.00     0.021 C 
BRANCH  32  33
ATOM     33  C   UNL A   1      32.410  32.907  26.504  1.00  0.00     0.116 C 
BRANCH  33  34
ATOM     34  N   UNL A   1      32.314  34.078  27.362  1.00  0.00    -0.352 N 
ATOM     35  C   UNL A   1      33.083  34.412  28.456  1.00  0.00     0.251 C 
ATOM     36  H   UNL A   1      31.603  34.719  27.129  1.00  0.00     0.163 HD
ATOM     37  O   UNL A   1      32.783  35.376  29.149  1.00  0.00    -0.269 OA
BRANCH  35  38
ATOM     38  C   UNL A   1      34.244  33.563  28.809  1.00  0.00     0.039 A 
ATOM     39  C   UNL A   1      34.061  32.328  29.435  1.00  0.00     0.014 A 
ATOM     40  C   UNL A   1      35.533  34.041  28.562  1.00  0.00     0.014 A 
ATOM     41  C   UNL A   1      35.157  31.657  29.972  1.00  0.00     0.010 A 
ATOM     42  C   UNL A   1      36.639  33.328  29.037  1.00  0.00     0.010 A 
ATOM     43  C   UNL A   1      36.456  32.160  29.796  1.00  0.00    -0.014 A 
BRANCH  43  44
ATOM     44  C   UNL A   1      37.611  31.483  30.445  1.00  0.00     0.031 A 
ATOM     45  C   UNL A   1      37.961  31.788  31.880  1.00  0.00     0.074 A 
ATOM     46  C   UNL A   1      38.318  30.563  29.760  1.00  0.00     0.049 A 
ATOM     47  N   UNL A   1      38.950  31.328  32.603  1.00  0.00    -0.248 NA
ATOM     48  C   UNL A   1      37.086  32.730  32.599  1.00  0.00     0.031 C 
ATOM     49  C   UNL A   1      38.046  30.156  28.382  1.00  0.00     0.029 A 
ATOM     50  N   UNL A   1      39.393  29.790  30.128  1.00  0.00    -0.354 N 
ATOM     51  C   UNL A   1      38.829  31.935  33.848  1.00  0.00     0.074 A 
ATOM     52  C   UNL A   1      37.688  32.819  33.778  1.00  0.00     0.031 C 
ATOM     53  C   UNL A   1      38.898  29.181  28.035  1.00  0.00     0.029 A 
ATOM     54  C   UNL A   1      39.827  28.940  29.136  1.00  0.00     0.049 A 
ATOM     55  H   UNL A   1      39.813  29.840  31.016  1.00  0.00     0.167 HD
ATOM     56  C   UNL A   1      39.595  31.759  34.952  1.00  0.00     0.034 A 
ATOM     57  C   UNL A   1      40.865  28.078  29.108  1.00  0.00     0.034 A 
ATOM     58  C   UNL A   1      40.711  30.853  35.017  1.00  0.00     0.049 A 
ATOM     59  C   UNL A   1      41.735  27.947  30.333  1.00  0.00     0.074 A 
ATOM     60  C   UNL A   1      41.546  30.605  36.092  1.00  0.00     0.029 A 
ATOM     61  N   UNL A   1      41.141  30.037  33.981  1.00  0.00    -0.354 N 
ATOM     62  N   UNL A   1      41.599  28.522  31.505  1.00  0.00    -0.248 NA
ATOM     63  C   UNL A   1      42.901  27.056  30.238  1.00  0.00     0.031 C 
ATOM     64  C   UNL A   1      42.509  29.679  35.692  1.00  0.00     0.029 A 
ATOM     65  C   UNL A   1      42.237  29.298  34.388  1.00  0.00     0.049 A 
ATOM     66  H   UNL A   1      40.727  29.991  33.088  1.00  0.00     0.167 HD
ATOM     67  C   UNL A   1      42.640  28.036  32.293  1.00  0.00     0.074 A 
ATOM     68  C   UNL A   1      43.386  27.109  31.471  1.00  0.00     0.031 C 
ATOM     69  C   UNL A   1      42.948  28.338  33.579  1.00  0.00     0.034 A 
BRANCH  56  70
ATOM     70  C   UNL A   1      39.265  32.533  36.203  1.00  0.00     0.023 A 
ATOM     71  C   UNL A   1      39.949  33.729  36.490  1.00  0.00     0.031 A 
ATOM     72  C   UNL A   1      38.404  32.006  37.181  1.00  0.00     0.131 A 
ATOM     73  C   UNL A   1      39.797  34.334  37.745  1.00  0.00     0.055 A 
ATOM     74  C   UNL A   1      38.226  32.634  38.415  1.00  0.00     0.041 A 
ATOM     75  F   UNL A   1      37.727  30.869  36.952  1.00  0.00    -0.206 F 
ATOM     76  C   UNL A   1      38.936  33.795  38.707  1.00  0.00     0.022 A 
BRANCH  73  77
ATOM     77  S   UNL A   1      40.758  35.803  38.200  1.00  0.00     0.124 S 
ATOM     78  O   UNL A   1      41.983  35.612  37.428  1.00  0.00    -0.237 OA
ATOM     79  O   UNL A   1      39.894  36.886  37.741  1.00  0.00    -0.237 OA
ATOM     80  O   UNL A   1      40.913  35.686  39.646  1.00  0.00    -0.744 OA
ENDBRANCH  73  77
ENDBRANCH  56  70
BRANCH  57  81
ATOM     81  C   UNL A   1      41.105  27.251  27.888  1.00  0.00     0.023 A 
ATOM     82  C   UNL A   1      40.793  25.879  27.863  1.00  0.00     0.031 A 
ATOM     83  C   UNL A   1      41.723  27.807  26.754  1.00  0.00     0.131 A 
ATOM     84  C   UNL A   1      41.155  25.100  26.756  1.00  0.00     0.055 A 
ATOM     85  C   UNL A   1      42.018  27.041  25.626  1.00  0.00     0.041 A 
ATOM     86  F   UNL A   1      42.051  29.107  26.733  1.00  0.00    -0.206 F 
ATOM     87  C   UNL A   1      41.750  25.676  25.630  1.00  0.00     0.022 A 
BRANCH  84  88
ATOM     88  S   UNL A   1      40.991  23.293  26.800  1.00  0.00     0.124 S 
ATOM     89  O   UNL A   1      41.391  22.986  28.168  1.00  0.00    -0.237 OA
ATOM     90  O   UNL A   1      39.572  23.112  26.500  1.00  0.00    -0.237 OA
ATOM     91  O   UNL A   1      41.904  22.841  25.755  1.00  0.00    -0.744 OA
ENDBRANCH  84  88
ENDBRANCH  57  81
BRANCH  69  92
ATOM     92  C   UNL A   1      44.121  27.650  34.230  1.00  0.00     0.023 A 
ATOM     93  C   UNL A   1      43.940  26.395  34.843  1.00  0.00     0.031 A 
ATOM     94  C   UNL A   1      45.349  28.309  34.406  1.00  0.00     0.131 A 
ATOM     95  C   UNL A   1      44.952  25.862  35.649  1.00  0.00     0.055 A 
ATOM     96  C   UNL A   1      46.373  27.750  35.173  1.00  0.00     0.041 A 
ATOM     97  F   UNL A   1      45.564  29.512  33.851  1.00  0.00    -0.206 F 
ATOM     98  C   UNL A   1      46.171  26.530  35.812  1.00  0.00     0.022 A 
BRANCH  95  99
ATOM     99  S   UNL A   1      44.690  24.334  36.591  1.00  0.00     0.124 S 
ATOM    100  O   UNL A   1      46.038  23.774  36.640  1.00  0.00    -0.237 OA
ATOM    101  O   UNL A   1      44.179  24.841  37.862  1.00  0.00    -0.237 OA
ATOM    102  O   UNL A   1      43.735  23.582  35.784  1.00  0.00    -0.744 OA
ENDBRANCH  95  99
ENDBRANCH  69  92
ENDBRANCH  43  44
ENDBRANCH  35  38
ENDBRANCH  33  34
ENDBRANCH  32  33
ENDBRANCH  31  32
ENDBRANCH   1  31
TORSDOF 20
ENDMDL
MODEL 3
REMARK VINA RESULT:     -12.2      2.188      2.707
REMARK SMILES Nn1c(S[C@@H](C(=O)NCCCCCCNC(=O)c2ccc(-c3c4nc(c(-c5cc(S(=O)(=O)[O-])ccc5F)c5ccc([nH]5)c(-c5cc(S(=O)(=O)[O-])ccc5F)c5nc(c(-c6cc(S(=O)(=O)[O-])ccc6F)c6ccc3[nH]6)C=C5)C=C4)cc2)c2ccccc2)nc2ccc(Br)cc2c1=O
REMARK SMILES IDX 11 1 10 2 9 3 8 4 6 5 7 6 5 8 4 9 3 10 2 11 95 12 87 13
REMARK SMILES IDX 94 14 96 15 88 16 93 17 89 18 91 19 90 20 92 21 1 22 81 25
REMARK SMILES IDX 82 26 86 27 83 28 85 29 84 30 12 31 13 32 14 33 15 34 16 35
REMARK SMILES IDX 17 37 18 38 19 39 80 40 20 41 79 42 21 43 22 44 23 45 73 46
REMARK SMILES IDX 24 47 78 48 72 49 74 50 25 51 77 52 71 53 70 54 26 56 58 57
REMARK SMILES IDX 38 58 57 59 39 60 42 61 56 62 75 63 40 64 41 65 55 67 76 68
REMARK SMILES IDX 43 69 27 70 28 71 36 72 29 73 35 74 37 75 34 76 30 77 31 78
REMARK SMILES IDX 32 79 33 80 59 81 60 82 68 83 61 84 67 85 69 86 66 87 62 88
REMARK SMILES IDX 63 89 64 90 65 91 44 92 45 93 53 94 46 95 52 96 54 97 51 98
REMARK SMILES IDX 47 99 48 100 49 101 50 102
REMARK H PARENT 8 7 1 23 1 24 15 36 74 55 42 66
REMARK Flexibility Score: inf
ROOT
ATOM      1  C   UNL A   1      33.366  29.581  27.322  1.00  0.00     0.002 C 
ENDROOT
BRANCH   1   2
ATOM      2  C   UNL A   1      33.650  28.149  26.843  1.00  0.00     0.021 C 
BRANCH   2   3
ATOM      3  C   UNL A   1      32.671  27.605  25.795  1.00  0.00     0.116 C 
BRANCH   3   4
ATOM      4  N   UNL A   1      32.943  28.158  24.481  1.00  0.00    -0.355 N 
ATOM      5  C   UNL A   1      32.111  28.542  23.464  1.00  0.00     0.238 C 
ATOM      6  O   UNL A   1      32.699  28.806  22.409  1.00  0.00    -0.273 OA
ATOM      7  H   UNL A   1      33.900  28.281  24.285  1.00  0.00     0.163 HD
BRANCH   5   8
ATOM      8  C   UNL A   1      30.577  28.661  23.680  1.00  0.00     0.174 C 
BRANCH   8   9
ATOM      9  S   UNL A   1      29.757  27.076  23.354  1.00  0.00    -0.068 SA
BRANCH   9  10
ATOM     10  C   UNL A   1      30.842  25.717  23.245  1.00  0.00     0.191 A 
ATOM     11  N   UNL A   1      31.748  25.454  22.221  1.00  0.00    -0.202 N 
ATOM     12  C   UNL A   1      32.583  24.331  22.243  1.00  0.00     0.280 A 
ATOM     13  N   UNL A   1      30.731  24.939  24.278  1.00  0.00    -0.222 NA
ATOM     14  C   UNL A   1      32.448  23.441  23.401  1.00  0.00     0.069 A 
ATOM     15  O   UNL A   1      33.387  24.059  21.350  1.00  0.00    -0.267 OA
ATOM     16  C   UNL A   1      31.517  23.791  24.373  1.00  0.00     0.079 A 
ATOM     17  C   UNL A   1      33.215  22.276  23.511  1.00  0.00     0.031 A 
ATOM     18  C   UNL A   1      31.355  22.956  25.481  1.00  0.00     0.030 A 
ATOM     19  C   UNL A   1      33.037  21.453  24.619  1.00  0.00     0.018 A 
ATOM     20  C   UNL A   1      32.111  21.788  25.607  1.00  0.00     0.018 A 
ATOM     21  Br  UNL A   1      34.051  19.868  24.781  1.00  0.00    -0.051 Br
BRANCH  11  22
ATOM     22  N   UNL A   1      31.853  26.240  21.067  1.00  0.00    -0.334 N 
ATOM     23  H   UNL A   1      31.443  27.135  21.042  1.00  0.00     0.178 HD
ATOM     24  H   UNL A   1      32.338  25.898  20.280  1.00  0.00     0.178 HD
ENDBRANCH  11  22
ENDBRANCH   9  10
ENDBRANCH   8   9
BRANCH   8  25
ATOM     25  C   UNL A   1      29.818  29.897  23.164  1.00  0.00    -0.025 A 
ATOM     26  C   UNL A   1      29.439  30.060  21.821  1.00  0.00     0.005 A 
ATOM     27  C   UNL A   1      29.515  30.960  24.043  1.00  0.00     0.005 A 
ATOM     28  C   UNL A   1      28.698  31.171  21.400  1.00  0.00     0.000 A 
ATOM     29  C   UNL A   1      28.781  32.074  23.623  1.00  0.00     0.000 A 
ATOM     30  C   UNL A   1      28.357  32.171  22.304  1.00  0.00     0.000 A 
ENDBRANCH   8  25
ENDBRANCH   5   8
ENDBRANCH   3   4
ENDBRANCH   2   3
ENDBRANCH   1   2
BRANCH   1  31
ATOM     31  C   UNL A   1      31.985  30.143  26.975  1.00  0.00     0.002 C 
BRANCH  31  32
ATOM     32  C   UNL A   1      31.918  31.660  26.801  1.00  0.00     0.021 C 
BRANCH  32  33
ATOM     33  C   UNL A   1      33.023  32.443  27.500  1.00  0.00     0.116 C 
BRANCH  33  34
ATOM     34  N   UNL A   1      32.675  33.837  27.725  1.00  0.00    -0.352 N 
ATOM     35  C   UNL A   1      33.219  34.729  28.625  1.00  0.00     0.251 C 
ATOM     36  H   UNL A   1      31.953  34.193  27.158  1.00  0.00     0.163 HD
ATOM     37  O   UNL A   1      32.718  35.835  28.775  1.00  0.00    -0.269 OA
BRANCH  35  38
ATOM     38  C   UNL A   1      34.385  34.312  29.439  1.00  0.00     0.039 A 
ATOM     39  C   UNL A   1      35.687  34.557  28.998  1.00  0.00     0.014 A 
ATOM     40  C   UNL A   1      34.165  33.613  30.628  1.00  0.00     0.014 A 
ATOM     41  C   UNL A   1      36.760  33.953  29.647  1.00  0.00     0.010 A 
ATOM     42  C   UNL A   1      35.252  33.070  31.322  1.00  0.00     0.010 A 
ATOM     43  C   UNL A   1      36.552  33.187  30.805  1.00  0.00    -0.014 A 
BRANCH  43  44
ATOM     44  C   UNL A   1      37.693  32.476  31.444  1.00  0.00     0.031 A 
ATOM     45  C   UNL A   1      38.138  32.851  32.835  1.00  0.00     0.074 A 
ATOM     46  C   UNL A   1      38.301  31.465  30.790  1.00  0.00     0.049 A 
ATOM     47  N   UNL A   1      39.131  32.372  33.539  1.00  0.00    -0.248 NA
ATOM     48  C   UNL A   1      37.367  33.897  33.528  1.00  0.00     0.031 C 
ATOM     49  C   UNL A   1      37.930  30.988  29.459  1.00  0.00     0.029 A 
ATOM     50  N   UNL A   1      39.340  30.646  31.159  1.00  0.00    -0.354 N 
ATOM     51  C   UNL A   1      39.117  33.067  34.744  1.00  0.00     0.074 A 
ATOM     52  C   UNL A   1      38.034  34.021  34.668  1.00  0.00     0.031 C 
ATOM     53  C   UNL A   1      38.696  29.935  29.140  1.00  0.00     0.029 A 
ATOM     54  C   UNL A   1      39.664  29.704  30.210  1.00  0.00     0.049 A 
ATOM     55  H   UNL A   1      39.809  30.726  32.021  1.00  0.00     0.167 HD
ATOM     56  C   UNL A   1      39.927  32.912  35.819  1.00  0.00     0.034 A 
ATOM     57  C   UNL A   1      40.640  28.772  30.191  1.00  0.00     0.034 A 
ATOM     58  C   UNL A   1      40.983  31.936  35.893  1.00  0.00     0.049 A 
ATOM     59  C   UNL A   1      41.563  28.662  31.380  1.00  0.00     0.074 A 
ATOM     60  C   UNL A   1      41.855  31.703  36.941  1.00  0.00     0.029 A 
ATOM     61  N   UNL A   1      41.302  31.026  34.897  1.00  0.00    -0.354 N 
ATOM     62  N   UNL A   1      41.527  29.321  32.513  1.00  0.00    -0.248 NA
ATOM     63  C   UNL A   1      42.660  27.688  31.290  1.00  0.00     0.031 C 
ATOM     64  C   UNL A   1      42.732  30.688  36.561  1.00  0.00     0.029 A 
ATOM     65  C   UNL A   1      42.367  30.241  35.301  1.00  0.00     0.049 A 
ATOM     66  H   UNL A   1      40.840  30.950  34.031  1.00  0.00     0.167 HD
ATOM     67  C   UNL A   1      42.574  28.818  33.282  1.00  0.00     0.074 A 
ATOM     68  C   UNL A   1      43.213  27.789  32.492  1.00  0.00     0.031 C 
ATOM     69  C   UNL A   1      42.969  29.183  34.527  1.00  0.00     0.034 A 
BRANCH  56  70
ATOM     70  C   UNL A   1      39.715  33.789  37.027  1.00  0.00     0.023 A 
ATOM     71  C   UNL A   1      40.584  34.869  37.273  1.00  0.00     0.031 A 
ATOM     72  C   UNL A   1      38.769  33.457  38.012  1.00  0.00     0.131 A 
ATOM     73  C   UNL A   1      40.520  35.549  38.495  1.00  0.00     0.055 A 
ATOM     74  C   UNL A   1      38.684  34.163  39.213  1.00  0.00     0.041 A 
ATOM     75  F   UNL A   1      37.916  32.436  37.822  1.00  0.00    -0.206 F 
ATOM     76  C   UNL A   1      39.572  35.205  39.465  1.00  0.00     0.022 A 
BRANCH  73  77
ATOM     77  S   UNL A   1      41.705  36.861  38.902  1.00  0.00     0.124 S 
ATOM     78  O   UNL A   1      42.485  36.241  39.970  1.00  0.00    -0.237 OA
ATOM     79  O   UNL A   1      42.410  37.038  37.636  1.00  0.00    -0.237 OA
ATOM     80  O   UNL A   1      40.863  37.977  39.318  1.00  0.00    -0.744 OA
ENDBRANCH  73  77
ENDBRANCH  56  70
BRANCH  57  81
ATOM     81  C   UNL A   1      40.760  27.851  29.023  1.00  0.00     0.023 A 
ATOM     82  C   UNL A   1      41.697  28.086  28.000  1.00  0.00     0.031 A 
ATOM     83  C   UNL A   1      39.882  26.763  28.874  1.00  0.00     0.131 A 
ATOM     84  C   UNL A   1      41.693  27.285  26.850  1.00  0.00     0.055 A 
ATOM     85  C   UNL A   1      39.928  25.925  27.758  1.00  0.00     0.041 A 
ATOM     86  F   UNL A   1      38.963  26.503  29.815  1.00  0.00    -0.206 F 
ATOM     87  C   UNL A   1      40.826  26.195  26.731  1.00  0.00     0.022 A 
BRANCH  84  88
ATOM     88  S   UNL A   1      42.718  27.716  25.415  1.00  0.00     0.124 S 
ATOM     89  O   UNL A   1      41.895  28.717  24.745  1.00  0.00    -0.237 OA
ATOM     90  O   UNL A   1      43.933  28.220  26.052  1.00  0.00    -0.237 OA
ATOM     91  O   UNL A   1      42.872  26.447  24.711  1.00  0.00    -0.744 OA
ENDBRANCH  84  88
ENDBRANCH  57  81
BRANCH  69  92
ATOM     92  C   UNL A   1      44.127  28.460  35.167  1.00  0.00     0.023 A 
ATOM     93  C   UNL A   1      43.879  27.467  36.136  1.00  0.00     0.031 A 
ATOM     94  C   UNL A   1      45.453  28.877  34.963  1.00  0.00     0.131 A 
ATOM     95  C   UNL A   1      44.936  26.963  36.902  1.00  0.00     0.055 A 
ATOM     96  C   UNL A   1      46.510  28.336  35.697  1.00  0.00     0.041 A 
ATOM     97  F   UNL A   1      45.737  29.828  34.060  1.00  0.00    -0.206 F 
ATOM     98  C   UNL A   1      46.252  27.387  36.683  1.00  0.00     0.022 A 
BRANCH  95  99
ATOM     99  S   UNL A   1      44.633  25.813  38.272  1.00  0.00     0.124 S 
ATOM    100  O   UNL A   1      43.514  26.452  38.961  1.00  0.00    -0.237 OA
ATOM    101  O   UNL A   1      44.307  24.576  37.568  1.00  0.00    -0.237 OA
ATOM    102  O   UNL A   1      45.892  25.803  39.010  1.00  0.00    -0.744 OA
ENDBRANCH  95  99
ENDBRANCH  69  92
ENDBRANCH  43  44
ENDBRANCH  35  38
ENDBRANCH  33  34
ENDBRANCH  32  33
ENDBRANCH  31  32
ENDBRANCH   1  31
TORSDOF 20
ENDMDL
