MODEL 1
REMARK VINA RESULT:     -12.7      0.000      0.000
REMARK SMILES O=C(NCCCCCCNC(=O)[C@H]1CC[C@@H]2CCCC[C@H]2N1C(=O)Cn1cnnn1)c1ccc(-c2c3nc(c(-c4cc(S(=O)(=O)[O-])ccc4F)c4ccc([nH]4)c(-c4cc(S(=O)(=O)[O-])ccc4F)c4nc(c(-c5cc(S(=O)(=O)[O-])ccc5F)c5ccc2[nH]5)C=C4)C=C3)cc1
REMARK SMILES IDX 6 1 5 2 4 3 3 4 1 5 2 6 31 8 32 9 93 10 33 11 92 12 34 13
REMARK SMILES IDX 35 14 36 15 86 16 37 17 91 18 85 19 87 20 38 21 90 22 84 23
REMARK SMILES IDX 83 24 39 26 71 27 51 28 70 29 52 30 55 31 69 32 88 33 53 34
REMARK SMILES IDX 54 35 68 37 89 38 56 39 40 40 41 41 49 42 42 43 48 44 50 45
REMARK SMILES IDX 47 46 43 47 44 48 45 49 46 50 72 51 73 52 81 53 74 54 80 55
REMARK SMILES IDX 82 56 79 57 75 58 76 59 77 60 78 61 57 62 58 63 66 64 59 65
REMARK SMILES IDX 65 66 67 67 64 68 60 69 61 70 62 71 63 72 7 73 8 74 9 75
REMARK SMILES IDX 10 76 11 77 12 79 13 80 14 81 22 82 15 83 21 84 16 85 20 86
REMARK SMILES IDX 17 87 19 88 18 89 23 90 24 91 25 92 26 93 27 94 30 95 28 96
REMARK SMILES IDX 29 97
REMARK H PARENT 3 7 87 25 55 36 10 78
REMARK Flexibility Score: inf
ROOT
ATOM      1  C   UNL A   1      31.916  28.496  26.386  1.00  0.00     0.002 C 
ENDROOT
BRANCH   1   2
ATOM      2  C   UNL A   1      33.107  28.791  27.297  1.00  0.00     0.021 C 
BRANCH   2   3
ATOM      3  C   UNL A   1      33.980  29.977  26.887  1.00  0.00     0.116 C 
BRANCH   3   4
ATOM      4  N   UNL A   1      34.078  31.037  27.865  1.00  0.00    -0.352 N 
ATOM      5  O   UNL A   1      34.804  32.499  29.347  1.00  0.00    -0.269 OA
ATOM      6  C   UNL A   1      35.037  31.444  28.750  1.00  0.00     0.251 C 
ATOM      7  H   UNL A   1      33.267  31.595  27.903  1.00  0.00     0.163 HD
BRANCH   6   8
ATOM      8  C   UNL A   1      36.285  30.695  29.067  1.00  0.00     0.039 A 
ATOM      9  C   UNL A   1      36.366  29.343  29.402  1.00  0.00     0.014 A 
ATOM     10  C   UNL A   1      37.477  31.444  29.016  1.00  0.00     0.014 A 
ATOM     11  C   UNL A   1      37.588  28.770  29.748  1.00  0.00     0.010 A 
ATOM     12  C   UNL A   1      38.704  30.871  29.338  1.00  0.00     0.010 A 
ATOM     13  C   UNL A   1      38.755  29.534  29.724  1.00  0.00    -0.014 A 
BRANCH  13  14
ATOM     14  C   UNL A   1      40.036  28.844  29.886  1.00  0.00     0.031 A 
ATOM     15  C   UNL A   1      40.434  28.618  31.306  1.00  0.00     0.074 A 
ATOM     16  C   UNL A   1      40.726  28.266  28.883  1.00  0.00     0.049 A 
ATOM     17  N   UNL A   1      41.489  29.036  31.924  1.00  0.00    -0.248 NA
ATOM     18  C   UNL A   1      39.465  27.939  32.181  1.00  0.00     0.031 C 
ATOM     19  C   UNL A   1      40.314  28.143  27.485  1.00  0.00     0.029 A 
ATOM     20  N   UNL A   1      41.891  27.552  28.930  1.00  0.00    -0.354 N 
ATOM     21  C   UNL A   1      41.431  28.482  33.202  1.00  0.00     0.074 A 
ATOM     22  C   UNL A   1      40.089  27.992  33.356  1.00  0.00     0.031 C 
ATOM     23  C   UNL A   1      41.086  27.216  26.877  1.00  0.00     0.029 A 
ATOM     24  C   UNL A   1      42.113  26.764  27.803  1.00  0.00     0.049 A 
ATOM     25  H   UNL A   1      42.515  27.591  29.691  1.00  0.00     0.167 HD
ATOM     26  C   UNL A   1      42.559  28.257  33.934  1.00  0.00     0.034 A 
ATOM     27  C   UNL A   1      43.017  25.755  27.662  1.00  0.00     0.034 A 
ATOM     28  C   UNL A   1      43.664  29.056  33.444  1.00  0.00     0.049 A 
ATOM     29  C   UNL A   1      44.074  25.959  28.681  1.00  0.00     0.074 A 
ATOM     30  C   UNL A   1      43.863  30.408  33.233  1.00  0.00     0.029 A 
ATOM     31  N   UNL A   1      44.682  28.433  32.755  1.00  0.00    -0.354 N 
ATOM     32  N   UNL A   1      44.904  26.966  28.669  1.00  0.00    -0.248 NA
ATOM     33  C   UNL A   1      43.938  25.290  29.966  1.00  0.00     0.031 C 
ATOM     34  C   UNL A   1      44.642  30.486  32.040  1.00  0.00     0.029 A 
ATOM     35  C   UNL A   1      44.931  29.182  31.635  1.00  0.00     0.049 A 
ATOM     36  H   UNL A   1      45.143  27.603  33.017  1.00  0.00     0.167 HD
ATOM     37  C   UNL A   1      45.049  27.326  29.999  1.00  0.00     0.074 A 
ATOM     38  C   UNL A   1      44.526  26.193  30.756  1.00  0.00     0.031 C 
ATOM     39  C   UNL A   1      45.315  28.618  30.357  1.00  0.00     0.034 A 
BRANCH  26  40
ATOM     40  C   UNL A   1      42.779  27.029  34.807  1.00  0.00     0.023 A 
ATOM     41  C   UNL A   1      43.634  26.039  34.285  1.00  0.00     0.031 A 
ATOM     42  C   UNL A   1      41.979  26.619  35.898  1.00  0.00     0.131 A 
ATOM     43  C   UNL A   1      43.514  24.697  34.681  1.00  0.00     0.055 A 
ATOM     44  C   UNL A   1      41.925  25.296  36.347  1.00  0.00     0.041 A 
ATOM     45  F   UNL A   1      41.153  27.443  36.550  1.00  0.00    -0.206 F 
ATOM     46  C   UNL A   1      42.654  24.313  35.702  1.00  0.00     0.022 A 
BRANCH  43  47
ATOM     47  S   UNL A   1      44.319  23.444  33.651  1.00  0.00     0.124 S 
ATOM     48  O   UNL A   1      45.592  24.097  33.363  1.00  0.00    -0.237 OA
ATOM     49  O   UNL A   1      44.368  22.302  34.556  1.00  0.00    -0.237 OA
ATOM     50  O   UNL A   1      43.411  23.307  32.516  1.00  0.00    -0.744 OA
ENDBRANCH  43  47
ENDBRANCH  26  40
BRANCH  27  51
ATOM     51  C   UNL A   1      42.844  24.491  26.892  1.00  0.00     0.023 A 
ATOM     52  C   UNL A   1      43.848  23.954  26.055  1.00  0.00     0.031 A 
ATOM     53  C   UNL A   1      41.732  23.657  27.154  1.00  0.00     0.131 A 
ATOM     54  C   UNL A   1      43.706  22.651  25.517  1.00  0.00     0.055 A 
ATOM     55  C   UNL A   1      41.591  22.380  26.610  1.00  0.00     0.041 A 
ATOM     56  F   UNL A   1      40.777  24.023  28.023  1.00  0.00    -0.206 F 
ATOM     57  C   UNL A   1      42.583  21.867  25.793  1.00  0.00     0.022 A 
BRANCH  54  58
ATOM     58  S   UNL A   1      45.038  21.906  24.518  1.00  0.00     0.124 S 
ATOM     59  O   UNL A   1      46.081  21.678  25.507  1.00  0.00    -0.237 OA
ATOM     60  O   UNL A   1      44.390  20.717  23.967  1.00  0.00    -0.237 OA
ATOM     61  O   UNL A   1      45.342  22.941  23.529  1.00  0.00    -0.744 OA
ENDBRANCH  54  58
ENDBRANCH  27  51
BRANCH  39  62
ATOM     62  C   UNL A   1      45.815  29.582  29.305  1.00  0.00     0.023 A 
ATOM     63  C   UNL A   1      44.989  30.353  28.458  1.00  0.00     0.031 A 
ATOM     64  C   UNL A   1      47.202  29.807  29.246  1.00  0.00     0.131 A 
ATOM     65  C   UNL A   1      45.564  31.296  27.584  1.00  0.00     0.055 A 
ATOM     66  C   UNL A   1      47.766  30.756  28.395  1.00  0.00     0.041 A 
ATOM     67  F   UNL A   1      48.040  29.127  30.046  1.00  0.00    -0.206 F 
ATOM     68  C   UNL A   1      46.946  31.501  27.554  1.00  0.00     0.022 A 
BRANCH  65  69
ATOM     69  S   UNL A   1      44.519  32.267  26.453  1.00  0.00     0.124 S 
ATOM     70  O   UNL A   1      43.487  31.323  26.041  1.00  0.00    -0.237 OA
ATOM     71  O   UNL A   1      44.077  33.370  27.302  1.00  0.00    -0.237 OA
ATOM     72  O   UNL A   1      45.445  32.657  25.386  1.00  0.00    -0.744 OA
ENDBRANCH  65  69
ENDBRANCH  39  62
ENDBRANCH  13  14
ENDBRANCH   6   8
ENDBRANCH   3   4
ENDBRANCH   2   3
ENDBRANCH   1   2
BRANCH   1  73
ATOM     73  C   UNL A   1      31.586  27.031  26.108  1.00  0.00     0.002 C 
BRANCH  73  74
ATOM     74  C   UNL A   1      30.459  26.750  25.115  1.00  0.00     0.021 C 
BRANCH  74  75
ATOM     75  C   UNL A   1      30.603  25.522  24.215  1.00  0.00     0.116 C 
BRANCH  75  76
ATOM     76  N   UNL A   1      30.370  24.265  24.913  1.00  0.00    -0.354 N 
ATOM     77  C   UNL A   1      31.176  23.258  25.338  1.00  0.00     0.242 C 
ATOM     78  H   UNL A   1      29.420  24.112  25.124  1.00  0.00     0.163 HD
ATOM     79  O   UNL A   1      30.597  22.350  25.954  1.00  0.00    -0.273 OA
BRANCH  77  80
ATOM     80  C   UNL A   1      32.734  23.172  25.174  1.00  0.00     0.174 C 
ATOM     81  C   UNL A   1      33.403  24.180  26.117  1.00  0.00     0.036 C 
ATOM     82  N   UNL A   1      33.543  21.896  25.060  1.00  0.00    -0.326 N 
ATOM     83  C   UNL A   1      34.846  24.461  25.767  1.00  0.00     0.008 C 
ATOM     84  C   UNL A   1      35.035  22.133  24.827  1.00  0.00     0.089 C 
ATOM     85  C   UNL A   1      35.607  23.144  25.857  1.00  0.00     0.012 C 
ATOM     86  C   UNL A   1      35.970  20.897  24.763  1.00  0.00     0.025 C 
ATOM     87  C   UNL A   1      37.106  23.434  25.703  1.00  0.00     0.006 C 
ATOM     88  C   UNL A   1      37.453  21.234  24.621  1.00  0.00     0.002 C 
ATOM     89  C   UNL A   1      37.925  22.158  25.725  1.00  0.00     0.000 C 
BRANCH  82  90
ATOM     90  C   UNL A   1      33.011  20.636  24.727  1.00  0.00     0.245 C 
ATOM     91  O   UNL A   1      32.533  20.396  23.611  1.00  0.00    -0.273 OA
BRANCH  90  92
ATOM     92  C   UNL A   1      32.932  19.480  25.688  1.00  0.00     0.248 C 
BRANCH  92  93
ATOM     93  N   UNL A   1      33.157  18.182  25.116  1.00  0.00    -0.223 N 
ATOM     94  C   UNL A   1      34.252  17.784  24.417  1.00  0.00     0.246 A 
ATOM     95  N   UNL A   1      32.315  17.150  25.271  1.00  0.00    -0.045 NA
ATOM     96  N   UNL A   1      34.120  16.511  24.136  1.00  0.00    -0.117 NA
ATOM     97  N   UNL A   1      32.918  16.126  24.684  1.00  0.00    -0.024 NA
ENDBRANCH  92  93
ENDBRANCH  90  92
ENDBRANCH  82  90
ENDBRANCH  77  80
ENDBRANCH  75  76
ENDBRANCH  74  75
ENDBRANCH  73  74
ENDBRANCH   1  73
TORSDOF 19
ENDMDL
MODEL 2
REMARK VINA RESULT:     -12.6      1.636      2.573
REMARK SMILES O=C(NCCCCCCNC(=O)[C@H]1CC[C@@H]2CCCC[C@H]2N1C(=O)Cn1cnnn1)c1ccc(-c2c3nc(c(-c4cc(S(=O)(=O)[O-])ccc4F)c4ccc([nH]4)c(-c4cc(S(=O)(=O)[O-])ccc4F)c4nc(c(-c5cc(S(=O)(=O)[O-])ccc5F)c5ccc2[nH]5)C=C4)C=C3)cc1
REMARK SMILES IDX 6 1 5 2 4 3 3 4 1 5 2 6 31 8 32 9 93 10 33 11 92 12 34 13
REMARK SMILES IDX 35 14 36 15 86 16 37 17 91 18 85 19 87 20 38 21 90 22 84 23
REMARK SMILES IDX 83 24 39 26 71 27 51 28 70 29 52 30 55 31 69 32 88 33 53 34
REMARK SMILES IDX 54 35 68 37 89 38 56 39 40 40 41 41 49 42 42 43 48 44 50 45
REMARK SMILES IDX 47 46 43 47 44 48 45 49 46 50 72 51 73 52 81 53 74 54 80 55
REMARK SMILES IDX 82 56 79 57 75 58 76 59 77 60 78 61 57 62 58 63 66 64 59 65
REMARK SMILES IDX 65 66 67 67 64 68 60 69 61 70 62 71 63 72 7 73 8 74 9 75
REMARK SMILES IDX 10 76 11 77 12 79 13 80 14 81 22 82 15 83 21 84 16 85 20 86
REMARK SMILES IDX 17 87 19 88 18 89 23 90 24 91 25 92 26 93 27 94 30 95 28 96
REMARK SMILES IDX 29 97
REMARK H PARENT 3 7 87 25 55 36 10 78
REMARK Flexibility Score: inf
ROOT
ATOM      1  C   UNL A   1      32.064  28.985  27.248  1.00  0.00     0.002 C 
ENDROOT
BRANCH   1   2
ATOM      2  C   UNL A   1      32.664  30.311  26.779  1.00  0.00     0.021 C 
BRANCH   2   3
ATOM      3  C   UNL A   1      34.092  30.595  27.243  1.00  0.00     0.116 C 
BRANCH   3   4
ATOM      4  N   UNL A   1      34.210  31.546  28.326  1.00  0.00    -0.352 N 
ATOM      5  O   UNL A   1      34.964  32.833  29.950  1.00  0.00    -0.269 OA
ATOM      6  C   UNL A   1      35.178  31.842  29.245  1.00  0.00     0.251 C 
ATOM      7  H   UNL A   1      33.410  32.110  28.425  1.00  0.00     0.163 HD
BRANCH   6   8
ATOM      8  C   UNL A   1      36.414  31.044  29.477  1.00  0.00     0.039 A 
ATOM      9  C   UNL A   1      36.482  29.654  29.584  1.00  0.00     0.014 A 
ATOM     10  C   UNL A   1      37.606  31.783  29.596  1.00  0.00     0.014 A 
ATOM     11  C   UNL A   1      37.691  29.024  29.873  1.00  0.00     0.010 A 
ATOM     12  C   UNL A   1      38.821  31.157  29.862  1.00  0.00     0.010 A 
ATOM     13  C   UNL A   1      38.858  29.774  30.020  1.00  0.00    -0.014 A 
BRANCH  13  14
ATOM     14  C   UNL A   1      40.133  29.060  30.111  1.00  0.00     0.031 A 
ATOM     15  C   UNL A   1      40.547  28.722  31.503  1.00  0.00     0.074 A 
ATOM     16  C   UNL A   1      40.801  28.551  29.057  1.00  0.00     0.049 A 
ATOM     17  N   UNL A   1      41.616  29.080  32.136  1.00  0.00    -0.248 NA
ATOM     18  C   UNL A   1      39.581  27.991  32.339  1.00  0.00     0.031 C 
ATOM     19  C   UNL A   1      40.369  28.539  27.660  1.00  0.00     0.029 A 
ATOM     20  N   UNL A   1      41.958  27.822  29.033  1.00  0.00    -0.354 N 
ATOM     21  C   UNL A   1      41.569  28.431  33.369  1.00  0.00     0.074 A 
ATOM     22  C   UNL A   1      40.223  27.947  33.505  1.00  0.00     0.031 C 
ATOM     23  C   UNL A   1      41.121  27.652  26.972  1.00  0.00     0.029 A 
ATOM     24  C   UNL A   1      42.154  27.119  27.847  1.00  0.00     0.049 A 
ATOM     25  H   UNL A   1      42.593  27.796  29.785  1.00  0.00     0.167 HD
ATOM     26  C   UNL A   1      42.703  28.140  34.066  1.00  0.00     0.034 A 
ATOM     27  C   UNL A   1      43.043  26.114  27.617  1.00  0.00     0.034 A 
ATOM     28  C   UNL A   1      43.811  28.960  33.621  1.00  0.00     0.049 A 
ATOM     29  C   UNL A   1      44.117  26.228  28.633  1.00  0.00     0.074 A 
ATOM     30  C   UNL A   1      44.025  30.322  33.510  1.00  0.00     0.029 A 
ATOM     31  N   UNL A   1      44.812  28.379  32.872  1.00  0.00    -0.354 N 
ATOM     32  N   UNL A   1      44.960  27.223  28.684  1.00  0.00    -0.248 NA
ATOM     33  C   UNL A   1      43.990  25.465  29.865  1.00  0.00     0.031 C 
ATOM     34  C   UNL A   1      44.788  30.481  32.314  1.00  0.00     0.029 A 
ATOM     35  C   UNL A   1      45.054  29.209  31.808  1.00  0.00     0.049 A 
ATOM     36  H   UNL A   1      45.266  27.527  33.064  1.00  0.00     0.167 HD
ATOM     37  C   UNL A   1      45.127  27.480  30.035  1.00  0.00     0.074 A 
ATOM     38  C   UNL A   1      44.601  26.298  30.712  1.00  0.00     0.031 C 
ATOM     39  C   UNL A   1      45.414  28.738  30.485  1.00  0.00     0.034 A 
BRANCH  26  40
ATOM     40  C   UNL A   1      42.920  26.846  34.840  1.00  0.00     0.023 A 
ATOM     41  C   UNL A   1      43.812  25.919  34.267  1.00  0.00     0.031 A 
ATOM     42  C   UNL A   1      42.093  26.332  35.865  1.00  0.00     0.131 A 
ATOM     43  C   UNL A   1      43.706  24.546  34.545  1.00  0.00     0.055 A 
ATOM     44  C   UNL A   1      42.052  24.975  36.200  1.00  0.00     0.041 A 
ATOM     45  F   UNL A   1      41.229  27.083  36.554  1.00  0.00    -0.206 F 
ATOM     46  C   UNL A   1      42.822  24.063  35.501  1.00  0.00     0.022 A 
BRANCH  43  47
ATOM     47  S   UNL A   1      44.570  23.399  33.442  1.00  0.00     0.124 S 
ATOM     48  O   UNL A   1      44.791  22.267  34.336  1.00  0.00    -0.237 OA
ATOM     49  O   UNL A   1      43.584  23.205  32.385  1.00  0.00    -0.237 OA
ATOM     50  O   UNL A   1      45.767  24.140  33.055  1.00  0.00    -0.744 OA
ENDBRANCH  43  47
ENDBRANCH  26  40
BRANCH  27  51
ATOM     51  C   UNL A   1      42.844  24.913  26.756  1.00  0.00     0.023 A 
ATOM     52  C   UNL A   1      43.800  24.472  25.814  1.00  0.00     0.031 A 
ATOM     53  C   UNL A   1      41.768  24.033  27.019  1.00  0.00     0.131 A 
ATOM     54  C   UNL A   1      43.649  23.214  25.179  1.00  0.00     0.055 A 
ATOM     55  C   UNL A   1      41.616  22.803  26.380  1.00  0.00     0.041 A 
ATOM     56  F   UNL A   1      40.866  24.302  27.974  1.00  0.00    -0.206 F 
ATOM     57  C   UNL A   1      42.561  22.383  25.461  1.00  0.00     0.022 A 
BRANCH  54  58
ATOM     58  S   UNL A   1      44.925  22.587  24.037  1.00  0.00     0.124 S 
ATOM     59  O   UNL A   1      45.829  23.721  23.924  1.00  0.00    -0.237 OA
ATOM     60  O   UNL A   1      45.433  21.415  24.748  1.00  0.00    -0.237 OA
ATOM     61  O   UNL A   1      44.172  22.277  22.821  1.00  0.00    -0.744 OA
ENDBRANCH  54  58
ENDBRANCH  27  51
BRANCH  39  62
ATOM     62  C   UNL A   1      45.912  29.773  29.502  1.00  0.00     0.023 A 
ATOM     63  C   UNL A   1      45.093  30.493  28.604  1.00  0.00     0.031 A 
ATOM     64  C   UNL A   1      47.273  30.120  29.567  1.00  0.00     0.131 A 
ATOM     65  C   UNL A   1      45.652  31.508  27.804  1.00  0.00     0.055 A 
ATOM     66  C   UNL A   1      47.818  31.140  28.789  1.00  0.00     0.041 A 
ATOM     67  F   UNL A   1      48.098  29.493  30.422  1.00  0.00    -0.206 F 
ATOM     68  C   UNL A   1      47.008  31.834  27.898  1.00  0.00     0.022 A 
BRANCH  65  69
ATOM     69  S   UNL A   1      44.623  32.417  26.608  1.00  0.00     0.124 S 
ATOM     70  O   UNL A   1      45.591  32.961  25.663  1.00  0.00    -0.237 OA
ATOM     71  O   UNL A   1      43.743  31.371  26.093  1.00  0.00    -0.237 OA
ATOM     72  O   UNL A   1      43.951  33.422  27.434  1.00  0.00    -0.744 OA
ENDBRANCH  65  69
ENDBRANCH  39  62
ENDBRANCH  13  14
ENDBRANCH   6   8
ENDBRANCH   3   4
ENDBRANCH   2   3
ENDBRANCH   1   2
BRANCH   1  73
ATOM     73  C   UNL A   1      31.422  28.089  26.193  1.00  0.00     0.002 C 
BRANCH  73  74
ATOM     74  C   UNL A   1      31.184  26.629  26.574  1.00  0.00     0.021 C 
BRANCH  74  75
ATOM     75  C   UNL A   1      30.020  25.903  25.897  1.00  0.00     0.116 C 
BRANCH  75  76
ATOM     76  N   UNL A   1      29.857  24.528  26.348  1.00  0.00    -0.354 N 
ATOM     77  C   UNL A   1      30.694  23.463  26.450  1.00  0.00     0.242 C 
ATOM     78  H   UNL A   1      28.940  24.326  26.644  1.00  0.00     0.163 HD
ATOM     79  O   UNL A   1      30.182  22.443  26.938  1.00  0.00    -0.273 OA
BRANCH  77  80
ATOM     80  C   UNL A   1      32.215  23.427  26.072  1.00  0.00     0.174 C 
ATOM     81  C   UNL A   1      33.001  22.713  27.179  1.00  0.00     0.036 C 
ATOM     82  N   UNL A   1      32.779  23.115  24.700  1.00  0.00    -0.326 N 
ATOM     83  C   UNL A   1      34.489  22.964  27.114  1.00  0.00     0.008 C 
ATOM     84  C   UNL A   1      34.300  23.237  24.619  1.00  0.00     0.089 C 
ATOM     85  C   UNL A   1      34.986  22.451  25.769  1.00  0.00     0.012 C 
ATOM     86  C   UNL A   1      34.992  22.873  23.280  1.00  0.00     0.025 C 
ATOM     87  C   UNL A   1      36.519  22.510  25.759  1.00  0.00     0.006 C 
ATOM     88  C   UNL A   1      36.518  22.935  23.319  1.00  0.00     0.002 C 
ATOM     89  C   UNL A   1      37.084  22.066  24.423  1.00  0.00     0.000 C 
BRANCH  82  90
ATOM     90  C   UNL A   1      32.044  23.164  23.501  1.00  0.00     0.245 C 
ATOM     91  O   UNL A   1      31.952  22.189  22.744  1.00  0.00    -0.273 OA
BRANCH  90  92
ATOM     92  C   UNL A   1      31.339  24.396  23.000  1.00  0.00     0.248 C 
BRANCH  92  93
ATOM     93  N   UNL A   1      32.191  25.434  22.492  1.00  0.00    -0.223 N 
ATOM     94  C   UNL A   1      32.320  26.692  22.989  1.00  0.00     0.246 A 
ATOM     95  N   UNL A   1      33.046  25.256  21.475  1.00  0.00    -0.045 NA
ATOM     96  N   UNL A   1      33.253  27.310  22.307  1.00  0.00    -0.117 NA
ATOM     97  N   UNL A   1      33.704  26.402  21.377  1.00  0.00    -0.024 NA
ENDBRANCH  92  93
ENDBRANCH  90  92
ENDBRANCH  82  90
ENDBRANCH  77  80
ENDBRANCH  75  76
ENDBRANCH  74  75
ENDBRANCH  73  74
ENDBRANCH   1  73
TORSDOF 19
ENDMDL
MODEL 3
REMARK VINA RESULT:     -12.5      3.319      9.061
REMARK SMILES O=C(NCCCCCCNC(=O)[C@H]1CC[C@@H]2CCCC[C@H]2N1C(=O)Cn1cnnn1)c1ccc(-c2c3nc(c(-c4cc(S(=O)(=O)[O-])ccc4F)c4ccc([nH]4)c(-c4cc(S(=O)(=O)[O-])ccc4F)c4nc(c(-c5cc(S(=O)(=O)[O-])ccc5F)c5ccc2[nH]5)C=C4)C=C3)cc1
REMARK SMILES IDX 6 1 5 2 4 3 3 4 1 5 2 6 31 8 32 9 93 10 33 11 92 12 34 13
REMARK SMILES IDX 35 14 36 15 86 16 37 17 91 18 85 19 87 20 38 21 90 22 84 23
REMARK SMILES IDX 83 24 39 26 71 27 51 28 70 29 52 30 55 31 69 32 88 33 53 34
REMARK SMILES IDX 54 35 68 37 89 38 56 39 40 40 41 41 49 42 42 43 48 44 50 45
REMARK SMILES IDX 47 46 43 47 44 48 45 49 46 50 72 51 73 52 81 53 74 54 80 55
REMARK SMILES IDX 82 56 79 57 75 58 76 59 77 60 78 61 57 62 58 63 66 64 59 65
REMARK SMILES IDX 65 66 67 67 64 68 60 69 61 70 62 71 63 72 7 73 8 74 9 75
REMARK SMILES IDX 10 76 11 77 12 79 13 80 14 81 22 82 15 83 21 84 16 85 20 86
REMARK SMILES IDX 17 87 19 88 18 89 23 90 24 91 25 92 26 93 27 94 30 95 28 96
REMARK SMILES IDX 29 97
REMARK H PARENT 3 7 87 25 55 36 10 78
REMARK Flexibility Score: inf
ROOT
ATOM      1  C   UNL A   1      36.184  22.399  24.311  1.00  0.00     0.002 C 
ENDROOT
BRANCH   1   2
ATOM      2  C   UNL A   1      37.442  23.096  24.832  1.00  0.00     0.021 C 
BRANCH   2   3
ATOM      3  C   UNL A   1      38.008  22.552  26.143  1.00  0.00     0.116 C 
BRANCH   3   4
ATOM      4  N   UNL A   1      39.415  22.221  26.116  1.00  0.00    -0.352 N 
ATOM      5  O   UNL A   1      41.593  22.173  26.459  1.00  0.00    -0.269 OA
ATOM      6  C   UNL A   1      40.558  22.841  26.538  1.00  0.00     0.251 C 
ATOM      7  H   UNL A   1      39.592  21.347  25.698  1.00  0.00     0.163 HD
BRANCH   6   8
ATOM      8  C   UNL A   1      40.640  24.245  27.030  1.00  0.00     0.039 A 
ATOM      9  C   UNL A   1      40.004  25.350  26.462  1.00  0.00     0.014 A 
ATOM     10  C   UNL A   1      41.438  24.447  28.172  1.00  0.00     0.014 A 
ATOM     11  C   UNL A   1      40.215  26.629  26.972  1.00  0.00     0.010 A 
ATOM     12  C   UNL A   1      41.634  25.720  28.701  1.00  0.00     0.010 A 
ATOM     13  C   UNL A   1      41.035  26.816  28.085  1.00  0.00    -0.014 A 
BRANCH  13  14
ATOM     14  C   UNL A   1      41.058  28.139  28.712  1.00  0.00     0.031 A 
ATOM     15  C   UNL A   1      42.156  29.026  28.229  1.00  0.00     0.074 A 
ATOM     16  C   UNL A   1      40.081  28.629  29.501  1.00  0.00     0.049 A 
ATOM     17  N   UNL A   1      43.113  29.567  28.909  1.00  0.00    -0.248 NA
ATOM     18  C   UNL A   1      42.269  29.235  26.777  1.00  0.00     0.031 C 
ATOM     19  C   UNL A   1      38.803  27.994  29.821  1.00  0.00     0.029 A 
ATOM     20  N   UNL A   1      39.974  29.860  30.085  1.00  0.00    -0.354 N 
ATOM     21  C   UNL A   1      43.815  30.370  28.011  1.00  0.00     0.074 A 
ATOM     22  C   UNL A   1      43.375  29.973  26.703  1.00  0.00     0.031 C 
ATOM     23  C   UNL A   1      37.966  28.920  30.337  1.00  0.00     0.029 A 
ATOM     24  C   UNL A   1      38.679  30.179  30.490  1.00  0.00     0.049 A 
ATOM     25  H   UNL A   1      40.740  30.466  30.208  1.00  0.00     0.167 HD
ATOM     26  C   UNL A   1      44.522  31.459  28.429  1.00  0.00     0.034 A 
ATOM     27  C   UNL A   1      38.200  31.403  30.845  1.00  0.00     0.034 A 
ATOM     28  C   UNL A   1      44.814  31.375  29.846  1.00  0.00     0.049 A 
ATOM     29  C   UNL A   1      39.359  32.237  31.242  1.00  0.00     0.074 A 
ATOM     30  C   UNL A   1      45.442  30.444  30.653  1.00  0.00     0.029 A 
ATOM     31  N   UNL A   1      44.134  32.202  30.715  1.00  0.00    -0.354 N 
ATOM     32  N   UNL A   1      40.090  32.002  32.297  1.00  0.00    -0.248 NA
ATOM     33  C   UNL A   1      39.986  33.079  30.234  1.00  0.00     0.031 C 
ATOM     34  C   UNL A   1      44.698  30.447  31.870  1.00  0.00     0.029 A 
ATOM     35  C   UNL A   1      43.709  31.426  31.762  1.00  0.00     0.049 A 
ATOM     36  H   UNL A   1      43.982  33.168  30.605  1.00  0.00     0.167 HD
ATOM     37  C   UNL A   1      41.389  32.282  31.902  1.00  0.00     0.074 A 
ATOM     38  C   UNL A   1      41.250  33.048  30.666  1.00  0.00     0.031 C 
ATOM     39  C   UNL A   1      42.453  31.629  32.456  1.00  0.00     0.034 A 
BRANCH  26  40
ATOM     40  C   UNL A   1      44.584  32.778  27.671  1.00  0.00     0.023 A 
ATOM     41  C   UNL A   1      43.976  33.884  28.295  1.00  0.00     0.031 A 
ATOM     42  C   UNL A   1      44.872  32.944  26.296  1.00  0.00     0.131 A 
ATOM     43  C   UNL A   1      43.491  34.965  27.539  1.00  0.00     0.055 A 
ATOM     44  C   UNL A   1      44.462  34.062  25.564  1.00  0.00     0.041 A 
ATOM     45  F   UNL A   1      45.496  32.019  25.562  1.00  0.00    -0.206 F 
ATOM     46  C   UNL A   1      43.718  35.058  26.172  1.00  0.00     0.022 A 
BRANCH  43  47
ATOM     47  S   UNL A   1      42.341  36.104  28.350  1.00  0.00     0.124 S 
ATOM     48  O   UNL A   1      42.722  35.936  29.749  1.00  0.00    -0.237 OA
ATOM     49  O   UNL A   1      42.698  37.376  27.732  1.00  0.00    -0.237 OA
ATOM     50  O   UNL A   1      41.030  35.576  27.986  1.00  0.00    -0.744 OA
ENDBRANCH  43  47
ENDBRANCH  26  40
BRANCH  27  51
ATOM     51  C   UNL A   1      36.840  31.951  30.576  1.00  0.00     0.023 A 
ATOM     52  C   UNL A   1      36.085  32.651  31.544  1.00  0.00     0.031 A 
ATOM     53  C   UNL A   1      36.347  31.985  29.251  1.00  0.00     0.131 A 
ATOM     54  C   UNL A   1      34.896  33.326  31.171  1.00  0.00     0.055 A 
ATOM     55  C   UNL A   1      35.169  32.639  28.891  1.00  0.00     0.041 A 
ATOM     56  F   UNL A   1      37.043  31.450  28.236  1.00  0.00    -0.206 F 
ATOM     57  C   UNL A   1      34.441  33.320  29.850  1.00  0.00     0.022 A 
BRANCH  54  58
ATOM     58  S   UNL A   1      33.965  34.315  32.387  1.00  0.00     0.124 S 
ATOM     59  O   UNL A   1      34.988  35.207  32.914  1.00  0.00    -0.237 OA
ATOM     60  O   UNL A   1      32.925  34.929  31.564  1.00  0.00    -0.237 OA
ATOM     61  O   UNL A   1      33.474  33.314  33.336  1.00  0.00    -0.744 OA
ENDBRANCH  54  58
ENDBRANCH  27  51
BRANCH  39  62
ATOM     62  C   UNL A   1      42.256  30.872  33.750  1.00  0.00     0.023 A 
ATOM     63  C   UNL A   1      42.050  29.478  33.846  1.00  0.00     0.031 A 
ATOM     64  C   UNL A   1      42.400  31.596  34.947  1.00  0.00     0.131 A 
ATOM     65  C   UNL A   1      41.981  28.864  35.112  1.00  0.00     0.055 A 
ATOM     66  C   UNL A   1      42.352  30.981  36.197  1.00  0.00     0.041 A 
ATOM     67  F   UNL A   1      42.627  32.919  34.922  1.00  0.00    -0.206 F 
ATOM     68  C   UNL A   1      42.135  29.611  36.284  1.00  0.00     0.022 A 
BRANCH  65  69
ATOM     69  S   UNL A   1      41.671  27.076  35.258  1.00  0.00     0.124 S 
ATOM     70  O   UNL A   1      41.177  26.923  36.622  1.00  0.00    -0.237 OA
ATOM     71  O   UNL A   1      40.701  26.837  34.194  1.00  0.00    -0.237 OA
ATOM     72  O   UNL A   1      42.989  26.483  35.021  1.00  0.00    -0.744 OA
ENDBRANCH  65  69
ENDBRANCH  39  62
ENDBRANCH  13  14
ENDBRANCH   6   8
ENDBRANCH   3   4
ENDBRANCH   2   3
ENDBRANCH   1   2
BRANCH   1  73
ATOM     73  C   UNL A   1      35.526  22.975  23.059  1.00  0.00     0.002 C 
BRANCH  73  74
ATOM     74  C   UNL A   1      34.003  22.883  22.972  1.00  0.00     0.021 C 
BRANCH  74  75
ATOM     75  C   UNL A   1      33.273  23.992  22.213  1.00  0.00     0.116 C 
BRANCH  75  76
ATOM     76  N   UNL A   1      31.859  24.085  22.549  1.00  0.00    -0.354 N 
ATOM     77  C   UNL A   1      31.107  24.991  23.227  1.00  0.00     0.242 C 
ATOM     78  H   UNL A   1      31.332  23.325  22.211  1.00  0.00     0.163 HD
ATOM     79  O   UNL A   1      29.893  24.738  23.265  1.00  0.00    -0.273 OA
BRANCH  77  80
ATOM     80  C   UNL A   1      31.615  26.316  23.895  1.00  0.00     0.174 C 
ATOM     81  C   UNL A   1      30.509  27.377  23.832  1.00  0.00     0.036 C 
ATOM     82  N   UNL A   1      32.403  26.411  25.186  1.00  0.00    -0.326 N 
ATOM     83  C   UNL A   1      31.010  28.780  24.081  1.00  0.00     0.008 C 
ATOM     84  C   UNL A   1      32.828  27.835  25.544  1.00  0.00     0.089 C 
ATOM     85  C   UNL A   1      31.622  28.812  25.475  1.00  0.00     0.012 C 
ATOM     86  C   UNL A   1      33.581  28.059  26.880  1.00  0.00     0.025 C 
ATOM     87  C   UNL A   1      31.957  30.266  25.830  1.00  0.00     0.006 C 
ATOM     88  C   UNL A   1      33.883  29.523  27.198  1.00  0.00     0.002 C 
ATOM     89  C   UNL A   1      32.626  30.368  27.188  1.00  0.00     0.000 C 
BRANCH  82  90
ATOM     90  C   UNL A   1      33.097  25.342  25.783  1.00  0.00     0.245 C 
ATOM     91  O   UNL A   1      34.297  25.131  25.565  1.00  0.00    -0.273 OA
BRANCH  90  92
ATOM     92  C   UNL A   1      32.456  24.335  26.701  1.00  0.00     0.248 C 
BRANCH  92  93
ATOM     93  N   UNL A   1      32.431  22.983  26.216  1.00  0.00    -0.223 N 
ATOM     94  C   UNL A   1      33.320  21.999  26.516  1.00  0.00     0.246 A 
ATOM     95  N   UNL A   1      31.453  22.494  25.442  1.00  0.00    -0.045 NA
ATOM     96  N   UNL A   1      32.911  20.890  25.949  1.00  0.00    -0.117 NA
ATOM     97  N   UNL A   1      31.743  21.208  25.296  1.00  0.00    -0.024 NA
ENDBRANCH  92  93
ENDBRANCH  90  92
ENDBRANCH  82  90
ENDBRANCH  77  80
ENDBRANCH  75  76
ENDBRANCH  74  75
ENDBRANCH  73  74
ENDBRANCH   1  73
TORSDOF 19
ENDMDL
