MODEL 1
REMARK VINA RESULT:     -11.5      0.000      0.000
REMARK SMILES CCOC(=O)c1c(NC(=O)[C@@H]2[C@@H](C(=O)NCCCCCCNC(=O)c3ccc(-c4c5nc(c(-c6cc(S(=O)(=O)[O-])ccc6F)c6ccc([nH]6)c(-c6cc(S(=O)(=O)[O-])ccc6F)c6nc(c(-c7cc(S(=O)(=O)[O-])ccc7F)c7ccc4[nH]7)C=C6)C=C5)cc3)[C@@H]3C=C[C@H]2CC3)sc2c1CCC2
REMARK SMILES IDX 17 1 16 2 15 3 13 4 14 5 12 7 11 8 91 9 88 10 90 11 92 12
REMARK SMILES IDX 89 13 93 14 9 15 8 16 10 18 7 19 6 20 96 21 94 22 95 23
REMARK SMILES IDX 97 24 99 25 98 26 4 27 5 28 3 29 2 30 1 31 18 32 19 33 20 34
REMARK SMILES IDX 21 35 22 36 23 37 24 39 25 40 26 41 87 42 27 43 86 44 28 45
REMARK SMILES IDX 29 46 30 47 80 48 31 49 85 50 79 51 81 52 32 53 84 54 78 55
REMARK SMILES IDX 77 56 33 58 65 59 45 60 64 61 46 62 49 63 63 64 82 65 47 66
REMARK SMILES IDX 48 67 62 69 83 70 50 71 34 72 35 73 43 74 36 75 42 76 44 77
REMARK SMILES IDX 41 78 37 79 38 80 39 81 40 82 66 83 67 84 75 85 68 86 74 87
REMARK SMILES IDX 76 88 73 89 69 90 70 91 71 92 72 93 51 94 52 95 60 96 53 97
REMARK SMILES IDX 59 98 61 99 58 100 54 101 55 102 56 103 57 104
REMARK H PARENT 15 6 8 17 22 38 81 57 49 68
REMARK Flexibility Score: inf
ROOT
ATOM      1  C   UNL A   1      32.653  30.491  27.220  1.00  0.00     0.021 C 
ENDROOT
BRANCH   1   2
ATOM      2  C   UNL A   1      32.187  29.045  27.310  1.00  0.00     0.116 C 
BRANCH   2   3
ATOM      3  N   UNL A   1      33.125  28.006  26.944  1.00  0.00    -0.356 N 
ATOM      4  C   UNL A   1      32.986  26.899  26.154  1.00  0.00     0.224 C 
ATOM      5  O   UNL A   1      34.049  26.341  25.847  1.00  0.00    -0.275 OA
ATOM      6  H   UNL A   1      34.023  28.116  27.333  1.00  0.00     0.163 HD
BRANCH   4   7
ATOM      7  C   UNL A   1      31.654  26.220  25.733  1.00  0.00     0.098 C 
ATOM      8  C   UNL A   1      31.650  24.726  25.298  1.00  0.00     0.099 C 
ATOM      9  C   UNL A   1      30.956  24.595  23.899  1.00  0.00     0.025 C 
ATOM     10  C   UNL A   1      31.001  27.085  24.606  1.00  0.00     0.025 C 
ATOM     11  C   UNL A   1      29.585  25.237  24.000  1.00  0.00    -0.027 C 
ATOM     12  C   UNL A   1      31.721  25.421  22.840  1.00  0.00     0.009 C 
ATOM     13  C   UNL A   1      29.609  26.529  24.363  1.00  0.00    -0.027 C 
ATOM     14  C   UNL A   1      31.778  26.899  23.279  1.00  0.00     0.009 C 
BRANCH   8  15
ATOM     15  C   UNL A   1      31.056  23.685  26.254  1.00  0.00     0.229 C 
ATOM     16  N   UNL A   1      31.783  22.561  26.615  1.00  0.00    -0.317 N 
ATOM     17  H   UNL A   1      31.283  21.914  27.162  1.00  0.00     0.170 HD
ATOM     18  O   UNL A   1      29.911  23.797  26.700  1.00  0.00    -0.274 OA
BRANCH  16  19
ATOM     19  C   UNL A   1      33.097  22.186  26.341  1.00  0.00     0.110 A 
ATOM     20  C   UNL A   1      33.584  21.417  25.278  1.00  0.00     0.098 A 
ATOM     21  C   UNL A   1      35.006  21.583  25.197  1.00  0.00    -0.017 A 
ATOM     22  S   UNL A   1      34.375  22.500  27.444  1.00  0.00    -0.122 S 
ATOM     23  C   UNL A   1      35.500  22.277  26.261  1.00  0.00     0.011 A 
ATOM     24  C   UNL A   1      36.101  21.278  24.238  1.00  0.00     0.038 C 
ATOM     25  C   UNL A   1      36.928  22.628  26.187  1.00  0.00     0.047 C 
ATOM     26  C   UNL A   1      37.387  21.681  25.047  1.00  0.00     0.010 C 
BRANCH  20  27
ATOM     27  C   UNL A   1      32.737  20.666  24.375  1.00  0.00     0.341 C 
ATOM     28  O   UNL A   1      32.485  21.030  23.226  1.00  0.00    -0.246 OA
BRANCH  27  29
ATOM     29  O   UNL A   1      32.151  19.613  25.004  1.00  0.00    -0.462 OA
BRANCH  29  30
ATOM     30  C   UNL A   1      32.425  18.305  24.482  1.00  0.00     0.230 C 
ATOM     31  C   UNL A   1      33.918  18.027  24.377  1.00  0.00     0.049 C 
ENDBRANCH  29  30
ENDBRANCH  27  29
ENDBRANCH  20  27
ENDBRANCH  16  19
ENDBRANCH   8  15
ENDBRANCH   4   7
ENDBRANCH   2   3
ENDBRANCH   1   2
BRANCH   1  32
ATOM     32  C   UNL A   1      34.111  30.742  26.853  1.00  0.00     0.002 C 
BRANCH  32  33
ATOM     33  C   UNL A   1      34.981  31.489  27.870  1.00  0.00     0.002 C 
BRANCH  33  34
ATOM     34  C   UNL A   1      34.681  32.971  28.137  1.00  0.00     0.021 C 
BRANCH  34  35
ATOM     35  C   UNL A   1      35.704  33.719  28.985  1.00  0.00     0.116 C 
BRANCH  35  36
ATOM     36  N   UNL A   1      35.442  33.613  30.411  1.00  0.00    -0.352 N 
ATOM     37  C   UNL A   1      35.934  32.692  31.311  1.00  0.00     0.251 C 
ATOM     38  H   UNL A   1      34.832  34.290  30.784  1.00  0.00     0.163 HD
ATOM     39  O   UNL A   1      35.362  32.529  32.384  1.00  0.00    -0.269 OA
BRANCH  37  40
ATOM     40  C   UNL A   1      37.120  31.879  30.968  1.00  0.00     0.039 A 
ATOM     41  C   UNL A   1      38.385  32.477  30.964  1.00  0.00     0.014 A 
ATOM     42  C   UNL A   1      36.981  30.529  30.641  1.00  0.00     0.014 A 
ATOM     43  C   UNL A   1      39.512  31.691  30.728  1.00  0.00     0.010 A 
ATOM     44  C   UNL A   1      38.105  29.735  30.477  1.00  0.00     0.010 A 
ATOM     45  C   UNL A   1      39.377  30.311  30.517  1.00  0.00    -0.014 A 
BRANCH  45  46
ATOM     46  C   UNL A   1      40.575  29.461  30.521  1.00  0.00     0.031 A 
ATOM     47  C   UNL A   1      41.166  29.198  31.864  1.00  0.00     0.074 A 
ATOM     48  C   UNL A   1      41.025  28.751  29.465  1.00  0.00     0.049 A 
ATOM     49  N   UNL A   1      42.347  29.510  32.284  1.00  0.00    -0.248 NA
ATOM     50  C   UNL A   1      40.308  28.606  32.902  1.00  0.00     0.031 C 
ATOM     51  C   UNL A   1      40.419  28.645  28.138  1.00  0.00     0.029 A 
ATOM     52  N   UNL A   1      42.063  27.862  29.403  1.00  0.00    -0.354 N 
ATOM     53  C   UNL A   1      42.467  28.978  33.566  1.00  0.00     0.074 A 
ATOM     54  C   UNL A   1      41.136  28.584  33.949  1.00  0.00     0.031 C 
ATOM     55  C   UNL A   1      40.949  27.584  27.491  1.00  0.00     0.029 A 
ATOM     56  C   UNL A   1      42.017  27.017  28.298  1.00  0.00     0.049 A 
ATOM     57  H   UNL A   1      42.777  27.823  30.079  1.00  0.00     0.167 HD
ATOM     58  C   UNL A   1      43.688  28.734  34.123  1.00  0.00     0.034 A 
ATOM     59  C   UNL A   1      42.765  25.906  28.069  1.00  0.00     0.034 A 
ATOM     60  C   UNL A   1      44.736  29.408  33.387  1.00  0.00     0.049 A 
ATOM     61  C   UNL A   1      44.003  26.034  28.874  1.00  0.00     0.074 A 
ATOM     62  C   UNL A   1      44.980  30.722  33.034  1.00  0.00     0.029 A 
ATOM     63  N   UNL A   1      45.565  28.655  32.584  1.00  0.00    -0.354 N 
ATOM     64  N   UNL A   1      44.920  26.931  28.639  1.00  0.00    -0.248 NA
ATOM     65  C   UNL A   1      44.039  25.456  30.209  1.00  0.00     0.031 C 
ATOM     66  C   UNL A   1      45.524  30.653  31.718  1.00  0.00     0.029 A 
ATOM     67  C   UNL A   1      45.657  29.306  31.379  1.00  0.00     0.049 A 
ATOM     68  H   UNL A   1      46.009  27.810  32.828  1.00  0.00     0.167 HD
ATOM     69  C   UNL A   1      45.336  27.353  29.891  1.00  0.00     0.074 A 
ATOM     70  C   UNL A   1      44.859  26.323  30.811  1.00  0.00     0.031 C 
ATOM     71  C   UNL A   1      45.769  28.633  30.099  1.00  0.00     0.034 A 
BRANCH  58  72
ATOM     72  C   UNL A   1      44.008  27.636  35.119  1.00  0.00     0.023 A 
ATOM     73  C   UNL A   1      43.988  26.310  34.635  1.00  0.00     0.031 A 
ATOM     74  C   UNL A   1      44.033  27.769  36.524  1.00  0.00     0.131 A 
ATOM     75  C   UNL A   1      43.844  25.218  35.508  1.00  0.00     0.055 A 
ATOM     76  C   UNL A   1      43.973  26.671  37.392  1.00  0.00     0.041 A 
ATOM     77  F   UNL A   1      44.026  28.954  37.142  1.00  0.00    -0.206 F 
ATOM     78  C   UNL A   1      43.835  25.390  36.887  1.00  0.00     0.022 A 
BRANCH  75  79
ATOM     79  S   UNL A   1      43.448  23.603  34.791  1.00  0.00     0.124 S 
ATOM     80  O   UNL A   1      44.259  22.716  35.618  1.00  0.00    -0.237 OA
ATOM     81  O   UNL A   1      42.005  23.532  34.991  1.00  0.00    -0.237 OA
ATOM     82  O   UNL A   1      43.881  23.735  33.402  1.00  0.00    -0.744 OA
ENDBRANCH  75  79
ENDBRANCH  58  72
BRANCH  59  83
ATOM     83  C   UNL A   1      42.384  24.677  27.321  1.00  0.00     0.023 A 
ATOM     84  C   UNL A   1      43.304  23.959  26.529  1.00  0.00     0.031 A 
ATOM     85  C   UNL A   1      41.137  24.052  27.558  1.00  0.00     0.131 A 
ATOM     86  C   UNL A   1      42.963  22.687  26.013  1.00  0.00     0.055 A 
ATOM     87  C   UNL A   1      40.796  22.807  27.026  1.00  0.00     0.041 A 
ATOM     88  F   UNL A   1      40.233  24.589  28.393  1.00  0.00    -0.206 F 
ATOM     89  C   UNL A   1      41.715  22.113  26.257  1.00  0.00     0.022 A 
BRANCH  86  90
ATOM     90  S   UNL A   1      44.201  21.689  25.124  1.00  0.00     0.124 S 
ATOM     91  O   UNL A   1      43.773  20.327  25.422  1.00  0.00    -0.237 OA
ATOM     92  O   UNL A   1      44.038  22.135  23.744  1.00  0.00    -0.237 OA
ATOM     93  O   UNL A   1      45.464  22.089  25.746  1.00  0.00    -0.744 OA
ENDBRANCH  86  90
ENDBRANCH  59  83
BRANCH  71  94
ATOM     94  C   UNL A   1      46.137  29.490  28.904  1.00  0.00     0.023 A 
ATOM     95  C   UNL A   1      45.322  30.503  28.356  1.00  0.00     0.031 A 
ATOM     96  C   UNL A   1      47.434  29.345  28.376  1.00  0.00     0.131 A 
ATOM     97  C   UNL A   1      45.804  31.310  27.308  1.00  0.00     0.055 A 
ATOM     98  C   UNL A   1      47.920  30.164  27.357  1.00  0.00     0.041 A 
ATOM     99  F   UNL A   1      48.273  28.418  28.870  1.00  0.00    -0.206 F 
ATOM    100  C   UNL A   1      47.101  31.145  26.812  1.00  0.00     0.022 A 
BRANCH  97 101
ATOM    101  S   UNL A   1      44.737  32.575  26.549  1.00  0.00     0.124 S 
ATOM    102  O   UNL A   1      45.671  33.418  25.814  1.00  0.00    -0.237 OA
ATOM    103  O   UNL A   1      43.827  31.771  25.737  1.00  0.00    -0.237 OA
ATOM    104  O   UNL A   1      44.110  33.223  27.703  1.00  0.00    -0.744 OA
ENDBRANCH  97 101
ENDBRANCH  71  94
ENDBRANCH  45  46
ENDBRANCH  37  40
ENDBRANCH  35  36
ENDBRANCH  34  35
ENDBRANCH  33  34
ENDBRANCH  32  33
ENDBRANCH   1  32
TORSDOF 21
ENDMDL
MODEL 2
REMARK VINA RESULT:     -11.4      2.957      9.224
REMARK SMILES CCOC(=O)c1c(NC(=O)[C@@H]2[C@@H](C(=O)NCCCCCCNC(=O)c3ccc(-c4c5nc(c(-c6cc(S(=O)(=O)[O-])ccc6F)c6ccc([nH]6)c(-c6cc(S(=O)(=O)[O-])ccc6F)c6nc(c(-c7cc(S(=O)(=O)[O-])ccc7F)c7ccc4[nH]7)C=C6)C=C5)cc3)[C@@H]3C=C[C@H]2CC3)sc2c1CCC2
REMARK SMILES IDX 17 1 16 2 15 3 13 4 14 5 12 7 11 8 91 9 88 10 90 11 92 12
REMARK SMILES IDX 89 13 93 14 9 15 8 16 10 18 7 19 6 20 96 21 94 22 95 23
REMARK SMILES IDX 97 24 99 25 98 26 4 27 5 28 3 29 2 30 1 31 18 32 19 33 20 34
REMARK SMILES IDX 21 35 22 36 23 37 24 39 25 40 26 41 87 42 27 43 86 44 28 45
REMARK SMILES IDX 29 46 30 47 80 48 31 49 85 50 79 51 81 52 32 53 84 54 78 55
REMARK SMILES IDX 77 56 33 58 65 59 45 60 64 61 46 62 49 63 63 64 82 65 47 66
REMARK SMILES IDX 48 67 62 69 83 70 50 71 34 72 35 73 43 74 36 75 42 76 44 77
REMARK SMILES IDX 41 78 37 79 38 80 39 81 40 82 66 83 67 84 75 85 68 86 74 87
REMARK SMILES IDX 76 88 73 89 69 90 70 91 71 92 72 93 51 94 52 95 60 96 53 97
REMARK SMILES IDX 59 98 61 99 58 100 54 101 55 102 56 103 57 104
REMARK H PARENT 15 6 8 17 22 38 81 57 49 68
REMARK Flexibility Score: inf
ROOT
ATOM      1  C   UNL A   1      38.102  22.746  25.868  1.00  0.00     0.021 C 
ENDROOT
BRANCH   1   2
ATOM      2  C   UNL A   1      36.706  22.905  25.285  1.00  0.00     0.116 C 
BRANCH   2   3
ATOM      3  N   UNL A   1      36.006  24.147  25.529  1.00  0.00    -0.356 N 
ATOM      4  C   UNL A   1      34.782  24.592  25.115  1.00  0.00     0.224 C 
ATOM      5  O   UNL A   1      34.371  25.606  25.697  1.00  0.00    -0.275 OA
ATOM      6  H   UNL A   1      36.498  24.784  26.095  1.00  0.00     0.163 HD
BRANCH   4   7
ATOM      7  C   UNL A   1      33.948  24.043  23.924  1.00  0.00     0.098 C 
ATOM      8  C   UNL A   1      32.758  24.875  23.364  1.00  0.00     0.099 C 
ATOM      9  C   UNL A   1      31.471  23.981  23.331  1.00  0.00     0.025 C 
ATOM     10  C   UNL A   1      33.442  22.613  24.303  1.00  0.00     0.025 C 
ATOM     11  C   UNL A   1      31.799  22.724  22.550  1.00  0.00    -0.027 C 
ATOM     12  C   UNL A   1      31.115  23.500  24.756  1.00  0.00     0.009 C 
ATOM     13  C   UNL A   1      32.819  22.012  23.055  1.00  0.00    -0.027 C 
ATOM     14  C   UNL A   1      32.303  22.714  25.349  1.00  0.00     0.009 C 
BRANCH   8  15
ATOM     15  C   UNL A   1      32.923  25.569  22.007  1.00  0.00     0.229 C 
ATOM     16  N   UNL A   1      32.887  26.951  21.911  1.00  0.00    -0.317 N 
ATOM     17  H   UNL A   1      32.916  27.294  20.990  1.00  0.00     0.170 HD
ATOM     18  O   UNL A   1      33.058  24.923  20.964  1.00  0.00    -0.274 OA
BRANCH  16  19
ATOM     19  C   UNL A   1      32.816  27.941  22.889  1.00  0.00     0.110 A 
ATOM     20  C   UNL A   1      31.699  28.661  23.327  1.00  0.00     0.098 A 
ATOM     21  C   UNL A   1      32.017  29.302  24.570  1.00  0.00    -0.017 A 
ATOM     22  S   UNL A   1      34.227  28.579  23.632  1.00  0.00    -0.122 S 
ATOM     23  C   UNL A   1      33.340  29.189  24.879  1.00  0.00     0.011 A 
ATOM     24  C   UNL A   1      31.298  30.000  25.670  1.00  0.00     0.038 C 
ATOM     25  C   UNL A   1      33.729  29.684  26.210  1.00  0.00     0.047 C 
ATOM     26  C   UNL A   1      32.474  30.520  26.572  1.00  0.00     0.010 C 
BRANCH  20  27
ATOM     27  C   UNL A   1      30.420  28.651  22.649  1.00  0.00     0.341 C 
ATOM     28  O   UNL A   1      29.894  27.626  22.215  1.00  0.00    -0.246 OA
BRANCH  27  29
ATOM     29  O   UNL A   1      29.966  29.913  22.428  1.00  0.00    -0.462 OA
BRANCH  29  30
ATOM     30  C   UNL A   1      28.651  30.047  21.871  1.00  0.00     0.230 C 
ATOM     31  C   UNL A   1      28.476  31.354  21.111  1.00  0.00     0.049 C 
ENDBRANCH  29  30
ENDBRANCH  27  29
ENDBRANCH  20  27
ENDBRANCH  16  19
ENDBRANCH   8  15
ENDBRANCH   4   7
ENDBRANCH   2   3
ENDBRANCH   1   2
BRANCH   1  32
ATOM     32  C   UNL A   1      38.782  21.390  25.713  1.00  0.00     0.002 C 
BRANCH  32  33
ATOM     33  C   UNL A   1      40.197  21.235  26.281  1.00  0.00     0.002 C 
BRANCH  33  34
ATOM     34  C   UNL A   1      40.912  19.889  26.099  1.00  0.00     0.021 C 
BRANCH  34  35
ATOM     35  C   UNL A   1      42.363  19.833  26.564  1.00  0.00     0.116 C 
BRANCH  35  36
ATOM     36  N   UNL A   1      43.301  19.648  25.468  1.00  0.00    -0.352 N 
ATOM     37  C   UNL A   1      43.990  20.604  24.754  1.00  0.00     0.251 C 
ATOM     38  H   UNL A   1      43.466  18.714  25.202  1.00  0.00     0.163 HD
ATOM     39  O   UNL A   1      44.467  20.316  23.660  1.00  0.00    -0.269 OA
BRANCH  37  40
ATOM     40  C   UNL A   1      44.121  21.977  25.286  1.00  0.00     0.039 A 
ATOM     41  C   UNL A   1      43.253  22.975  24.833  1.00  0.00     0.014 A 
ATOM     42  C   UNL A   1      45.108  22.280  26.225  1.00  0.00     0.014 A 
ATOM     43  C   UNL A   1      43.319  24.248  25.398  1.00  0.00     0.010 A 
ATOM     44  C   UNL A   1      45.127  23.523  26.837  1.00  0.00     0.010 A 
ATOM     45  C   UNL A   1      44.234  24.515  26.427  1.00  0.00    -0.014 A 
BRANCH  45  46
ATOM     46  C   UNL A   1      44.124  25.771  27.181  1.00  0.00     0.031 A 
ATOM     47  C   UNL A   1      45.157  26.798  26.862  1.00  0.00     0.074 A 
ATOM     48  C   UNL A   1      43.069  26.128  27.942  1.00  0.00     0.049 A 
ATOM     49  N   UNL A   1      46.033  27.313  27.660  1.00  0.00    -0.248 NA
ATOM     50  C   UNL A   1      45.302  27.235  25.466  1.00  0.00     0.031 C 
ATOM     51  C   UNL A   1      41.827  25.384  28.150  1.00  0.00     0.029 A 
ATOM     52  N   UNL A   1      42.836  27.308  28.594  1.00  0.00    -0.354 N 
ATOM     53  C   UNL A   1      46.710  28.289  26.932  1.00  0.00     0.074 A 
ATOM     54  C   UNL A   1      46.333  28.078  25.558  1.00  0.00     0.031 C 
ATOM     55  C   UNL A   1      40.894  26.213  28.669  1.00  0.00     0.029 A 
ATOM     56  C   UNL A   1      41.505  27.501  28.952  1.00  0.00     0.049 A 
ATOM     57  H   UNL A   1      43.545  27.961  28.792  1.00  0.00     0.167 HD
ATOM     58  C   UNL A   1      47.375  29.306  27.551  1.00  0.00     0.034 A 
ATOM     59  C   UNL A   1      40.923  28.642  29.407  1.00  0.00     0.034 A 
ATOM     60  C   UNL A   1      47.563  29.020  28.957  1.00  0.00     0.049 A 
ATOM     61  C   UNL A   1      41.996  29.479  29.996  1.00  0.00     0.074 A 
ATOM     62  C   UNL A   1      48.152  27.988  29.665  1.00  0.00     0.029 A 
ATOM     63  N   UNL A   1      46.793  29.698  29.876  1.00  0.00    -0.354 N 
ATOM     64  N   UNL A   1      42.645  29.152  31.079  1.00  0.00    -0.248 NA
ATOM     65  C   UNL A   1      42.658  30.469  29.160  1.00  0.00     0.031 C 
ATOM     66  C   UNL A   1      47.311  27.795  30.800  1.00  0.00     0.029 A 
ATOM     67  C   UNL A   1      46.311  28.768  30.762  1.00  0.00     0.049 A 
ATOM     68  H   UNL A   1      46.620  30.668  29.895  1.00  0.00     0.167 HD
ATOM     69  C   UNL A   1      43.956  29.528  30.837  1.00  0.00     0.074 A 
ATOM     70  C   UNL A   1      43.879  30.447  29.704  1.00  0.00     0.031 C 
ATOM     71  C   UNL A   1      45.002  28.838  31.383  1.00  0.00     0.034 A 
BRANCH  58  72
ATOM     72  C   UNL A   1      47.572  30.705  27.000  1.00  0.00     0.023 A 
ATOM     73  C   UNL A   1      48.873  31.246  27.085  1.00  0.00     0.031 A 
ATOM     74  C   UNL A   1      46.550  31.627  26.686  1.00  0.00     0.131 A 
ATOM     75  C   UNL A   1      49.091  32.632  27.013  1.00  0.00     0.055 A 
ATOM     76  C   UNL A   1      46.786  32.999  26.534  1.00  0.00     0.041 A 
ATOM     77  F   UNL A   1      45.262  31.281  26.595  1.00  0.00    -0.206 F 
ATOM     78  C   UNL A   1      48.054  33.516  26.738  1.00  0.00     0.022 A 
BRANCH  75  79
ATOM     79  S   UNL A   1      50.715  33.264  27.507  1.00  0.00     0.124 S 
ATOM     80  O   UNL A   1      50.389  34.640  27.868  1.00  0.00    -0.237 OA
ATOM     81  O   UNL A   1      51.062  32.373  28.607  1.00  0.00    -0.237 OA
ATOM     82  O   UNL A   1      51.520  33.108  26.297  1.00  0.00    -0.744 OA
ENDBRANCH  75  79
ENDBRANCH  58  72
BRANCH  59  83
ATOM     83  C   UNL A   1      39.523  29.106  29.207  1.00  0.00     0.023 A 
ATOM     84  C   UNL A   1      38.735  29.607  30.265  1.00  0.00     0.031 A 
ATOM     85  C   UNL A   1      39.003  29.272  27.902  1.00  0.00     0.131 A 
ATOM     86  C   UNL A   1      37.496  30.233  29.997  1.00  0.00     0.055 A 
ATOM     87  C   UNL A   1      37.767  29.870  27.645  1.00  0.00     0.041 A 
ATOM     88  F   UNL A   1      39.720  28.941  26.816  1.00  0.00    -0.206 F 
ATOM     89  C   UNL A   1      37.012  30.364  28.695  1.00  0.00     0.022 A 
BRANCH  86  90
ATOM     90  S   UNL A   1      36.551  31.021  31.341  1.00  0.00     0.124 S 
ATOM     91  O   UNL A   1      36.240  29.889  32.206  1.00  0.00    -0.237 OA
ATOM     92  O   UNL A   1      37.497  32.000  31.864  1.00  0.00    -0.237 OA
ATOM     93  O   UNL A   1      35.399  31.601  30.646  1.00  0.00    -0.744 OA
ENDBRANCH  86  90
ENDBRANCH  59  83
BRANCH  71  94
ATOM     94  C   UNL A   1      44.738  27.891  32.536  1.00  0.00     0.023 A 
ATOM     95  C   UNL A   1      44.633  26.488  32.420  1.00  0.00     0.031 A 
ATOM     96  C   UNL A   1      44.713  28.437  33.834  1.00  0.00     0.131 A 
ATOM     97  C   UNL A   1      44.489  25.691  33.572  1.00  0.00     0.055 A 
ATOM     98  C   UNL A   1      44.598  27.644  34.975  1.00  0.00     0.041 A 
ATOM     99  F   UNL A   1      44.835  29.763  34.019  1.00  0.00    -0.206 F 
ATOM    100  C   UNL A   1      44.476  26.265  34.846  1.00  0.00     0.022 A 
BRANCH  97 101
ATOM    101  S   UNL A   1      44.286  23.887  33.429  1.00  0.00     0.124 S 
ATOM    102  O   UNL A   1      43.106  23.608  34.236  1.00  0.00    -0.237 OA
ATOM    103  O   UNL A   1      44.134  23.703  31.988  1.00  0.00    -0.237 OA
ATOM    104  O   UNL A   1      45.539  23.363  33.978  1.00  0.00    -0.744 OA
ENDBRANCH  97 101
ENDBRANCH  71  94
ENDBRANCH  45  46
ENDBRANCH  37  40
ENDBRANCH  35  36
ENDBRANCH  34  35
ENDBRANCH  33  34
ENDBRANCH  32  33
ENDBRANCH   1  32
TORSDOF 21
ENDMDL
MODEL 3
REMARK VINA RESULT:     -11.3      2.851      9.155
REMARK SMILES CCOC(=O)c1c(NC(=O)[C@@H]2[C@@H](C(=O)NCCCCCCNC(=O)c3ccc(-c4c5nc(c(-c6cc(S(=O)(=O)[O-])ccc6F)c6ccc([nH]6)c(-c6cc(S(=O)(=O)[O-])ccc6F)c6nc(c(-c7cc(S(=O)(=O)[O-])ccc7F)c7ccc4[nH]7)C=C6)C=C5)cc3)[C@@H]3C=C[C@H]2CC3)sc2c1CCC2
REMARK SMILES IDX 17 1 16 2 15 3 13 4 14 5 12 7 11 8 91 9 88 10 90 11 92 12
REMARK SMILES IDX 89 13 93 14 9 15 8 16 10 18 7 19 6 20 96 21 94 22 95 23
REMARK SMILES IDX 97 24 99 25 98 26 4 27 5 28 3 29 2 30 1 31 18 32 19 33 20 34
REMARK SMILES IDX 21 35 22 36 23 37 24 39 25 40 26 41 87 42 27 43 86 44 28 45
REMARK SMILES IDX 29 46 30 47 80 48 31 49 85 50 79 51 81 52 32 53 84 54 78 55
REMARK SMILES IDX 77 56 33 58 65 59 45 60 64 61 46 62 49 63 63 64 82 65 47 66
REMARK SMILES IDX 48 67 62 69 83 70 50 71 34 72 35 73 43 74 36 75 42 76 44 77
REMARK SMILES IDX 41 78 37 79 38 80 39 81 40 82 66 83 67 84 75 85 68 86 74 87
REMARK SMILES IDX 76 88 73 89 69 90 70 91 71 92 72 93 51 94 52 95 60 96 53 97
REMARK SMILES IDX 59 98 61 99 58 100 54 101 55 102 56 103 57 104
REMARK H PARENT 15 6 8 17 22 38 81 57 49 68
REMARK Flexibility Score: inf
ROOT
ATOM      1  C   UNL A   1      37.834  22.215  25.185  1.00  0.00     0.021 C 
ENDROOT
BRANCH   1   2
ATOM      2  C   UNL A   1      36.402  22.379  25.672  1.00  0.00     0.116 C 
BRANCH   2   3
ATOM      3  N   UNL A   1      35.890  23.722  25.836  1.00  0.00    -0.356 N 
ATOM      4  C   UNL A   1      34.761  24.325  25.358  1.00  0.00     0.224 C 
ATOM      5  O   UNL A   1      34.490  25.416  25.881  1.00  0.00    -0.275 OA
ATOM      6  H   UNL A   1      36.457  24.305  26.392  1.00  0.00     0.163 HD
BRANCH   4   7
ATOM      7  C   UNL A   1      33.889  23.850  24.163  1.00  0.00     0.098 C 
ATOM      8  C   UNL A   1      32.766  24.774  23.608  1.00  0.00     0.099 C 
ATOM      9  C   UNL A   1      31.416  23.980  23.567  1.00  0.00     0.025 C 
ATOM     10  C   UNL A   1      33.277  22.460  24.530  1.00  0.00     0.025 C 
ATOM     11  C   UNL A   1      31.649  22.708  22.775  1.00  0.00    -0.027 C 
ATOM     12  C   UNL A   1      31.022  23.515  24.988  1.00  0.00     0.009 C 
ATOM     13  C   UNL A   1      32.611  21.918  23.276  1.00  0.00    -0.027 C 
ATOM     14  C   UNL A   1      32.147  22.637  25.576  1.00  0.00     0.009 C 
BRANCH   8  15
ATOM     15  C   UNL A   1      32.986  25.465  22.257  1.00  0.00     0.229 C 
ATOM     16  N   UNL A   1      32.987  26.848  22.163  1.00  0.00    -0.317 N 
ATOM     17  H   UNL A   1      33.049  27.191  21.243  1.00  0.00     0.170 HD
ATOM     18  O   UNL A   1      33.132  24.817  21.217  1.00  0.00    -0.274 OA
BRANCH  16  19
ATOM     19  C   UNL A   1      32.914  27.838  23.140  1.00  0.00     0.110 A 
ATOM     20  C   UNL A   1      31.811  28.605  23.530  1.00  0.00     0.098 A 
ATOM     21  C   UNL A   1      32.100  29.230  24.788  1.00  0.00    -0.017 A 
ATOM     22  S   UNL A   1      34.317  28.414  23.947  1.00  0.00    -0.122 S 
ATOM     23  C   UNL A   1      33.401  29.060  25.155  1.00  0.00     0.011 A 
ATOM     24  C   UNL A   1      31.363  29.956  25.857  1.00  0.00     0.038 C 
ATOM     25  C   UNL A   1      33.752  29.536  26.504  1.00  0.00     0.047 C 
ATOM     26  C   UNL A   1      32.518  30.424  26.813  1.00  0.00     0.010 C 
BRANCH  20  27
ATOM     27  C   UNL A   1      30.564  28.651  22.796  1.00  0.00     0.341 C 
ATOM     28  O   UNL A   1      30.218  27.779  21.997  1.00  0.00    -0.246 OA
BRANCH  27  29
ATOM     29  O   UNL A   1      29.918  29.830  22.989  1.00  0.00    -0.462 OA
BRANCH  29  30
ATOM     30  C   UNL A   1      28.491  29.779  23.131  1.00  0.00     0.230 C 
ATOM     31  C   UNL A   1      27.863  31.165  23.152  1.00  0.00     0.049 C 
ENDBRANCH  29  30
ENDBRANCH  27  29
ENDBRANCH  20  27
ENDBRANCH  16  19
ENDBRANCH   8  15
ENDBRANCH   4   7
ENDBRANCH   2   3
ENDBRANCH   1   2
BRANCH   1  32
ATOM     32  C   UNL A   1      38.527  20.887  25.465  1.00  0.00     0.002 C 
BRANCH  32  33
ATOM     33  C   UNL A   1      39.917  20.931  26.108  1.00  0.00     0.002 C 
BRANCH  33  34
ATOM     34  C   UNL A   1      40.807  19.684  26.008  1.00  0.00     0.021 C 
BRANCH  34  35
ATOM     35  C   UNL A   1      42.225  19.826  26.550  1.00  0.00     0.116 C 
BRANCH  35  36
ATOM     36  N   UNL A   1      43.241  19.688  25.519  1.00  0.00    -0.352 N 
ATOM     37  C   UNL A   1      43.967  20.675  24.888  1.00  0.00     0.251 C 
ATOM     38  H   UNL A   1      43.437  18.766  25.235  1.00  0.00     0.163 HD
ATOM     39  O   UNL A   1      44.524  20.429  23.823  1.00  0.00    -0.269 OA
BRANCH  37  40
ATOM     40  C   UNL A   1      44.042  22.031  25.473  1.00  0.00     0.039 A 
ATOM     41  C   UNL A   1      43.003  22.937  25.241  1.00  0.00     0.014 A 
ATOM     42  C   UNL A   1      45.144  22.409  26.241  1.00  0.00     0.014 A 
ATOM     43  C   UNL A   1      43.031  24.185  25.864  1.00  0.00     0.010 A 
ATOM     44  C   UNL A   1      45.138  23.619  26.917  1.00  0.00     0.010 A 
ATOM     45  C   UNL A   1      44.083  24.515  26.731  1.00  0.00    -0.014 A 
BRANCH  45  46
ATOM     46  C   UNL A   1      43.976  25.716  27.569  1.00  0.00     0.031 A 
ATOM     47  C   UNL A   1      45.075  26.710  27.402  1.00  0.00     0.074 A 
ATOM     48  C   UNL A   1      42.886  26.070  28.281  1.00  0.00     0.049 A 
ATOM     49  N   UNL A   1      45.913  27.121  28.295  1.00  0.00    -0.248 NA
ATOM     50  C   UNL A   1      45.341  27.240  26.056  1.00  0.00     0.031 C 
ATOM     51  C   UNL A   1      41.599  25.378  28.345  1.00  0.00     0.029 A 
ATOM     52  N   UNL A   1      42.660  27.210  29.003  1.00  0.00    -0.354 N 
ATOM     53  C   UNL A   1      46.685  28.112  27.691  1.00  0.00     0.074 A 
ATOM     54  C   UNL A   1      46.399  28.020  26.282  1.00  0.00     0.031 C 
ATOM     55  C   UNL A   1      40.670  26.212  28.859  1.00  0.00     0.029 A 
ATOM     56  C   UNL A   1      41.316  27.444  29.281  1.00  0.00     0.049 A 
ATOM     57  H   UNL A   1      43.381  27.811  29.298  1.00  0.00     0.167 HD
ATOM     58  C   UNL A   1      47.348  29.046  28.430  1.00  0.00     0.034 A 
ATOM     59  C   UNL A   1      40.755  28.577  29.780  1.00  0.00     0.034 A 
ATOM     60  C   UNL A   1      47.420  28.650  29.820  1.00  0.00     0.049 A 
ATOM     61  C   UNL A   1      41.819  29.313  30.504  1.00  0.00     0.074 A 
ATOM     62  C   UNL A   1      47.909  27.541  30.486  1.00  0.00     0.029 A 
ATOM     63  N   UNL A   1      46.617  29.298  30.733  1.00  0.00    -0.354 N 
ATOM     64  N   UNL A   1      42.372  28.877  31.601  1.00  0.00    -0.248 NA
ATOM     65  C   UNL A   1      42.584  30.327  29.793  1.00  0.00     0.031 C 
ATOM     66  C   UNL A   1      46.980  27.309  31.542  1.00  0.00     0.029 A 
ATOM     67  C   UNL A   1      46.030  28.331  31.510  1.00  0.00     0.049 A 
ATOM     68  H   UNL A   1      46.487  30.271  30.813  1.00  0.00     0.167 HD
ATOM     69  C   UNL A   1      43.713  29.202  31.479  1.00  0.00     0.074 A 
ATOM     70  C   UNL A   1      43.760  30.203  30.417  1.00  0.00     0.031 C 
ATOM     71  C   UNL A   1      44.685  28.422  32.042  1.00  0.00     0.034 A 
BRANCH  58  72
ATOM     72  C   UNL A   1      47.648  30.470  28.002  1.00  0.00     0.023 A 
ATOM     73  C   UNL A   1      46.540  31.297  27.717  1.00  0.00     0.031 A 
ATOM     74  C   UNL A   1      48.899  30.965  27.578  1.00  0.00     0.131 A 
ATOM     75  C   UNL A   1      46.676  32.451  26.927  1.00  0.00     0.055 A 
ATOM     76  C   UNL A   1      49.040  32.160  26.862  1.00  0.00     0.041 A 
ATOM     77  F   UNL A   1      50.042  30.292  27.748  1.00  0.00    -0.206 F 
ATOM     78  C   UNL A   1      47.922  32.890  26.495  1.00  0.00     0.022 A 
BRANCH  75  79
ATOM     79  S   UNL A   1      45.170  33.234  26.297  1.00  0.00     0.124 S 
ATOM     80  O   UNL A   1      44.277  33.102  27.444  1.00  0.00    -0.237 OA
ATOM     81  O   UNL A   1      45.636  34.581  25.993  1.00  0.00    -0.237 OA
ATOM     82  O   UNL A   1      44.824  32.415  25.137  1.00  0.00    -0.744 OA
ENDBRANCH  75  79
ENDBRANCH  58  72
BRANCH  59  83
ATOM     83  C   UNL A   1      39.396  29.124  29.519  1.00  0.00     0.023 A 
ATOM     84  C   UNL A   1      38.607  29.701  30.537  1.00  0.00     0.031 A 
ATOM     85  C   UNL A   1      38.932  29.291  28.194  1.00  0.00     0.131 A 
ATOM     86  C   UNL A   1      37.420  30.399  30.211  1.00  0.00     0.055 A 
ATOM     87  C   UNL A   1      37.748  29.960  27.879  1.00  0.00     0.041 A 
ATOM     88  F   UNL A   1      39.663  28.887  27.142  1.00  0.00    -0.206 F 
ATOM     89  C   UNL A   1      36.990  30.528  28.889  1.00  0.00     0.022 A 
BRANCH  86  90
ATOM     90  S   UNL A   1      36.483  31.280  31.502  1.00  0.00     0.124 S 
ATOM     91  O   UNL A   1      36.185  30.213  32.451  1.00  0.00    -0.237 OA
ATOM     92  O   UNL A   1      37.429  32.299  31.942  1.00  0.00    -0.237 OA
ATOM     93  O   UNL A   1      35.323  31.802  30.777  1.00  0.00    -0.744 OA
ENDBRANCH  86  90
ENDBRANCH  59  83
BRANCH  71  94
ATOM     94  C   UNL A   1      44.295  27.408  33.100  1.00  0.00     0.023 A 
ATOM     95  C   UNL A   1      44.087  27.705  34.464  1.00  0.00     0.031 A 
ATOM     96  C   UNL A   1      44.005  26.100  32.670  1.00  0.00     0.131 A 
ATOM     97  C   UNL A   1      43.627  26.707  35.343  1.00  0.00     0.055 A 
ATOM     98  C   UNL A   1      43.523  25.120  33.537  1.00  0.00     0.041 A 
ATOM     99  F   UNL A   1      44.155  25.756  31.379  1.00  0.00    -0.206 F 
ATOM    100  C   UNL A   1      43.340  25.419  34.882  1.00  0.00     0.022 A 
BRANCH  97 101
ATOM    101  S   UNL A   1      43.418  27.061  37.117  1.00  0.00     0.124 S 
ATOM    102  O   UNL A   1      42.064  26.605  37.403  1.00  0.00    -0.237 OA
ATOM    103  O   UNL A   1      44.497  26.283  37.720  1.00  0.00    -0.237 OA
ATOM    104  O   UNL A   1      43.601  28.512  37.194  1.00  0.00    -0.744 OA
ENDBRANCH  97 101
ENDBRANCH  71  94
ENDBRANCH  45  46
ENDBRANCH  37  40
ENDBRANCH  35  36
ENDBRANCH  34  35
ENDBRANCH  33  34
ENDBRANCH  32  33
ENDBRANCH   1  32
TORSDOF 21
ENDMDL
