MODEL 1
REMARK VINA RESULT:     -11.3      0.000      0.000
REMARK SMILES C[C@@H](C(=O)NCCCCCCNC(=O)c1ccc(-c2c3nc(c(-c4cc(S(=O)(=O)[O-])ccc4F)c4ccc([nH]4)c(-c4cc(S(=O)(=O)[O-])ccc4F)c4nc(c(-c5cc(S(=O)(=O)[O-])ccc5F)c5ccc2[nH]5)C=C4)C=C3)cc1)c1ccc(C[C@H]2CCC[C@@H]2O)cc1Br
REMARK SMILES IDX 8 1 7 2 6 3 5 4 3 5 4 6 2 8 1 9 78 10 79 11 90 12 80 13
REMARK SMILES IDX 89 14 91 15 81 16 82 17 83 18 84 19 87 20 85 21 86 22 88 23
REMARK SMILES IDX 9 25 10 26 11 27 12 28 13 29 14 31 15 32 16 33 77 34 17 35
REMARK SMILES IDX 76 36 18 37 19 38 20 39 70 40 21 41 75 42 69 43 71 44 22 45
REMARK SMILES IDX 74 46 68 47 67 48 23 50 55 51 35 52 54 53 36 54 39 55 53 56
REMARK SMILES IDX 72 57 37 58 38 59 52 61 73 62 40 63 24 64 25 65 33 66 26 67
REMARK SMILES IDX 32 68 34 69 31 70 27 71 28 72 29 73 30 74 56 75 57 76 65 77
REMARK SMILES IDX 58 78 64 79 66 80 63 81 59 82 60 83 61 84 62 85 41 86 42 87
REMARK SMILES IDX 50 88 43 89 49 90 51 91 48 92 44 93 45 94 46 95 47 96
REMARK H PARENT 5 7 88 24 12 30 71 49 39 60
REMARK Flexibility Score: inf
ROOT
ATOM      1  C   UNL A   1      34.626  31.357  28.229  1.00  0.00     0.002 C 
ENDROOT
BRANCH   1   2
ATOM      2  C   UNL A   1      35.108  30.008  27.683  1.00  0.00     0.021 C 
BRANCH   2   3
ATOM      3  C   UNL A   1      34.011  29.200  26.981  1.00  0.00     0.116 C 
BRANCH   3   4
ATOM      4  N   UNL A   1      34.104  29.403  25.548  1.00  0.00    -0.356 N 
ATOM      5  C   UNL A   1      33.870  28.499  24.549  1.00  0.00     0.227 C 
ATOM      6  O   UNL A   1      34.428  28.687  23.466  1.00  0.00    -0.274 OA
ATOM      7  H   UNL A   1      34.369  30.305  25.257  1.00  0.00     0.163 HD
BRANCH   5   8
ATOM      8  C   UNL A   1      32.925  27.317  24.822  1.00  0.00     0.106 C 
ATOM      9  C   UNL A   1      33.684  26.050  24.380  1.00  0.00     0.023 C 
BRANCH   8  10
ATOM     10  C   UNL A   1      31.554  27.477  24.148  1.00  0.00    -0.022 A 
ATOM     11  C   UNL A   1      31.405  28.366  23.068  1.00  0.00     0.006 A 
ATOM     12  C   UNL A   1      30.399  26.778  24.551  1.00  0.00     0.022 A 
ATOM     13  C   UNL A   1      30.152  28.686  22.550  1.00  0.00     0.004 A 
ATOM     14  C   UNL A   1      29.131  27.162  24.085  1.00  0.00     0.019 A 
ATOM     15  Br  UNL A   1      30.442  25.244  25.680  1.00  0.00    -0.051 Br
ATOM     16  C   UNL A   1      28.997  28.175  23.132  1.00  0.00    -0.047 A 
BRANCH  16  17
ATOM     17  C   UNL A   1      27.646  28.729  22.760  1.00  0.00     0.041 C 
BRANCH  17  18
ATOM     18  C   UNL A   1      27.580  30.261  22.593  1.00  0.00     0.022 C 
ATOM     19  C   UNL A   1      28.150  31.097  23.752  1.00  0.00     0.007 C 
ATOM     20  C   UNL A   1      28.268  30.843  21.353  1.00  0.00     0.117 C 
ATOM     21  C   UNL A   1      28.714  32.376  23.114  1.00  0.00     0.003 C 
ATOM     22  C   UNL A   1      28.292  32.334  21.652  1.00  0.00     0.032 C 
BRANCH  20  23
ATOM     23  O   UNL A   1      27.565  30.545  20.162  1.00  0.00    -0.393 OA
ATOM     24  H   UNL A   1      27.824  31.171  19.468  1.00  0.00     0.210 HD
ENDBRANCH  20  23
ENDBRANCH  17  18
ENDBRANCH  16  17
ENDBRANCH   8  10
ENDBRANCH   5   8
ENDBRANCH   3   4
ENDBRANCH   2   3
ENDBRANCH   1   2
BRANCH   1  25
ATOM     25  C   UNL A   1      35.522  32.548  27.877  1.00  0.00     0.002 C 
BRANCH  25  26
ATOM     26  C   UNL A   1      34.803  33.896  27.827  1.00  0.00     0.021 C 
BRANCH  26  27
ATOM     27  C   UNL A   1      33.322  33.829  28.180  1.00  0.00     0.116 C 
BRANCH  27  28
ATOM     28  N   UNL A   1      32.903  34.970  28.980  1.00  0.00    -0.352 N 
ATOM     29  C   UNL A   1      33.244  35.269  30.276  1.00  0.00     0.251 C 
ATOM     30  H   UNL A   1      32.298  35.607  28.535  1.00  0.00     0.163 HD
ATOM     31  O   UNL A   1      32.651  36.153  30.887  1.00  0.00    -0.269 OA
BRANCH  29  32
ATOM     32  C   UNL A   1      34.318  34.493  30.927  1.00  0.00     0.039 A 
ATOM     33  C   UNL A   1      34.008  33.292  31.569  1.00  0.00     0.014 A 
ATOM     34  C   UNL A   1      35.641  34.943  30.862  1.00  0.00     0.014 A 
ATOM     35  C   UNL A   1      35.035  32.507  32.098  1.00  0.00     0.010 A 
ATOM     36  C   UNL A   1      36.665  34.130  31.331  1.00  0.00     0.010 A 
ATOM     37  C   UNL A   1      36.374  32.907  31.958  1.00  0.00    -0.014 A 
BRANCH  37  38
ATOM     38  C   UNL A   1      37.500  32.095  32.483  1.00  0.00     0.031 A 
ATOM     39  C   UNL A   1      38.082  32.434  33.826  1.00  0.00     0.074 A 
ATOM     40  C   UNL A   1      38.070  31.147  31.714  1.00  0.00     0.049 A 
ATOM     41  N   UNL A   1      39.183  32.008  34.388  1.00  0.00    -0.248 NA
ATOM     42  C   UNL A   1      37.341  33.424  34.619  1.00  0.00     0.031 C 
ATOM     43  C   UNL A   1      37.612  30.750  30.382  1.00  0.00     0.029 A 
ATOM     44  N   UNL A   1      39.179  30.369  31.932  1.00  0.00    -0.354 N 
ATOM     45  C   UNL A   1      39.287  32.707  35.586  1.00  0.00     0.074 A 
ATOM     46  C   UNL A   1      38.166  33.623  35.635  1.00  0.00     0.031 C 
ATOM     47  C   UNL A   1      38.439  29.809  29.898  1.00  0.00     0.029 A 
ATOM     48  C   UNL A   1      39.510  29.572  30.861  1.00  0.00     0.049 A 
ATOM     49  H   UNL A   1      39.690  30.380  32.774  1.00  0.00     0.167 HD
ATOM     50  C   UNL A   1      40.223  32.583  36.562  1.00  0.00     0.034 A 
ATOM     51  C   UNL A   1      40.574  28.767  30.663  1.00  0.00     0.034 A 
ATOM     52  C   UNL A   1      41.321  31.650  36.496  1.00  0.00     0.049 A 
ATOM     53  C   UNL A   1      41.611  28.645  31.749  1.00  0.00     0.074 A 
ATOM     54  C   UNL A   1      42.293  31.391  37.447  1.00  0.00     0.029 A 
ATOM     55  N   UNL A   1      41.600  30.826  35.411  1.00  0.00    -0.354 N 
ATOM     56  N   UNL A   1      41.682  29.283  32.896  1.00  0.00    -0.248 NA
ATOM     57  C   UNL A   1      42.704  27.692  31.522  1.00  0.00     0.031 C 
ATOM     58  C   UNL A   1      43.193  30.461  36.912  1.00  0.00     0.029 A 
ATOM     59  C   UNL A   1      42.741  30.081  35.658  1.00  0.00     0.049 A 
ATOM     60  H   UNL A   1      41.063  30.780  34.587  1.00  0.00     0.167 HD
ATOM     61  C   UNL A   1      42.810  28.782  33.540  1.00  0.00     0.074 A 
ATOM     62  C   UNL A   1      43.390  27.794  32.653  1.00  0.00     0.031 C 
ATOM     63  C   UNL A   1      43.309  29.100  34.761  1.00  0.00     0.034 A 
BRANCH  50  64
ATOM     64  C   UNL A   1      40.106  33.510  37.750  1.00  0.00     0.023 A 
ATOM     65  C   UNL A   1      39.358  33.161  38.888  1.00  0.00     0.031 A 
ATOM     66  C   UNL A   1      40.688  34.790  37.716  1.00  0.00     0.131 A 
ATOM     67  C   UNL A   1      39.113  34.116  39.887  1.00  0.00     0.055 A 
ATOM     68  C   UNL A   1      40.525  35.702  38.762  1.00  0.00     0.041 A 
ATOM     69  F   UNL A   1      41.399  35.191  36.652  1.00  0.00    -0.206 F 
ATOM     70  C   UNL A   1      39.714  35.376  39.845  1.00  0.00     0.022 A 
BRANCH  67  71
ATOM     71  S   UNL A   1      37.841  33.754  41.129  1.00  0.00     0.124 S 
ATOM     72  O   UNL A   1      37.559  35.086  41.659  1.00  0.00    -0.237 OA
ATOM     73  O   UNL A   1      36.784  33.146  40.330  1.00  0.00    -0.237 OA
ATOM     74  O   UNL A   1      38.519  32.853  42.060  1.00  0.00    -0.744 OA
ENDBRANCH  67  71
ENDBRANCH  50  64
BRANCH  51  75
ATOM     75  C   UNL A   1      40.718  28.037  29.374  1.00  0.00     0.023 A 
ATOM     76  C   UNL A   1      41.668  28.428  28.419  1.00  0.00     0.031 A 
ATOM     77  C   UNL A   1      39.908  26.923  29.084  1.00  0.00     0.131 A 
ATOM     78  C   UNL A   1      41.771  27.727  27.207  1.00  0.00     0.055 A 
ATOM     79  C   UNL A   1      40.041  26.204  27.895  1.00  0.00     0.041 A 
ATOM     80  F   UNL A   1      38.993  26.502  29.971  1.00  0.00    -0.206 F 
ATOM     81  C   UNL A   1      40.973  26.610  26.945  1.00  0.00     0.022 A 
BRANCH  78  82
ATOM     82  S   UNL A   1      42.942  28.318  25.955  1.00  0.00     0.124 S 
ATOM     83  O   UNL A   1      43.111  29.714  26.343  1.00  0.00    -0.237 OA
ATOM     84  O   UNL A   1      44.090  27.446  26.178  1.00  0.00    -0.237 OA
ATOM     85  O   UNL A   1      42.233  28.101  24.696  1.00  0.00    -0.744 OA
ENDBRANCH  78  82
ENDBRANCH  51  75
BRANCH  63  86
ATOM     86  C   UNL A   1      44.509  28.326  35.243  1.00  0.00     0.023 A 
ATOM     87  C   UNL A   1      44.388  27.077  35.877  1.00  0.00     0.031 A 
ATOM     88  C   UNL A   1      45.801  28.838  35.025  1.00  0.00     0.131 A 
ATOM     89  C   UNL A   1      45.540  26.395  36.297  1.00  0.00     0.055 A 
ATOM     90  C   UNL A   1      46.945  28.134  35.402  1.00  0.00     0.041 A 
ATOM     91  F   UNL A   1      45.971  30.027  34.424  1.00  0.00    -0.206 F 
ATOM     92  C   UNL A   1      46.817  26.907  36.046  1.00  0.00     0.022 A 
BRANCH  89  93
ATOM     93  S   UNL A   1      45.354  24.843  37.215  1.00  0.00     0.124 S 
ATOM     94  O   UNL A   1      46.733  24.375  37.304  1.00  0.00    -0.237 OA
ATOM     95  O   UNL A   1      44.749  25.288  38.467  1.00  0.00    -0.237 OA
ATOM     96  O   UNL A   1      44.481  24.040  36.359  1.00  0.00    -0.744 OA
ENDBRANCH  89  93
ENDBRANCH  63  86
ENDBRANCH  37  38
ENDBRANCH  29  32
ENDBRANCH  27  28
ENDBRANCH  26  27
ENDBRANCH  25  26
ENDBRANCH   1  25
TORSDOF 20
ENDMDL
MODEL 2
REMARK VINA RESULT:     -10.9      3.265      8.853
REMARK SMILES C[C@@H](C(=O)NCCCCCCNC(=O)c1ccc(-c2c3nc(c(-c4cc(S(=O)(=O)[O-])ccc4F)c4ccc([nH]4)c(-c4cc(S(=O)(=O)[O-])ccc4F)c4nc(c(-c5cc(S(=O)(=O)[O-])ccc5F)c5ccc2[nH]5)C=C4)C=C3)cc1)c1ccc(C[C@H]2CCC[C@@H]2O)cc1Br
REMARK SMILES IDX 8 1 7 2 6 3 5 4 3 5 4 6 2 8 1 9 78 10 79 11 90 12 80 13
REMARK SMILES IDX 89 14 91 15 81 16 82 17 83 18 84 19 87 20 85 21 86 22 88 23
REMARK SMILES IDX 9 25 10 26 11 27 12 28 13 29 14 31 15 32 16 33 77 34 17 35
REMARK SMILES IDX 76 36 18 37 19 38 20 39 70 40 21 41 75 42 69 43 71 44 22 45
REMARK SMILES IDX 74 46 68 47 67 48 23 50 55 51 35 52 54 53 36 54 39 55 53 56
REMARK SMILES IDX 72 57 37 58 38 59 52 61 73 62 40 63 24 64 25 65 33 66 26 67
REMARK SMILES IDX 32 68 34 69 31 70 27 71 28 72 29 73 30 74 56 75 57 76 65 77
REMARK SMILES IDX 58 78 64 79 66 80 63 81 59 82 60 83 61 84 62 85 41 86 42 87
REMARK SMILES IDX 50 88 43 89 49 90 51 91 48 92 44 93 45 94 46 95 47 96
REMARK H PARENT 5 7 88 24 12 30 71 49 39 60
REMARK Flexibility Score: inf
ROOT
ATOM      1  C   UNL A   1      33.749  29.651  26.809  1.00  0.00     0.002 C 
ENDROOT
BRANCH   1   2
ATOM      2  C   UNL A   1      34.035  28.207  26.377  1.00  0.00     0.021 C 
BRANCH   2   3
ATOM      3  C   UNL A   1      33.424  27.838  25.022  1.00  0.00     0.116 C 
BRANCH   3   4
ATOM      4  N   UNL A   1      32.404  26.824  25.212  1.00  0.00    -0.356 N 
ATOM      5  C   UNL A   1      32.213  25.672  24.500  1.00  0.00     0.227 C 
ATOM      6  O   UNL A   1      31.078  25.191  24.484  1.00  0.00    -0.274 OA
ATOM      7  H   UNL A   1      31.768  26.986  25.945  1.00  0.00     0.163 HD
BRANCH   5   8
ATOM      8  C   UNL A   1      33.413  25.038  23.776  1.00  0.00     0.106 C 
ATOM      9  C   UNL A   1      33.513  25.748  22.412  1.00  0.00     0.023 C 
BRANCH   8  10
ATOM     10  C   UNL A   1      33.307  23.509  23.666  1.00  0.00    -0.022 A 
ATOM     11  C   UNL A   1      32.663  22.931  22.557  1.00  0.00     0.006 A 
ATOM     12  C   UNL A   1      33.821  22.619  24.629  1.00  0.00     0.022 A 
ATOM     13  C   UNL A   1      32.376  21.569  22.504  1.00  0.00     0.004 A 
ATOM     14  C   UNL A   1      33.460  21.263  24.615  1.00  0.00     0.019 A 
ATOM     15  Br  UNL A   1      35.075  23.133  25.968  1.00  0.00    -0.051 Br
ATOM     16  C   UNL A   1      32.668  20.745  23.586  1.00  0.00    -0.047 A 
BRANCH  16  17
ATOM     17  C   UNL A   1      32.115  19.344  23.650  1.00  0.00     0.041 C 
BRANCH  17  18
ATOM     18  C   UNL A   1      33.032  18.298  24.317  1.00  0.00     0.022 C 
ATOM     19  C   UNL A   1      32.658  17.880  25.749  1.00  0.00     0.007 C 
ATOM     20  C   UNL A   1      33.195  16.964  23.580  1.00  0.00     0.117 C 
ATOM     21  C   UNL A   1      33.096  16.414  25.890  1.00  0.00     0.003 C 
ATOM     22  C   UNL A   1      33.871  16.086  24.621  1.00  0.00     0.032 C 
BRANCH  20  23
ATOM     23  O   UNL A   1      33.968  17.094  22.402  1.00  0.00    -0.393 OA
ATOM     24  H   UNL A   1      33.591  17.791  21.843  1.00  0.00     0.210 HD
ENDBRANCH  20  23
ENDBRANCH  17  18
ENDBRANCH  16  17
ENDBRANCH   8  10
ENDBRANCH   5   8
ENDBRANCH   3   4
ENDBRANCH   2   3
ENDBRANCH   1   2
BRANCH   1  25
ATOM     25  C   UNL A   1      32.280  30.069  26.710  1.00  0.00     0.002 C 
BRANCH  25  26
ATOM     26  C   UNL A   1      32.029  31.567  26.891  1.00  0.00     0.021 C 
BRANCH  26  27
ATOM     27  C   UNL A   1      33.200  32.328  27.502  1.00  0.00     0.116 C 
BRANCH  27  28
ATOM     28  N   UNL A   1      32.858  33.715  27.782  1.00  0.00    -0.352 N 
ATOM     29  C   UNL A   1      33.363  34.531  28.765  1.00  0.00     0.251 C 
ATOM     30  H   UNL A   1      32.179  34.117  27.194  1.00  0.00     0.163 HD
ATOM     31  O   UNL A   1      32.831  35.609  29.010  1.00  0.00    -0.269 OA
BRANCH  29  32
ATOM     32  C   UNL A   1      34.540  34.078  29.532  1.00  0.00     0.039 A 
ATOM     33  C   UNL A   1      34.357  33.288  30.669  1.00  0.00     0.014 A 
ATOM     34  C   UNL A   1      35.826  34.408  29.095  1.00  0.00     0.014 A 
ATOM     35  C   UNL A   1      35.471  32.776  31.339  1.00  0.00     0.010 A 
ATOM     36  C   UNL A   1      36.929  33.845  29.724  1.00  0.00     0.010 A 
ATOM     37  C   UNL A   1      36.764  33.027  30.855  1.00  0.00    -0.014 A 
BRANCH  37  38
ATOM     38  C   UNL A   1      37.976  32.485  31.519  1.00  0.00     0.031 A 
ATOM     39  C   UNL A   1      38.741  31.375  30.854  1.00  0.00     0.074 A 
ATOM     40  C   UNL A   1      38.315  32.899  32.755  1.00  0.00     0.049 A 
ATOM     41  N   UNL A   1      39.690  30.615  31.333  1.00  0.00    -0.248 NA
ATOM     42  C   UNL A   1      38.343  31.053  29.477  1.00  0.00     0.031 C 
ATOM     43  C   UNL A   1      37.632  33.948  33.513  1.00  0.00     0.029 A 
ATOM     44  N   UNL A   1      39.301  32.462  33.603  1.00  0.00    -0.354 N 
ATOM     45  C   UNL A   1      39.979  29.698  30.328  1.00  0.00     0.074 A 
ATOM     46  C   UNL A   1      39.061  29.967  29.240  1.00  0.00     0.031 C 
ATOM     47  C   UNL A   1      38.213  34.068  34.717  1.00  0.00     0.029 A 
ATOM     48  C   UNL A   1      39.275  33.073  34.836  1.00  0.00     0.049 A 
ATOM     49  H   UNL A   1      39.963  31.777  33.355  1.00  0.00     0.167 HD
ATOM     50  C   UNL A   1      40.933  28.732  30.310  1.00  0.00     0.034 A 
ATOM     51  C   UNL A   1      40.003  32.836  35.946  1.00  0.00     0.034 A 
ATOM     52  C   UNL A   1      41.847  28.497  31.401  1.00  0.00     0.049 A 
ATOM     53  C   UNL A   1      41.052  31.755  35.917  1.00  0.00     0.074 A 
ATOM     54  C   UNL A   1      42.891  27.592  31.472  1.00  0.00     0.029 A 
ATOM     55  N   UNL A   1      41.818  29.166  32.619  1.00  0.00    -0.354 N 
ATOM     56  N   UNL A   1      41.344  30.916  34.949  1.00  0.00    -0.248 NA
ATOM     57  C   UNL A   1      41.876  31.594  37.122  1.00  0.00     0.031 C 
ATOM     58  C   UNL A   1      43.451  27.670  32.753  1.00  0.00     0.029 A 
ATOM     59  C   UNL A   1      42.808  28.676  33.456  1.00  0.00     0.049 A 
ATOM     60  H   UNL A   1      41.186  29.884  32.852  1.00  0.00     0.167 HD
ATOM     61  C   UNL A   1      42.407  30.150  35.417  1.00  0.00     0.074 A 
ATOM     62  C   UNL A   1      42.702  30.623  36.755  1.00  0.00     0.031 C 
ATOM     63  C   UNL A   1      43.088  29.157  34.790  1.00  0.00     0.034 A 
BRANCH  50  64
ATOM     64  C   UNL A   1      40.994  27.848  29.086  1.00  0.00     0.023 A 
ATOM     65  C   UNL A   1      42.024  27.969  28.137  1.00  0.00     0.031 A 
ATOM     66  C   UNL A   1      39.969  26.921  28.823  1.00  0.00     0.131 A 
ATOM     67  C   UNL A   1      41.947  27.269  26.923  1.00  0.00     0.055 A 
ATOM     68  C   UNL A   1      39.952  26.150  27.658  1.00  0.00     0.041 A 
ATOM     69  F   UNL A   1      38.947  26.770  29.679  1.00  0.00    -0.206 F 
ATOM     70  C   UNL A   1      40.932  26.339  26.688  1.00  0.00     0.022 A 
BRANCH  67  71
ATOM     71  S   UNL A   1      43.078  27.741  25.585  1.00  0.00     0.124 S 
ATOM     72  O   UNL A   1      42.168  28.395  24.648  1.00  0.00    -0.237 OA
ATOM     73  O   UNL A   1      44.028  28.611  26.267  1.00  0.00    -0.237 OA
ATOM     74  O   UNL A   1      43.618  26.462  25.126  1.00  0.00    -0.744 OA
ENDBRANCH  67  71
ENDBRANCH  50  64
BRANCH  51  75
ATOM     75  C   UNL A   1      39.742  33.623  37.182  1.00  0.00     0.023 A 
ATOM     76  C   UNL A   1      40.499  34.763  37.491  1.00  0.00     0.031 A 
ATOM     77  C   UNL A   1      38.716  33.249  38.070  1.00  0.00     0.131 A 
ATOM     78  C   UNL A   1      40.236  35.478  38.671  1.00  0.00     0.055 A 
ATOM     79  C   UNL A   1      38.432  33.986  39.221  1.00  0.00     0.041 A 
ATOM     80  F   UNL A   1      37.955  32.174  37.812  1.00  0.00    -0.206 F 
ATOM     81  C   UNL A   1      39.199  35.105  39.530  1.00  0.00     0.022 A 
BRANCH  78  82
ATOM     82  S   UNL A   1      41.296  36.889  39.089  1.00  0.00     0.124 S 
ATOM     83  O   UNL A   1      42.089  37.034  37.874  1.00  0.00    -0.237 OA
ATOM     84  O   UNL A   1      40.316  37.939  39.346  1.00  0.00    -0.237 OA
ATOM     85  O   UNL A   1      42.031  36.426  40.263  1.00  0.00    -0.744 OA
ENDBRANCH  78  82
ENDBRANCH  51  75
BRANCH  63  86
ATOM     86  C   UNL A   1      44.263  28.556  35.516  1.00  0.00     0.023 A 
ATOM     87  C   UNL A   1      44.146  27.392  36.295  1.00  0.00     0.031 A 
ATOM     88  C   UNL A   1      45.535  29.145  35.389  1.00  0.00     0.131 A 
ATOM     89  C   UNL A   1      45.277  26.870  36.941  1.00  0.00     0.055 A 
ATOM     90  C   UNL A   1      46.664  28.595  35.995  1.00  0.00     0.041 A 
ATOM     91  F   UNL A   1      45.700  30.259  34.656  1.00  0.00    -0.206 F 
ATOM     92  C   UNL A   1      46.538  27.454  36.780  1.00  0.00     0.022 A 
BRANCH  89  93
ATOM     93  S   UNL A   1      45.079  25.436  38.034  1.00  0.00     0.124 S 
ATOM     94  O   UNL A   1      46.270  24.652  37.724  1.00  0.00    -0.237 OA
ATOM     95  O   UNL A   1      45.045  26.051  39.358  1.00  0.00    -0.237 OA
ATOM     96  O   UNL A   1      43.816  24.843  37.596  1.00  0.00    -0.744 OA
ENDBRANCH  89  93
ENDBRANCH  63  86
ENDBRANCH  37  38
ENDBRANCH  29  32
ENDBRANCH  27  28
ENDBRANCH  26  27
ENDBRANCH  25  26
ENDBRANCH   1  25
TORSDOF 20
ENDMDL
MODEL 3
REMARK VINA RESULT:     -10.8      2.677      8.784
REMARK SMILES C[C@@H](C(=O)NCCCCCCNC(=O)c1ccc(-c2c3nc(c(-c4cc(S(=O)(=O)[O-])ccc4F)c4ccc([nH]4)c(-c4cc(S(=O)(=O)[O-])ccc4F)c4nc(c(-c5cc(S(=O)(=O)[O-])ccc5F)c5ccc2[nH]5)C=C4)C=C3)cc1)c1ccc(C[C@H]2CCC[C@@H]2O)cc1Br
REMARK SMILES IDX 8 1 7 2 6 3 5 4 3 5 4 6 2 8 1 9 78 10 79 11 90 12 80 13
REMARK SMILES IDX 89 14 91 15 81 16 82 17 83 18 84 19 87 20 85 21 86 22 88 23
REMARK SMILES IDX 9 25 10 26 11 27 12 28 13 29 14 31 15 32 16 33 77 34 17 35
REMARK SMILES IDX 76 36 18 37 19 38 20 39 70 40 21 41 75 42 69 43 71 44 22 45
REMARK SMILES IDX 74 46 68 47 67 48 23 50 55 51 35 52 54 53 36 54 39 55 53 56
REMARK SMILES IDX 72 57 37 58 38 59 52 61 73 62 40 63 24 64 25 65 33 66 26 67
REMARK SMILES IDX 32 68 34 69 31 70 27 71 28 72 29 73 30 74 56 75 57 76 65 77
REMARK SMILES IDX 58 78 64 79 66 80 63 81 59 82 60 83 61 84 62 85 41 86 42 87
REMARK SMILES IDX 50 88 43 89 49 90 51 91 48 92 44 93 45 94 46 95 47 96
REMARK H PARENT 5 7 88 24 12 30 71 49 39 60
REMARK Flexibility Score: inf
ROOT
ATOM      1  C   UNL A   1      33.944  28.948  27.626  1.00  0.00     0.002 C 
ENDROOT
BRANCH   1   2
ATOM      2  C   UNL A   1      33.285  27.964  26.651  1.00  0.00     0.021 C 
BRANCH   2   3
ATOM      3  C   UNL A   1      31.772  28.158  26.510  1.00  0.00     0.116 C 
BRANCH   3   4
ATOM      4  N   UNL A   1      31.088  26.949  26.929  1.00  0.00    -0.356 N 
ATOM      5  C   UNL A   1      30.388  26.063  26.157  1.00  0.00     0.227 C 
ATOM      6  O   UNL A   1      29.517  25.388  26.710  1.00  0.00    -0.274 OA
ATOM      7  H   UNL A   1      31.133  26.740  27.889  1.00  0.00     0.163 HD
BRANCH   5   8
ATOM      8  C   UNL A   1      30.731  25.946  24.663  1.00  0.00     0.106 C 
ATOM      9  C   UNL A   1      29.404  26.143  23.903  1.00  0.00     0.023 C 
BRANCH   8  10
ATOM     10  C   UNL A   1      31.449  24.634  24.312  1.00  0.00    -0.022 A 
ATOM     11  C   UNL A   1      30.826  23.403  24.582  1.00  0.00     0.006 A 
ATOM     12  C   UNL A   1      32.728  24.577  23.727  1.00  0.00     0.022 A 
ATOM     13  C   UNL A   1      31.508  22.194  24.459  1.00  0.00     0.004 A 
ATOM     14  C   UNL A   1      33.442  23.368  23.682  1.00  0.00     0.019 A 
ATOM     15  Br  UNL A   1      33.571  26.071  22.898  1.00  0.00    -0.051 Br
ATOM     16  C   UNL A   1      32.857  22.177  24.121  1.00  0.00    -0.047 A 
BRANCH  16  17
ATOM     17  C   UNL A   1      33.663  20.911  24.258  1.00  0.00     0.041 C 
BRANCH  17  18
ATOM     18  C   UNL A   1      32.840  19.610  24.369  1.00  0.00     0.022 C 
ATOM     19  C   UNL A   1      32.769  18.740  23.102  1.00  0.00     0.007 C 
ATOM     20  C   UNL A   1      33.267  18.624  25.462  1.00  0.00     0.117 C 
ATOM     21  C   UNL A   1      32.666  17.287  23.591  1.00  0.00     0.003 C 
ATOM     22  C   UNL A   1      32.491  17.367  25.102  1.00  0.00     0.032 C 
BRANCH  20  23
ATOM     23  O   UNL A   1      32.954  19.095  26.760  1.00  0.00    -0.393 OA
ATOM     24  H   UNL A   1      31.997  19.240  26.829  1.00  0.00     0.210 HD
ENDBRANCH  20  23
ENDBRANCH  17  18
ENDBRANCH  16  17
ENDBRANCH   8  10
ENDBRANCH   5   8
ENDBRANCH   3   4
ENDBRANCH   2   3
ENDBRANCH   1   2
BRANCH   1  25
ATOM     25  C   UNL A   1      34.243  30.330  27.038  1.00  0.00     0.002 C 
BRANCH  25  26
ATOM     26  C   UNL A   1      33.418  31.470  27.636  1.00  0.00     0.021 C 
BRANCH  26  27
ATOM     27  C   UNL A   1      33.906  32.863  27.252  1.00  0.00     0.116 C 
BRANCH  27  28
ATOM     28  N   UNL A   1      33.218  33.903  28.003  1.00  0.00    -0.352 N 
ATOM     29  C   UNL A   1      33.451  34.313  29.293  1.00  0.00     0.251 C 
ATOM     30  H   UNL A   1      32.496  34.370  27.525  1.00  0.00     0.163 HD
ATOM     31  O   UNL A   1      32.658  35.057  29.860  1.00  0.00    -0.269 OA
BRANCH  29  32
ATOM     32  C   UNL A   1      34.658  33.825  29.989  1.00  0.00     0.039 A 
ATOM     33  C   UNL A   1      34.536  32.825  30.957  1.00  0.00     0.014 A 
ATOM     34  C   UNL A   1      35.914  34.335  29.647  1.00  0.00     0.014 A 
ATOM     35  C   UNL A   1      35.686  32.292  31.545  1.00  0.00     0.010 A 
ATOM     36  C   UNL A   1      37.057  33.757  30.186  1.00  0.00     0.010 A 
ATOM     37  C   UNL A   1      36.956  32.734  31.143  1.00  0.00    -0.014 A 
BRANCH  37  38
ATOM     38  C   UNL A   1      38.206  32.181  31.722  1.00  0.00     0.031 A 
ATOM     39  C   UNL A   1      38.911  31.063  31.006  1.00  0.00     0.074 A 
ATOM     40  C   UNL A   1      38.633  32.591  32.931  1.00  0.00     0.049 A 
ATOM     41  N   UNL A   1      39.884  30.294  31.419  1.00  0.00    -0.248 NA
ATOM     42  C   UNL A   1      38.416  30.744  29.660  1.00  0.00     0.031 C 
ATOM     43  C   UNL A   1      38.014  33.647  33.734  1.00  0.00     0.029 A 
ATOM     44  N   UNL A   1      39.672  32.144  33.710  1.00  0.00    -0.354 N 
ATOM     45  C   UNL A   1      40.094  29.374  30.397  1.00  0.00     0.074 A 
ATOM     46  C   UNL A   1      39.105  29.652  29.375  1.00  0.00     0.031 C 
ATOM     47  C   UNL A   1      38.679  33.760  34.895  1.00  0.00     0.029 A 
ATOM     48  C   UNL A   1      39.737  32.755  34.940  1.00  0.00     0.049 A 
ATOM     49  H   UNL A   1      40.308  31.452  33.416  1.00  0.00     0.167 HD
ATOM     50  C   UNL A   1      41.035  28.399  30.313  1.00  0.00     0.034 A 
ATOM     51  C   UNL A   1      40.538  32.511  35.998  1.00  0.00     0.034 A 
ATOM     52  C   UNL A   1      42.020  28.154  31.338  1.00  0.00     0.049 A 
ATOM     53  C   UNL A   1      41.571  31.420  35.896  1.00  0.00     0.074 A 
ATOM     54  C   UNL A   1      43.058  27.239  31.338  1.00  0.00     0.029 A 
ATOM     55  N   UNL A   1      42.082  28.824  32.555  1.00  0.00    -0.354 N 
ATOM     56  N   UNL A   1      41.787  30.578  34.911  1.00  0.00    -0.248 NA
ATOM     57  C   UNL A   1      42.475  31.250  37.041  1.00  0.00     0.031 C 
ATOM     58  C   UNL A   1      43.706  27.312  32.577  1.00  0.00     0.029 A 
ATOM     59  C   UNL A   1      43.122  28.325  33.322  1.00  0.00     0.049 A 
ATOM     60  H   UNL A   1      41.475  29.548  32.831  1.00  0.00     0.167 HD
ATOM     61  C   UNL A   1      42.873  29.802  35.305  1.00  0.00     0.074 A 
ATOM     62  C   UNL A   1      43.264  30.271  36.619  1.00  0.00     0.031 C 
ATOM     63  C   UNL A   1      43.499  28.802  34.633  1.00  0.00     0.034 A 
BRANCH  50  64
ATOM     64  C   UNL A   1      41.002  27.514  29.088  1.00  0.00     0.023 A 
ATOM     65  C   UNL A   1      41.946  27.648  28.054  1.00  0.00     0.031 A 
ATOM     66  C   UNL A   1      39.971  26.573  28.915  1.00  0.00     0.131 A 
ATOM     67  C   UNL A   1      41.774  26.945  26.852  1.00  0.00     0.055 A 
ATOM     68  C   UNL A   1      39.864  25.801  27.755  1.00  0.00     0.041 A 
ATOM     69  F   UNL A   1      39.028  26.409  29.855  1.00  0.00    -0.206 F 
ATOM     70  C   UNL A   1      40.755  26.002  26.705  1.00  0.00     0.022 A 
BRANCH  67  71
ATOM     71  S   UNL A   1      42.779  27.431  25.421  1.00  0.00     0.124 S 
ATOM     72  O   UNL A   1      44.062  27.732  26.051  1.00  0.00    -0.237 OA
ATOM     73  O   UNL A   1      42.740  26.236  24.588  1.00  0.00    -0.237 OA
ATOM     74  O   UNL A   1      42.071  28.592  24.884  1.00  0.00    -0.744 OA
ENDBRANCH  67  71
ENDBRANCH  50  64
BRANCH  51  75
ATOM     75  C   UNL A   1      40.370  33.301  37.249  1.00  0.00     0.023 A 
ATOM     76  C   UNL A   1      39.510  32.872  38.270  1.00  0.00     0.031 A 
ATOM     77  C   UNL A   1      41.083  34.499  37.443  1.00  0.00     0.131 A 
ATOM     78  C   UNL A   1      39.365  33.646  39.432  1.00  0.00     0.055 A 
ATOM     79  C   UNL A   1      40.966  35.244  38.617  1.00  0.00     0.041 A 
ATOM     80  F   UNL A   1      41.929  34.945  36.501  1.00  0.00    -0.206 F 
ATOM     81  C   UNL A   1      40.097  34.821  39.618  1.00  0.00     0.022 A 
BRANCH  78  82
ATOM     82  S   UNL A   1      38.172  33.112  40.690  1.00  0.00     0.124 S 
ATOM     83  O   UNL A   1      38.758  31.855  41.140  1.00  0.00    -0.237 OA
ATOM     84  O   UNL A   1      38.218  34.219  41.640  1.00  0.00    -0.237 OA
ATOM     85  O   UNL A   1      36.922  32.987  39.944  1.00  0.00    -0.744 OA
ENDBRANCH  78  82
ENDBRANCH  51  75
BRANCH  63  86
ATOM     86  C   UNL A   1      44.716  28.190  35.276  1.00  0.00     0.023 A 
ATOM     87  C   UNL A   1      44.633  27.062  36.111  1.00  0.00     0.031 A 
ATOM     88  C   UNL A   1      45.989  28.729  35.012  1.00  0.00     0.131 A 
ATOM     89  C   UNL A   1      45.802  26.527  36.675  1.00  0.00     0.055 A 
ATOM     90  C   UNL A   1      47.150  28.165  35.537  1.00  0.00     0.041 A 
ATOM     91  F   UNL A   1      46.121  29.808  34.222  1.00  0.00    -0.206 F 
ATOM     92  C   UNL A   1      47.060  27.060  36.378  1.00  0.00     0.022 A 
BRANCH  89  93
ATOM     93  S   UNL A   1      45.659  25.144  37.840  1.00  0.00     0.124 S 
ATOM     94  O   UNL A   1      46.020  25.775  39.105  1.00  0.00    -0.237 OA
ATOM     95  O   UNL A   1      44.258  24.756  37.697  1.00  0.00    -0.237 OA
ATOM     96  O   UNL A   1      46.624  24.169  37.336  1.00  0.00    -0.744 OA
ENDBRANCH  89  93
ENDBRANCH  63  86
ENDBRANCH  37  38
ENDBRANCH  29  32
ENDBRANCH  27  28
ENDBRANCH  26  27
ENDBRANCH  25  26
ENDBRANCH   1  25
TORSDOF 20
ENDMDL
