MODEL 1
REMARK VINA RESULT:     -11.0      0.000      0.000
REMARK SMILES CC(C)CN(C)c1cc2c(cc1Cl)C=C(C(=O)NCCCCCCNC(=O)c1ccc(-c3c4nc(c(-c5cc(S(=O)(=O)[O-])ccc5F)c5ccc([nH]5)c(-c5cc(S(=O)(=O)[O-])ccc5F)c5nc(c(-c6cc(S(=O)(=O)[O-])ccc6F)c6ccc3[nH]6)C=C5)C=C4)cc1)[C@@H](C(F)(F)F)O2
REMARK SMILES IDX 21 1 20 2 19 3 18 4 16 5 17 6 15 8 7 9 8 10 12 11 9 12 11 13
REMARK SMILES IDX 13 14 10 15 96 16 14 17 91 18 5 19 6 20 4 21 2 22 1 23 3 24
REMARK SMILES IDX 92 25 93 26 94 27 95 28 22 29 23 30 24 31 25 32 26 33 27 35
REMARK SMILES IDX 28 36 29 37 90 38 30 39 89 40 31 41 32 42 33 43 83 44 34 45
REMARK SMILES IDX 88 46 82 47 84 48 35 49 87 50 81 51 80 52 36 54 68 55 48 56
REMARK SMILES IDX 67 57 49 58 52 59 66 60 85 61 50 62 51 63 65 65 86 66 53 67
REMARK SMILES IDX 37 68 38 69 46 70 39 71 45 72 47 73 44 74 40 75 41 76 42 77
REMARK SMILES IDX 43 78 69 79 70 80 78 81 71 82 77 83 79 84 76 85 72 86 73 87
REMARK SMILES IDX 74 88 75 89 54 90 55 91 63 92 56 93 62 94 64 95 61 96 57 97
REMARK SMILES IDX 58 98 59 99 60 100
REMARK H PARENT 18 7 25 34 84 53 52 64
REMARK Flexibility Score: inf
ROOT
ATOM      1  C   UNL A   1      33.074  28.325  25.080  1.00  0.00     0.002 C 
ENDROOT
BRANCH   1   2
ATOM      2  C   UNL A   1      31.744  29.047  24.841  1.00  0.00     0.021 C 
BRANCH   2   3
ATOM      3  C   UNL A   1      31.080  28.708  23.511  1.00  0.00     0.116 C 
BRANCH   3   4
ATOM      4  N   UNL A   1      29.815  28.024  23.715  1.00  0.00    -0.352 N 
ATOM      5  C   UNL A   1      29.399  26.754  23.919  1.00  0.00     0.251 C 
ATOM      6  O   UNL A   1      28.181  26.622  24.076  1.00  0.00    -0.270 OA
ATOM      7  H   UNL A   1      29.059  28.653  23.701  1.00  0.00     0.163 HD
BRANCH   5   8
ATOM      8  C   UNL A   1      30.280  25.555  23.965  1.00  0.00     0.067 C 
ATOM      9  C   UNL A   1      33.121  21.665  25.484  1.00  0.00     0.059 A 
ATOM     10  C   UNL A   1      32.337  21.926  24.347  1.00  0.00     0.074 A 
ATOM     11  C   UNL A   1      33.162  22.659  26.490  1.00  0.00     0.065 A 
ATOM     12  C   UNL A   1      31.612  23.111  24.243  1.00  0.00     0.130 A 
ATOM     13  C   UNL A   1      32.350  23.798  26.423  1.00  0.00     0.034 A 
ATOM     14  Cl  UNL A   1      34.243  22.562  27.840  1.00  0.00    -0.082 Cl
ATOM     15  C   UNL A   1      31.562  24.019  25.299  1.00  0.00     0.019 A 
ATOM     16  O   UNL A   1      30.950  23.347  23.067  1.00  0.00    -0.475 OA
ATOM     17  C   UNL A   1      30.686  25.179  25.193  1.00  0.00     0.025 C 
ATOM     18  C   UNL A   1      30.751  24.765  22.774  1.00  0.00     0.314 C 
BRANCH   9  19
ATOM     19  N   UNL A   1      33.816  20.450  25.602  1.00  0.00    -0.373 N 
ATOM     20  C   UNL A   1      35.193  20.476  25.106  1.00  0.00     0.143 C 
BRANCH  19  21
ATOM     21  C   UNL A   1      33.045  19.224  25.307  1.00  0.00     0.119 C 
BRANCH  21  22
ATOM     22  C   UNL A   1      33.623  18.423  24.121  1.00  0.00     0.002 C 
ATOM     23  C   UNL A   1      34.198  17.074  24.561  1.00  0.00     0.009 C 
ATOM     24  C   UNL A   1      32.563  18.183  23.043  1.00  0.00     0.009 C 
ENDBRANCH  21  22
ENDBRANCH  19  21
ENDBRANCH   9  19
BRANCH  18  25
ATOM     25  C   UNL A   1      32.021  25.378  22.142  1.00  0.00     0.429 C 
ATOM     26  F   UNL A   1      31.697  26.340  21.246  1.00  0.00    -0.167 F 
ATOM     27  F   UNL A   1      32.817  25.965  23.070  1.00  0.00    -0.167 F 
ATOM     28  F   UNL A   1      32.786  24.465  21.502  1.00  0.00    -0.167 F 
ENDBRANCH  18  25
ENDBRANCH   5   8
ENDBRANCH   3   4
ENDBRANCH   2   3
ENDBRANCH   1   2
BRANCH   1  29
ATOM     29  C   UNL A   1      33.620  28.406  26.512  1.00  0.00     0.002 C 
BRANCH  29  30
ATOM     30  C   UNL A   1      33.204  29.644  27.309  1.00  0.00     0.021 C 
BRANCH  30  31
ATOM     31  C   UNL A   1      34.226  30.774  27.322  1.00  0.00     0.116 C 
BRANCH  31  32
ATOM     32  N   UNL A   1      33.997  31.721  28.401  1.00  0.00    -0.352 N 
ATOM     33  C   UNL A   1      34.763  31.960  29.520  1.00  0.00     0.251 C 
ATOM     34  H   UNL A   1      33.182  32.268  28.319  1.00  0.00     0.163 HD
ATOM     35  O   UNL A   1      34.344  32.688  30.406  1.00  0.00    -0.269 OA
BRANCH  33  36
ATOM     36  C   UNL A   1      36.079  31.294  29.647  1.00  0.00     0.039 A 
ATOM     37  C   UNL A   1      36.195  30.073  30.316  1.00  0.00     0.014 A 
ATOM     38  C   UNL A   1      37.213  31.920  29.123  1.00  0.00     0.014 A 
ATOM     39  C   UNL A   1      37.457  29.563  30.601  1.00  0.00     0.010 A 
ATOM     40  C   UNL A   1      38.475  31.361  29.340  1.00  0.00     0.010 A 
ATOM     41  C   UNL A   1      38.611  30.204  30.122  1.00  0.00    -0.014 A 
BRANCH  41  42
ATOM     42  C   UNL A   1      39.948  29.640  30.446  1.00  0.00     0.031 A 
ATOM     43  C   UNL A   1      40.702  30.092  31.667  1.00  0.00     0.074 A 
ATOM     44  C   UNL A   1      40.453  28.669  29.663  1.00  0.00     0.049 A 
ATOM     45  N   UNL A   1      41.854  29.675  32.124  1.00  0.00    -0.248 NA
ATOM     46  C   UNL A   1      40.082  31.150  32.482  1.00  0.00     0.031 C 
ATOM     47  C   UNL A   1      39.799  28.146  28.462  1.00  0.00     0.029 A 
ATOM     48  N   UNL A   1      41.605  27.929  29.765  1.00  0.00    -0.354 N 
ATOM     49  C   UNL A   1      42.101  30.415  33.275  1.00  0.00     0.074 A 
ATOM     50  C   UNL A   1      41.000  31.343  33.419  1.00  0.00     0.031 C 
ATOM     51  C   UNL A   1      40.522  27.128  27.979  1.00  0.00     0.029 A 
ATOM     52  C   UNL A   1      41.730  26.971  28.786  1.00  0.00     0.049 A 
ATOM     53  H   UNL A   1      42.275  28.071  30.472  1.00  0.00     0.167 HD
ATOM     54  C   UNL A   1      43.137  30.313  34.142  1.00  0.00     0.034 A 
ATOM     55  C   UNL A   1      42.707  26.071  28.556  1.00  0.00     0.034 A 
ATOM     56  C   UNL A   1      44.231  29.387  33.977  1.00  0.00     0.049 A 
ATOM     57  C   UNL A   1      43.879  26.016  29.498  1.00  0.00     0.074 A 
ATOM     58  C   UNL A   1      45.337  29.217  34.790  1.00  0.00     0.029 A 
ATOM     59  N   UNL A   1      44.355  28.474  32.940  1.00  0.00    -0.354 N 
ATOM     60  N   UNL A   1      44.091  26.714  30.589  1.00  0.00    -0.248 NA
ATOM     61  C   UNL A   1      44.946  25.057  29.184  1.00  0.00     0.031 C 
ATOM     62  C   UNL A   1      46.155  28.242  34.216  1.00  0.00     0.029 A 
ATOM     63  C   UNL A   1      45.529  27.750  33.082  1.00  0.00     0.049 A 
ATOM     64  H   UNL A   1      43.704  28.356  32.210  1.00  0.00     0.167 HD
ATOM     65  C   UNL A   1      45.310  26.274  31.097  1.00  0.00     0.074 A 
ATOM     66  C   UNL A   1      45.773  25.227  30.208  1.00  0.00     0.031 C 
ATOM     67  C   UNL A   1      45.983  26.705  32.194  1.00  0.00     0.034 A 
BRANCH  54  68
ATOM     68  C   UNL A   1      43.144  31.213  35.355  1.00  0.00     0.023 A 
ATOM     69  C   UNL A   1      43.791  32.462  35.313  1.00  0.00     0.031 A 
ATOM     70  C   UNL A   1      42.592  30.793  36.578  1.00  0.00     0.131 A 
ATOM     71  C   UNL A   1      43.885  33.238  36.477  1.00  0.00     0.055 A 
ATOM     72  C   UNL A   1      42.655  31.585  37.726  1.00  0.00     0.041 A 
ATOM     73  F   UNL A   1      41.964  29.609  36.672  1.00  0.00    -0.206 F 
ATOM     74  C   UNL A   1      43.313  32.810  37.680  1.00  0.00     0.022 A 
BRANCH  71  75
ATOM     75  S   UNL A   1      44.800  34.804  36.494  1.00  0.00     0.124 S 
ATOM     76  O   UNL A   1      43.840  35.716  35.878  1.00  0.00    -0.237 OA
ATOM     77  O   UNL A   1      45.028  35.011  37.922  1.00  0.00    -0.237 OA
ATOM     78  O   UNL A   1      45.991  34.523  35.700  1.00  0.00    -0.744 OA
ENDBRANCH  71  75
ENDBRANCH  54  68
BRANCH  55  79
ATOM     79  C   UNL A   1      42.554  25.124  27.413  1.00  0.00     0.023 A 
ATOM     80  C   UNL A   1      41.730  23.989  27.521  1.00  0.00     0.031 A 
ATOM     81  C   UNL A   1      43.347  25.259  26.262  1.00  0.00     0.131 A 
ATOM     82  C   UNL A   1      41.791  22.989  26.542  1.00  0.00     0.055 A 
ATOM     83  C   UNL A   1      43.344  24.297  25.251  1.00  0.00     0.041 A 
ATOM     84  F   UNL A   1      44.158  26.319  26.119  1.00  0.00    -0.206 F 
ATOM     85  C   UNL A   1      42.580  23.144  25.399  1.00  0.00     0.022 A 
BRANCH  82  86
ATOM     86  S   UNL A   1      40.970  21.391  26.796  1.00  0.00     0.124 S 
ATOM     87  O   UNL A   1      40.819  21.351  28.247  1.00  0.00    -0.237 OA
ATOM     88  O   UNL A   1      39.735  21.570  26.037  1.00  0.00    -0.237 OA
ATOM     89  O   UNL A   1      41.910  20.427  26.234  1.00  0.00    -0.744 OA
ENDBRANCH  82  86
ENDBRANCH  55  79
BRANCH  67  90
ATOM     90  C   UNL A   1      47.312  26.064  32.518  1.00  0.00     0.023 A 
ATOM     91  C   UNL A   1      48.453  26.385  31.758  1.00  0.00     0.031 A 
ATOM     92  C   UNL A   1      47.412  25.033  33.468  1.00  0.00     0.131 A 
ATOM     93  C   UNL A   1      49.634  25.652  31.931  1.00  0.00     0.055 A 
ATOM     94  C   UNL A   1      48.604  24.337  33.669  1.00  0.00     0.041 A 
ATOM     95  F   UNL A   1      46.349  24.684  34.210  1.00  0.00    -0.206 F 
ATOM     96  C   UNL A   1      49.718  24.636  32.889  1.00  0.00     0.022 A 
BRANCH  93  97
ATOM     97  S   UNL A   1      51.074  25.931  30.865  1.00  0.00     0.124 S 
ATOM     98  O   UNL A   1      50.653  25.298  29.617  1.00  0.00    -0.237 OA
ATOM     99  O   UNL A   1      51.151  27.389  30.829  1.00  0.00    -0.237 OA
ATOM    100  O   UNL A   1      52.165  25.261  31.563  1.00  0.00    -0.744 OA
ENDBRANCH  93  97
ENDBRANCH  67  90
ENDBRANCH  41  42
ENDBRANCH  33  36
ENDBRANCH  31  32
ENDBRANCH  30  31
ENDBRANCH  29  30
ENDBRANCH   1  29
TORSDOF 20
ENDMDL
MODEL 2
REMARK VINA RESULT:     -10.9      3.401      4.237
REMARK SMILES CC(C)CN(C)c1cc2c(cc1Cl)C=C(C(=O)NCCCCCCNC(=O)c1ccc(-c3c4nc(c(-c5cc(S(=O)(=O)[O-])ccc5F)c5ccc([nH]5)c(-c5cc(S(=O)(=O)[O-])ccc5F)c5nc(c(-c6cc(S(=O)(=O)[O-])ccc6F)c6ccc3[nH]6)C=C5)C=C4)cc1)[C@@H](C(F)(F)F)O2
REMARK SMILES IDX 21 1 20 2 19 3 18 4 16 5 17 6 15 8 7 9 8 10 12 11 9 12 11 13
REMARK SMILES IDX 13 14 10 15 96 16 14 17 91 18 5 19 6 20 4 21 2 22 1 23 3 24
REMARK SMILES IDX 92 25 93 26 94 27 95 28 22 29 23 30 24 31 25 32 26 33 27 35
REMARK SMILES IDX 28 36 29 37 90 38 30 39 89 40 31 41 32 42 33 43 83 44 34 45
REMARK SMILES IDX 88 46 82 47 84 48 35 49 87 50 81 51 80 52 36 54 68 55 48 56
REMARK SMILES IDX 67 57 49 58 52 59 66 60 85 61 50 62 51 63 65 65 86 66 53 67
REMARK SMILES IDX 37 68 38 69 46 70 39 71 45 72 47 73 44 74 40 75 41 76 42 77
REMARK SMILES IDX 43 78 69 79 70 80 78 81 71 82 77 83 79 84 76 85 72 86 73 87
REMARK SMILES IDX 74 88 75 89 54 90 55 91 63 92 56 93 62 94 64 95 61 96 57 97
REMARK SMILES IDX 58 98 59 99 60 100
REMARK H PARENT 18 7 25 34 84 53 52 64
REMARK Flexibility Score: inf
ROOT
ATOM      1  C   UNL A   1      32.706  29.084  26.607  1.00  0.00     0.002 C 
ENDROOT
BRANCH   1   2
ATOM      2  C   UNL A   1      33.492  29.264  25.304  1.00  0.00     0.021 C 
BRANCH   2   3
ATOM      3  C   UNL A   1      33.814  27.959  24.584  1.00  0.00     0.116 C 
BRANCH   3   4
ATOM      4  N   UNL A   1      32.787  27.629  23.611  1.00  0.00    -0.352 N 
ATOM      5  C   UNL A   1      32.105  26.527  23.229  1.00  0.00     0.251 C 
ATOM      6  O   UNL A   1      31.267  26.713  22.340  1.00  0.00    -0.270 OA
ATOM      7  H   UNL A   1      32.517  28.419  23.090  1.00  0.00     0.163 HD
BRANCH   5   8
ATOM      8  C   UNL A   1      32.290  25.160  23.788  1.00  0.00     0.067 C 
ATOM      9  C   UNL A   1      33.059  20.200  24.351  1.00  0.00     0.059 A 
ATOM     10  C   UNL A   1      33.318  21.332  25.144  1.00  0.00     0.074 A 
ATOM     11  C   UNL A   1      32.469  20.412  23.083  1.00  0.00     0.065 A 
ATOM     12  C   UNL A   1      33.023  22.610  24.672  1.00  0.00     0.130 A 
ATOM     13  C   UNL A   1      32.273  21.703  22.578  1.00  0.00     0.034 A 
ATOM     14  Cl  UNL A   1      31.910  19.105  22.095  1.00  0.00    -0.082 Cl
ATOM     15  C   UNL A   1      32.563  22.807  23.372  1.00  0.00     0.019 A 
ATOM     16  O   UNL A   1      33.206  23.660  25.532  1.00  0.00    -0.475 OA
ATOM     17  C   UNL A   1      32.395  24.170  22.882  1.00  0.00     0.025 C 
ATOM     18  C   UNL A   1      32.350  24.811  25.250  1.00  0.00     0.314 C 
BRANCH   9  19
ATOM     19  N   UNL A   1      33.398  18.918  24.815  1.00  0.00    -0.373 N 
ATOM     20  C   UNL A   1      32.789  18.544  26.093  1.00  0.00     0.143 C 
BRANCH  19  21
ATOM     21  C   UNL A   1      34.804  18.502  24.622  1.00  0.00     0.119 C 
BRANCH  21  22
ATOM     22  C   UNL A   1      34.935  17.049  24.119  1.00  0.00     0.002 C 
ATOM     23  C   UNL A   1      35.221  16.068  25.259  1.00  0.00     0.009 C 
ATOM     24  C   UNL A   1      33.670  16.599  23.383  1.00  0.00     0.009 C 
ENDBRANCH  21  22
ENDBRANCH  19  21
ENDBRANCH   9  19
BRANCH  18  25
ATOM     25  C   UNL A   1      30.941  24.607  25.852  1.00  0.00     0.429 C 
ATOM     26  F   UNL A   1      30.407  25.789  26.239  1.00  0.00    -0.167 F 
ATOM     27  F   UNL A   1      30.079  24.068  24.955  1.00  0.00    -0.167 F 
ATOM     28  F   UNL A   1      30.939  23.787  26.927  1.00  0.00    -0.167 F 
ENDBRANCH  18  25
ENDBRANCH   5   8
ENDBRANCH   3   4
ENDBRANCH   2   3
ENDBRANCH   1   2
BRANCH   1  29
ATOM     29  C   UNL A   1      31.448  29.951  26.744  1.00  0.00     0.002 C 
BRANCH  29  30
ATOM     30  C   UNL A   1      31.643  31.445  26.478  1.00  0.00     0.021 C 
BRANCH  30  31
ATOM     31  C   UNL A   1      32.799  32.088  27.233  1.00  0.00     0.116 C 
BRANCH  31  32
ATOM     32  N   UNL A   1      32.551  33.485  27.550  1.00  0.00    -0.352 N 
ATOM     33  C   UNL A   1      33.190  34.291  28.465  1.00  0.00     0.251 C 
ATOM     34  H   UNL A   1      31.827  33.913  27.039  1.00  0.00     0.163 HD
ATOM     35  O   UNL A   1      32.753  35.403  28.714  1.00  0.00    -0.269 OA
BRANCH  33  36
ATOM     36  C   UNL A   1      34.387  33.775  29.168  1.00  0.00     0.039 A 
ATOM     37  C   UNL A   1      35.665  34.202  28.802  1.00  0.00     0.014 A 
ATOM     38  C   UNL A   1      34.224  32.824  30.179  1.00  0.00     0.014 A 
ATOM     39  C   UNL A   1      36.781  33.562  29.330  1.00  0.00     0.010 A 
ATOM     40  C   UNL A   1      35.350  32.241  30.768  1.00  0.00     0.010 A 
ATOM     41  C   UNL A   1      36.637  32.570  30.314  1.00  0.00    -0.014 A 
BRANCH  41  42
ATOM     42  C   UNL A   1      37.846  31.898  30.858  1.00  0.00     0.031 A 
ATOM     43  C   UNL A   1      38.313  32.169  32.262  1.00  0.00     0.074 A 
ATOM     44  C   UNL A   1      38.486  30.991  30.097  1.00  0.00     0.049 A 
ATOM     45  N   UNL A   1      39.316  31.638  32.912  1.00  0.00    -0.248 NA
ATOM     46  C   UNL A   1      37.556  33.164  33.039  1.00  0.00     0.031 C 
ATOM     47  C   UNL A   1      38.108  30.642  28.727  1.00  0.00     0.029 A 
ATOM     48  N   UNL A   1      39.560  30.180  30.365  1.00  0.00    -0.354 N 
ATOM     49  C   UNL A   1      39.315  32.231  34.170  1.00  0.00     0.074 A 
ATOM     50  C   UNL A   1      38.241  33.199  34.174  1.00  0.00     0.031 C 
ATOM     51  C   UNL A   1      38.892  29.644  28.298  1.00  0.00     0.029 A 
ATOM     52  C   UNL A   1      39.877  29.330  29.331  1.00  0.00     0.049 A 
ATOM     53  H   UNL A   1      40.055  30.204  31.216  1.00  0.00     0.167 HD
ATOM     54  C   UNL A   1      40.122  31.975  35.228  1.00  0.00     0.034 A 
ATOM     55  C   UNL A   1      40.852  28.406  29.219  1.00  0.00     0.034 A 
ATOM     56  C   UNL A   1      41.195  31.012  35.202  1.00  0.00     0.049 A 
ATOM     57  C   UNL A   1      41.775  28.180  30.386  1.00  0.00     0.074 A 
ATOM     58  C   UNL A   1      42.080  30.690  36.216  1.00  0.00     0.029 A 
ATOM     59  N   UNL A   1      41.525  30.212  34.116  1.00  0.00    -0.354 N 
ATOM     60  N   UNL A   1      41.753  28.741  31.572  1.00  0.00    -0.248 NA
ATOM     61  C   UNL A   1      42.855  27.201  30.205  1.00  0.00     0.031 C 
ATOM     62  C   UNL A   1      42.977  29.738  35.727  1.00  0.00     0.029 A 
ATOM     63  C   UNL A   1      42.612  29.411  34.430  1.00  0.00     0.049 A 
ATOM     64  H   UNL A   1      41.056  30.213  33.251  1.00  0.00     0.167 HD
ATOM     65  C   UNL A   1      42.809  28.178  32.284  1.00  0.00     0.074 A 
ATOM     66  C   UNL A   1      43.430  27.210  31.402  1.00  0.00     0.031 C 
ATOM     67  C   UNL A   1      43.226  28.446  33.547  1.00  0.00     0.034 A 
BRANCH  54  68
ATOM     68  C   UNL A   1      39.879  32.734  36.511  1.00  0.00     0.023 A 
ATOM     69  C   UNL A   1      38.899  32.298  37.423  1.00  0.00     0.031 A 
ATOM     70  C   UNL A   1      40.551  33.939  36.785  1.00  0.00     0.131 A 
ATOM     71  C   UNL A   1      38.608  33.072  38.555  1.00  0.00     0.055 A 
ATOM     72  C   UNL A   1      40.284  34.687  37.933  1.00  0.00     0.041 A 
ATOM     73  F   UNL A   1      41.494  34.400  35.946  1.00  0.00    -0.206 F 
ATOM     74  C   UNL A   1      39.301  34.258  38.819  1.00  0.00     0.022 A 
BRANCH  71  75
ATOM     75  S   UNL A   1      37.281  32.602  39.700  1.00  0.00     0.124 S 
ATOM     76  O   UNL A   1      36.112  32.626  38.826  1.00  0.00    -0.237 OA
ATOM     77  O   UNL A   1      37.708  31.274  40.134  1.00  0.00    -0.237 OA
ATOM     78  O   UNL A   1      37.316  33.641  40.723  1.00  0.00    -0.744 OA
ENDBRANCH  71  75
ENDBRANCH  54  68
BRANCH  55  79
ATOM     79  C   UNL A   1      40.935  27.601  27.966  1.00  0.00     0.023 A 
ATOM     80  C   UNL A   1      40.551  26.247  27.949  1.00  0.00     0.031 A 
ATOM     81  C   UNL A   1      41.543  28.130  26.815  1.00  0.00     0.131 A 
ATOM     82  C   UNL A   1      40.867  25.447  26.843  1.00  0.00     0.055 A 
ATOM     83  C   UNL A   1      41.783  27.347  25.685  1.00  0.00     0.041 A 
ATOM     84  F   UNL A   1      41.937  29.413  26.787  1.00  0.00    -0.206 F 
ATOM     85  C   UNL A   1      41.465  25.993  25.704  1.00  0.00     0.022 A 
BRANCH  82  86
ATOM     86  S   UNL A   1      40.653  23.647  26.909  1.00  0.00     0.124 S 
ATOM     87  O   UNL A   1      41.669  23.183  25.970  1.00  0.00    -0.237 OA
ATOM     88  O   UNL A   1      40.922  23.370  28.319  1.00  0.00    -0.237 OA
ATOM     89  O   UNL A   1      39.270  23.448  26.490  1.00  0.00    -0.744 OA
ENDBRANCH  82  86
ENDBRANCH  55  79
BRANCH  67  90
ATOM     90  C   UNL A   1      44.424  27.698  34.081  1.00  0.00     0.023 A 
ATOM     91  C   UNL A   1      44.253  26.443  34.698  1.00  0.00     0.031 A 
ATOM     92  C   UNL A   1      45.697  28.291  34.119  1.00  0.00     0.131 A 
ATOM     93  C   UNL A   1      45.329  25.842  35.362  1.00  0.00     0.055 A 
ATOM     94  C   UNL A   1      46.778  27.666  34.741  1.00  0.00     0.041 A 
ATOM     95  F   UNL A   1      45.907  29.490  33.554  1.00  0.00    -0.206 F 
ATOM     96  C   UNL A   1      46.593  26.442  35.380  1.00  0.00     0.022 A 
BRANCH  93  97
ATOM     97  S   UNL A   1      45.110  24.305  36.300  1.00  0.00     0.124 S 
ATOM     98  O   UNL A   1      46.260  23.517  35.860  1.00  0.00    -0.237 OA
ATOM     99  O   UNL A   1      45.169  24.777  37.681  1.00  0.00    -0.237 OA
ATOM    100  O   UNL A   1      43.812  23.807  35.861  1.00  0.00    -0.744 OA
ENDBRANCH  93  97
ENDBRANCH  67  90
ENDBRANCH  41  42
ENDBRANCH  33  36
ENDBRANCH  31  32
ENDBRANCH  30  31
ENDBRANCH  29  30
ENDBRANCH   1  29
TORSDOF 20
ENDMDL
MODEL 3
REMARK VINA RESULT:     -10.8      1.208      7.387
REMARK SMILES CC(C)CN(C)c1cc2c(cc1Cl)C=C(C(=O)NCCCCCCNC(=O)c1ccc(-c3c4nc(c(-c5cc(S(=O)(=O)[O-])ccc5F)c5ccc([nH]5)c(-c5cc(S(=O)(=O)[O-])ccc5F)c5nc(c(-c6cc(S(=O)(=O)[O-])ccc6F)c6ccc3[nH]6)C=C5)C=C4)cc1)[C@@H](C(F)(F)F)O2
REMARK SMILES IDX 21 1 20 2 19 3 18 4 16 5 17 6 15 8 7 9 8 10 12 11 9 12 11 13
REMARK SMILES IDX 13 14 10 15 96 16 14 17 91 18 5 19 6 20 4 21 2 22 1 23 3 24
REMARK SMILES IDX 92 25 93 26 94 27 95 28 22 29 23 30 24 31 25 32 26 33 27 35
REMARK SMILES IDX 28 36 29 37 90 38 30 39 89 40 31 41 32 42 33 43 83 44 34 45
REMARK SMILES IDX 88 46 82 47 84 48 35 49 87 50 81 51 80 52 36 54 68 55 48 56
REMARK SMILES IDX 67 57 49 58 52 59 66 60 85 61 50 62 51 63 65 65 86 66 53 67
REMARK SMILES IDX 37 68 38 69 46 70 39 71 45 72 47 73 44 74 40 75 41 76 42 77
REMARK SMILES IDX 43 78 69 79 70 80 78 81 71 82 77 83 79 84 76 85 72 86 73 87
REMARK SMILES IDX 74 88 75 89 54 90 55 91 63 92 56 93 62 94 64 95 61 96 57 97
REMARK SMILES IDX 58 98 59 99 60 100
REMARK H PARENT 18 7 25 34 84 53 52 64
REMARK Flexibility Score: inf
ROOT
ATOM      1  C   UNL A   1      33.327  28.269  25.619  1.00  0.00     0.002 C 
ENDROOT
BRANCH   1   2
ATOM      2  C   UNL A   1      31.828  28.577  25.552  1.00  0.00     0.021 C 
BRANCH   2   3
ATOM      3  C   UNL A   1      31.248  28.553  24.141  1.00  0.00     0.116 C 
BRANCH   3   4
ATOM      4  N   UNL A   1      29.957  27.888  24.115  1.00  0.00    -0.352 N 
ATOM      5  C   UNL A   1      29.501  26.616  24.099  1.00  0.00     0.251 C 
ATOM      6  O   UNL A   1      28.270  26.503  24.106  1.00  0.00    -0.270 OA
ATOM      7  H   UNL A   1      29.218  28.537  24.106  1.00  0.00     0.163 HD
BRANCH   5   8
ATOM      8  C   UNL A   1      30.351  25.394  24.076  1.00  0.00     0.067 C 
ATOM      9  C   UNL A   1      32.997  21.287  25.357  1.00  0.00     0.059 A 
ATOM     10  C   UNL A   1      32.299  21.689  24.204  1.00  0.00     0.074 A 
ATOM     11  C   UNL A   1      32.989  22.168  26.464  1.00  0.00     0.065 A 
ATOM     12  C   UNL A   1      31.608  22.898  24.178  1.00  0.00     0.130 A 
ATOM     13  C   UNL A   1      32.207  23.330  26.464  1.00  0.00     0.034 A 
ATOM     14  Cl  UNL A   1      33.970  21.899  27.865  1.00  0.00    -0.082 Cl
ATOM     15  C   UNL A   1      31.504  23.691  25.320  1.00  0.00     0.019 A 
ATOM     16  O   UNL A   1      31.035  23.275  22.994  1.00  0.00    -0.475 OA
ATOM     17  C   UNL A   1      30.662  24.879  25.280  1.00  0.00     0.025 C 
ATOM     18  C   UNL A   1      30.887  24.721  22.842  1.00  0.00     0.314 C 
BRANCH   9  19
ATOM     19  N   UNL A   1      33.656  20.047  25.390  1.00  0.00    -0.373 N 
ATOM     20  C   UNL A   1      35.027  20.064  24.877  1.00  0.00     0.143 C 
BRANCH  19  21
ATOM     21  C   UNL A   1      32.845  18.865  25.030  1.00  0.00     0.119 C 
BRANCH  21  22
ATOM     22  C   UNL A   1      33.367  18.141  23.771  1.00  0.00     0.002 C 
ATOM     23  C   UNL A   1      33.713  16.675  24.051  1.00  0.00     0.009 C 
ATOM     24  C   UNL A   1      32.347  18.201  22.632  1.00  0.00     0.009 C 
ENDBRANCH  21  22
ENDBRANCH  19  21
ENDBRANCH   9  19
BRANCH  18  25
ATOM     25  C   UNL A   1      32.210  25.362  22.365  1.00  0.00     0.429 C 
ATOM     26  F   UNL A   1      31.970  26.449  21.596  1.00  0.00    -0.167 F 
ATOM     27  F   UNL A   1      32.973  25.782  23.404  1.00  0.00    -0.167 F 
ATOM     28  F   UNL A   1      32.978  24.513  21.644  1.00  0.00    -0.167 F 
ENDBRANCH  18  25
ENDBRANCH   5   8
ENDBRANCH   3   4
ENDBRANCH   2   3
ENDBRANCH   1   2
BRANCH   1  29
ATOM     29  C   UNL A   1      34.065  28.848  26.834  1.00  0.00     0.002 C 
BRANCH  29  30
ATOM     30  C   UNL A   1      33.581  30.219  27.310  1.00  0.00     0.021 C 
BRANCH  30  31
ATOM     31  C   UNL A   1      34.687  31.193  27.697  1.00  0.00     0.116 C 
BRANCH  31  32
ATOM     32  N   UNL A   1      34.396  31.910  28.927  1.00  0.00    -0.352 N 
ATOM     33  C   UNL A   1      35.095  31.915  30.113  1.00  0.00     0.251 C 
ATOM     34  H   UNL A   1      33.586  32.470  28.909  1.00  0.00     0.163 HD
ATOM     35  O   UNL A   1      34.625  32.456  31.101  1.00  0.00    -0.269 OA
BRANCH  33  36
ATOM     36  C   UNL A   1      36.402  31.222  30.180  1.00  0.00     0.039 A 
ATOM     37  C   UNL A   1      36.528  30.008  30.861  1.00  0.00     0.014 A 
ATOM     38  C   UNL A   1      37.519  31.816  29.586  1.00  0.00     0.014 A 
ATOM     39  C   UNL A   1      37.793  29.476  31.086  1.00  0.00     0.010 A 
ATOM     40  C   UNL A   1      38.779  31.233  29.744  1.00  0.00     0.010 A 
ATOM     41  C   UNL A   1      38.933  30.085  30.536  1.00  0.00    -0.014 A 
BRANCH  41  42
ATOM     42  C   UNL A   1      40.274  29.498  30.797  1.00  0.00     0.031 A 
ATOM     43  C   UNL A   1      40.798  28.368  29.954  1.00  0.00     0.074 A 
ATOM     44  C   UNL A   1      41.044  30.033  31.762  1.00  0.00     0.049 A 
ATOM     45  N   UNL A   1      41.960  27.769  30.011  1.00  0.00    -0.248 NA
ATOM     46  C   UNL A   1      39.905  27.841  28.909  1.00  0.00     0.031 C 
ATOM     47  C   UNL A   1      40.639  31.141  32.629  1.00  0.00     0.029 A 
ATOM     48  N   UNL A   1      42.326  29.749  32.160  1.00  0.00    -0.354 N 
ATOM     49  C   UNL A   1      41.939  26.797  29.017  1.00  0.00     0.074 A 
ATOM     50  C   UNL A   1      40.630  26.853  28.404  1.00  0.00     0.031 C 
ATOM     51  C   UNL A   1      41.671  31.486  33.408  1.00  0.00     0.029 A 
ATOM     52  C   UNL A   1      42.789  30.579  33.154  1.00  0.00     0.049 A 
ATOM     53  H   UNL A   1      42.863  29.021  31.770  1.00  0.00     0.167 HD
ATOM     54  C   UNL A   1      42.928  25.952  28.638  1.00  0.00     0.034 A 
ATOM     55  C   UNL A   1      43.975  30.609  33.795  1.00  0.00     0.034 A 
ATOM     56  C   UNL A   1      44.225  25.904  29.266  1.00  0.00     0.049 A 
ATOM     57  C   UNL A   1      45.039  29.621  33.398  1.00  0.00     0.074 A 
ATOM     58  C   UNL A   1      45.291  25.073  28.967  1.00  0.00     0.029 A 
ATOM     59  N   UNL A   1      44.637  26.719  30.312  1.00  0.00    -0.354 N 
ATOM     60  N   UNL A   1      45.007  28.716  32.448  1.00  0.00    -0.248 NA
ATOM     61  C   UNL A   1      46.297  29.652  34.156  1.00  0.00     0.031 C 
ATOM     62  C   UNL A   1      46.324  25.348  29.865  1.00  0.00     0.029 A 
ATOM     63  C   UNL A   1      45.935  26.398  30.681  1.00  0.00     0.049 A 
ATOM     64  H   UNL A   1      44.090  27.423  30.729  1.00  0.00     0.167 HD
ATOM     65  C   UNL A   1      46.242  28.075  32.486  1.00  0.00     0.074 A 
ATOM     66  C   UNL A   1      47.008  28.719  33.535  1.00  0.00     0.031 C 
ATOM     67  C   UNL A   1      46.694  27.046  31.726  1.00  0.00     0.034 A 
BRANCH  54  68
ATOM     68  C   UNL A   1      42.662  25.014  27.484  1.00  0.00     0.023 A 
ATOM     69  C   UNL A   1      41.870  23.865  27.667  1.00  0.00     0.031 A 
ATOM     70  C   UNL A   1      43.271  25.207  26.231  1.00  0.00     0.131 A 
ATOM     71  C   UNL A   1      41.722  22.946  26.618  1.00  0.00     0.055 A 
ATOM     72  C   UNL A   1      43.090  24.308  25.178  1.00  0.00     0.041 A 
ATOM     73  F   UNL A   1      44.037  26.287  26.004  1.00  0.00    -0.206 F 
ATOM     74  C   UNL A   1      42.321  23.167  25.374  1.00  0.00     0.022 A 
BRANCH  71  75
ATOM     75  S   UNL A   1      40.797  21.402  26.843  1.00  0.00     0.124 S 
ATOM     76  O   UNL A   1      41.653  20.440  26.154  1.00  0.00    -0.237 OA
ATOM     77  O   UNL A   1      40.763  21.275  28.298  1.00  0.00    -0.237 OA
ATOM     78  O   UNL A   1      39.514  21.665  26.203  1.00  0.00    -0.744 OA
ENDBRANCH  71  75
ENDBRANCH  54  68
BRANCH  55  79
ATOM     79  C   UNL A   1      44.205  31.660  34.828  1.00  0.00     0.023 A 
ATOM     80  C   UNL A   1      43.749  31.488  36.148  1.00  0.00     0.031 A 
ATOM     81  C   UNL A   1      44.743  32.908  34.472  1.00  0.00     0.131 A 
ATOM     82  C   UNL A   1      43.751  32.574  37.033  1.00  0.00     0.055 A 
ATOM     83  C   UNL A   1      44.815  33.964  35.381  1.00  0.00     0.041 A 
ATOM     84  F   UNL A   1      45.180  33.124  33.221  1.00  0.00    -0.206 F 
ATOM     85  C   UNL A   1      44.297  33.806  36.663  1.00  0.00     0.022 A 
BRANCH  82  86
ATOM     86  S   UNL A   1      42.905  32.467  38.635  1.00  0.00     0.124 S 
ATOM     87  O   UNL A   1      42.462  33.842  38.839  1.00  0.00    -0.237 OA
ATOM     88  O   UNL A   1      41.849  31.499  38.346  1.00  0.00    -0.237 OA
ATOM     89  O   UNL A   1      43.945  31.999  39.543  1.00  0.00    -0.744 OA
ENDBRANCH  82  86
ENDBRANCH  55  79
BRANCH  67  90
ATOM     90  C   UNL A   1      48.084  26.517  31.986  1.00  0.00     0.023 A 
ATOM     91  C   UNL A   1      49.172  26.997  31.231  1.00  0.00     0.031 A 
ATOM     92  C   UNL A   1      48.304  25.440  32.861  1.00  0.00     0.131 A 
ATOM     93  C   UNL A   1      50.422  26.373  31.336  1.00  0.00     0.055 A 
ATOM     94  C   UNL A   1      49.562  24.852  32.997  1.00  0.00     0.041 A 
ATOM     95  F   UNL A   1      47.297  24.941  33.594  1.00  0.00    -0.206 F 
ATOM     96  C   UNL A   1      50.625  25.309  32.221  1.00  0.00     0.022 A 
BRANCH  93  97
ATOM     97  S   UNL A   1      51.804  26.861  30.268  1.00  0.00     0.124 S 
ATOM     98  O   UNL A   1      52.960  26.477  31.076  1.00  0.00    -0.237 OA
ATOM     99  O   UNL A   1      51.575  26.044  29.078  1.00  0.00    -0.237 OA
ATOM    100  O   UNL A   1      51.621  28.296  30.088  1.00  0.00    -0.744 OA
ENDBRANCH  93  97
ENDBRANCH  67  90
ENDBRANCH  41  42
ENDBRANCH  33  36
ENDBRANCH  31  32
ENDBRANCH  30  31
ENDBRANCH  29  30
ENDBRANCH   1  29
TORSDOF 20
ENDMDL
