MODEL 1
REMARK VINA RESULT:     -10.9      0.000      0.000
REMARK SMILES C[C@@H](C(=O)NCCCCCCNC(=O)c1ccc(-c2c3nc(c(-c4cc(S(=O)(=O)[O-])ccc4F)c4ccc([nH]4)c(-c4cc(S(=O)(=O)[O-])ccc4F)c4nc(c(-c5cc(S(=O)(=O)[O-])ccc5F)c5ccc2[nH]5)C=C4)C=C3)cc1)c1ccccc1-c1ccn(C(F)F)c(=O)c1
REMARK SMILES IDX 8 1 7 2 6 3 5 4 3 5 4 6 2 8 1 9 78 10 79 11 83 12 80 13
REMARK SMILES IDX 82 14 81 15 84 16 85 17 93 18 86 19 91 20 87 21 92 22 88 23
REMARK SMILES IDX 89 24 90 25 9 26 10 27 11 28 12 29 13 30 14 32 15 33 16 34
REMARK SMILES IDX 77 35 17 36 76 37 18 38 19 39 20 40 70 41 21 42 75 43 69 44
REMARK SMILES IDX 71 45 22 46 74 47 68 48 67 49 23 51 55 52 35 53 54 54 36 55
REMARK SMILES IDX 39 56 53 57 72 58 37 59 38 60 52 62 73 63 40 64 24 65 25 66
REMARK SMILES IDX 33 67 26 68 32 69 34 70 31 71 27 72 28 73 29 74 30 75 56 76
REMARK SMILES IDX 57 77 65 78 58 79 64 80 66 81 63 82 59 83 60 84 61 85 62 86
REMARK SMILES IDX 41 87 42 88 50 89 43 90 49 91 51 92 48 93 44 94 45 95 46 96
REMARK SMILES IDX 47 97
REMARK H PARENT 5 7 12 31 71 50 39 61
REMARK Flexibility Score: inf
ROOT
ATOM      1  C   UNL A   1      34.402  22.807  23.100  1.00  0.00     0.002 C 
ENDROOT
BRANCH   1   2
ATOM      2  C   UNL A   1      34.198  24.263  22.672  1.00  0.00     0.021 C 
BRANCH   2   3
ATOM      3  C   UNL A   1      32.855  24.525  21.974  1.00  0.00     0.116 C 
BRANCH   3   4
ATOM      4  N   UNL A   1      32.413  25.886  22.225  1.00  0.00    -0.356 N 
ATOM      5  C   UNL A   1      31.284  26.350  22.844  1.00  0.00     0.227 C 
ATOM      6  O   UNL A   1      31.062  27.560  22.755  1.00  0.00    -0.274 OA
ATOM      7  H   UNL A   1      33.023  26.585  21.899  1.00  0.00     0.163 HD
BRANCH   5   8
ATOM      8  C   UNL A   1      30.390  25.389  23.664  1.00  0.00     0.106 C 
ATOM      9  C   UNL A   1      29.171  26.136  24.194  1.00  0.00     0.023 C 
BRANCH   8  10
ATOM     10  C   UNL A   1      31.209  24.545  24.676  1.00  0.00    -0.028 A 
ATOM     11  C   UNL A   1      31.015  23.144  24.586  1.00  0.00     0.005 A 
ATOM     12  C   UNL A   1      32.114  25.011  25.668  1.00  0.00    -0.014 A 
ATOM     13  C   UNL A   1      31.689  22.244  25.412  1.00  0.00     0.000 A 
ATOM     14  C   UNL A   1      32.771  24.086  26.508  1.00  0.00     0.009 A 
ATOM     15  C   UNL A   1      32.565  22.715  26.378  1.00  0.00     0.001 A 
BRANCH  12  16
ATOM     16  C   UNL A   1      32.458  26.428  25.898  1.00  0.00    -0.011 A 
ATOM     17  C   UNL A   1      33.686  27.032  25.414  1.00  0.00     0.027 A 
ATOM     18  C   UNL A   1      31.629  27.151  26.672  1.00  0.00     0.080 A 
ATOM     19  C   UNL A   1      34.127  28.172  25.962  1.00  0.00     0.095 A 
ATOM     20  C   UNL A   1      32.055  28.483  27.186  1.00  0.00     0.255 A 
ATOM     21  N   UNL A   1      33.362  28.847  26.896  1.00  0.00    -0.258 N 
ATOM     22  O   UNL A   1      31.268  29.127  27.873  1.00  0.00    -0.269 OA
BRANCH  21  23
ATOM     23  C   UNL A   1      33.901  29.976  27.610  1.00  0.00     0.451 C 
ATOM     24  F   UNL A   1      34.943  29.609  28.391  1.00  0.00    -0.185 F 
ATOM     25  F   UNL A   1      34.335  30.929  26.748  1.00  0.00    -0.185 F 
ENDBRANCH  21  23
ENDBRANCH  12  16
ENDBRANCH   8  10
ENDBRANCH   5   8
ENDBRANCH   3   4
ENDBRANCH   2   3
ENDBRANCH   1   2
BRANCH   1  26
ATOM     26  C   UNL A   1      35.736  22.527  23.797  1.00  0.00     0.002 C 
BRANCH  26  27
ATOM     27  C   UNL A   1      36.233  23.641  24.724  1.00  0.00     0.021 C 
BRANCH  27  28
ATOM     28  C   UNL A   1      36.592  23.190  26.139  1.00  0.00     0.116 C 
BRANCH  28  29
ATOM     29  N   UNL A   1      37.744  22.306  26.146  1.00  0.00    -0.352 N 
ATOM     30  C   UNL A   1      39.076  22.598  26.294  1.00  0.00     0.251 C 
ATOM     31  H   UNL A   1      37.537  21.352  26.026  1.00  0.00     0.163 HD
ATOM     32  O   UNL A   1      39.911  21.740  26.024  1.00  0.00    -0.269 OA
BRANCH  30  33
ATOM     33  C   UNL A   1      39.508  23.936  26.760  1.00  0.00     0.039 A 
ATOM     34  C   UNL A   1      39.330  24.266  28.106  1.00  0.00     0.014 A 
ATOM     35  C   UNL A   1      40.036  24.881  25.874  1.00  0.00     0.014 A 
ATOM     36  C   UNL A   1      39.723  25.522  28.572  1.00  0.00     0.010 A 
ATOM     37  C   UNL A   1      40.487  26.112  26.353  1.00  0.00     0.010 A 
ATOM     38  C   UNL A   1      40.329  26.447  27.706  1.00  0.00    -0.014 A 
BRANCH  38  39
ATOM     39  C   UNL A   1      40.790  27.767  28.213  1.00  0.00     0.031 A 
ATOM     40  C   UNL A   1      42.259  28.078  28.305  1.00  0.00     0.074 A 
ATOM     41  C   UNL A   1      39.878  28.675  28.614  1.00  0.00     0.049 A 
ATOM     42  N   UNL A   1      42.848  29.165  28.734  1.00  0.00    -0.248 NA
ATOM     43  C   UNL A   1      43.186  27.018  27.885  1.00  0.00     0.031 C 
ATOM     44  C   UNL A   1      38.428  28.469  28.617  1.00  0.00     0.029 A 
ATOM     45  N   UNL A   1      40.032  29.951  29.096  1.00  0.00    -0.354 N 
ATOM     46  C   UNL A   1      44.215  28.925  28.629  1.00  0.00     0.074 A 
ATOM     47  C   UNL A   1      44.363  27.561  28.163  1.00  0.00     0.031 C 
ATOM     48  C   UNL A   1      37.826  29.585  29.058  1.00  0.00     0.029 A 
ATOM     49  C   UNL A   1      38.843  30.574  29.401  1.00  0.00     0.049 A 
ATOM     50  H   UNL A   1      40.910  30.380  29.214  1.00  0.00     0.167 HD
ATOM     51  C   UNL A   1      45.248  29.770  28.869  1.00  0.00     0.034 A 
ATOM     52  C   UNL A   1      38.601  31.801  29.903  1.00  0.00     0.034 A 
ATOM     53  C   UNL A   1      45.086  31.128  29.334  1.00  0.00     0.049 A 
ATOM     54  C   UNL A   1      39.765  32.720  30.166  1.00  0.00     0.074 A 
ATOM     55  C   UNL A   1      46.062  32.076  29.590  1.00  0.00     0.029 A 
ATOM     56  N   UNL A   1      43.867  31.731  29.613  1.00  0.00    -0.354 N 
ATOM     57  N   UNL A   1      41.051  32.489  30.018  1.00  0.00    -0.248 NA
ATOM     58  C   UNL A   1      39.447  34.071  30.642  1.00  0.00     0.031 C 
ATOM     59  C   UNL A   1      45.437  33.231  30.075  1.00  0.00     0.029 A 
ATOM     60  C   UNL A   1      44.067  33.030  30.057  1.00  0.00     0.049 A 
ATOM     61  H   UNL A   1      42.987  31.299  29.512  1.00  0.00     0.167 HD
ATOM     62  C   UNL A   1      41.690  33.678  30.360  1.00  0.00     0.074 A 
ATOM     63  C   UNL A   1      40.648  34.628  30.694  1.00  0.00     0.031 C 
ATOM     64  C   UNL A   1      43.017  33.960  30.401  1.00  0.00     0.034 A 
BRANCH  51  65
ATOM     65  C   UNL A   1      46.644  29.239  28.642  1.00  0.00     0.023 A 
ATOM     66  C   UNL A   1      47.128  28.978  27.347  1.00  0.00     0.031 A 
ATOM     67  C   UNL A   1      47.497  28.969  29.728  1.00  0.00     0.131 A 
ATOM     68  C   UNL A   1      48.394  28.401  27.173  1.00  0.00     0.055 A 
ATOM     69  C   UNL A   1      48.787  28.468  29.543  1.00  0.00     0.041 A 
ATOM     70  F   UNL A   1      47.086  29.179  30.988  1.00  0.00    -0.206 F 
ATOM     71  C   UNL A   1      49.238  28.166  28.261  1.00  0.00     0.022 A 
BRANCH  68  72
ATOM     72  S   UNL A   1      48.869  27.839  25.516  1.00  0.00     0.124 S 
ATOM     73  O   UNL A   1      48.811  26.388  25.670  1.00  0.00    -0.237 OA
ATOM     74  O   UNL A   1      47.840  28.434  24.673  1.00  0.00    -0.237 OA
ATOM     75  O   UNL A   1      50.213  28.388  25.340  1.00  0.00    -0.744 OA
ENDBRANCH  68  72
ENDBRANCH  51  65
BRANCH  52  76
ATOM     76  C   UNL A   1      37.205  32.234  30.200  1.00  0.00     0.023 A 
ATOM     77  C   UNL A   1      36.409  32.848  29.220  1.00  0.00     0.031 A 
ATOM     78  C   UNL A   1      36.664  32.085  31.489  1.00  0.00     0.131 A 
ATOM     79  C   UNL A   1      35.140  33.341  29.557  1.00  0.00     0.055 A 
ATOM     80  C   UNL A   1      35.379  32.526  31.806  1.00  0.00     0.041 A 
ATOM     81  F   UNL A   1      37.379  31.496  32.462  1.00  0.00    -0.206 F 
ATOM     82  C   UNL A   1      34.615  33.174  30.840  1.00  0.00     0.022 A 
BRANCH  79  83
ATOM     83  S   UNL A   1      34.221  34.296  28.318  1.00  0.00     0.124 S 
ATOM     84  O   UNL A   1      33.936  35.529  29.043  1.00  0.00    -0.237 OA
ATOM     85  O   UNL A   1      35.194  34.397  27.235  1.00  0.00    -0.237 OA
ATOM     86  O   UNL A   1      33.059  33.455  28.034  1.00  0.00    -0.744 OA
ENDBRANCH  79  83
ENDBRANCH  52  76
BRANCH  64  87
ATOM     87  C   UNL A   1      43.400  35.367  30.790  1.00  0.00     0.023 A 
ATOM     88  C   UNL A   1      43.533  35.748  32.137  1.00  0.00     0.031 A 
ATOM     89  C   UNL A   1      43.598  36.348  29.802  1.00  0.00     0.131 A 
ATOM     90  C   UNL A   1      43.787  37.089  32.462  1.00  0.00     0.055 A 
ATOM     91  C   UNL A   1      43.913  37.667  30.131  1.00  0.00     0.041 A 
ATOM     92  F   UNL A   1      43.484  36.040  28.501  1.00  0.00    -0.206 F 
ATOM     93  C   UNL A   1      43.991  38.048  31.468  1.00  0.00     0.022 A 
BRANCH  90  94
ATOM     94  S   UNL A   1      43.735  37.583  34.207  1.00  0.00     0.124 S 
ATOM     95  O   UNL A   1      42.744  38.655  34.190  1.00  0.00    -0.237 OA
ATOM     96  O   UNL A   1      43.327  36.348  34.869  1.00  0.00    -0.237 OA
ATOM     97  O   UNL A   1      45.106  38.009  34.483  1.00  0.00    -0.744 OA
ENDBRANCH  90  94
ENDBRANCH  64  87
ENDBRANCH  38  39
ENDBRANCH  30  33
ENDBRANCH  28  29
ENDBRANCH  27  28
ENDBRANCH  26  27
ENDBRANCH   1  26
TORSDOF 19
ENDMDL
MODEL 2
REMARK VINA RESULT:     -10.9      4.856      8.187
REMARK SMILES C[C@@H](C(=O)NCCCCCCNC(=O)c1ccc(-c2c3nc(c(-c4cc(S(=O)(=O)[O-])ccc4F)c4ccc([nH]4)c(-c4cc(S(=O)(=O)[O-])ccc4F)c4nc(c(-c5cc(S(=O)(=O)[O-])ccc5F)c5ccc2[nH]5)C=C4)C=C3)cc1)c1ccccc1-c1ccn(C(F)F)c(=O)c1
REMARK SMILES IDX 8 1 7 2 6 3 5 4 3 5 4 6 2 8 1 9 78 10 79 11 83 12 80 13
REMARK SMILES IDX 82 14 81 15 84 16 85 17 93 18 86 19 91 20 87 21 92 22 88 23
REMARK SMILES IDX 89 24 90 25 9 26 10 27 11 28 12 29 13 30 14 32 15 33 16 34
REMARK SMILES IDX 77 35 17 36 76 37 18 38 19 39 20 40 70 41 21 42 75 43 69 44
REMARK SMILES IDX 71 45 22 46 74 47 68 48 67 49 23 51 55 52 35 53 54 54 36 55
REMARK SMILES IDX 39 56 53 57 72 58 37 59 38 60 52 62 73 63 40 64 24 65 25 66
REMARK SMILES IDX 33 67 26 68 32 69 34 70 31 71 27 72 28 73 29 74 30 75 56 76
REMARK SMILES IDX 57 77 65 78 58 79 64 80 66 81 63 82 59 83 60 84 61 85 62 86
REMARK SMILES IDX 41 87 42 88 50 89 43 90 49 91 51 92 48 93 44 94 45 95 46 96
REMARK SMILES IDX 47 97
REMARK H PARENT 5 7 12 31 71 50 39 61
REMARK Flexibility Score: inf
ROOT
ATOM      1  C   UNL A   1      32.028  29.810  27.211  1.00  0.00     0.002 C 
ENDROOT
BRANCH   1   2
ATOM      2  C   UNL A   1      31.836  28.337  26.839  1.00  0.00     0.021 C 
BRANCH   2   3
ATOM      3  C   UNL A   1      33.100  27.665  26.284  1.00  0.00     0.116 C 
BRANCH   3   4
ATOM      4  N   UNL A   1      33.581  28.381  25.115  1.00  0.00    -0.356 N 
ATOM      5  C   UNL A   1      33.650  27.993  23.804  1.00  0.00     0.227 C 
ATOM      6  O   UNL A   1      34.280  28.729  23.042  1.00  0.00    -0.274 OA
ATOM      7  H   UNL A   1      33.910  29.291  25.295  1.00  0.00     0.163 HD
BRANCH   5   8
ATOM      8  C   UNL A   1      32.904  26.724  23.325  1.00  0.00     0.106 C 
ATOM      9  C   UNL A   1      33.441  26.287  21.966  1.00  0.00     0.023 C 
BRANCH   8  10
ATOM     10  C   UNL A   1      31.366  26.854  23.478  1.00  0.00    -0.028 A 
ATOM     11  C   UNL A   1      30.792  27.986  22.847  1.00  0.00     0.005 A 
ATOM     12  C   UNL A   1      30.482  25.982  24.169  1.00  0.00    -0.014 A 
ATOM     13  C   UNL A   1      29.420  28.240  22.875  1.00  0.00     0.000 A 
ATOM     14  C   UNL A   1      29.100  26.266  24.204  1.00  0.00     0.009 A 
ATOM     15  C   UNL A   1      28.573  27.381  23.558  1.00  0.00     0.001 A 
BRANCH  12  16
ATOM     16  C   UNL A   1      30.890  24.746  24.868  1.00  0.00    -0.011 A 
ATOM     17  C   UNL A   1      31.084  24.678  26.305  1.00  0.00     0.027 A 
ATOM     18  C   UNL A   1      31.180  23.672  24.112  1.00  0.00     0.080 A 
ATOM     19  C   UNL A   1      31.809  23.681  26.830  1.00  0.00     0.095 A 
ATOM     20  C   UNL A   1      31.873  22.498  24.713  1.00  0.00     0.255 A 
ATOM     21  N   UNL A   1      32.269  22.648  26.034  1.00  0.00    -0.258 N 
ATOM     22  O   UNL A   1      32.106  21.526  24.003  1.00  0.00    -0.269 OA
BRANCH  21  23
ATOM     23  C   UNL A   1      33.186  21.669  26.559  1.00  0.00     0.451 C 
ATOM     24  F   UNL A   1      34.444  21.888  26.111  1.00  0.00    -0.185 F 
ATOM     25  F   UNL A   1      33.207  21.706  27.915  1.00  0.00    -0.185 F 
ENDBRANCH  21  23
ENDBRANCH  12  16
ENDBRANCH   8  10
ENDBRANCH   5   8
ENDBRANCH   3   4
ENDBRANCH   2   3
ENDBRANCH   1   2
BRANCH   1  26
ATOM     26  C   UNL A   1      31.449  30.804  26.201  1.00  0.00     0.002 C 
BRANCH  26  27
ATOM     27  C   UNL A   1      31.504  32.274  26.629  1.00  0.00     0.021 C 
BRANCH  27  28
ATOM     28  C   UNL A   1      32.848  32.732  27.192  1.00  0.00     0.116 C 
BRANCH  28  29
ATOM     29  N   UNL A   1      32.791  34.099  27.677  1.00  0.00    -0.352 N 
ATOM     30  C   UNL A   1      33.411  34.677  28.757  1.00  0.00     0.251 C 
ATOM     31  H   UNL A   1      32.220  34.705  27.152  1.00  0.00     0.163 HD
ATOM     32  O   UNL A   1      33.039  35.782  29.140  1.00  0.00    -0.269 OA
BRANCH  30  33
ATOM     33  C   UNL A   1      34.506  33.974  29.463  1.00  0.00     0.039 A 
ATOM     34  C   UNL A   1      35.826  34.317  29.159  1.00  0.00     0.014 A 
ATOM     35  C   UNL A   1      34.244  32.950  30.379  1.00  0.00     0.014 A 
ATOM     36  C   UNL A   1      36.879  33.667  29.806  1.00  0.00     0.010 A 
ATOM     37  C   UNL A   1      35.294  32.346  31.070  1.00  0.00     0.010 A 
ATOM     38  C   UNL A   1      36.623  32.694  30.787  1.00  0.00    -0.014 A 
BRANCH  38  39
ATOM     39  C   UNL A   1      37.744  32.035  31.508  1.00  0.00     0.031 A 
ATOM     40  C   UNL A   1      38.535  30.937  30.849  1.00  0.00     0.074 A 
ATOM     41  C   UNL A   1      38.030  32.412  32.770  1.00  0.00     0.049 A 
ATOM     42  N   UNL A   1      39.534  30.239  31.324  1.00  0.00    -0.248 NA
ATOM     43  C   UNL A   1      38.132  30.560  29.487  1.00  0.00     0.031 C 
ATOM     44  C   UNL A   1      37.302  33.430  33.531  1.00  0.00     0.029 A 
ATOM     45  N   UNL A   1      39.006  31.987  33.637  1.00  0.00    -0.354 N 
ATOM     46  C   UNL A   1      39.886  29.343  30.319  1.00  0.00     0.074 A 
ATOM     47  C   UNL A   1      38.944  29.542  29.237  1.00  0.00     0.031 C 
ATOM     48  C   UNL A   1      37.869  33.564  34.740  1.00  0.00     0.029 A 
ATOM     49  C   UNL A   1      38.977  32.622  34.856  1.00  0.00     0.049 A 
ATOM     50  H   UNL A   1      39.663  31.291  33.407  1.00  0.00     0.167 HD
ATOM     51  C   UNL A   1      40.914  28.459  30.289  1.00  0.00     0.034 A 
ATOM     52  C   UNL A   1      39.754  32.462  35.946  1.00  0.00     0.034 A 
ATOM     53  C   UNL A   1      41.846  28.271  31.375  1.00  0.00     0.049 A 
ATOM     54  C   UNL A   1      40.887  31.470  35.890  1.00  0.00     0.074 A 
ATOM     55  C   UNL A   1      42.935  27.418  31.443  1.00  0.00     0.029 A 
ATOM     56  N   UNL A   1      41.798  28.946  32.588  1.00  0.00    -0.354 N 
ATOM     57  N   UNL A   1      41.231  30.663  34.912  1.00  0.00    -0.248 NA
ATOM     58  C   UNL A   1      41.750  31.384  37.074  1.00  0.00     0.031 C 
ATOM     59  C   UNL A   1      43.510  27.539  32.713  1.00  0.00     0.029 A 
ATOM     60  C   UNL A   1      42.825  28.515  33.416  1.00  0.00     0.049 A 
ATOM     61  H   UNL A   1      41.132  29.630  32.827  1.00  0.00     0.167 HD
ATOM     62  C   UNL A   1      42.367  29.992  35.358  1.00  0.00     0.074 A 
ATOM     63  C   UNL A   1      42.662  30.509  36.678  1.00  0.00     0.031 C 
ATOM     64  C   UNL A   1      43.097  29.031  34.737  1.00  0.00     0.034 A 
BRANCH  51  65
ATOM     65  C   UNL A   1      41.072  27.624  29.040  1.00  0.00     0.023 A 
ATOM     66  C   UNL A   1      42.085  27.892  28.101  1.00  0.00     0.031 A 
ATOM     67  C   UNL A   1      40.192  26.561  28.770  1.00  0.00     0.131 A 
ATOM     68  C   UNL A   1      42.150  27.157  26.909  1.00  0.00     0.055 A 
ATOM     69  C   UNL A   1      40.311  25.781  27.617  1.00  0.00     0.041 A 
ATOM     70  F   UNL A   1      39.194  26.268  29.617  1.00  0.00    -0.206 F 
ATOM     71  C   UNL A   1      41.285  26.086  26.670  1.00  0.00     0.022 A 
BRANCH  68  72
ATOM     72  S   UNL A   1      43.297  27.705  25.615  1.00  0.00     0.124 S 
ATOM     73  O   UNL A   1      44.045  28.750  26.310  1.00  0.00    -0.237 OA
ATOM     74  O   UNL A   1      44.035  26.486  25.309  1.00  0.00    -0.237 OA
ATOM     75  O   UNL A   1      42.413  28.182  24.553  1.00  0.00    -0.744 OA
ENDBRANCH  68  72
ENDBRANCH  51  65
BRANCH  52  76
ATOM     76  C   UNL A   1      39.487  33.246  37.187  1.00  0.00     0.023 A 
ATOM     77  C   UNL A   1      40.169  34.444  37.451  1.00  0.00     0.031 A 
ATOM     78  C   UNL A   1      38.579  32.778  38.153  1.00  0.00     0.131 A 
ATOM     79  C   UNL A   1      39.976  35.104  38.674  1.00  0.00     0.055 A 
ATOM     80  C   UNL A   1      38.349  33.467  39.344  1.00  0.00     0.041 A 
ATOM     81  F   UNL A   1      37.894  31.642  37.947  1.00  0.00    -0.206 F 
ATOM     82  C   UNL A   1      39.063  34.630  39.618  1.00  0.00     0.022 A 
BRANCH  79  83
ATOM     83  S   UNL A   1      41.015  36.541  39.059  1.00  0.00     0.124 S 
ATOM     84  O   UNL A   1      41.245  36.367  40.489  1.00  0.00    -0.237 OA
ATOM     85  O   UNL A   1      42.166  36.321  38.190  1.00  0.00    -0.237 OA
ATOM     86  O   UNL A   1      40.169  37.677  38.697  1.00  0.00    -0.744 OA
ENDBRANCH  79  83
ENDBRANCH  52  76
BRANCH  64  87
ATOM     87  C   UNL A   1      44.305  28.512  35.478  1.00  0.00     0.023 A 
ATOM     88  C   UNL A   1      44.196  27.490  36.439  1.00  0.00     0.031 A 
ATOM     89  C   UNL A   1      45.575  29.071  35.246  1.00  0.00     0.131 A 
ATOM     90  C   UNL A   1      45.323  27.108  37.182  1.00  0.00     0.055 A 
ATOM     91  C   UNL A   1      46.704  28.641  35.945  1.00  0.00     0.041 A 
ATOM     92  F   UNL A   1      45.736  30.048  34.341  1.00  0.00    -0.206 F 
ATOM     93  C   UNL A   1      46.578  27.666  36.932  1.00  0.00     0.022 A 
BRANCH  90  94
ATOM     94  S   UNL A   1      45.101  25.948  38.558  1.00  0.00     0.124 S 
ATOM     95  O   UNL A   1      43.944  26.511  39.247  1.00  0.00    -0.237 OA
ATOM     96  O   UNL A   1      44.877  24.682  37.866  1.00  0.00    -0.237 OA
ATOM     97  O   UNL A   1      46.364  26.038  39.290  1.00  0.00    -0.744 OA
ENDBRANCH  90  94
ENDBRANCH  64  87
ENDBRANCH  38  39
ENDBRANCH  30  33
ENDBRANCH  28  29
ENDBRANCH  27  28
ENDBRANCH  26  27
ENDBRANCH   1  26
TORSDOF 19
ENDMDL
MODEL 3
REMARK VINA RESULT:     -10.9      3.143      8.389
REMARK SMILES C[C@@H](C(=O)NCCCCCCNC(=O)c1ccc(-c2c3nc(c(-c4cc(S(=O)(=O)[O-])ccc4F)c4ccc([nH]4)c(-c4cc(S(=O)(=O)[O-])ccc4F)c4nc(c(-c5cc(S(=O)(=O)[O-])ccc5F)c5ccc2[nH]5)C=C4)C=C3)cc1)c1ccccc1-c1ccn(C(F)F)c(=O)c1
REMARK SMILES IDX 8 1 7 2 6 3 5 4 3 5 4 6 2 8 1 9 78 10 79 11 83 12 80 13
REMARK SMILES IDX 82 14 81 15 84 16 85 17 93 18 86 19 91 20 87 21 92 22 88 23
REMARK SMILES IDX 89 24 90 25 9 26 10 27 11 28 12 29 13 30 14 32 15 33 16 34
REMARK SMILES IDX 77 35 17 36 76 37 18 38 19 39 20 40 70 41 21 42 75 43 69 44
REMARK SMILES IDX 71 45 22 46 74 47 68 48 67 49 23 51 55 52 35 53 54 54 36 55
REMARK SMILES IDX 39 56 53 57 72 58 37 59 38 60 52 62 73 63 40 64 24 65 25 66
REMARK SMILES IDX 33 67 26 68 32 69 34 70 31 71 27 72 28 73 29 74 30 75 56 76
REMARK SMILES IDX 57 77 65 78 58 79 64 80 66 81 63 82 59 83 60 84 61 85 62 86
REMARK SMILES IDX 41 87 42 88 50 89 43 90 49 91 51 92 48 93 44 94 45 95 46 96
REMARK SMILES IDX 47 97
REMARK H PARENT 5 7 12 31 71 50 39 61
REMARK Flexibility Score: inf
ROOT
ATOM      1  C   UNL A   1      36.613  21.834  24.257  1.00  0.00     0.002 C 
ENDROOT
BRANCH   1   2
ATOM      2  C   UNL A   1      37.104  22.990  25.133  1.00  0.00     0.021 C 
BRANCH   2   3
ATOM      3  C   UNL A   1      35.977  23.777  25.817  1.00  0.00     0.116 C 
BRANCH   3   4
ATOM      4  N   UNL A   1      35.308  22.946  26.803  1.00  0.00    -0.356 N 
ATOM      5  C   UNL A   1      33.976  22.812  27.092  1.00  0.00     0.227 C 
ATOM      6  O   UNL A   1      33.692  22.176  28.109  1.00  0.00    -0.274 OA
ATOM      7  H   UNL A   1      35.907  22.391  27.351  1.00  0.00     0.163 HD
BRANCH   5   8
ATOM      8  C   UNL A   1      32.907  23.383  26.129  1.00  0.00     0.106 C 
ATOM      9  C   UNL A   1      31.680  23.829  26.920  1.00  0.00     0.023 C 
BRANCH   8  10
ATOM     10  C   UNL A   1      32.672  22.467  24.900  1.00  0.00    -0.028 A 
ATOM     11  C   UNL A   1      32.693  21.077  25.175  1.00  0.00     0.005 A 
ATOM     12  C   UNL A   1      32.444  22.857  23.553  1.00  0.00    -0.014 A 
ATOM     13  C   UNL A   1      32.483  20.118  24.183  1.00  0.00     0.000 A 
ATOM     14  C   UNL A   1      32.254  21.872  22.561  1.00  0.00     0.009 A 
ATOM     15  C   UNL A   1      32.266  20.515  22.873  1.00  0.00     0.001 A 
BRANCH  12  16
ATOM     16  C   UNL A   1      32.369  24.254  23.080  1.00  0.00    -0.011 A 
ATOM     17  C   UNL A   1      33.528  24.997  22.622  1.00  0.00     0.027 A 
ATOM     18  C   UNL A   1      31.181  24.877  23.171  1.00  0.00     0.080 A 
ATOM     19  C   UNL A   1      33.483  26.335  22.576  1.00  0.00     0.095 A 
ATOM     20  C   UNL A   1      31.093  26.354  22.994  1.00  0.00     0.255 A 
ATOM     21  N   UNL A   1      32.306  27.011  22.839  1.00  0.00    -0.258 N 
ATOM     22  O   UNL A   1      29.993  26.891  23.064  1.00  0.00    -0.269 OA
BRANCH  21  23
ATOM     23  C   UNL A   1      32.293  28.446  22.957  1.00  0.00     0.451 C 
ATOM     24  F   UNL A   1      32.203  28.830  24.251  1.00  0.00    -0.185 F 
ATOM     25  F   UNL A   1      33.424  28.983  22.435  1.00  0.00    -0.185 F 
ENDBRANCH  21  23
ENDBRANCH  12  16
ENDBRANCH   8  10
ENDBRANCH   5   8
ENDBRANCH   3   4
ENDBRANCH   2   3
ENDBRANCH   1   2
BRANCH   1  26
ATOM     26  C   UNL A   1      36.671  20.457  24.925  1.00  0.00     0.002 C 
BRANCH  26  27
ATOM     27  C   UNL A   1      38.039  19.770  24.881  1.00  0.00     0.021 C 
BRANCH  27  28
ATOM     28  C   UNL A   1      38.985  20.144  26.021  1.00  0.00     0.116 C 
BRANCH  28  29
ATOM     29  N   UNL A   1      40.133  19.256  26.080  1.00  0.00    -0.352 N 
ATOM     30  C   UNL A   1      41.472  19.552  26.145  1.00  0.00     0.251 C 
ATOM     31  H   UNL A   1      39.918  18.296  26.072  1.00  0.00     0.163 HD
ATOM     32  O   UNL A   1      42.292  18.663  25.939  1.00  0.00    -0.269 OA
BRANCH  30  33
ATOM     33  C   UNL A   1      41.926  20.928  26.447  1.00  0.00     0.039 A 
ATOM     34  C   UNL A   1      42.061  21.835  25.392  1.00  0.00     0.014 A 
ATOM     35  C   UNL A   1      42.268  21.315  27.747  1.00  0.00     0.014 A 
ATOM     36  C   UNL A   1      42.492  23.138  25.647  1.00  0.00     0.010 A 
ATOM     37  C   UNL A   1      42.638  22.635  28.009  1.00  0.00     0.010 A 
ATOM     38  C   UNL A   1      42.760  23.558  26.960  1.00  0.00    -0.014 A 
BRANCH  38  39
ATOM     39  C   UNL A   1      43.175  24.960  27.236  1.00  0.00     0.031 A 
ATOM     40  C   UNL A   1      42.228  25.917  27.907  1.00  0.00     0.074 A 
ATOM     41  C   UNL A   1      44.400  25.373  26.855  1.00  0.00     0.049 A 
ATOM     42  N   UNL A   1      42.407  27.177  28.215  1.00  0.00    -0.248 NA
ATOM     43  C   UNL A   1      40.898  25.397  28.254  1.00  0.00     0.031 C 
ATOM     44  C   UNL A   1      45.386  24.549  26.152  1.00  0.00     0.029 A 
ATOM     45  N   UNL A   1      45.026  26.585  27.002  1.00  0.00    -0.354 N 
ATOM     46  C   UNL A   1      41.216  27.599  28.799  1.00  0.00     0.074 A 
ATOM     47  C   UNL A   1      40.300  26.479  28.734  1.00  0.00     0.031 C 
ATOM     48  C   UNL A   1      46.498  25.273  25.949  1.00  0.00     0.029 A 
ATOM     49  C   UNL A   1      46.296  26.619  26.475  1.00  0.00     0.049 A 
ATOM     50  H   UNL A   1      44.605  27.358  27.443  1.00  0.00     0.167 HD
ATOM     51  C   UNL A   1      40.923  28.798  29.361  1.00  0.00     0.034 A 
ATOM     52  C   UNL A   1      47.195  27.622  26.418  1.00  0.00     0.034 A 
ATOM     53  C   UNL A   1      41.845  29.907  29.418  1.00  0.00     0.049 A 
ATOM     54  C   UNL A   1      46.845  28.947  27.046  1.00  0.00     0.074 A 
ATOM     55  C   UNL A   1      41.660  31.159  29.982  1.00  0.00     0.029 A 
ATOM     56  N   UNL A   1      43.131  29.899  28.891  1.00  0.00    -0.354 N 
ATOM     57  N   UNL A   1      45.727  29.313  27.634  1.00  0.00    -0.248 NA
ATOM     58  C   UNL A   1      47.882  29.984  27.025  1.00  0.00     0.031 C 
ATOM     59  C   UNL A   1      42.810  31.922  29.747  1.00  0.00     0.029 A 
ATOM     60  C   UNL A   1      43.740  31.128  29.099  1.00  0.00     0.049 A 
ATOM     61  H   UNL A   1      43.548  29.133  28.435  1.00  0.00     0.167 HD
ATOM     62  C   UNL A   1      45.941  30.617  28.071  1.00  0.00     0.074 A 
ATOM     63  C   UNL A   1      47.301  30.960  27.705  1.00  0.00     0.031 C 
ATOM     64  C   UNL A   1      45.093  31.459  28.714  1.00  0.00     0.034 A 
BRANCH  51  65
ATOM     65  C   UNL A   1      39.541  28.968  29.948  1.00  0.00     0.023 A 
ATOM     66  C   UNL A   1      38.510  29.596  29.227  1.00  0.00     0.031 A 
ATOM     67  C   UNL A   1      39.252  28.517  31.249  1.00  0.00     0.131 A 
ATOM     68  C   UNL A   1      37.265  29.819  29.832  1.00  0.00     0.055 A 
ATOM     69  C   UNL A   1      37.986  28.672  31.817  1.00  0.00     0.041 A 
ATOM     70  F   UNL A   1      40.200  27.927  31.994  1.00  0.00    -0.206 F 
ATOM     71  C   UNL A   1      36.987  29.339  31.114  1.00  0.00     0.022 A 
BRANCH  68  72
ATOM     72  S   UNL A   1      36.057  30.861  28.970  1.00  0.00     0.124 S 
ATOM     73  O   UNL A   1      35.298  29.867  28.214  1.00  0.00    -0.237 OA
ATOM     74  O   UNL A   1      35.350  31.504  30.071  1.00  0.00    -0.237 OA
ATOM     75  O   UNL A   1      36.887  31.750  28.159  1.00  0.00    -0.744 OA
ENDBRANCH  68  72
ENDBRANCH  51  65
BRANCH  52  76
ATOM     76  C   UNL A   1      48.507  27.424  25.737  1.00  0.00     0.023 A 
ATOM     77  C   UNL A   1      48.638  27.589  24.349  1.00  0.00     0.031 A 
ATOM     78  C   UNL A   1      49.640  27.016  26.462  1.00  0.00     0.131 A 
ATOM     79  C   UNL A   1      49.857  27.292  23.722  1.00  0.00     0.055 A 
ATOM     80  C   UNL A   1      50.867  26.776  25.841  1.00  0.00     0.041 A 
ATOM     81  F   UNL A   1      49.572  26.852  27.793  1.00  0.00    -0.206 F 
ATOM     82  C   UNL A   1      50.976  26.898  24.460  1.00  0.00     0.022 A 
BRANCH  79  83
ATOM     83  S   UNL A   1      49.934  27.331  21.909  1.00  0.00     0.124 S 
ATOM     84  O   UNL A   1      51.324  26.965  21.662  1.00  0.00    -0.237 OA
ATOM     85  O   UNL A   1      48.932  26.336  21.544  1.00  0.00    -0.237 OA
ATOM     86  O   UNL A   1      49.586  28.713  21.585  1.00  0.00    -0.744 OA
ENDBRANCH  79  83
ENDBRANCH  52  76
BRANCH  64  87
ATOM     87  C   UNL A   1      45.635  32.817  29.085  1.00  0.00     0.023 A 
ATOM     88  C   UNL A   1      45.502  33.923  28.227  1.00  0.00     0.031 A 
ATOM     89  C   UNL A   1      46.326  32.998  30.297  1.00  0.00     0.131 A 
ATOM     90  C   UNL A   1      46.111  35.143  28.559  1.00  0.00     0.055 A 
ATOM     91  C   UNL A   1      46.876  34.232  30.650  1.00  0.00     0.041 A 
ATOM     92  F   UNL A   1      46.483  31.977  31.153  1.00  0.00    -0.206 F 
ATOM     93  C   UNL A   1      46.784  35.308  29.771  1.00  0.00     0.022 A 
BRANCH  90  94
ATOM     94  S   UNL A   1      46.104  36.478  27.332  1.00  0.00     0.124 S 
ATOM     95  O   UNL A   1      46.901  35.903  26.252  1.00  0.00    -0.237 OA
ATOM     96  O   UNL A   1      44.681  36.641  27.056  1.00  0.00    -0.237 OA
ATOM     97  O   UNL A   1      46.731  37.595  28.037  1.00  0.00    -0.744 OA
ENDBRANCH  90  94
ENDBRANCH  64  87
ENDBRANCH  38  39
ENDBRANCH  30  33
ENDBRANCH  28  29
ENDBRANCH  27  28
ENDBRANCH  26  27
ENDBRANCH   1  26
TORSDOF 19
ENDMDL
