MODEL 1
REMARK VINA RESULT:     -13.1      0.000      0.000
REMARK SMILES Cc1cc(F)cc(-n2nc(C(=O)NCCCCCCNC(=O)c3ccc(-c4c5nc(c(-c6cc(S(=O)(=O)[O-])ccc6F)c6ccc([nH]6)c(-c6cc(S(=O)(=O)[O-])ccc6F)c6nc(c(-c7cc(S(=O)(=O)[O-])ccc7F)c7ccc4[nH]7)C=C6)C=C5)cc3)c3c2CC[C@H](C)C3)c1
REMARK SMILES IDX 17 1 16 2 15 3 14 4 13 5 11 6 12 7 10 9 8 10 9 11 87 12
REMARK SMILES IDX 86 13 88 14 92 15 89 16 90 17 91 18 7 19 1 20 2 21 3 22
REMARK SMILES IDX 93 23 4 24 5 25 6 26 18 27 19 28 20 29 21 30 22 32 23 33
REMARK SMILES IDX 24 34 85 35 25 36 84 37 26 38 27 39 28 40 78 41 29 42 83 43
REMARK SMILES IDX 77 44 79 45 30 46 82 47 76 48 75 49 31 51 63 52 43 53 62 54
REMARK SMILES IDX 44 55 47 56 61 57 80 58 45 59 46 60 60 62 81 63 48 64 32 65
REMARK SMILES IDX 33 66 41 67 34 68 40 69 42 70 39 71 35 72 36 73 37 74 38 75
REMARK SMILES IDX 64 76 65 77 73 78 66 79 72 80 74 81 71 82 67 83 68 84 69 85
REMARK SMILES IDX 70 86 49 87 50 88 58 89 51 90 57 91 59 92 56 93 52 94 53 95
REMARK SMILES IDX 54 96 55 97
REMARK H PARENT 13 8 20 31 79 50 47 61
REMARK Flexibility Score: inf
ROOT
ATOM      1  C   UNL A   1      33.625  28.363  25.422  1.00  0.00     0.002 C 
ENDROOT
BRANCH   1   2
ATOM      2  C   UNL A   1      32.281  28.872  24.876  1.00  0.00     0.002 C 
BRANCH   2   3
ATOM      3  C   UNL A   1      32.154  28.862  23.351  1.00  0.00     0.021 C 
BRANCH   3   4
ATOM      4  C   UNL A   1      33.459  28.563  22.602  1.00  0.00     0.116 C 
BRANCH   4   5
ATOM      5  N   UNL A   1      33.330  27.445  21.692  1.00  0.00    -0.351 N 
ATOM      6  C   UNL A   1      33.267  26.077  21.798  1.00  0.00     0.272 C 
ATOM      7  O   UNL A   1      32.964  25.525  20.730  1.00  0.00    -0.267 OA
ATOM      8  H   UNL A   1      33.272  27.741  20.755  1.00  0.00     0.163 HD
BRANCH   6   9
ATOM      9  C   UNL A   1      33.488  25.276  23.036  1.00  0.00     0.154 A 
ATOM     10  N   UNL A   1      34.703  24.045  24.352  1.00  0.00    -0.237 N 
ATOM     11  N   UNL A   1      34.730  24.770  23.219  1.00  0.00    -0.162 NA
ATOM     12  C   UNL A   1      33.474  24.108  24.959  1.00  0.00     0.048 A 
ATOM     13  C   UNL A   1      32.698  24.949  24.181  1.00  0.00     0.007 A 
ATOM     14  C   UNL A   1      33.112  23.599  26.315  1.00  0.00     0.057 C 
ATOM     15  C   UNL A   1      31.355  25.381  24.634  1.00  0.00     0.043 C 
ATOM     16  C   UNL A   1      31.594  23.714  26.537  1.00  0.00     0.010 C 
ATOM     17  C   UNL A   1      31.063  25.097  26.120  1.00  0.00    -0.009 C 
ATOM     18  C   UNL A   1      29.556  25.211  26.361  1.00  0.00     0.008 C 
BRANCH  10  19
ATOM     19  C   UNL A   1      35.874  23.384  24.795  1.00  0.00     0.068 A 
ATOM     20  C   UNL A   1      38.843  24.099  27.082  1.00  0.00     0.044 C 
ATOM     21  C   UNL A   1      37.913  23.416  26.123  1.00  0.00    -0.046 A 
ATOM     22  C   UNL A   1      38.154  22.088  25.749  1.00  0.00     0.042 A 
ATOM     23  C   UNL A   1      36.787  24.076  25.608  1.00  0.00     0.032 A 
ATOM     24  C   UNL A   1      37.267  21.433  24.900  1.00  0.00     0.125 A 
ATOM     25  F   UNL A   1      37.526  20.172  24.526  1.00  0.00    -0.207 F 
ATOM     26  C   UNL A   1      36.119  22.058  24.433  1.00  0.00     0.067 A 
ENDBRANCH  10  19
ENDBRANCH   6   9
ENDBRANCH   4   5
ENDBRANCH   3   4
ENDBRANCH   2   3
ENDBRANCH   1   2
BRANCH   1  27
ATOM     27  C   UNL A   1      33.907  28.615  26.911  1.00  0.00     0.021 C 
BRANCH  27  28
ATOM     28  C   UNL A   1      35.331  29.066  27.211  1.00  0.00     0.116 C 
BRANCH  28  29
ATOM     29  N   UNL A   1      35.460  29.665  28.536  1.00  0.00    -0.352 N 
ATOM     30  C   UNL A   1      36.471  29.504  29.466  1.00  0.00     0.251 C 
ATOM     31  H   UNL A   1      34.728  30.266  28.803  1.00  0.00     0.163 HD
ATOM     32  O   UNL A   1      36.262  29.756  30.641  1.00  0.00    -0.269 OA
BRANCH  30  33
ATOM     33  C   UNL A   1      37.792  29.007  29.018  1.00  0.00     0.039 A 
ATOM     34  C   UNL A   1      38.443  29.587  27.929  1.00  0.00     0.014 A 
ATOM     35  C   UNL A   1      38.384  27.951  29.707  1.00  0.00     0.014 A 
ATOM     36  C   UNL A   1      39.730  29.155  27.608  1.00  0.00     0.010 A 
ATOM     37  C   UNL A   1      39.703  27.625  29.482  1.00  0.00     0.010 A 
ATOM     38  C   UNL A   1      40.376  28.196  28.412  1.00  0.00    -0.014 A 
BRANCH  38  39
ATOM     39  C   UNL A   1      41.798  27.898  28.221  1.00  0.00     0.031 A 
ATOM     40  C   UNL A   1      42.046  26.657  27.442  1.00  0.00     0.074 A 
ATOM     41  C   UNL A   1      42.827  28.702  28.576  1.00  0.00     0.049 A 
ATOM     42  N   UNL A   1      42.404  25.517  27.924  1.00  0.00    -0.248 NA
ATOM     43  C   UNL A   1      41.678  26.609  26.019  1.00  0.00     0.031 C 
ATOM     44  C   UNL A   1      42.775  30.053  29.144  1.00  0.00     0.029 A 
ATOM     45  N   UNL A   1      44.169  28.492  28.440  1.00  0.00    -0.354 N 
ATOM     46  C   UNL A   1      42.555  24.664  26.838  1.00  0.00     0.074 A 
ATOM     47  C   UNL A   1      41.911  25.324  25.733  1.00  0.00     0.031 C 
ATOM     48  C   UNL A   1      44.005  30.616  29.111  1.00  0.00     0.029 A 
ATOM     49  C   UNL A   1      44.965  29.611  28.688  1.00  0.00     0.049 A 
ATOM     50  H   UNL A   1      44.547  27.618  28.186  1.00  0.00     0.167 HD
ATOM     51  C   UNL A   1      43.400  23.600  26.912  1.00  0.00     0.034 A 
ATOM     52  C   UNL A   1      46.321  29.707  28.605  1.00  0.00     0.034 A 
ATOM     53  C   UNL A   1      43.804  23.363  28.281  1.00  0.00     0.049 A 
ATOM     54  C   UNL A   1      46.849  28.340  28.800  1.00  0.00     0.074 A 
ATOM     55  C   UNL A   1      43.150  23.020  29.448  1.00  0.00     0.029 A 
ATOM     56  N   UNL A   1      45.021  23.879  28.668  1.00  0.00    -0.354 N 
ATOM     57  N   UNL A   1      46.736  27.690  29.925  1.00  0.00    -0.248 NA
ATOM     58  C   UNL A   1      47.086  27.510  27.630  1.00  0.00     0.031 C 
ATOM     59  C   UNL A   1      43.804  23.769  30.472  1.00  0.00     0.029 A 
ATOM     60  C   UNL A   1      44.872  24.465  29.900  1.00  0.00     0.049 A 
ATOM     61  H   UNL A   1      45.856  23.837  28.148  1.00  0.00     0.167 HD
ATOM     62  C   UNL A   1      46.419  26.394  29.555  1.00  0.00     0.074 A 
ATOM     63  C   UNL A   1      46.778  26.313  28.141  1.00  0.00     0.031 C 
ATOM     64  C   UNL A   1      45.645  25.607  30.359  1.00  0.00     0.034 A 
BRANCH  51  65
ATOM     65  C   UNL A   1      44.176  23.010  25.756  1.00  0.00     0.023 A 
ATOM     66  C   UNL A   1      44.047  21.623  25.540  1.00  0.00     0.031 A 
ATOM     67  C   UNL A   1      45.235  23.645  25.072  1.00  0.00     0.131 A 
ATOM     68  C   UNL A   1      44.994  20.920  24.776  1.00  0.00     0.055 A 
ATOM     69  C   UNL A   1      46.136  22.951  24.260  1.00  0.00     0.041 A 
ATOM     70  F   UNL A   1      45.518  24.944  25.225  1.00  0.00    -0.206 F 
ATOM     71  C   UNL A   1      46.039  21.575  24.134  1.00  0.00     0.022 A 
BRANCH  68  72
ATOM     72  S   UNL A   1      44.933  19.109  24.786  1.00  0.00     0.124 S 
ATOM     73  O   UNL A   1      43.712  18.860  25.544  1.00  0.00    -0.237 OA
ATOM     74  O   UNL A   1      44.883  18.802  23.361  1.00  0.00    -0.237 OA
ATOM     75  O   UNL A   1      46.174  18.734  25.460  1.00  0.00    -0.744 OA
ENDBRANCH  68  72
ENDBRANCH  51  65
BRANCH  52  76
ATOM     76  C   UNL A   1      47.147  30.836  28.092  1.00  0.00     0.023 A 
ATOM     77  C   UNL A   1      46.649  31.826  27.213  1.00  0.00     0.031 A 
ATOM     78  C   UNL A   1      48.390  31.102  28.706  1.00  0.00     0.131 A 
ATOM     79  C   UNL A   1      47.378  33.022  26.996  1.00  0.00     0.055 A 
ATOM     80  C   UNL A   1      49.101  32.287  28.493  1.00  0.00     0.041 A 
ATOM     81  F   UNL A   1      48.910  30.257  29.611  1.00  0.00    -0.206 F 
ATOM     82  C   UNL A   1      48.592  33.258  27.646  1.00  0.00     0.022 A 
BRANCH  79  83
ATOM     83  S   UNL A   1      46.712  34.347  25.929  1.00  0.00     0.124 S 
ATOM     84  O   UNL A   1      46.443  35.414  26.885  1.00  0.00    -0.237 OA
ATOM     85  O   UNL A   1      47.805  34.573  24.990  1.00  0.00    -0.237 OA
ATOM     86  O   UNL A   1      45.517  33.741  25.338  1.00  0.00    -0.744 OA
ENDBRANCH  79  83
ENDBRANCH  52  76
BRANCH  64  87
ATOM     87  C   UNL A   1      45.440  26.052  31.797  1.00  0.00     0.023 A 
ATOM     88  C   UNL A   1      44.295  26.718  32.295  1.00  0.00     0.031 A 
ATOM     89  C   UNL A   1      46.439  25.702  32.722  1.00  0.00     0.131 A 
ATOM     90  C   UNL A   1      44.196  27.023  33.668  1.00  0.00     0.055 A 
ATOM     91  C   UNL A   1      46.326  25.979  34.082  1.00  0.00     0.041 A 
ATOM     92  F   UNL A   1      47.543  25.051  32.316  1.00  0.00    -0.206 F 
ATOM     93  C   UNL A   1      45.206  26.649  34.561  1.00  0.00     0.022 A 
BRANCH  90  94
ATOM     94  S   UNL A   1      42.762  27.941  34.321  1.00  0.00     0.124 S 
ATOM     95  O   UNL A   1      42.175  28.550  33.132  1.00  0.00    -0.237 OA
ATOM     96  O   UNL A   1      41.972  26.889  34.956  1.00  0.00    -0.237 OA
ATOM     97  O   UNL A   1      43.365  28.893  35.256  1.00  0.00    -0.744 OA
ENDBRANCH  90  94
ENDBRANCH  64  87
ENDBRANCH  38  39
ENDBRANCH  30  33
ENDBRANCH  28  29
ENDBRANCH  27  28
ENDBRANCH   1  27
TORSDOF 17
ENDMDL
MODEL 2
REMARK VINA RESULT:     -12.6      1.844      2.085
REMARK SMILES Cc1cc(F)cc(-n2nc(C(=O)NCCCCCCNC(=O)c3ccc(-c4c5nc(c(-c6cc(S(=O)(=O)[O-])ccc6F)c6ccc([nH]6)c(-c6cc(S(=O)(=O)[O-])ccc6F)c6nc(c(-c7cc(S(=O)(=O)[O-])ccc7F)c7ccc4[nH]7)C=C6)C=C5)cc3)c3c2CC[C@H](C)C3)c1
REMARK SMILES IDX 17 1 16 2 15 3 14 4 13 5 11 6 12 7 10 9 8 10 9 11 87 12
REMARK SMILES IDX 86 13 88 14 92 15 89 16 90 17 91 18 7 19 1 20 2 21 3 22
REMARK SMILES IDX 93 23 4 24 5 25 6 26 18 27 19 28 20 29 21 30 22 32 23 33
REMARK SMILES IDX 24 34 85 35 25 36 84 37 26 38 27 39 28 40 78 41 29 42 83 43
REMARK SMILES IDX 77 44 79 45 30 46 82 47 76 48 75 49 31 51 63 52 43 53 62 54
REMARK SMILES IDX 44 55 47 56 61 57 80 58 45 59 46 60 60 62 81 63 48 64 32 65
REMARK SMILES IDX 33 66 41 67 34 68 40 69 42 70 39 71 35 72 36 73 37 74 38 75
REMARK SMILES IDX 64 76 65 77 73 78 66 79 72 80 74 81 71 82 67 83 68 84 69 85
REMARK SMILES IDX 70 86 49 87 50 88 58 89 51 90 57 91 59 92 56 93 52 94 53 95
REMARK SMILES IDX 54 96 55 97
REMARK H PARENT 13 8 20 31 79 50 47 61
REMARK Flexibility Score: inf
ROOT
ATOM      1  C   UNL A   1      33.351  28.614  25.780  1.00  0.00     0.002 C 
ENDROOT
BRANCH   1   2
ATOM      2  C   UNL A   1      34.043  28.246  24.458  1.00  0.00     0.002 C 
BRANCH   2   3
ATOM      3  C   UNL A   1      33.481  28.941  23.216  1.00  0.00     0.021 C 
BRANCH   3   4
ATOM      4  C   UNL A   1      32.293  28.221  22.563  1.00  0.00     0.116 C 
BRANCH   4   5
ATOM      5  N   UNL A   1      32.712  27.185  21.644  1.00  0.00    -0.351 N 
ATOM      6  C   UNL A   1      33.116  25.875  21.738  1.00  0.00     0.272 C 
ATOM      7  O   UNL A   1      33.202  25.318  20.634  1.00  0.00    -0.267 OA
ATOM      8  H   UNL A   1      32.707  27.499  20.711  1.00  0.00     0.163 HD
BRANCH   6   9
ATOM      9  C   UNL A   1      33.399  25.126  22.996  1.00  0.00     0.154 A 
ATOM     10  N   UNL A   1      34.683  23.958  24.304  1.00  0.00    -0.237 N 
ATOM     11  N   UNL A   1      34.653  24.637  23.143  1.00  0.00    -0.162 NA
ATOM     12  C   UNL A   1      33.481  24.037  24.963  1.00  0.00     0.048 A 
ATOM     13  C   UNL A   1      32.664  24.840  24.187  1.00  0.00     0.007 A 
ATOM     14  C   UNL A   1      33.185  23.580  26.354  1.00  0.00     0.057 C 
ATOM     15  C   UNL A   1      31.338  25.280  24.682  1.00  0.00     0.043 C 
ATOM     16  C   UNL A   1      31.677  23.693  26.638  1.00  0.00     0.010 C 
ATOM     17  C   UNL A   1      31.116  25.054  26.190  1.00  0.00    -0.009 C 
ATOM     18  C   UNL A   1      29.620  25.167  26.494  1.00  0.00     0.008 C 
BRANCH  10  19
ATOM     19  C   UNL A   1      35.877  23.323  24.721  1.00  0.00     0.068 A 
ATOM     20  C   UNL A   1      38.815  24.050  27.045  1.00  0.00     0.044 C 
ATOM     21  C   UNL A   1      37.913  23.375  26.054  1.00  0.00    -0.046 A 
ATOM     22  C   UNL A   1      38.205  22.076  25.621  1.00  0.00     0.042 A 
ATOM     23  C   UNL A   1      36.763  24.013  25.566  1.00  0.00     0.032 A 
ATOM     24  C   UNL A   1      37.346  21.425  24.742  1.00  0.00     0.125 A 
ATOM     25  F   UNL A   1      37.653  20.193  24.313  1.00  0.00    -0.207 F 
ATOM     26  C   UNL A   1      36.175  22.026  24.300  1.00  0.00     0.067 A 
ENDBRANCH  10  19
ENDBRANCH   6   9
ENDBRANCH   4   5
ENDBRANCH   3   4
ENDBRANCH   2   3
ENDBRANCH   1   2
BRANCH   1  27
ATOM     27  C   UNL A   1      34.043  29.674  26.652  1.00  0.00     0.021 C 
BRANCH  27  28
ATOM     28  C   UNL A   1      35.284  29.173  27.380  1.00  0.00     0.116 C 
BRANCH  28  29
ATOM     29  N   UNL A   1      35.405  29.727  28.724  1.00  0.00    -0.352 N 
ATOM     30  C   UNL A   1      36.398  29.516  29.663  1.00  0.00     0.251 C 
ATOM     31  H   UNL A   1      34.682  30.335  29.000  1.00  0.00     0.163 HD
ATOM     32  O   UNL A   1      36.177  29.735  30.843  1.00  0.00    -0.269 OA
BRANCH  30  33
ATOM     33  C   UNL A   1      37.715  29.005  29.220  1.00  0.00     0.039 A 
ATOM     34  C   UNL A   1      38.406  29.619  28.174  1.00  0.00     0.014 A 
ATOM     35  C   UNL A   1      38.264  27.901  29.868  1.00  0.00     0.014 A 
ATOM     36  C   UNL A   1      39.688  29.168  27.859  1.00  0.00     0.010 A 
ATOM     37  C   UNL A   1      39.579  27.550  29.655  1.00  0.00     0.010 A 
ATOM     38  C   UNL A   1      40.291  28.153  28.628  1.00  0.00    -0.014 A 
BRANCH  38  39
ATOM     39  C   UNL A   1      41.707  27.827  28.453  1.00  0.00     0.031 A 
ATOM     40  C   UNL A   1      41.942  26.648  27.579  1.00  0.00     0.074 A 
ATOM     41  C   UNL A   1      42.749  28.564  28.904  1.00  0.00     0.049 A 
ATOM     42  N   UNL A   1      42.250  25.460  27.971  1.00  0.00    -0.248 NA
ATOM     43  C   UNL A   1      41.617  26.732  26.147  1.00  0.00     0.031 C 
ATOM     44  C   UNL A   1      42.720  29.863  29.582  1.00  0.00     0.029 A 
ATOM     45  N   UNL A   1      44.088  28.323  28.788  1.00  0.00    -0.354 N 
ATOM     46  C   UNL A   1      42.409  24.698  26.822  1.00  0.00     0.074 A 
ATOM     47  C   UNL A   1      41.820  25.469  25.759  1.00  0.00     0.031 C 
ATOM     48  C   UNL A   1      43.967  30.387  29.632  1.00  0.00     0.029 A 
ATOM     49  C   UNL A   1      44.909  29.390  29.153  1.00  0.00     0.049 A 
ATOM     50  H   UNL A   1      44.446  27.461  28.471  1.00  0.00     0.167 HD
ATOM     51  C   UNL A   1      43.219  23.604  26.829  1.00  0.00     0.034 A 
ATOM     52  C   UNL A   1      46.269  29.449  29.116  1.00  0.00     0.034 A 
ATOM     53  C   UNL A   1      43.573  23.240  28.184  1.00  0.00     0.049 A 
ATOM     54  C   UNL A   1      46.750  28.054  29.208  1.00  0.00     0.074 A 
ATOM     55  C   UNL A   1      42.874  22.822  29.299  1.00  0.00     0.029 A 
ATOM     56  N   UNL A   1      44.793  23.682  28.647  1.00  0.00    -0.354 N 
ATOM     57  N   UNL A   1      46.582  27.315  30.271  1.00  0.00    -0.248 NA
ATOM     58  C   UNL A   1      46.998  27.317  27.980  1.00  0.00     0.031 C 
ATOM     59  C   UNL A   1      43.518  23.460  30.400  1.00  0.00     0.029 A 
ATOM     60  C   UNL A   1      44.624  24.166  29.920  1.00  0.00     0.049 A 
ATOM     61  H   UNL A   1      45.641  23.656  28.149  1.00  0.00     0.167 HD
ATOM     62  C   UNL A   1      46.238  26.066  29.783  1.00  0.00     0.074 A 
ATOM     63  C   UNL A   1      46.638  26.092  28.378  1.00  0.00     0.031 C 
ATOM     64  C   UNL A   1      45.416  25.240  30.496  1.00  0.00     0.034 A 
BRANCH  51  65
ATOM     65  C   UNL A   1      44.011  23.088  25.649  1.00  0.00     0.023 A 
ATOM     66  C   UNL A   1      43.921  21.709  25.370  1.00  0.00     0.031 A 
ATOM     67  C   UNL A   1      45.053  23.782  24.997  1.00  0.00     0.131 A 
ATOM     68  C   UNL A   1      44.888  21.068  24.577  1.00  0.00     0.055 A 
ATOM     69  C   UNL A   1      45.974  23.150  24.156  1.00  0.00     0.041 A 
ATOM     70  F   UNL A   1      45.301  25.080  25.209  1.00  0.00    -0.206 F 
ATOM     71  C   UNL A   1      45.915  21.780  23.967  1.00  0.00     0.022 A 
BRANCH  68  72
ATOM     72  S   UNL A   1      44.877  19.258  24.506  1.00  0.00     0.124 S 
ATOM     73  O   UNL A   1      43.695  18.938  25.300  1.00  0.00    -0.237 OA
ATOM     74  O   UNL A   1      44.774  19.014  23.071  1.00  0.00    -0.237 OA
ATOM     75  O   UNL A   1      46.155  18.888  25.110  1.00  0.00    -0.744 OA
ENDBRANCH  68  72
ENDBRANCH  51  65
BRANCH  52  76
ATOM     76  C   UNL A   1      47.144  30.589  28.724  1.00  0.00     0.023 A 
ATOM     77  C   UNL A   1      48.106  31.164  29.587  1.00  0.00     0.031 A 
ATOM     78  C   UNL A   1      47.227  30.943  27.359  1.00  0.00     0.131 A 
ATOM     79  C   UNL A   1      49.099  32.034  29.073  1.00  0.00     0.055 A 
ATOM     80  C   UNL A   1      48.214  31.796  26.857  1.00  0.00     0.041 A 
ATOM     81  F   UNL A   1      46.405  30.392  26.451  1.00  0.00    -0.206 F 
ATOM     82  C   UNL A   1      49.162  32.337  27.710  1.00  0.00     0.022 A 
BRANCH  79  83
ATOM     83  S   UNL A   1      50.398  32.722  30.159  1.00  0.00     0.124 S 
ATOM     84  O   UNL A   1      51.043  31.520  30.674  1.00  0.00    -0.237 OA
ATOM     85  O   UNL A   1      51.179  33.536  29.237  1.00  0.00    -0.237 OA
ATOM     86  O   UNL A   1      49.642  33.484  31.154  1.00  0.00    -0.744 OA
ENDBRANCH  79  83
ENDBRANCH  52  76
BRANCH  64  87
ATOM     87  C   UNL A   1      45.181  25.569  31.960  1.00  0.00     0.023 A 
ATOM     88  C   UNL A   1      46.008  25.165  33.035  1.00  0.00     0.031 A 
ATOM     89  C   UNL A   1      44.093  26.407  32.259  1.00  0.00     0.131 A 
ATOM     90  C   UNL A   1      45.717  25.588  34.348  1.00  0.00     0.055 A 
ATOM     91  C   UNL A   1      43.824  26.846  33.554  1.00  0.00     0.041 A 
ATOM     92  F   UNL A   1      43.280  26.840  31.281  1.00  0.00    -0.206 F 
ATOM     93  C   UNL A   1      44.632  26.432  34.606  1.00  0.00     0.022 A 
BRANCH  90  94
ATOM     94  S   UNL A   1      46.729  25.025  35.756  1.00  0.00     0.124 S 
ATOM     95  O   UNL A   1      46.087  23.782  36.166  1.00  0.00    -0.237 OA
ATOM     96  O   UNL A   1      48.057  24.892  35.162  1.00  0.00    -0.237 OA
ATOM     97  O   UNL A   1      46.607  26.119  36.723  1.00  0.00    -0.744 OA
ENDBRANCH  90  94
ENDBRANCH  64  87
ENDBRANCH  38  39
ENDBRANCH  30  33
ENDBRANCH  28  29
ENDBRANCH  27  28
ENDBRANCH   1  27
TORSDOF 17
ENDMDL
MODEL 3
REMARK VINA RESULT:     -12.4      4.617     10.283
REMARK SMILES Cc1cc(F)cc(-n2nc(C(=O)NCCCCCCNC(=O)c3ccc(-c4c5nc(c(-c6cc(S(=O)(=O)[O-])ccc6F)c6ccc([nH]6)c(-c6cc(S(=O)(=O)[O-])ccc6F)c6nc(c(-c7cc(S(=O)(=O)[O-])ccc7F)c7ccc4[nH]7)C=C6)C=C5)cc3)c3c2CC[C@H](C)C3)c1
REMARK SMILES IDX 17 1 16 2 15 3 14 4 13 5 11 6 12 7 10 9 8 10 9 11 87 12
REMARK SMILES IDX 86 13 88 14 92 15 89 16 90 17 91 18 7 19 1 20 2 21 3 22
REMARK SMILES IDX 93 23 4 24 5 25 6 26 18 27 19 28 20 29 21 30 22 32 23 33
REMARK SMILES IDX 24 34 85 35 25 36 84 37 26 38 27 39 28 40 78 41 29 42 83 43
REMARK SMILES IDX 77 44 79 45 30 46 82 47 76 48 75 49 31 51 63 52 43 53 62 54
REMARK SMILES IDX 44 55 47 56 61 57 80 58 45 59 46 60 60 62 81 63 48 64 32 65
REMARK SMILES IDX 33 66 41 67 34 68 40 69 42 70 39 71 35 72 36 73 37 74 38 75
REMARK SMILES IDX 64 76 65 77 73 78 66 79 72 80 74 81 71 82 67 83 68 84 69 85
REMARK SMILES IDX 70 86 49 87 50 88 58 89 51 90 57 91 59 92 56 93 52 94 53 95
REMARK SMILES IDX 54 96 55 97
REMARK H PARENT 13 8 20 31 79 50 47 61
REMARK Flexibility Score: inf
ROOT
ATOM      1  C   UNL A   1      36.867  23.479  24.936  1.00  0.00     0.002 C 
ENDROOT
BRANCH   1   2
ATOM      2  C   UNL A   1      35.826  22.413  24.555  1.00  0.00     0.002 C 
BRANCH   2   3
ATOM      3  C   UNL A   1      34.389  22.926  24.429  1.00  0.00     0.021 C 
BRANCH   3   4
ATOM      4  C   UNL A   1      34.142  24.300  25.065  1.00  0.00     0.116 C 
BRANCH   4   5
ATOM      5  N   UNL A   1      32.981  24.307  25.929  1.00  0.00    -0.351 N 
ATOM      6  C   UNL A   1      32.068  25.238  26.361  1.00  0.00     0.272 C 
ATOM      7  O   UNL A   1      31.114  24.729  26.968  1.00  0.00    -0.267 OA
ATOM      8  H   UNL A   1      32.799  23.416  26.305  1.00  0.00     0.163 HD
BRANCH   6   9
ATOM      9  C   UNL A   1      32.130  26.710  26.130  1.00  0.00     0.154 A 
ATOM     10  N   UNL A   1      32.989  28.681  26.442  1.00  0.00    -0.237 N 
ATOM     11  N   UNL A   1      33.144  27.376  26.729  1.00  0.00    -0.162 NA
ATOM     12  C   UNL A   1      31.917  28.888  25.610  1.00  0.00     0.048 A 
ATOM     13  C   UNL A   1      31.392  27.638  25.333  1.00  0.00     0.007 A 
ATOM     14  C   UNL A   1      31.541  30.160  24.925  1.00  0.00     0.057 C 
ATOM     15  C   UNL A   1      30.321  27.469  24.323  1.00  0.00     0.043 C 
ATOM     16  C   UNL A   1      30.177  30.004  24.230  1.00  0.00     0.010 C 
ATOM     17  C   UNL A   1      30.099  28.698  23.421  1.00  0.00    -0.009 C 
ATOM     18  C   UNL A   1      28.747  28.559  22.716  1.00  0.00     0.008 C 
BRANCH  10  19
ATOM     19  C   UNL A   1      33.910  29.631  26.947  1.00  0.00     0.068 A 
ATOM     20  C   UNL A   1      33.848  33.185  28.333  1.00  0.00     0.044 C 
ATOM     21  C   UNL A   1      34.334  31.847  27.861  1.00  0.00    -0.046 A 
ATOM     22  C   UNL A   1      35.682  31.503  28.014  1.00  0.00     0.042 A 
ATOM     23  C   UNL A   1      33.455  30.916  27.285  1.00  0.00     0.032 A 
ATOM     24  C   UNL A   1      36.129  30.244  27.625  1.00  0.00     0.125 A 
ATOM     25  F   UNL A   1      37.428  29.940  27.751  1.00  0.00    -0.207 F 
ATOM     26  C   UNL A   1      35.255  29.296  27.110  1.00  0.00     0.067 A 
ENDBRANCH  10  19
ENDBRANCH   6   9
ENDBRANCH   4   5
ENDBRANCH   3   4
ENDBRANCH   2   3
ENDBRANCH   1   2
BRANCH   1  27
ATOM     27  C   UNL A   1      37.825  23.128  26.085  1.00  0.00     0.021 C 
BRANCH  27  28
ATOM     28  C   UNL A   1      38.516  24.332  26.713  1.00  0.00     0.116 C 
BRANCH  28  29
ATOM     29  N   UNL A   1      39.773  24.664  26.050  1.00  0.00    -0.352 N 
ATOM     30  C   UNL A   1      40.496  25.842  26.102  1.00  0.00     0.251 C 
ATOM     31  H   UNL A   1      40.158  23.953  25.489  1.00  0.00     0.163 HD
ATOM     32  O   UNL A   1      41.301  26.101  25.221  1.00  0.00    -0.269 OA
BRANCH  30  33
ATOM     33  C   UNL A   1      40.267  26.782  27.222  1.00  0.00     0.039 A 
ATOM     34  C   UNL A   1      39.941  26.312  28.496  1.00  0.00     0.014 A 
ATOM     35  C   UNL A   1      40.388  28.150  26.991  1.00  0.00     0.014 A 
ATOM     36  C   UNL A   1      39.836  27.227  29.543  1.00  0.00     0.010 A 
ATOM     37  C   UNL A   1      40.425  29.035  28.046  1.00  0.00     0.010 A 
ATOM     38  C   UNL A   1      40.116  28.590  29.323  1.00  0.00    -0.014 A 
BRANCH  38  39
ATOM     39  C   UNL A   1      40.226  29.520  30.450  1.00  0.00     0.031 A 
ATOM     40  C   UNL A   1      38.969  30.259  30.736  1.00  0.00     0.074 A 
ATOM     41  C   UNL A   1      41.294  29.641  31.271  1.00  0.00     0.049 A 
ATOM     42  N   UNL A   1      38.719  31.484  30.421  1.00  0.00    -0.248 NA
ATOM     43  C   UNL A   1      37.798  29.529  31.243  1.00  0.00     0.031 C 
ATOM     44  C   UNL A   1      42.526  28.846  31.288  1.00  0.00     0.029 A 
ATOM     45  N   UNL A   1      41.474  30.484  32.330  1.00  0.00    -0.354 N 
ATOM     46  C   UNL A   1      37.452  31.763  30.914  1.00  0.00     0.074 A 
ATOM     47  C   UNL A   1      36.865  30.486  31.226  1.00  0.00     0.031 C 
ATOM     48  C   UNL A   1      43.227  29.101  32.417  1.00  0.00     0.029 A 
ATOM     49  C   UNL A   1      42.590  30.203  33.119  1.00  0.00     0.049 A 
ATOM     50  H   UNL A   1      40.864  31.233  32.522  1.00  0.00     0.167 HD
ATOM     51  C   UNL A   1      37.103  33.040  31.230  1.00  0.00     0.034 A 
ATOM     52  C   UNL A   1      43.003  30.850  34.245  1.00  0.00     0.034 A 
ATOM     53  C   UNL A   1      38.069  33.979  30.701  1.00  0.00     0.049 A 
ATOM     54  C   UNL A   1      42.457  32.221  34.161  1.00  0.00     0.074 A 
ATOM     55  C   UNL A   1      38.501  34.329  29.437  1.00  0.00     0.029 A 
ATOM     56  N   UNL A   1      39.040  34.427  31.570  1.00  0.00    -0.354 N 
ATOM     57  N   UNL A   1      42.833  33.080  33.254  1.00  0.00    -0.248 NA
ATOM     58  C   UNL A   1      41.168  32.499  34.775  1.00  0.00     0.031 C 
ATOM     59  C   UNL A   1      39.905  34.547  29.573  1.00  0.00     0.029 A 
ATOM     60  C   UNL A   1      40.248  34.402  30.920  1.00  0.00     0.049 A 
ATOM     61  H   UNL A   1      38.891  34.715  32.499  1.00  0.00     0.167 HD
ATOM     62  C   UNL A   1      41.665  33.708  32.855  1.00  0.00     0.074 A 
ATOM     63  C   UNL A   1      40.702  33.408  33.912  1.00  0.00     0.031 C 
ATOM     64  C   UNL A   1      41.524  34.174  31.579  1.00  0.00     0.034 A 
BRANCH  51  65
ATOM     65  C   UNL A   1      36.137  33.446  32.320  1.00  0.00     0.023 A 
ATOM     66  C   UNL A   1      35.011  34.199  31.932  1.00  0.00     0.031 A 
ATOM     67  C   UNL A   1      36.405  33.406  33.706  1.00  0.00     0.131 A 
ATOM     68  C   UNL A   1      34.282  34.946  32.872  1.00  0.00     0.055 A 
ATOM     69  C   UNL A   1      35.636  34.099  34.645  1.00  0.00     0.041 A 
ATOM     70  F   UNL A   1      37.471  32.782  34.219  1.00  0.00    -0.206 F 
ATOM     71  C   UNL A   1      34.587  34.902  34.228  1.00  0.00     0.022 A 
BRANCH  68  72
ATOM     72  S   UNL A   1      33.040  36.117  32.264  1.00  0.00     0.124 S 
ATOM     73  O   UNL A   1      33.172  37.210  33.221  1.00  0.00    -0.237 OA
ATOM     74  O   UNL A   1      33.516  36.383  30.910  1.00  0.00    -0.237 OA
ATOM     75  O   UNL A   1      31.794  35.360  32.348  1.00  0.00    -0.744 OA
ENDBRANCH  68  72
ENDBRANCH  51  65
BRANCH  52  76
ATOM     76  C   UNL A   1      43.582  30.277  35.492  1.00  0.00     0.023 A 
ATOM     77  C   UNL A   1      43.284  28.976  35.961  1.00  0.00     0.031 A 
ATOM     78  C   UNL A   1      44.681  30.931  36.093  1.00  0.00     0.131 A 
ATOM     79  C   UNL A   1      44.079  28.382  36.973  1.00  0.00     0.055 A 
ATOM     80  C   UNL A   1      45.464  30.335  37.085  1.00  0.00     0.041 A 
ATOM     81  F   UNL A   1      45.086  32.137  35.665  1.00  0.00    -0.206 F 
ATOM     82  C   UNL A   1      45.174  29.053  37.522  1.00  0.00     0.022 A 
BRANCH  79  83
ATOM     83  S   UNL A   1      43.758  26.673  37.534  1.00  0.00     0.124 S 
ATOM     84  O   UNL A   1      44.444  26.632  38.821  1.00  0.00    -0.237 OA
ATOM     85  O   UNL A   1      42.302  26.622  37.570  1.00  0.00    -0.237 OA
ATOM     86  O   UNL A   1      44.371  25.850  36.490  1.00  0.00    -0.744 OA
ENDBRANCH  79  83
ENDBRANCH  52  76
BRANCH  64  87
ATOM     87  C   UNL A   1      42.777  34.303  30.730  1.00  0.00     0.023 A 
ATOM     88  C   UNL A   1      43.224  33.356  29.778  1.00  0.00     0.031 A 
ATOM     89  C   UNL A   1      43.507  35.498  30.848  1.00  0.00     0.131 A 
ATOM     90  C   UNL A   1      44.373  33.622  29.004  1.00  0.00     0.055 A 
ATOM     91  C   UNL A   1      44.625  35.769  30.063  1.00  0.00     0.041 A 
ATOM     92  F   UNL A   1      43.124  36.446  31.721  1.00  0.00    -0.206 F 
ATOM     93  C   UNL A   1      45.068  34.827  29.142  1.00  0.00     0.022 A 
BRANCH  90  94
ATOM     94  S   UNL A   1      45.007  32.388  27.821  1.00  0.00     0.124 S 
ATOM     95  O   UNL A   1      46.291  31.995  28.389  1.00  0.00    -0.237 OA
ATOM     96  O   UNL A   1      43.963  31.366  27.836  1.00  0.00    -0.237 OA
ATOM     97  O   UNL A   1      45.101  33.137  26.566  1.00  0.00    -0.744 OA
ENDBRANCH  90  94
ENDBRANCH  64  87
ENDBRANCH  38  39
ENDBRANCH  30  33
ENDBRANCH  28  29
ENDBRANCH  27  28
ENDBRANCH   1  27
TORSDOF 17
ENDMDL
