MODEL 1
REMARK VINA RESULT:     -12.0      0.000      0.000
REMARK SMILES [NH3+][C@@H](CCC1=c2ccccc2=NC1)C(=O)NCCCCCCNC(=O)c1ccc(-c2c3nc(c(-c4cc(S(=O)(=O)[O-])ccc4F)c4ccc([nH]4)c(-c4cc(S(=O)(=O)[O-])ccc4F)c4nc(c(-c5cc(S(=O)(=O)[O-])ccc5F)c5ccc2[nH]5)C=C4)C=C3)cc1
REMARK SMILES IDX 19 1 18 2 17 3 16 4 14 5 15 6 2 8 1 9 3 13 4 14 5 15 6 16
REMARK SMILES IDX 13 17 7 18 11 19 12 20 8 21 10 22 9 23 20 24 21 25 22 26
REMARK SMILES IDX 23 27 24 28 25 30 26 31 27 32 88 33 28 34 87 35 29 36 30 37
REMARK SMILES IDX 31 38 81 39 32 40 86 41 80 42 82 43 33 44 85 45 79 46 78 47
REMARK SMILES IDX 34 49 66 50 46 51 65 52 47 53 50 54 64 55 83 56 48 57 49 58
REMARK SMILES IDX 63 60 84 61 51 62 35 63 36 64 44 65 37 66 43 67 45 68 42 69
REMARK SMILES IDX 38 70 39 71 40 72 41 73 67 74 68 75 76 76 69 77 75 78 77 79
REMARK SMILES IDX 74 80 70 81 71 82 72 83 73 84 52 85 53 86 61 87 54 88 60 89
REMARK SMILES IDX 62 90 59 91 55 92 56 93 57 94 58 95
REMARK H PARENT 16 7 1 10 1 11 1 12 23 29 82 48 50 59
REMARK Flexibility Score: inf
ROOT
ATOM      1  C   UNL A   1      34.032  26.165  25.582  1.00  0.00     0.002 C 
ENDROOT
BRANCH   1   2
ATOM      2  C   UNL A   1      34.668  24.551  25.734  1.00  0.00     0.021 C 
BRANCH   2   3
ATOM      3  C   UNL A   1      35.027  23.800  24.457  1.00  0.00     0.116 C 
BRANCH   3   4
ATOM      4  N   UNL A   1      36.097  22.850  24.663  1.00  0.00    -0.351 N 
ATOM      5  C   UNL A   1      36.050  21.549  25.054  1.00  0.00     0.278 C 
ATOM      6  O   UNL A   1      37.112  20.922  25.093  1.00  0.00    -0.268 OA
ATOM      7  H   UNL A   1      37.003  23.201  24.494  1.00  0.00     0.163 HD
BRANCH   5   8
ATOM      8  C   UNL A   1      34.722  20.866  25.425  1.00  0.00     0.271 C 
BRANCH   8   9
ATOM      9  N   UNL A   1      34.328  21.087  26.831  1.00  0.00    -0.347 N 
ATOM     10  H   UNL A   1      35.035  20.689  27.449  1.00  0.00     0.345 HD
ATOM     11  H   UNL A   1      33.430  20.636  27.007  1.00  0.00     0.345 HD
ATOM     12  H   UNL A   1      34.245  22.088  27.007  1.00  0.00     0.345 HD
ENDBRANCH   8   9
BRANCH   8  13
ATOM     13  C   UNL A   1      33.591  21.053  24.397  1.00  0.00     0.080 C 
BRANCH  13  14
ATOM     14  C   UNL A   1      32.109  21.137  24.822  1.00  0.00     0.040 C 
BRANCH  14  15
ATOM     15  C   UNL A   1      31.575  22.463  25.286  1.00  0.00    -0.039 C 
ATOM     16  C   UNL A   1      31.461  23.571  24.559  1.00  0.00     0.001 A 
ATOM     17  C   UNL A   1      31.091  22.686  26.734  1.00  0.00     0.174 C 
ATOM     18  C   UNL A   1      31.766  24.301  22.896  1.00  0.00     0.010 A 
ATOM     19  C   UNL A   1      30.565  24.672  25.847  1.00  0.00     0.065 A 
ATOM     20  N   UNL A   1      30.456  24.057  26.977  1.00  0.00    -0.280 NA
ATOM     21  C   UNL A   1      31.173  25.736  22.497  1.00  0.00     0.001 A 
ATOM     22  C   UNL A   1      29.926  26.384  25.192  1.00  0.00     0.028 A 
ATOM     23  C   UNL A   1      30.289  26.860  23.724  1.00  0.00     0.002 A 
ENDBRANCH  14  15
ENDBRANCH  13  14
ENDBRANCH   8  13
ENDBRANCH   5   8
ENDBRANCH   3   4
ENDBRANCH   2   3
ENDBRANCH   1   2
BRANCH   1  24
ATOM     24  C   UNL A   1      32.841  27.521  26.825  1.00  0.00     0.002 C 
BRANCH  24  25
ATOM     25  C   UNL A   1      32.265  29.134  26.773  1.00  0.00     0.021 C 
BRANCH  25  26
ATOM     26  C   UNL A   1      33.068  30.381  26.402  1.00  0.00     0.116 C 
BRANCH  26  27
ATOM     27  N   UNL A   1      32.865  31.595  27.177  1.00  0.00    -0.352 N 
ATOM     28  C   UNL A   1      33.838  32.210  27.952  1.00  0.00     0.251 C 
ATOM     29  H   UNL A   1      31.974  32.011  27.148  1.00  0.00     0.163 HD
ATOM     30  O   UNL A   1      33.615  33.233  28.585  1.00  0.00    -0.269 OA
BRANCH  28  31
ATOM     31  C   UNL A   1      35.149  31.524  28.033  1.00  0.00     0.039 A 
ATOM     32  C   UNL A   1      35.191  30.193  28.449  1.00  0.00     0.014 A 
ATOM     33  C   UNL A   1      36.312  32.294  27.984  1.00  0.00     0.014 A 
ATOM     34  C   UNL A   1      36.357  29.705  29.029  1.00  0.00     0.010 A 
ATOM     35  C   UNL A   1      37.510  31.754  28.461  1.00  0.00     0.010 A 
ATOM     36  C   UNL A   1      37.530  30.481  29.054  1.00  0.00    -0.014 A 
BRANCH  36  37
ATOM     37  C   UNL A   1      38.766  29.956  29.704  1.00  0.00     0.031 A 
ATOM     38  C   UNL A   1      39.630  28.921  29.024  1.00  0.00     0.074 A 
ATOM     39  C   UNL A   1      39.113  30.420  30.921  1.00  0.00     0.049 A 
ATOM     40  N   UNL A   1      40.693  28.309  29.479  1.00  0.00    -0.248 NA
ATOM     41  C   UNL A   1      39.251  28.513  27.661  1.00  0.00     0.031 C 
ATOM     42  C   UNL A   1      38.366  31.430  31.671  1.00  0.00     0.029 A 
ATOM     43  N   UNL A   1      40.173  30.117  31.740  1.00  0.00    -0.354 N 
ATOM     44  C   UNL A   1      41.090  27.423  28.481  1.00  0.00     0.074 A 
ATOM     45  C   UNL A   1      40.134  27.555  27.404  1.00  0.00     0.031 C 
ATOM     46  C   UNL A   1      39.009  31.694  32.814  1.00  0.00     0.029 A 
ATOM     47  C   UNL A   1      40.159  30.804  32.931  1.00  0.00     0.049 A 
ATOM     48  H   UNL A   1      40.874  29.469  31.497  1.00  0.00     0.167 HD
ATOM     49  C   UNL A   1      42.157  26.587  28.465  1.00  0.00     0.034 A 
ATOM     50  C   UNL A   1      40.955  30.714  34.016  1.00  0.00     0.034 A 
ATOM     51  C   UNL A   1      43.115  26.492  29.541  1.00  0.00     0.049 A 
ATOM     52  C   UNL A   1      42.111  29.751  33.988  1.00  0.00     0.074 A 
ATOM     53  C   UNL A   1      44.254  25.708  29.601  1.00  0.00     0.029 A 
ATOM     54  N   UNL A   1      43.057  27.195  30.737  1.00  0.00    -0.354 N 
ATOM     55  N   UNL A   1      42.494  28.954  33.019  1.00  0.00    -0.248 NA
ATOM     56  C   UNL A   1      42.949  29.675  35.192  1.00  0.00     0.031 C 
ATOM     57  C   UNL A   1      44.831  25.866  30.859  1.00  0.00     0.029 A 
ATOM     58  C   UNL A   1      44.119  26.834  31.550  1.00  0.00     0.049 A 
ATOM     59  H   UNL A   1      42.363  27.853  30.972  1.00  0.00     0.167 HD
ATOM     60  C   UNL A   1      43.637  28.308  33.483  1.00  0.00     0.074 A 
ATOM     61  C   UNL A   1      43.894  28.827  34.810  1.00  0.00     0.031 C 
ATOM     62  C   UNL A   1      44.395  27.370  32.863  1.00  0.00     0.034 A 
BRANCH  49  63
ATOM     63  C   UNL A   1      42.387  25.699  27.260  1.00  0.00     0.023 A 
ATOM     64  C   UNL A   1      41.935  24.363  27.279  1.00  0.00     0.031 A 
ATOM     65  C   UNL A   1      43.190  26.107  26.180  1.00  0.00     0.131 A 
ATOM     66  C   UNL A   1      42.333  23.474  26.271  1.00  0.00     0.055 A 
ATOM     67  C   UNL A   1      43.536  25.231  25.149  1.00  0.00     0.041 A 
ATOM     68  F   UNL A   1      43.656  27.365  26.114  1.00  0.00    -0.206 F 
ATOM     69  C   UNL A   1      43.122  23.904  25.201  1.00  0.00     0.022 A 
BRANCH  66  70
ATOM     70  S   UNL A   1      41.928  21.707  26.363  1.00  0.00     0.124 S 
ATOM     71  O   UNL A   1      42.804  21.145  25.337  1.00  0.00    -0.237 OA
ATOM     72  O   UNL A   1      42.291  21.384  27.740  1.00  0.00    -0.237 OA
ATOM     73  O   UNL A   1      40.503  21.658  26.058  1.00  0.00    -0.744 OA
ENDBRANCH  66  70
ENDBRANCH  49  63
BRANCH  50  74
ATOM     74  C   UNL A   1      40.684  31.599  35.187  1.00  0.00     0.023 A 
ATOM     75  C   UNL A   1      39.637  31.312  36.084  1.00  0.00     0.031 A 
ATOM     76  C   UNL A   1      41.379  32.808  35.351  1.00  0.00     0.131 A 
ATOM     77  C   UNL A   1      39.258  32.262  37.040  1.00  0.00     0.055 A 
ATOM     78  C   UNL A   1      41.056  33.711  36.365  1.00  0.00     0.041 A 
ATOM     79  F   UNL A   1      42.375  33.135  34.513  1.00  0.00    -0.206 F 
ATOM     80  C   UNL A   1      39.975  33.450  37.201  1.00  0.00     0.022 A 
BRANCH  77  81
ATOM     81  S   UNL A   1      37.726  32.058  37.993  1.00  0.00     0.124 S 
ATOM     82  O   UNL A   1      36.844  33.037  37.365  1.00  0.00    -0.237 OA
ATOM     83  O   UNL A   1      37.403  30.657  37.734  1.00  0.00    -0.237 OA
ATOM     84  O   UNL A   1      38.129  32.358  39.363  1.00  0.00    -0.744 OA
ENDBRANCH  77  81
ENDBRANCH  50  74
BRANCH  62  85
ATOM     85  C   UNL A   1      45.620  26.837  33.572  1.00  0.00     0.023 A 
ATOM     86  C   UNL A   1      46.881  27.404  33.302  1.00  0.00     0.031 A 
ATOM     87  C   UNL A   1      45.572  25.679  34.368  1.00  0.00     0.131 A 
ATOM     88  C   UNL A   1      48.044  26.780  33.769  1.00  0.00     0.055 A 
ATOM     89  C   UNL A   1      46.731  25.099  34.888  1.00  0.00     0.041 A 
ATOM     90  F   UNL A   1      44.398  25.089  34.644  1.00  0.00    -0.206 F 
ATOM     91  C   UNL A   1      47.975  25.638  34.572  1.00  0.00     0.022 A 
BRANCH  88  92
ATOM     92  S   UNL A   1      49.685  27.358  33.255  1.00  0.00     0.124 S 
ATOM     93  O   UNL A   1      50.385  26.100  33.006  1.00  0.00    -0.237 OA
ATOM     94  O   UNL A   1      49.373  28.143  32.064  1.00  0.00    -0.237 OA
ATOM     95  O   UNL A   1      50.166  28.120  34.403  1.00  0.00    -0.744 OA
ENDBRANCH  88  92
ENDBRANCH  62  85
ENDBRANCH  36  37
ENDBRANCH  28  31
ENDBRANCH  26  27
ENDBRANCH  25  26
ENDBRANCH  24  25
ENDBRANCH   1  24
TORSDOF 20
ENDMDL
MODEL 2
REMARK VINA RESULT:     -11.7      4.726      7.426
REMARK SMILES [NH3+][C@@H](CCC1=c2ccccc2=NC1)C(=O)NCCCCCCNC(=O)c1ccc(-c2c3nc(c(-c4cc(S(=O)(=O)[O-])ccc4F)c4ccc([nH]4)c(-c4cc(S(=O)(=O)[O-])ccc4F)c4nc(c(-c5cc(S(=O)(=O)[O-])ccc5F)c5ccc2[nH]5)C=C4)C=C3)cc1
REMARK SMILES IDX 19 1 18 2 17 3 16 4 14 5 15 6 2 8 1 9 3 13 4 14 5 15 6 16
REMARK SMILES IDX 13 17 7 18 11 19 12 20 8 21 10 22 9 23 20 24 21 25 22 26
REMARK SMILES IDX 23 27 24 28 25 30 26 31 27 32 88 33 28 34 87 35 29 36 30 37
REMARK SMILES IDX 31 38 81 39 32 40 86 41 80 42 82 43 33 44 85 45 79 46 78 47
REMARK SMILES IDX 34 49 66 50 46 51 65 52 47 53 50 54 64 55 83 56 48 57 49 58
REMARK SMILES IDX 63 60 84 61 51 62 35 63 36 64 44 65 37 66 43 67 45 68 42 69
REMARK SMILES IDX 38 70 39 71 40 72 41 73 67 74 68 75 76 76 69 77 75 78 77 79
REMARK SMILES IDX 74 80 70 81 71 82 72 83 73 84 52 85 53 86 61 87 54 88 60 89
REMARK SMILES IDX 62 90 59 91 55 92 56 93 57 94 58 95
REMARK H PARENT 16 7 1 10 1 11 1 12 23 29 82 48 50 59
REMARK Flexibility Score: inf
ROOT
ATOM      1  C   UNL A   1      34.546  24.794  25.280  1.00  0.00     0.002 C 
ENDROOT
BRANCH   1   2
ATOM      2  C   UNL A   1      34.036  26.458  25.204  1.00  0.00     0.021 C 
BRANCH   2   3
ATOM      3  C   UNL A   1      33.214  26.900  23.998  1.00  0.00     0.116 C 
BRANCH   3   4
ATOM      4  N   UNL A   1      31.827  27.127  24.335  1.00  0.00    -0.351 N 
ATOM      5  C   UNL A   1      30.729  26.366  24.085  1.00  0.00     0.278 C 
ATOM      6  O   UNL A   1      29.648  26.749  24.540  1.00  0.00    -0.268 OA
ATOM      7  H   UNL A   1      31.649  27.965  24.823  1.00  0.00     0.163 HD
BRANCH   5   8
ATOM      8  C   UNL A   1      30.820  25.061  23.274  1.00  0.00     0.271 C 
BRANCH   8   9
ATOM      9  N   UNL A   1      31.409  25.249  21.934  1.00  0.00    -0.347 N 
ATOM     10  H   UNL A   1      31.634  24.340  21.530  1.00  0.00     0.345 HD
ATOM     11  H   UNL A   1      32.259  25.806  22.010  1.00  0.00     0.345 HD
ATOM     12  H   UNL A   1      30.740  25.731  21.334  1.00  0.00     0.345 HD
ENDBRANCH   8   9
BRANCH   8  13
ATOM     13  C   UNL A   1      31.364  23.851  24.057  1.00  0.00     0.080 C 
BRANCH  13  14
ATOM     14  C   UNL A   1      32.201  22.749  23.375  1.00  0.00     0.040 C 
BRANCH  14  15
ATOM     15  C   UNL A   1      32.529  21.512  24.163  1.00  0.00    -0.039 C 
ATOM     16  C   UNL A   1      32.531  20.261  23.710  1.00  0.00     0.001 A 
ATOM     17  C   UNL A   1      32.906  21.572  25.658  1.00  0.00     0.174 C 
ATOM     18  C   UNL A   1      32.216  19.208  22.233  1.00  0.00     0.010 A 
ATOM     19  C   UNL A   1      33.205  19.388  25.279  1.00  0.00     0.065 A 
ATOM     20  N   UNL A   1      33.338  20.229  26.249  1.00  0.00    -0.280 NA
ATOM     21  C   UNL A   1      32.630  17.660  22.211  1.00  0.00     0.001 A 
ATOM     22  C   UNL A   1      33.642  17.507  25.073  1.00  0.00     0.028 A 
ATOM     23  C   UNL A   1      33.293  16.752  23.723  1.00  0.00     0.002 A 
ENDBRANCH  14  15
ENDBRANCH  13  14
ENDBRANCH   8  13
ENDBRANCH   5   8
ENDBRANCH   3   4
ENDBRANCH   2   3
ENDBRANCH   1   2
BRANCH   1  24
ATOM     24  C   UNL A   1      35.808  23.468  24.075  1.00  0.00     0.002 C 
BRANCH  24  25
ATOM     25  C   UNL A   1      36.624  21.971  24.246  1.00  0.00     0.021 C 
BRANCH  25  26
ATOM     26  C   UNL A   1      37.214  21.392  25.532  1.00  0.00     0.116 C 
BRANCH  26  27
ATOM     27  N   UNL A   1      38.329  20.464  25.430  1.00  0.00    -0.352 N 
ATOM     28  C   UNL A   1      39.570  20.652  26.021  1.00  0.00     0.251 C 
ATOM     29  H   UNL A   1      38.193  19.643  24.905  1.00  0.00     0.163 HD
ATOM     30  O   UNL A   1      40.476  19.838  25.905  1.00  0.00    -0.269 OA
BRANCH  28  31
ATOM     31  C   UNL A   1      39.770  21.929  26.746  1.00  0.00     0.039 A 
ATOM     32  C   UNL A   1      39.154  23.084  26.264  1.00  0.00     0.014 A 
ATOM     33  C   UNL A   1      40.788  22.007  27.697  1.00  0.00     0.014 A 
ATOM     34  C   UNL A   1      39.712  24.322  26.566  1.00  0.00     0.010 A 
ATOM     35  C   UNL A   1      41.266  23.262  28.086  1.00  0.00     0.010 A 
ATOM     36  C   UNL A   1      40.783  24.429  27.471  1.00  0.00    -0.014 A 
BRANCH  36  37
ATOM     37  C   UNL A   1      41.389  25.759  27.764  1.00  0.00     0.031 A 
ATOM     38  C   UNL A   1      42.773  26.115  27.276  1.00  0.00     0.074 A 
ATOM     39  C   UNL A   1      40.681  26.658  28.477  1.00  0.00     0.049 A 
ATOM     40  N   UNL A   1      43.473  27.198  27.504  1.00  0.00    -0.248 NA
ATOM     41  C   UNL A   1      43.467  25.129  26.430  1.00  0.00     0.031 C 
ATOM     42  C   UNL A   1      39.329  26.435  28.990  1.00  0.00     0.029 A 
ATOM     43  N   UNL A   1      40.986  27.932  28.890  1.00  0.00    -0.354 N 
ATOM     44  C   UNL A   1      44.696  27.012  26.864  1.00  0.00     0.074 A 
ATOM     45  C   UNL A   1      44.655  25.698  26.261  1.00  0.00     0.031 C 
ATOM     46  C   UNL A   1      38.905  27.542  29.609  1.00  0.00     0.029 A 
ATOM     47  C   UNL A   1      39.986  28.522  29.628  1.00  0.00     0.049 A 
ATOM     48  H   UNL A   1      41.838  28.378  28.679  1.00  0.00     0.167 HD
ATOM     49  C   UNL A   1      45.747  27.865  26.781  1.00  0.00     0.034 A 
ATOM     50  C   UNL A   1      39.944  29.701  30.280  1.00  0.00     0.034 A 
ATOM     51  C   UNL A   1      45.754  29.185  27.367  1.00  0.00     0.049 A 
ATOM     52  C   UNL A   1      41.137  30.614  30.204  1.00  0.00     0.074 A 
ATOM     53  C   UNL A   1      46.753  30.140  27.301  1.00  0.00     0.029 A 
ATOM     54  N   UNL A   1      44.727  29.739  28.119  1.00  0.00    -0.354 N 
ATOM     55  N   UNL A   1      42.266  30.439  29.559  1.00  0.00    -0.248 NA
ATOM     56  C   UNL A   1      41.056  31.885  30.935  1.00  0.00     0.031 C 
ATOM     57  C   UNL A   1      46.373  31.228  28.083  1.00  0.00     0.029 A 
ATOM     58  C   UNL A   1      45.086  31.006  28.549  1.00  0.00     0.049 A 
ATOM     59  H   UNL A   1      43.870  29.297  28.317  1.00  0.00     0.167 HD
ATOM     60  C   UNL A   1      43.015  31.593  29.777  1.00  0.00     0.074 A 
ATOM     61  C   UNL A   1      42.199  32.466  30.595  1.00  0.00     0.031 C 
ATOM     62  C   UNL A   1      44.264  31.892  29.341  1.00  0.00     0.034 A 
BRANCH  49  63
ATOM     63  C   UNL A   1      46.991  27.439  26.030  1.00  0.00     0.023 A 
ATOM     64  C   UNL A   1      47.175  27.849  24.693  1.00  0.00     0.031 A 
ATOM     65  C   UNL A   1      47.896  26.504  26.563  1.00  0.00     0.131 A 
ATOM     66  C   UNL A   1      48.201  27.285  23.922  1.00  0.00     0.055 A 
ATOM     67  C   UNL A   1      48.951  25.989  25.807  1.00  0.00     0.041 A 
ATOM     68  F   UNL A   1      47.763  26.072  27.828  1.00  0.00    -0.206 F 
ATOM     69  C   UNL A   1      49.097  26.366  24.476  1.00  0.00     0.022 A 
BRANCH  66  70
ATOM     70  S   UNL A   1      48.351  27.645  22.150  1.00  0.00     0.124 S 
ATOM     71  O   UNL A   1      47.076  28.302  21.869  1.00  0.00    -0.237 OA
ATOM     72  O   UNL A   1      49.522  28.516  22.115  1.00  0.00    -0.237 OA
ATOM     73  O   UNL A   1      48.522  26.333  21.538  1.00  0.00    -0.744 OA
ENDBRANCH  66  70
ENDBRANCH  49  63
BRANCH  50  74
ATOM     74  C   UNL A   1      38.701  30.075  31.019  1.00  0.00     0.023 A 
ATOM     75  C   UNL A   1      37.660  30.772  30.377  1.00  0.00     0.031 A 
ATOM     76  C   UNL A   1      38.595  29.858  32.402  1.00  0.00     0.131 A 
ATOM     77  C   UNL A   1      36.609  31.305  31.133  1.00  0.00     0.055 A 
ATOM     78  C   UNL A   1      37.498  30.312  33.136  1.00  0.00     0.041 A 
ATOM     79  F   UNL A   1      39.568  29.212  33.063  1.00  0.00    -0.206 F 
ATOM     80  C   UNL A   1      36.509  31.060  32.505  1.00  0.00     0.022 A 
BRANCH  77  81
ATOM     81  S   UNL A   1      35.428  32.466  30.389  1.00  0.00     0.124 S 
ATOM     82  O   UNL A   1      34.999  31.741  29.196  1.00  0.00    -0.237 OA
ATOM     83  O   UNL A   1      34.430  32.589  31.447  1.00  0.00    -0.237 OA
ATOM     84  O   UNL A   1      36.227  33.663  30.147  1.00  0.00    -0.744 OA
ENDBRANCH  77  81
ENDBRANCH  50  74
BRANCH  62  85
ATOM     85  C   UNL A   1      44.856  33.238  29.691  1.00  0.00     0.023 A 
ATOM     86  C   UNL A   1      44.683  34.324  28.809  1.00  0.00     0.031 A 
ATOM     87  C   UNL A   1      45.720  33.408  30.786  1.00  0.00     0.131 A 
ATOM     88  C   UNL A   1      45.410  35.504  29.001  1.00  0.00     0.055 A 
ATOM     89  C   UNL A   1      46.391  34.611  31.011  1.00  0.00     0.041 A 
ATOM     90  F   UNL A   1      45.933  32.402  31.650  1.00  0.00    -0.206 F 
ATOM     91  C   UNL A   1      46.253  35.659  30.105  1.00  0.00     0.022 A 
BRANCH  88  92
ATOM     92  S   UNL A   1      45.379  36.833  27.765  1.00  0.00     0.124 S 
ATOM     93  O   UNL A   1      46.799  37.008  27.472  1.00  0.00    -0.237 OA
ATOM     94  O   UNL A   1      44.591  36.232  26.692  1.00  0.00    -0.237 OA
ATOM     95  O   UNL A   1      44.746  37.947  28.462  1.00  0.00    -0.744 OA
ENDBRANCH  88  92
ENDBRANCH  62  85
ENDBRANCH  36  37
ENDBRANCH  28  31
ENDBRANCH  26  27
ENDBRANCH  25  26
ENDBRANCH  24  25
ENDBRANCH   1  24
TORSDOF 20
ENDMDL
MODEL 3
REMARK VINA RESULT:     -11.7      4.990      8.233
REMARK SMILES [NH3+][C@@H](CCC1=c2ccccc2=NC1)C(=O)NCCCCCCNC(=O)c1ccc(-c2c3nc(c(-c4cc(S(=O)(=O)[O-])ccc4F)c4ccc([nH]4)c(-c4cc(S(=O)(=O)[O-])ccc4F)c4nc(c(-c5cc(S(=O)(=O)[O-])ccc5F)c5ccc2[nH]5)C=C4)C=C3)cc1
REMARK SMILES IDX 19 1 18 2 17 3 16 4 14 5 15 6 2 8 1 9 3 13 4 14 5 15 6 16
REMARK SMILES IDX 13 17 7 18 11 19 12 20 8 21 10 22 9 23 20 24 21 25 22 26
REMARK SMILES IDX 23 27 24 28 25 30 26 31 27 32 88 33 28 34 87 35 29 36 30 37
REMARK SMILES IDX 31 38 81 39 32 40 86 41 80 42 82 43 33 44 85 45 79 46 78 47
REMARK SMILES IDX 34 49 66 50 46 51 65 52 47 53 50 54 64 55 83 56 48 57 49 58
REMARK SMILES IDX 63 60 84 61 51 62 35 63 36 64 44 65 37 66 43 67 45 68 42 69
REMARK SMILES IDX 38 70 39 71 40 72 41 73 67 74 68 75 76 76 69 77 75 78 77 79
REMARK SMILES IDX 74 80 70 81 71 82 72 83 73 84 52 85 53 86 61 87 54 88 60 89
REMARK SMILES IDX 62 90 59 91 55 92 56 93 57 94 58 95
REMARK H PARENT 16 7 1 10 1 11 1 12 23 29 82 48 50 59
REMARK Flexibility Score: inf
ROOT
ATOM      1  C   UNL A   1      35.358  24.130  25.131  1.00  0.00     0.002 C 
ENDROOT
BRANCH   1   2
ATOM      2  C   UNL A   1      34.537  24.388  23.617  1.00  0.00     0.021 C 
BRANCH   2   3
ATOM      3  C   UNL A   1      33.950  25.768  23.348  1.00  0.00     0.116 C 
BRANCH   3   4
ATOM      4  N   UNL A   1      33.025  25.763  22.236  1.00  0.00    -0.351 N 
ATOM      5  C   UNL A   1      31.986  26.593  21.957  1.00  0.00     0.278 C 
ATOM      6  O   UNL A   1      31.379  26.418  20.896  1.00  0.00    -0.268 OA
ATOM      7  H   UNL A   1      33.171  25.043  21.578  1.00  0.00     0.163 HD
BRANCH   5   8
ATOM      8  C   UNL A   1      31.579  27.725  22.916  1.00  0.00     0.271 C 
BRANCH   8   9
ATOM      9  N   UNL A   1      31.383  29.021  22.235  1.00  0.00    -0.347 N 
ATOM     10  H   UNL A   1      31.966  29.057  21.399  1.00  0.00     0.345 HD
ATOM     11  H   UNL A   1      31.646  29.779  22.864  1.00  0.00     0.345 HD
ATOM     12  H   UNL A   1      30.403  29.122  21.972  1.00  0.00     0.345 HD
ENDBRANCH   8   9
BRANCH   8  13
ATOM     13  C   UNL A   1      30.479  27.351  23.927  1.00  0.00     0.080 C 
BRANCH  13  14
ATOM     14  C   UNL A   1      29.876  25.931  23.988  1.00  0.00     0.040 C 
BRANCH  14  15
ATOM     15  C   UNL A   1      30.513  24.926  24.905  1.00  0.00    -0.039 C 
ATOM     16  C   UNL A   1      31.062  23.766  24.552  1.00  0.00     0.001 A 
ATOM     17  C   UNL A   1      30.588  25.145  26.430  1.00  0.00     0.174 C 
ATOM     18  C   UNL A   1      31.416  22.656  23.126  1.00  0.00     0.010 A 
ATOM     19  C   UNL A   1      31.749  23.240  26.263  1.00  0.00     0.065 A 
ATOM     20  N   UNL A   1      31.392  24.079  27.177  1.00  0.00    -0.280 NA
ATOM     21  C   UNL A   1      32.383  21.387  23.280  1.00  0.00     0.001 A 
ATOM     22  C   UNL A   1      32.892  21.670  26.264  1.00  0.00     0.028 A 
ATOM     23  C   UNL A   1      33.082  20.823  24.937  1.00  0.00     0.002 A 
ENDBRANCH  14  15
ENDBRANCH  13  14
ENDBRANCH   8  13
ENDBRANCH   5   8
ENDBRANCH   3   4
ENDBRANCH   2   3
ENDBRANCH   1   2
BRANCH   1  24
ATOM     24  C   UNL A   1      37.295  23.324  25.765  1.00  0.00     0.002 C 
BRANCH  24  25
ATOM     25  C   UNL A   1      38.179  21.862  25.637  1.00  0.00     0.021 C 
BRANCH  25  26
ATOM     26  C   UNL A   1      39.412  21.465  26.449  1.00  0.00     0.116 C 
BRANCH  26  27
ATOM     27  N   UNL A   1      40.087  20.218  26.125  1.00  0.00    -0.352 N 
ATOM     28  C   UNL A   1      41.463  20.041  26.128  1.00  0.00     0.251 C 
ATOM     29  H   UNL A   1      39.528  19.445  25.887  1.00  0.00     0.163 HD
ATOM     30  O   UNL A   1      41.982  18.968  25.848  1.00  0.00    -0.269 OA
BRANCH  28  31
ATOM     31  C   UNL A   1      42.284  21.240  26.421  1.00  0.00     0.039 A 
ATOM     32  C   UNL A   1      42.554  21.565  27.750  1.00  0.00     0.014 A 
ATOM     33  C   UNL A   1      42.509  22.164  25.400  1.00  0.00     0.014 A 
ATOM     34  C   UNL A   1      42.834  22.888  28.077  1.00  0.00     0.010 A 
ATOM     35  C   UNL A   1      42.905  23.463  25.728  1.00  0.00     0.010 A 
ATOM     36  C   UNL A   1      43.002  23.859  27.072  1.00  0.00    -0.014 A 
BRANCH  36  37
ATOM     37  C   UNL A   1      43.275  25.279  27.438  1.00  0.00     0.031 A 
ATOM     38  C   UNL A   1      44.652  25.877  27.285  1.00  0.00     0.074 A 
ATOM     39  C   UNL A   1      42.265  26.037  27.910  1.00  0.00     0.049 A 
ATOM     40  N   UNL A   1      45.073  27.070  27.623  1.00  0.00    -0.248 NA
ATOM     41  C   UNL A   1      45.696  25.029  26.685  1.00  0.00     0.031 C 
ATOM     42  C   UNL A   1      40.888  25.576  28.087  1.00  0.00     0.029 A 
ATOM     43  N   UNL A   1      42.230  27.347  28.321  1.00  0.00    -0.354 N 
ATOM     44  C   UNL A   1      46.430  27.106  27.312  1.00  0.00     0.074 A 
ATOM     45  C   UNL A   1      46.770  25.803  26.784  1.00  0.00     0.031 C 
ATOM     46  C   UNL A   1      40.137  26.591  28.527  1.00  0.00     0.029 A 
ATOM     47  C   UNL A   1      40.991  27.751  28.762  1.00  0.00     0.049 A 
ATOM     48  H   UNL A   1      43.017  27.940  28.302  1.00  0.00     0.167 HD
ATOM     49  C   UNL A   1      47.303  28.134  27.446  1.00  0.00     0.034 A 
ATOM     50  C   UNL A   1      40.583  28.906  29.324  1.00  0.00     0.034 A 
ATOM     51  C   UNL A   1      46.934  29.437  27.950  1.00  0.00     0.049 A 
ATOM     52  C   UNL A   1      41.579  30.019  29.497  1.00  0.00     0.074 A 
ATOM     53  C   UNL A   1      47.736  30.557  28.082  1.00  0.00     0.029 A 
ATOM     54  N   UNL A   1      45.672  29.799  28.399  1.00  0.00    -0.354 N 
ATOM     55  N   UNL A   1      42.846  30.049  29.156  1.00  0.00    -0.248 NA
ATOM     56  C   UNL A   1      41.098  31.258  30.121  1.00  0.00     0.031 C 
ATOM     57  C   UNL A   1      46.989  31.562  28.692  1.00  0.00     0.029 A 
ATOM     58  C   UNL A   1      45.686  31.113  28.840  1.00  0.00     0.049 A 
ATOM     59  H   UNL A   1      44.883  29.210  28.403  1.00  0.00     0.167 HD
ATOM     60  C   UNL A   1      43.304  31.320  29.493  1.00  0.00     0.074 A 
ATOM     61  C   UNL A   1      42.171  32.035  30.042  1.00  0.00     0.031 C 
ATOM     62  C   UNL A   1      44.550  31.838  29.362  1.00  0.00     0.034 A 
BRANCH  49  63
ATOM     63  C   UNL A   1      48.750  27.938  27.044  1.00  0.00     0.023 A 
ATOM     64  C   UNL A   1      49.150  28.203  25.718  1.00  0.00     0.031 A 
ATOM     65  C   UNL A   1      49.684  27.334  27.905  1.00  0.00     0.131 A 
ATOM     66  C   UNL A   1      50.424  27.817  25.280  1.00  0.00     0.055 A 
ATOM     67  C   UNL A   1      50.972  27.004  27.478  1.00  0.00     0.041 A 
ATOM     68  F   UNL A   1      49.355  27.050  29.176  1.00  0.00    -0.206 F 
ATOM     69  C   UNL A   1      51.341  27.229  26.156  1.00  0.00     0.022 A 
BRANCH  66  70
ATOM     70  S   UNL A   1      50.904  27.970  23.536  1.00  0.00     0.124 S 
ATOM     71  O   UNL A   1      51.806  26.832  23.372  1.00  0.00    -0.237 OA
ATOM     72  O   UNL A   1      49.618  27.851  22.856  1.00  0.00    -0.237 OA
ATOM     73  O   UNL A   1      51.540  29.281  23.461  1.00  0.00    -0.744 OA
ENDBRANCH  66  70
ENDBRANCH  49  63
BRANCH  50  74
ATOM     74  C   UNL A   1      39.149  29.052  29.717  1.00  0.00     0.023 A 
ATOM     75  C   UNL A   1      38.226  29.684  28.863  1.00  0.00     0.031 A 
ATOM     76  C   UNL A   1      38.714  28.681  30.999  1.00  0.00     0.131 A 
ATOM     77  C   UNL A   1      36.948  30.008  29.335  1.00  0.00     0.055 A 
ATOM     78  C   UNL A   1      37.410  28.924  31.433  1.00  0.00     0.041 A 
ATOM     79  F   UNL A   1      39.560  28.088  31.856  1.00  0.00    -0.206 F 
ATOM     80  C   UNL A   1      36.527  29.612  30.607  1.00  0.00     0.022 A 
BRANCH  77  81
ATOM     81  S   UNL A   1      35.854  31.093  28.377  1.00  0.00     0.124 S 
ATOM     82  O   UNL A   1      34.835  31.445  29.362  1.00  0.00    -0.237 OA
ATOM     83  O   UNL A   1      36.764  32.169  27.997  1.00  0.00    -0.237 OA
ATOM     84  O   UNL A   1      35.403  30.245  27.278  1.00  0.00    -0.744 OA
ENDBRANCH  77  81
ENDBRANCH  50  74
BRANCH  62  85
ATOM     85  C   UNL A   1      44.792  33.271  29.778  1.00  0.00     0.023 A 
ATOM     86  C   UNL A   1      44.618  34.307  28.838  1.00  0.00     0.031 A 
ATOM     87  C   UNL A   1      45.350  33.599  31.026  1.00  0.00     0.131 A 
ATOM     88  C   UNL A   1      45.054  35.603  29.136  1.00  0.00     0.055 A 
ATOM     89  C   UNL A   1      45.721  34.906  31.343  1.00  0.00     0.041 A 
ATOM     90  F   UNL A   1      45.552  32.648  31.953  1.00  0.00    -0.206 F 
ATOM     91  C   UNL A   1      45.593  35.912  30.388  1.00  0.00     0.022 A 
BRANCH  88  92
ATOM     92  S   UNL A   1      45.048  36.905  27.871  1.00  0.00     0.124 S 
ATOM     93  O   UNL A   1      44.356  37.992  28.560  1.00  0.00    -0.237 OA
ATOM     94  O   UNL A   1      46.475  37.118  27.646  1.00  0.00    -0.237 OA
ATOM     95  O   UNL A   1      44.317  36.310  26.757  1.00  0.00    -0.744 OA
ENDBRANCH  88  92
ENDBRANCH  62  85
ENDBRANCH  36  37
ENDBRANCH  28  31
ENDBRANCH  26  27
ENDBRANCH  25  26
ENDBRANCH  24  25
ENDBRANCH   1  24
TORSDOF 20
ENDMDL
