MODEL 1
REMARK VINA RESULT:     -11.3      0.000      0.000
REMARK SMILES C[C@@H](C(=O)NCCCCCCNC(=O)c1ccc(-c2c3nc(c(-c4cc(S(=O)(=O)[O-])ccc4F)c4ccc([nH]4)c(-c4cc(S(=O)(=O)[O-])ccc4F)c4nc(c(-c5cc(S(=O)(=O)[O-])ccc5F)c5ccc2[nH]5)C=C4)C=C3)cc1)c1ccc(Cc2ccoc2)cc1F
REMARK SMILES IDX 8 1 7 2 6 3 5 4 3 5 4 6 2 8 1 9 78 10 79 11 89 12 80 13
REMARK SMILES IDX 88 14 90 15 81 16 82 17 83 18 84 19 87 20 85 21 86 22 9 23
REMARK SMILES IDX 10 24 11 25 12 26 13 27 14 29 15 30 16 31 77 32 17 33 76 34
REMARK SMILES IDX 18 35 19 36 20 37 70 38 21 39 75 40 69 41 71 42 22 43 74 44
REMARK SMILES IDX 68 45 67 46 23 48 55 49 35 50 54 51 36 52 39 53 53 54 72 55
REMARK SMILES IDX 37 56 38 57 52 59 73 60 40 61 24 62 25 63 33 64 26 65 32 66
REMARK SMILES IDX 34 67 31 68 27 69 28 70 29 71 30 72 56 73 57 74 65 75 58 76
REMARK SMILES IDX 64 77 66 78 63 79 59 80 60 81 61 82 62 83 41 84 42 85 50 86
REMARK SMILES IDX 43 87 49 88 51 89 48 90 44 91 45 92 46 93 47 94
REMARK H PARENT 5 7 12 28 71 47 39 58
REMARK Flexibility Score: inf
ROOT
ATOM      1  C   UNL A   1      33.065  28.757  25.656  1.00  0.00     0.002 C 
ENDROOT
BRANCH   1   2
ATOM      2  C   UNL A   1      32.718  27.628  26.638  1.00  0.00     0.021 C 
BRANCH   2   3
ATOM      3  C   UNL A   1      31.974  26.457  25.988  1.00  0.00     0.116 C 
BRANCH   3   4
ATOM      4  N   UNL A   1      32.550  26.167  24.692  1.00  0.00    -0.356 N 
ATOM      5  C   UNL A   1      33.536  25.290  24.350  1.00  0.00     0.227 C 
ATOM      6  O   UNL A   1      34.014  25.406  23.219  1.00  0.00    -0.274 OA
ATOM      7  H   UNL A   1      32.171  26.681  23.943  1.00  0.00     0.163 HD
BRANCH   5   8
ATOM      8  C   UNL A   1      33.977  24.195  25.339  1.00  0.00     0.108 C 
ATOM      9  C   UNL A   1      35.489  24.238  25.609  1.00  0.00     0.023 C 
BRANCH   8  10
ATOM     10  C   UNL A   1      33.517  22.821  24.855  1.00  0.00    -0.000 A 
ATOM     11  C   UNL A   1      32.992  22.610  23.574  1.00  0.00     0.008 A 
ATOM     12  C   UNL A   1      33.567  21.726  25.725  1.00  0.00     0.127 A 
ATOM     13  C   UNL A   1      32.569  21.343  23.173  1.00  0.00     0.004 A 
ATOM     14  C   UNL A   1      33.103  20.463  25.344  1.00  0.00     0.043 A 
ATOM     15  F   UNL A   1      34.078  21.876  26.955  1.00  0.00    -0.207 F 
ATOM     16  C   UNL A   1      32.590  20.255  24.056  1.00  0.00    -0.041 A 
BRANCH  16  17
ATOM     17  C   UNL A   1      32.141  18.885  23.605  1.00  0.00     0.074 C 
BRANCH  17  18
ATOM     18  C   UNL A   1      33.017  17.854  24.244  1.00  0.00    -0.005 A 
ATOM     19  C   UNL A   1      34.340  17.448  23.889  1.00  0.00     0.046 A 
ATOM     20  C   UNL A   1      32.733  17.141  25.396  1.00  0.00     0.198 A 
ATOM     21  C   UNL A   1      34.741  16.521  24.821  1.00  0.00     0.195 A 
ATOM     22  O   UNL A   1      33.769  16.337  25.747  1.00  0.00    -0.472 OA
ENDBRANCH  17  18
ENDBRANCH  16  17
ENDBRANCH   8  10
ENDBRANCH   5   8
ENDBRANCH   3   4
ENDBRANCH   2   3
ENDBRANCH   1   2
BRANCH   1  23
ATOM     23  C   UNL A   1      31.956  29.793  25.455  1.00  0.00     0.002 C 
BRANCH  23  24
ATOM     24  C   UNL A   1      31.751  30.744  26.636  1.00  0.00     0.021 C 
BRANCH  24  25
ATOM     25  C   UNL A   1      33.008  31.500  27.054  1.00  0.00     0.116 C 
BRANCH  25  26
ATOM     26  N   UNL A   1      32.739  32.915  27.262  1.00  0.00    -0.352 N 
ATOM     27  C   UNL A   1      33.258  33.763  28.206  1.00  0.00     0.251 C 
ATOM     28  H   UNL A   1      32.095  33.320  26.637  1.00  0.00     0.163 HD
ATOM     29  O   UNL A   1      32.742  34.865  28.389  1.00  0.00    -0.269 OA
BRANCH  27  30
ATOM     30  C   UNL A   1      34.421  33.338  29.014  1.00  0.00     0.039 A 
ATOM     31  C   UNL A   1      34.204  32.650  30.208  1.00  0.00     0.014 A 
ATOM     32  C   UNL A   1      35.724  33.614  28.586  1.00  0.00     0.014 A 
ATOM     33  C   UNL A   1      35.295  32.187  30.946  1.00  0.00     0.010 A 
ATOM     34  C   UNL A   1      36.807  33.083  29.281  1.00  0.00     0.010 A 
ATOM     35  C   UNL A   1      36.605  32.368  30.471  1.00  0.00    -0.014 A 
BRANCH  35  36
ATOM     36  C   UNL A   1      37.774  31.817  31.207  1.00  0.00     0.031 A 
ATOM     37  C   UNL A   1      38.625  30.746  30.579  1.00  0.00     0.074 A 
ATOM     38  C   UNL A   1      38.032  32.239  32.461  1.00  0.00     0.049 A 
ATOM     39  N   UNL A   1      39.637  30.090  31.085  1.00  0.00    -0.248 NA
ATOM     40  C   UNL A   1      38.267  30.337  29.213  1.00  0.00     0.031 C 
ATOM     41  C   UNL A   1      37.254  33.244  33.189  1.00  0.00     0.029 A 
ATOM     42  N   UNL A   1      39.011  31.873  33.349  1.00  0.00    -0.354 N 
ATOM     43  C   UNL A   1      40.032  29.185  30.106  1.00  0.00     0.074 A 
ATOM     44  C   UNL A   1      39.103  29.331  29.005  1.00  0.00     0.031 C 
ATOM     45  C   UNL A   1      37.800  33.430  34.400  1.00  0.00     0.029 A 
ATOM     46  C   UNL A   1      38.932  32.523  34.560  1.00  0.00     0.049 A 
ATOM     47  H   UNL A   1      39.706  31.208  33.140  1.00  0.00     0.167 HD
ATOM     48  C   UNL A   1      41.082  28.327  30.116  1.00  0.00     0.034 A 
ATOM     49  C   UNL A   1      39.673  32.390  35.679  1.00  0.00     0.034 A 
ATOM     50  C   UNL A   1      42.000  28.201  31.223  1.00  0.00     0.049 A 
ATOM     51  C   UNL A   1      40.815  31.405  35.681  1.00  0.00     0.074 A 
ATOM     52  C   UNL A   1      43.131  27.408  31.318  1.00  0.00     0.029 A 
ATOM     53  N   UNL A   1      41.885  28.871  32.435  1.00  0.00    -0.354 N 
ATOM     54  N   UNL A   1      41.211  30.596  34.724  1.00  0.00    -0.248 NA
ATOM     55  C   UNL A   1      41.617  31.322  36.908  1.00  0.00     0.031 C 
ATOM     56  C   UNL A   1      43.648  27.534  32.611  1.00  0.00     0.029 A 
ATOM     57  C   UNL A   1      42.900  28.478  33.295  1.00  0.00     0.049 A 
ATOM     58  H   UNL A   1      41.185  29.529  32.652  1.00  0.00     0.167 HD
ATOM     59  C   UNL A   1      42.328  29.933  35.225  1.00  0.00     0.074 A 
ATOM     60  C   UNL A   1      42.550  30.448  36.560  1.00  0.00     0.031 C 
ATOM     61  C   UNL A   1      43.103  28.988  34.632  1.00  0.00     0.034 A 
BRANCH  48  62
ATOM     62  C   UNL A   1      41.271  27.442  28.905  1.00  0.00     0.023 A 
ATOM     63  C   UNL A   1      42.286  27.681  27.961  1.00  0.00     0.031 A 
ATOM     64  C   UNL A   1      40.405  26.359  28.673  1.00  0.00     0.131 A 
ATOM     65  C   UNL A   1      42.356  26.907  26.793  1.00  0.00     0.055 A 
ATOM     66  C   UNL A   1      40.537  25.534  27.554  1.00  0.00     0.041 A 
ATOM     67  F   UNL A   1      39.400  26.091  29.524  1.00  0.00    -0.206 F 
ATOM     68  C   UNL A   1      41.506  25.818  26.596  1.00  0.00     0.022 A 
BRANCH  65  69
ATOM     69  S   UNL A   1      43.462  27.449  25.462  1.00  0.00     0.124 S 
ATOM     70  O   UNL A   1      44.257  26.245  25.232  1.00  0.00    -0.237 OA
ATOM     71  O   UNL A   1      42.528  27.810  24.402  1.00  0.00    -0.237 OA
ATOM     72  O   UNL A   1      44.195  28.564  26.058  1.00  0.00    -0.744 OA
ENDBRANCH  65  69
ENDBRANCH  48  62
BRANCH  49  73
ATOM     73  C   UNL A   1      39.349  33.189  36.896  1.00  0.00     0.023 A 
ATOM     74  C   UNL A   1      39.947  34.438  37.129  1.00  0.00     0.031 A 
ATOM     75  C   UNL A   1      38.461  32.695  37.869  1.00  0.00     0.131 A 
ATOM     76  C   UNL A   1      39.688  35.126  38.324  1.00  0.00     0.055 A 
ATOM     77  C   UNL A   1      38.159  33.411  39.028  1.00  0.00     0.041 A 
ATOM     78  F   UNL A   1      37.857  31.507  37.697  1.00  0.00    -0.206 F 
ATOM     79  C   UNL A   1      38.786  34.630  39.267  1.00  0.00     0.022 A 
BRANCH  76  80
ATOM     80  S   UNL A   1      40.622  36.642  38.674  1.00  0.00     0.124 S 
ATOM     81  O   UNL A   1      41.383  36.255  39.856  1.00  0.00    -0.237 OA
ATOM     82  O   UNL A   1      41.389  36.816  37.445  1.00  0.00    -0.237 OA
ATOM     83  O   UNL A   1      39.577  37.638  38.902  1.00  0.00    -0.744 OA
ENDBRANCH  76  80
ENDBRANCH  49  73
BRANCH  61  84
ATOM     84  C   UNL A   1      44.295  28.486  35.414  1.00  0.00     0.023 A 
ATOM     85  C   UNL A   1      44.183  27.447  36.355  1.00  0.00     0.031 A 
ATOM     86  C   UNL A   1      45.563  29.061  35.215  1.00  0.00     0.131 A 
ATOM     87  C   UNL A   1      45.304  27.057  37.102  1.00  0.00     0.055 A 
ATOM     88  C   UNL A   1      46.689  28.621  35.911  1.00  0.00     0.041 A 
ATOM     89  F   UNL A   1      45.729  30.060  34.334  1.00  0.00    -0.206 F 
ATOM     90  C   UNL A   1      46.561  27.622  36.871  1.00  0.00     0.022 A 
BRANCH  87  91
ATOM     91  S   UNL A   1      45.080  25.867  38.454  1.00  0.00     0.124 S 
ATOM     92  O   UNL A   1      46.459  25.532  38.794  1.00  0.00    -0.237 OA
ATOM     93  O   UNL A   1      44.352  26.653  39.444  1.00  0.00    -0.237 OA
ATOM     94  O   UNL A   1      44.313  24.787  37.835  1.00  0.00    -0.744 OA
ENDBRANCH  87  91
ENDBRANCH  61  84
ENDBRANCH  35  36
ENDBRANCH  27  30
ENDBRANCH  25  26
ENDBRANCH  24  25
ENDBRANCH  23  24
ENDBRANCH   1  23
TORSDOF 19
ENDMDL
MODEL 2
REMARK VINA RESULT:     -11.1      2.529      8.199
REMARK SMILES C[C@@H](C(=O)NCCCCCCNC(=O)c1ccc(-c2c3nc(c(-c4cc(S(=O)(=O)[O-])ccc4F)c4ccc([nH]4)c(-c4cc(S(=O)(=O)[O-])ccc4F)c4nc(c(-c5cc(S(=O)(=O)[O-])ccc5F)c5ccc2[nH]5)C=C4)C=C3)cc1)c1ccc(Cc2ccoc2)cc1F
REMARK SMILES IDX 8 1 7 2 6 3 5 4 3 5 4 6 2 8 1 9 78 10 79 11 89 12 80 13
REMARK SMILES IDX 88 14 90 15 81 16 82 17 83 18 84 19 87 20 85 21 86 22 9 23
REMARK SMILES IDX 10 24 11 25 12 26 13 27 14 29 15 30 16 31 77 32 17 33 76 34
REMARK SMILES IDX 18 35 19 36 20 37 70 38 21 39 75 40 69 41 71 42 22 43 74 44
REMARK SMILES IDX 68 45 67 46 23 48 55 49 35 50 54 51 36 52 39 53 53 54 72 55
REMARK SMILES IDX 37 56 38 57 52 59 73 60 40 61 24 62 25 63 33 64 26 65 32 66
REMARK SMILES IDX 34 67 31 68 27 69 28 70 29 71 30 72 56 73 57 74 65 75 58 76
REMARK SMILES IDX 64 77 66 78 63 79 59 80 60 81 61 82 62 83 41 84 42 85 50 86
REMARK SMILES IDX 43 87 49 88 51 89 48 90 44 91 45 92 46 93 47 94
REMARK H PARENT 5 7 12 28 71 47 39 58
REMARK Flexibility Score: inf
ROOT
ATOM      1  C   UNL A   1      34.890  31.841  28.396  1.00  0.00     0.002 C 
ENDROOT
BRANCH   1   2
ATOM      2  C   UNL A   1      33.893  31.022  27.563  1.00  0.00     0.021 C 
BRANCH   2   3
ATOM      3  C   UNL A   1      34.332  29.573  27.331  1.00  0.00     0.116 C 
BRANCH   3   4
ATOM      4  N   UNL A   1      33.266  28.670  27.710  1.00  0.00    -0.356 N 
ATOM      5  C   UNL A   1      32.307  28.077  26.943  1.00  0.00     0.227 C 
ATOM      6  O   UNL A   1      31.369  27.545  27.541  1.00  0.00    -0.274 OA
ATOM      7  H   UNL A   1      33.228  28.449  28.668  1.00  0.00     0.163 HD
BRANCH   5   8
ATOM      8  C   UNL A   1      32.445  28.057  25.410  1.00  0.00     0.108 C 
ATOM      9  C   UNL A   1      31.100  28.301  24.708  1.00  0.00     0.023 C 
BRANCH   8  10
ATOM     10  C   UNL A   1      33.108  26.760  24.950  1.00  0.00    -0.000 A 
ATOM     11  C   UNL A   1      33.757  25.890  25.835  1.00  0.00     0.008 A 
ATOM     12  C   UNL A   1      33.124  26.432  23.589  1.00  0.00     0.127 A 
ATOM     13  C   UNL A   1      34.364  24.722  25.375  1.00  0.00     0.004 A 
ATOM     14  C   UNL A   1      33.770  25.286  23.116  1.00  0.00     0.043 A 
ATOM     15  F   UNL A   1      32.501  27.227  22.706  1.00  0.00    -0.207 F 
ATOM     16  C   UNL A   1      34.407  24.413  24.008  1.00  0.00    -0.041 A 
BRANCH  16  17
ATOM     17  C   UNL A   1      35.056  23.137  23.525  1.00  0.00     0.074 C 
BRANCH  17  18
ATOM     18  C   UNL A   1      34.271  21.971  24.035  1.00  0.00    -0.005 A 
ATOM     19  C   UNL A   1      32.939  21.568  23.711  1.00  0.00     0.046 A 
ATOM     20  C   UNL A   1      34.738  20.977  24.878  1.00  0.00     0.198 A 
ATOM     21  C   UNL A   1      32.697  20.396  24.387  1.00  0.00     0.195 A 
ATOM     22  O   UNL A   1      33.793  20.026  25.091  1.00  0.00    -0.472 OA
ENDBRANCH  17  18
ENDBRANCH  16  17
ENDBRANCH   8  10
ENDBRANCH   5   8
ENDBRANCH   3   4
ENDBRANCH   2   3
ENDBRANCH   1   2
BRANCH   1  23
ATOM     23  C   UNL A   1      34.877  33.346  28.112  1.00  0.00     0.002 C 
BRANCH  23  24
ATOM     24  C   UNL A   1      33.551  34.042  28.429  1.00  0.00     0.021 C 
BRANCH  24  25
ATOM     25  C   UNL A   1      33.699  35.494  28.872  1.00  0.00     0.116 C 
BRANCH  25  26
ATOM     26  N   UNL A   1      32.982  35.752  30.112  1.00  0.00    -0.352 N 
ATOM     27  C   UNL A   1      33.165  35.186  31.348  1.00  0.00     0.251 C 
ATOM     28  H   UNL A   1      32.267  36.426  30.055  1.00  0.00     0.163 HD
ATOM     29  O   UNL A   1      32.316  35.345  32.224  1.00  0.00    -0.269 OA
BRANCH  27  30
ATOM     30  C   UNL A   1      34.370  34.372  31.611  1.00  0.00     0.039 A 
ATOM     31  C   UNL A   1      35.629  34.947  31.436  1.00  0.00     0.014 A 
ATOM     32  C   UNL A   1      34.254  33.045  32.037  1.00  0.00     0.014 A 
ATOM     33  C   UNL A   1      36.774  34.208  31.744  1.00  0.00     0.010 A 
ATOM     34  C   UNL A   1      35.391  32.339  32.418  1.00  0.00     0.010 A 
ATOM     35  C   UNL A   1      36.664  32.911  32.273  1.00  0.00    -0.014 A 
BRANCH  35  36
ATOM     36  C   UNL A   1      37.869  32.139  32.674  1.00  0.00     0.031 A 
ATOM     37  C   UNL A   1      38.590  32.476  33.952  1.00  0.00     0.074 A 
ATOM     38  C   UNL A   1      38.347  31.176  31.861  1.00  0.00     0.049 A 
ATOM     39  N   UNL A   1      39.695  31.971  34.437  1.00  0.00    -0.248 NA
ATOM     40  C   UNL A   1      38.008  33.547  34.774  1.00  0.00     0.031 C 
ATOM     41  C   UNL A   1      37.756  30.786  30.578  1.00  0.00     0.029 A 
ATOM     42  N   UNL A   1      39.440  30.356  31.983  1.00  0.00    -0.354 N 
ATOM     43  C   UNL A   1      39.946  32.667  35.615  1.00  0.00     0.074 A 
ATOM     44  C   UNL A   1      38.914  33.675  35.731  1.00  0.00     0.031 C 
ATOM     45  C   UNL A   1      38.479  29.790  30.046  1.00  0.00     0.029 A 
ATOM     46  C   UNL A   1      39.614  29.503  30.917  1.00  0.00     0.049 A 
ATOM     47  H   UNL A   1      40.043  30.376  32.760  1.00  0.00     0.167 HD
ATOM     48  C   UNL A   1      40.933  32.469  36.524  1.00  0.00     0.034 A 
ATOM     49  C   UNL A   1      40.587  28.605  30.660  1.00  0.00     0.034 A 
ATOM     50  C   UNL A   1      41.950  31.453  36.391  1.00  0.00     0.049 A 
ATOM     51  C   UNL A   1      41.694  28.426  31.668  1.00  0.00     0.074 A 
ATOM     52  C   UNL A   1      42.961  31.126  37.279  1.00  0.00     0.029 A 
ATOM     53  N   UNL A   1      42.098  30.611  35.297  1.00  0.00    -0.354 N 
ATOM     54  N   UNL A   1      41.885  29.053  32.807  1.00  0.00    -0.248 NA
ATOM     55  C   UNL A   1      42.710  27.410  31.363  1.00  0.00     0.031 C 
ATOM     56  C   UNL A   1      43.766  30.149  36.685  1.00  0.00     0.029 A 
ATOM     57  C   UNL A   1      43.206  29.795  35.468  1.00  0.00     0.049 A 
ATOM     58  H   UNL A   1      41.503  30.595  34.512  1.00  0.00     0.167 HD
ATOM     59  C   UNL A   1      43.026  28.483  33.367  1.00  0.00     0.074 A 
ATOM     60  C   UNL A   1      43.468  27.454  32.449  1.00  0.00     0.031 C 
ATOM     61  C   UNL A   1      43.647  28.781  34.538  1.00  0.00     0.034 A 
BRANCH  48  62
ATOM     62  C   UNL A   1      40.972  33.390  37.722  1.00  0.00     0.023 A 
ATOM     63  C   UNL A   1      40.150  33.184  38.845  1.00  0.00     0.031 A 
ATOM     64  C   UNL A   1      41.822  34.511  37.731  1.00  0.00     0.131 A 
ATOM     65  C   UNL A   1      40.132  34.125  39.885  1.00  0.00     0.055 A 
ATOM     66  C   UNL A   1      41.866  35.395  38.812  1.00  0.00     0.041 A 
ATOM     67  F   UNL A   1      42.614  34.778  36.680  1.00  0.00    -0.206 F 
ATOM     68  C   UNL A   1      41.005  35.214  39.889  1.00  0.00     0.022 A 
BRANCH  65  69
ATOM     69  S   UNL A   1      38.836  33.993  41.148  1.00  0.00     0.124 S 
ATOM     70  O   UNL A   1      38.572  35.399  41.445  1.00  0.00    -0.237 OA
ATOM     71  O   UNL A   1      37.779  33.279  40.442  1.00  0.00    -0.237 OA
ATOM     72  O   UNL A   1      39.484  33.249  42.226  1.00  0.00    -0.744 OA
ENDBRANCH  65  69
ENDBRANCH  48  62
BRANCH  49  73
ATOM     73  C   UNL A   1      40.575  27.825  29.389  1.00  0.00     0.023 A 
ATOM     74  C   UNL A   1      41.468  28.118  28.346  1.00  0.00     0.031 A 
ATOM     75  C   UNL A   1      39.638  26.795  29.182  1.00  0.00     0.131 A 
ATOM     76  C   UNL A   1      41.375  27.423  27.129  1.00  0.00     0.055 A 
ATOM     77  C   UNL A   1      39.590  26.067  27.993  1.00  0.00     0.041 A 
ATOM     78  F   UNL A   1      38.762  26.470  30.147  1.00  0.00    -0.206 F 
ATOM     79  C   UNL A   1      40.454  26.389  26.952  1.00  0.00     0.022 A 
BRANCH  76  80
ATOM     80  S   UNL A   1      42.418  27.956  25.743  1.00  0.00     0.124 S 
ATOM     81  O   UNL A   1      41.729  29.162  25.301  1.00  0.00    -0.237 OA
ATOM     82  O   UNL A   1      43.708  28.155  26.394  1.00  0.00    -0.237 OA
ATOM     83  O   UNL A   1      42.355  26.826  24.818  1.00  0.00    -0.744 OA
ENDBRANCH  76  80
ENDBRANCH  49  73
BRANCH  61  84
ATOM     84  C   UNL A   1      44.850  27.945  34.911  1.00  0.00     0.023 A 
ATOM     85  C   UNL A   1      46.159  28.336  34.579  1.00  0.00     0.031 A 
ATOM     86  C   UNL A   1      44.679  26.734  35.606  1.00  0.00     0.131 A 
ATOM     87  C   UNL A   1      47.239  27.496  34.891  1.00  0.00     0.055 A 
ATOM     88  C   UNL A   1      45.763  25.937  35.974  1.00  0.00     0.041 A 
ATOM     89  F   UNL A   1      43.452  26.307  35.944  1.00  0.00    -0.206 F 
ATOM     90  C   UNL A   1      47.052  26.310  35.605  1.00  0.00     0.022 A 
BRANCH  87  91
ATOM     91  S   UNL A   1      48.887  27.926  34.262  1.00  0.00     0.124 S 
ATOM     92  O   UNL A   1      48.759  27.612  32.843  1.00  0.00    -0.237 OA
ATOM     93  O   UNL A   1      48.989  29.342  34.596  1.00  0.00    -0.237 OA
ATOM     94  O   UNL A   1      49.780  27.046  35.015  1.00  0.00    -0.744 OA
ENDBRANCH  87  91
ENDBRANCH  61  84
ENDBRANCH  35  36
ENDBRANCH  27  30
ENDBRANCH  25  26
ENDBRANCH  24  25
ENDBRANCH  23  24
ENDBRANCH   1  23
TORSDOF 19
ENDMDL
MODEL 3
REMARK VINA RESULT:     -11.1      2.218      2.815
REMARK SMILES C[C@@H](C(=O)NCCCCCCNC(=O)c1ccc(-c2c3nc(c(-c4cc(S(=O)(=O)[O-])ccc4F)c4ccc([nH]4)c(-c4cc(S(=O)(=O)[O-])ccc4F)c4nc(c(-c5cc(S(=O)(=O)[O-])ccc5F)c5ccc2[nH]5)C=C4)C=C3)cc1)c1ccc(Cc2ccoc2)cc1F
REMARK SMILES IDX 8 1 7 2 6 3 5 4 3 5 4 6 2 8 1 9 78 10 79 11 89 12 80 13
REMARK SMILES IDX 88 14 90 15 81 16 82 17 83 18 84 19 87 20 85 21 86 22 9 23
REMARK SMILES IDX 10 24 11 25 12 26 13 27 14 29 15 30 16 31 77 32 17 33 76 34
REMARK SMILES IDX 18 35 19 36 20 37 70 38 21 39 75 40 69 41 71 42 22 43 74 44
REMARK SMILES IDX 68 45 67 46 23 48 55 49 35 50 54 51 36 52 39 53 53 54 72 55
REMARK SMILES IDX 37 56 38 57 52 59 73 60 40 61 24 62 25 63 33 64 26 65 32 66
REMARK SMILES IDX 34 67 31 68 27 69 28 70 29 71 30 72 56 73 57 74 65 75 58 76
REMARK SMILES IDX 64 77 66 78 63 79 59 80 60 81 61 82 62 83 41 84 42 85 50 86
REMARK SMILES IDX 43 87 49 88 51 89 48 90 44 91 45 92 46 93 47 94
REMARK H PARENT 5 7 12 28 71 47 39 58
REMARK Flexibility Score: inf
ROOT
ATOM      1  C   UNL A   1      33.218  29.130  27.265  1.00  0.00     0.002 C 
ENDROOT
BRANCH   1   2
ATOM      2  C   UNL A   1      31.804  29.236  26.674  1.00  0.00     0.021 C 
BRANCH   2   3
ATOM      3  C   UNL A   1      31.743  30.036  25.369  1.00  0.00     0.116 C 
BRANCH   3   4
ATOM      4  N   UNL A   1      31.175  29.218  24.318  1.00  0.00    -0.356 N 
ATOM      5  C   UNL A   1      31.792  28.454  23.373  1.00  0.00     0.227 C 
ATOM      6  O   UNL A   1      31.092  28.048  22.443  1.00  0.00    -0.274 OA
ATOM      7  H   UNL A   1      30.191  29.211  24.281  1.00  0.00     0.163 HD
BRANCH   5   8
ATOM      8  C   UNL A   1      33.284  28.100  23.516  1.00  0.00     0.108 C 
ATOM      9  C   UNL A   1      34.121  28.652  22.352  1.00  0.00     0.023 C 
BRANCH   8  10
ATOM     10  C   UNL A   1      33.462  26.593  23.691  1.00  0.00    -0.000 A 
ATOM     11  C   UNL A   1      33.663  25.998  24.941  1.00  0.00     0.008 A 
ATOM     12  C   UNL A   1      33.478  25.760  22.565  1.00  0.00     0.127 A 
ATOM     13  C   UNL A   1      33.836  24.618  25.059  1.00  0.00     0.004 A 
ATOM     14  C   UNL A   1      33.695  24.383  22.672  1.00  0.00     0.043 A 
ATOM     15  F   UNL A   1      33.272  26.284  21.348  1.00  0.00    -0.207 F 
ATOM     16  C   UNL A   1      33.884  23.791  23.929  1.00  0.00    -0.041 A 
BRANCH  16  17
ATOM     17  C   UNL A   1      34.058  22.298  24.071  1.00  0.00     0.074 C 
BRANCH  17  18
ATOM     18  C   UNL A   1      35.438  22.017  24.575  1.00  0.00    -0.005 A 
ATOM     19  C   UNL A   1      36.694  22.204  23.919  1.00  0.00     0.046 A 
ATOM     20  C   UNL A   1      35.773  21.594  25.849  1.00  0.00     0.198 A 
ATOM     21  C   UNL A   1      37.674  21.865  24.821  1.00  0.00     0.195 A 
ATOM     22  O   UNL A   1      37.119  21.502  26.002  1.00  0.00    -0.472 OA
ENDBRANCH  17  18
ENDBRANCH  16  17
ENDBRANCH   8  10
ENDBRANCH   5   8
ENDBRANCH   3   4
ENDBRANCH   2   3
ENDBRANCH   1   2
BRANCH   1  23
ATOM     23  C   UNL A   1      34.001  30.444  27.289  1.00  0.00     0.002 C 
BRANCH  23  24
ATOM     24  C   UNL A   1      33.226  31.637  27.854  1.00  0.00     0.021 C 
BRANCH  24  25
ATOM     25  C   UNL A   1      33.644  32.984  27.274  1.00  0.00     0.116 C 
BRANCH  25  26
ATOM     26  N   UNL A   1      33.078  34.092  28.028  1.00  0.00    -0.352 N 
ATOM     27  C   UNL A   1      33.368  34.505  29.303  1.00  0.00     0.251 C 
ATOM     28  H   UNL A   1      32.392  34.619  27.558  1.00  0.00     0.163 HD
ATOM     29  O   UNL A   1      32.627  35.308  29.870  1.00  0.00    -0.269 OA
BRANCH  27  30
ATOM     30  C   UNL A   1      34.558  33.967  29.996  1.00  0.00     0.039 A 
ATOM     31  C   UNL A   1      34.383  33.039  31.024  1.00  0.00     0.014 A 
ATOM     32  C   UNL A   1      35.843  34.374  29.625  1.00  0.00     0.014 A 
ATOM     33  C   UNL A   1      35.501  32.476  31.642  1.00  0.00     0.010 A 
ATOM     34  C   UNL A   1      36.955  33.753  30.187  1.00  0.00     0.010 A 
ATOM     35  C   UNL A   1      36.796  32.800  31.204  1.00  0.00    -0.014 A 
BRANCH  35  36
ATOM     36  C   UNL A   1      37.995  32.153  31.801  1.00  0.00     0.031 A 
ATOM     37  C   UNL A   1      38.690  31.034  31.074  1.00  0.00     0.074 A 
ATOM     38  C   UNL A   1      38.420  32.534  33.023  1.00  0.00     0.049 A 
ATOM     39  N   UNL A   1      39.701  30.298  31.459  1.00  0.00    -0.248 NA
ATOM     40  C   UNL A   1      38.155  30.675  29.752  1.00  0.00     0.031 C 
ATOM     41  C   UNL A   1      37.803  33.580  33.841  1.00  0.00     0.029 A 
ATOM     42  N   UNL A   1      39.461  32.083  33.794  1.00  0.00    -0.354 N 
ATOM     43  C   UNL A   1      39.917  29.384  30.434  1.00  0.00     0.074 A 
ATOM     44  C   UNL A   1      38.887  29.615  29.443  1.00  0.00     0.031 C 
ATOM     45  C   UNL A   1      38.490  33.705  34.986  1.00  0.00     0.029 A 
ATOM     46  C   UNL A   1      39.563  32.715  35.011  1.00  0.00     0.049 A 
ATOM     47  H   UNL A   1      40.077  31.373  33.503  1.00  0.00     0.167 HD
ATOM     48  C   UNL A   1      40.896  28.451  30.320  1.00  0.00     0.034 A 
ATOM     49  C   UNL A   1      40.411  32.510  36.040  1.00  0.00     0.034 A 
ATOM     50  C   UNL A   1      41.917  28.240  31.318  1.00  0.00     0.049 A 
ATOM     51  C   UNL A   1      41.470  31.445  35.907  1.00  0.00     0.074 A 
ATOM     52  C   UNL A   1      42.990  27.365  31.279  1.00  0.00     0.029 A 
ATOM     53  N   UNL A   1      41.987  28.896  32.540  1.00  0.00    -0.354 N 
ATOM     54  N   UNL A   1      41.697  30.627  34.905  1.00  0.00    -0.248 NA
ATOM     55  C   UNL A   1      42.393  31.284  37.037  1.00  0.00     0.031 C 
ATOM     56  C   UNL A   1      43.655  27.432  32.508  1.00  0.00     0.029 A 
ATOM     57  C   UNL A   1      43.057  28.416  33.280  1.00  0.00     0.049 A 
ATOM     58  H   UNL A   1      41.365  29.599  32.839  1.00  0.00     0.167 HD
ATOM     59  C   UNL A   1      42.810  29.875  35.274  1.00  0.00     0.074 A 
ATOM     60  C   UNL A   1      43.215  30.350  36.581  1.00  0.00     0.031 C 
ATOM     61  C   UNL A   1      43.444  28.887  34.590  1.00  0.00     0.034 A 
BRANCH  48  62
ATOM     62  C   UNL A   1      40.885  27.575  29.088  1.00  0.00     0.023 A 
ATOM     63  C   UNL A   1      41.816  27.745  28.048  1.00  0.00     0.031 A 
ATOM     64  C   UNL A   1      39.909  26.574  28.935  1.00  0.00     0.131 A 
ATOM     65  C   UNL A   1      41.701  26.989  26.871  1.00  0.00     0.055 A 
ATOM     66  C   UNL A   1      39.856  25.762  27.800  1.00  0.00     0.041 A 
ATOM     67  F   UNL A   1      38.976  26.377  29.881  1.00  0.00    -0.206 F 
ATOM     68  C   UNL A   1      40.744  25.979  26.751  1.00  0.00     0.022 A 
BRANCH  65  69
ATOM     69  S   UNL A   1      42.710  27.459  25.439  1.00  0.00     0.124 S 
ATOM     70  O   UNL A   1      41.956  28.591  24.907  1.00  0.00    -0.237 OA
ATOM     71  O   UNL A   1      43.995  27.777  26.050  1.00  0.00    -0.237 OA
ATOM     72  O   UNL A   1      42.694  26.261  24.601  1.00  0.00    -0.744 OA
ENDBRANCH  65  69
ENDBRANCH  48  62
BRANCH  49  73
ATOM     73  C   UNL A   1      40.282  33.310  37.293  1.00  0.00     0.023 A 
ATOM     74  C   UNL A   1      39.571  32.819  38.400  1.00  0.00     0.031 A 
ATOM     75  C   UNL A   1      40.837  34.599  37.388  1.00  0.00     0.131 A 
ATOM     76  C   UNL A   1      39.394  33.630  39.533  1.00  0.00     0.055 A 
ATOM     77  C   UNL A   1      40.710  35.377  38.539  1.00  0.00     0.041 A 
ATOM     78  F   UNL A   1      41.529  35.118  36.360  1.00  0.00    -0.206 F 
ATOM     79  C   UNL A   1      39.972  34.897  39.616  1.00  0.00     0.022 A 
BRANCH  76  80
ATOM     80  S   UNL A   1      38.313  33.036  40.865  1.00  0.00     0.124 S 
ATOM     81  O   UNL A   1      38.615  33.982  41.933  1.00  0.00    -0.237 OA
ATOM     82  O   UNL A   1      36.992  33.154  40.258  1.00  0.00    -0.237 OA
ATOM     83  O   UNL A   1      38.775  31.669  41.093  1.00  0.00    -0.744 OA
ENDBRANCH  76  80
ENDBRANCH  49  73
BRANCH  61  84
ATOM     84  C   UNL A   1      44.673  28.286  35.231  1.00  0.00     0.023 A 
ATOM     85  C   UNL A   1      44.605  27.140  36.044  1.00  0.00     0.031 A 
ATOM     86  C   UNL A   1      45.935  28.874  35.026  1.00  0.00     0.131 A 
ATOM     87  C   UNL A   1      45.764  26.656  36.667  1.00  0.00     0.055 A 
ATOM     88  C   UNL A   1      47.094  28.346  35.594  1.00  0.00     0.041 A 
ATOM     89  F   UNL A   1      46.061  29.973  34.265  1.00  0.00    -0.206 F 
ATOM     90  C   UNL A   1      47.011  27.238  36.431  1.00  0.00     0.022 A 
BRANCH  87  91
ATOM     91  S   UNL A   1      45.606  25.310  37.876  1.00  0.00     0.124 S 
ATOM     92  O   UNL A   1      45.015  25.999  39.018  1.00  0.00    -0.237 OA
ATOM     93  O   UNL A   1      44.737  24.367  37.180  1.00  0.00    -0.237 OA
ATOM     94  O   UNL A   1      46.983  24.858  38.066  1.00  0.00    -0.744 OA
ENDBRANCH  87  91
ENDBRANCH  61  84
ENDBRANCH  35  36
ENDBRANCH  27  30
ENDBRANCH  25  26
ENDBRANCH  24  25
ENDBRANCH  23  24
ENDBRANCH   1  23
TORSDOF 19
ENDMDL
