MODEL 1
REMARK VINA RESULT:     -11.2      0.000      0.000
REMARK SMILES COCc1nc2ccccc2n1CC(=O)NCCCCCCNC(=O)c1ccc(-c2c3nc(c(-c4cc(S(=O)(=O)[O-])ccc4F)c4ccc([nH]4)c(-c4cc(S(=O)(=O)[O-])ccc4F)c4nc(c(-c5cc(S(=O)(=O)[O-])ccc5F)c5ccc2[nH]5)C=C4)C=C3)cc1
REMARK SMILES IDX 19 1 18 2 17 3 16 4 14 5 15 6 13 8 12 9 4 10 5 11 6 12 11 13
REMARK SMILES IDX 7 14 10 15 8 16 9 17 3 18 2 19 1 20 20 21 21 22 22 23 23 24
REMARK SMILES IDX 24 25 25 27 26 28 27 29 88 30 28 31 87 32 29 33 30 34 31 35
REMARK SMILES IDX 81 36 32 37 86 38 80 39 82 40 33 41 85 42 79 43 78 44 34 46
REMARK SMILES IDX 66 47 46 48 65 49 47 50 50 51 64 52 83 53 48 54 49 55 63 57
REMARK SMILES IDX 84 58 51 59 35 60 36 61 44 62 37 63 43 64 45 65 42 66 38 67
REMARK SMILES IDX 39 68 40 69 41 70 67 71 68 72 76 73 69 74 75 75 77 76 74 77
REMARK SMILES IDX 70 78 71 79 72 80 73 81 52 82 53 83 61 84 54 85 60 86 62 87
REMARK SMILES IDX 59 88 55 89 56 90 57 91 58 92
REMARK H PARENT 16 7 23 26 82 45 50 56
REMARK Flexibility Score: inf
ROOT
ATOM      1  C   UNL A   1      31.906  27.503  25.967  1.00  0.00     0.002 C 
ENDROOT
BRANCH   1   2
ATOM      2  C   UNL A   1      32.659  26.176  26.124  1.00  0.00     0.021 C 
BRANCH   2   3
ATOM      3  C   UNL A   1      31.741  24.960  26.184  1.00  0.00     0.116 C 
BRANCH   3   4
ATOM      4  N   UNL A   1      31.623  24.319  24.892  1.00  0.00    -0.355 N 
ATOM      5  C   UNL A   1      31.789  23.007  24.564  1.00  0.00     0.240 C 
ATOM      6  O   UNL A   1      31.453  22.661  23.427  1.00  0.00    -0.273 OA
ATOM      7  H   UNL A   1      31.389  24.914  24.145  1.00  0.00     0.163 HD
BRANCH   5   8
ATOM      8  C   UNL A   1      32.222  21.989  25.601  1.00  0.00     0.223 C 
BRANCH   8   9
ATOM      9  N   UNL A   1      33.502  21.328  25.370  1.00  0.00    -0.316 N 
ATOM     10  C   UNL A   1      33.752  20.024  24.969  1.00  0.00     0.136 A 
ATOM     11  N   UNL A   1      35.050  19.846  24.780  1.00  0.00    -0.231 NA
ATOM     12  C   UNL A   1      35.662  21.014  25.133  1.00  0.00     0.089 A 
ATOM     13  C   UNL A   1      34.731  21.942  25.580  1.00  0.00     0.069 A 
ATOM     14  C   UNL A   1      37.024  21.353  25.103  1.00  0.00     0.030 A 
ATOM     15  C   UNL A   1      35.109  23.205  26.059  1.00  0.00     0.028 A 
ATOM     16  C   UNL A   1      37.415  22.623  25.543  1.00  0.00     0.002 A 
ATOM     17  C   UNL A   1      36.470  23.528  26.023  1.00  0.00     0.002 A 
BRANCH  10  18
ATOM     18  C   UNL A   1      32.769  18.917  24.733  1.00  0.00     0.235 C 
BRANCH  18  19
ATOM     19  O   UNL A   1      33.397  17.647  24.750  1.00  0.00    -0.377 OA
ATOM     20  C   UNL A   1      32.863  16.756  25.716  1.00  0.00     0.195 C 
ENDBRANCH  18  19
ENDBRANCH  10  18
ENDBRANCH   8   9
ENDBRANCH   5   8
ENDBRANCH   3   4
ENDBRANCH   2   3
ENDBRANCH   1   2
BRANCH   1  21
ATOM     21  C   UNL A   1      31.751  28.315  27.258  1.00  0.00     0.002 C 
BRANCH  21  22
ATOM     22  C   UNL A   1      32.182  29.783  27.160  1.00  0.00     0.021 C 
BRANCH  22  23
ATOM     23  C   UNL A   1      33.690  30.003  27.292  1.00  0.00     0.116 C 
BRANCH  23  24
ATOM     24  N   UNL A   1      34.037  31.301  27.828  1.00  0.00    -0.352 N 
ATOM     25  C   UNL A   1      35.201  31.896  28.227  1.00  0.00     0.251 C 
ATOM     26  H   UNL A   1      33.256  31.891  27.927  1.00  0.00     0.163 HD
ATOM     27  O   UNL A   1      35.106  33.073  28.585  1.00  0.00    -0.269 OA
BRANCH  25  28
ATOM     28  C   UNL A   1      36.526  31.219  28.313  1.00  0.00     0.039 A 
ATOM     29  C   UNL A   1      36.857  30.001  27.719  1.00  0.00     0.014 A 
ATOM     30  C   UNL A   1      37.498  31.859  29.106  1.00  0.00     0.014 A 
ATOM     31  C   UNL A   1      38.071  29.385  27.998  1.00  0.00     0.010 A 
ATOM     32  C   UNL A   1      38.728  31.262  29.364  1.00  0.00     0.010 A 
ATOM     33  C   UNL A   1      38.991  29.997  28.851  1.00  0.00    -0.014 A 
BRANCH  33  34
ATOM     34  C   UNL A   1      40.235  29.280  29.117  1.00  0.00     0.031 A 
ATOM     35  C   UNL A   1      40.466  28.898  30.539  1.00  0.00     0.074 A 
ATOM     36  C   UNL A   1      41.099  28.905  28.153  1.00  0.00     0.049 A 
ATOM     37  N   UNL A   1      41.403  29.293  31.342  1.00  0.00    -0.248 NA
ATOM     38  C   UNL A   1      39.452  28.047  31.174  1.00  0.00     0.031 C 
ATOM     39  C   UNL A   1      40.892  28.905  26.703  1.00  0.00     0.029 A 
ATOM     40  N   UNL A   1      42.329  28.337  28.292  1.00  0.00    -0.354 N 
ATOM     41  C   UNL A   1      41.198  28.610  32.542  1.00  0.00     0.074 A 
ATOM     42  C   UNL A   1      39.911  27.969  32.422  1.00  0.00     0.031 C 
ATOM     43  C   UNL A   1      41.853  28.153  26.120  1.00  0.00     0.029 A 
ATOM     44  C   UNL A   1      42.818  27.759  27.132  1.00  0.00     0.049 A 
ATOM     45  H   UNL A   1      42.825  28.335  29.142  1.00  0.00     0.167 HD
ATOM     46  C   UNL A   1      42.171  28.479  33.490  1.00  0.00     0.034 A 
ATOM     47  C   UNL A   1      43.895  26.944  27.026  1.00  0.00     0.034 A 
ATOM     48  C   UNL A   1      43.245  29.406  33.276  1.00  0.00     0.049 A 
ATOM     49  C   UNL A   1      44.740  27.124  28.229  1.00  0.00     0.074 A 
ATOM     50  C   UNL A   1      43.372  30.779  33.313  1.00  0.00     0.029 A 
ATOM     51  N   UNL A   1      44.375  28.939  32.655  1.00  0.00    -0.354 N 
ATOM     52  N   UNL A   1      45.429  28.198  28.494  1.00  0.00    -0.248 NA
ATOM     53  C   UNL A   1      44.505  26.238  29.360  1.00  0.00     0.031 C 
ATOM     54  C   UNL A   1      44.332  31.088  32.308  1.00  0.00     0.029 A 
ATOM     55  C   UNL A   1      44.765  29.885  31.743  1.00  0.00     0.049 A 
ATOM     56  H   UNL A   1      44.825  28.081  32.830  1.00  0.00     0.167 HD
ATOM     57  C   UNL A   1      45.323  28.349  29.868  1.00  0.00     0.074 A 
ATOM     58  C   UNL A   1      44.853  27.055  30.356  1.00  0.00     0.031 C 
ATOM     59  C   UNL A   1      45.357  29.583  30.453  1.00  0.00     0.034 A 
BRANCH  46  60
ATOM     60  C   UNL A   1      42.290  27.310  34.442  1.00  0.00     0.023 A 
ATOM     61  C   UNL A   1      43.048  26.162  34.148  1.00  0.00     0.031 A 
ATOM     62  C   UNL A   1      41.829  27.411  35.773  1.00  0.00     0.131 A 
ATOM     63  C   UNL A   1      43.307  25.180  35.112  1.00  0.00     0.055 A 
ATOM     64  C   UNL A   1      42.145  26.464  36.757  1.00  0.00     0.041 A 
ATOM     65  F   UNL A   1      41.102  28.466  36.177  1.00  0.00    -0.206 F 
ATOM     66  C   UNL A   1      42.889  25.338  36.428  1.00  0.00     0.022 A 
BRANCH  63  67
ATOM     67  S   UNL A   1      44.212  23.674  34.661  1.00  0.00     0.124 S 
ATOM     68  O   UNL A   1      45.462  24.218  34.145  1.00  0.00    -0.237 OA
ATOM     69  O   UNL A   1      44.302  22.987  35.947  1.00  0.00    -0.237 OA
ATOM     70  O   UNL A   1      43.340  23.034  33.681  1.00  0.00    -0.744 OA
ENDBRANCH  63  67
ENDBRANCH  46  60
BRANCH  47  71
ATOM     71  C   UNL A   1      43.960  25.710  26.212  1.00  0.00     0.023 A 
ATOM     72  C   UNL A   1      43.063  24.657  26.474  1.00  0.00     0.031 A 
ATOM     73  C   UNL A   1      45.076  25.426  25.408  1.00  0.00     0.131 A 
ATOM     74  C   UNL A   1      43.316  23.369  25.988  1.00  0.00     0.055 A 
ATOM     75  C   UNL A   1      45.318  24.142  24.907  1.00  0.00     0.041 A 
ATOM     76  F   UNL A   1      45.988  26.377  25.149  1.00  0.00    -0.206 F 
ATOM     77  C   UNL A   1      44.442  23.101  25.210  1.00  0.00     0.022 A 
BRANCH  74  78
ATOM     78  S   UNL A   1      42.222  21.993  26.435  1.00  0.00     0.124 S 
ATOM     79  O   UNL A   1      40.898  22.565  26.206  1.00  0.00    -0.237 OA
ATOM     80  O   UNL A   1      42.636  20.966  25.485  1.00  0.00    -0.237 OA
ATOM     81  O   UNL A   1      42.549  21.735  27.834  1.00  0.00    -0.744 OA
ENDBRANCH  74  78
ENDBRANCH  47  71
BRANCH  59  82
ATOM     82  C   UNL A   1      45.782  30.777  29.626  1.00  0.00     0.023 A 
ATOM     83  C   UNL A   1      44.886  31.231  28.641  1.00  0.00     0.031 A 
ATOM     84  C   UNL A   1      47.085  31.311  29.611  1.00  0.00     0.131 A 
ATOM     85  C   UNL A   1      45.307  32.140  27.663  1.00  0.00     0.055 A 
ATOM     86  C   UNL A   1      47.478  32.278  28.679  1.00  0.00     0.041 A 
ATOM     87  F   UNL A   1      48.041  30.854  30.431  1.00  0.00    -0.206 F 
ATOM     88  C   UNL A   1      46.593  32.683  27.687  1.00  0.00     0.022 A 
BRANCH  85  89
ATOM     89  S   UNL A   1      44.248  32.500  26.238  1.00  0.00     0.124 S 
ATOM     90  O   UNL A   1      43.454  31.275  26.127  1.00  0.00    -0.237 OA
ATOM     91  O   UNL A   1      43.509  33.681  26.691  1.00  0.00    -0.237 OA
ATOM     92  O   UNL A   1      45.182  32.739  25.149  1.00  0.00    -0.744 OA
ENDBRANCH  85  89
ENDBRANCH  59  82
ENDBRANCH  33  34
ENDBRANCH  25  28
ENDBRANCH  23  24
ENDBRANCH  22  23
ENDBRANCH  21  22
ENDBRANCH   1  21
TORSDOF 19
ENDMDL
MODEL 2
REMARK VINA RESULT:     -11.1      3.525      9.424
REMARK SMILES COCc1nc2ccccc2n1CC(=O)NCCCCCCNC(=O)c1ccc(-c2c3nc(c(-c4cc(S(=O)(=O)[O-])ccc4F)c4ccc([nH]4)c(-c4cc(S(=O)(=O)[O-])ccc4F)c4nc(c(-c5cc(S(=O)(=O)[O-])ccc5F)c5ccc2[nH]5)C=C4)C=C3)cc1
REMARK SMILES IDX 19 1 18 2 17 3 16 4 14 5 15 6 13 8 12 9 4 10 5 11 6 12 11 13
REMARK SMILES IDX 7 14 10 15 8 16 9 17 3 18 2 19 1 20 20 21 21 22 22 23 23 24
REMARK SMILES IDX 24 25 25 27 26 28 27 29 88 30 28 31 87 32 29 33 30 34 31 35
REMARK SMILES IDX 81 36 32 37 86 38 80 39 82 40 33 41 85 42 79 43 78 44 34 46
REMARK SMILES IDX 66 47 46 48 65 49 47 50 50 51 64 52 83 53 48 54 49 55 63 57
REMARK SMILES IDX 84 58 51 59 35 60 36 61 44 62 37 63 43 64 45 65 42 66 38 67
REMARK SMILES IDX 39 68 40 69 41 70 67 71 68 72 76 73 69 74 75 75 77 76 74 77
REMARK SMILES IDX 70 78 71 79 72 80 73 81 52 82 53 83 61 84 54 85 60 86 62 87
REMARK SMILES IDX 59 88 55 89 56 90 57 91 58 92
REMARK H PARENT 16 7 23 26 82 45 50 56
REMARK Flexibility Score: inf
ROOT
ATOM      1  C   UNL A   1      34.760  21.790  25.114  1.00  0.00     0.002 C 
ENDROOT
BRANCH   1   2
ATOM      2  C   UNL A   1      33.436  22.499  24.803  1.00  0.00     0.021 C 
BRANCH   2   3
ATOM      3  C   UNL A   1      33.372  23.925  25.339  1.00  0.00     0.116 C 
BRANCH   3   4
ATOM      4  N   UNL A   1      32.020  24.300  25.692  1.00  0.00    -0.355 N 
ATOM      5  C   UNL A   1      31.255  25.319  25.211  1.00  0.00     0.240 C 
ATOM      6  O   UNL A   1      30.061  25.330  25.529  1.00  0.00    -0.273 OA
ATOM      7  H   UNL A   1      31.592  23.738  26.378  1.00  0.00     0.163 HD
BRANCH   5   8
ATOM      8  C   UNL A   1      31.811  26.308  24.204  1.00  0.00     0.223 C 
BRANCH   8   9
ATOM      9  N   UNL A   1      31.721  27.720  24.561  1.00  0.00    -0.316 N 
ATOM     10  C   UNL A   1      30.845  28.685  24.090  1.00  0.00     0.136 A 
ATOM     11  N   UNL A   1      31.030  29.825  24.739  1.00  0.00    -0.231 NA
ATOM     12  C   UNL A   1      32.083  29.628  25.584  1.00  0.00     0.089 A 
ATOM     13  C   UNL A   1      32.591  28.344  25.447  1.00  0.00     0.069 A 
ATOM     14  C   UNL A   1      32.669  30.515  26.501  1.00  0.00     0.030 A 
ATOM     15  C   UNL A   1      33.717  27.908  26.162  1.00  0.00     0.028 A 
ATOM     16  C   UNL A   1      33.770  30.084  27.250  1.00  0.00     0.002 A 
ATOM     17  C   UNL A   1      34.290  28.803  27.072  1.00  0.00     0.002 A 
BRANCH  10  18
ATOM     18  C   UNL A   1      29.793  28.552  23.029  1.00  0.00     0.235 C 
BRANCH  18  19
ATOM     19  O   UNL A   1      28.796  29.550  23.153  1.00  0.00    -0.377 OA
ATOM     20  C   UNL A   1      28.240  29.963  21.915  1.00  0.00     0.195 C 
ENDBRANCH  18  19
ENDBRANCH  10  18
ENDBRANCH   8   9
ENDBRANCH   5   8
ENDBRANCH   3   4
ENDBRANCH   2   3
ENDBRANCH   1   2
BRANCH   1  21
ATOM     21  C   UNL A   1      35.964  22.285  24.305  1.00  0.00     0.002 C 
BRANCH  21  22
ATOM     22  C   UNL A   1      37.331  21.806  24.809  1.00  0.00     0.021 C 
BRANCH  22  23
ATOM     23  C   UNL A   1      38.031  22.790  25.748  1.00  0.00     0.116 C 
BRANCH  23  24
ATOM     24  N   UNL A   1      39.097  22.189  26.520  1.00  0.00    -0.352 N 
ATOM     25  C   UNL A   1      40.041  22.663  27.388  1.00  0.00     0.251 C 
ATOM     26  H   UNL A   1      39.156  21.215  26.390  1.00  0.00     0.163 HD
ATOM     27  O   UNL A   1      40.764  21.811  27.910  1.00  0.00    -0.269 OA
BRANCH  25  28
ATOM     28  C   UNL A   1      40.284  24.102  27.689  1.00  0.00     0.039 A 
ATOM     29  C   UNL A   1      41.457  24.634  28.224  1.00  0.00     0.014 A 
ATOM     30  C   UNL A   1      39.206  24.975  27.449  1.00  0.00     0.014 A 
ATOM     31  C   UNL A   1      41.516  25.967  28.613  1.00  0.00     0.010 A 
ATOM     32  C   UNL A   1      39.269  26.318  27.808  1.00  0.00     0.010 A 
ATOM     33  C   UNL A   1      40.409  26.800  28.441  1.00  0.00    -0.014 A 
BRANCH  33  34
ATOM     34  C   UNL A   1      40.536  28.181  28.897  1.00  0.00     0.031 A 
ATOM     35  C   UNL A   1      41.739  28.913  28.407  1.00  0.00     0.074 A 
ATOM     36  C   UNL A   1      39.606  28.806  29.645  1.00  0.00     0.049 A 
ATOM     37  N   UNL A   1      42.730  29.390  29.090  1.00  0.00    -0.248 NA
ATOM     38  C   UNL A   1      41.901  29.029  26.953  1.00  0.00     0.031 C 
ATOM     39  C   UNL A   1      38.241  28.367  29.946  1.00  0.00     0.029 A 
ATOM     40  N   UNL A   1      39.667  30.041  30.215  1.00  0.00    -0.354 N 
ATOM     41  C   UNL A   1      43.569  30.019  28.168  1.00  0.00     0.074 A 
ATOM     42  C   UNL A   1      43.080  29.645  26.863  1.00  0.00     0.031 C 
ATOM     43  C   UNL A   1      37.537  29.413  30.434  1.00  0.00     0.029 A 
ATOM     44  C   UNL A   1      38.440  30.535  30.627  1.00  0.00     0.049 A 
ATOM     45  H   UNL A   1      40.509  30.540  30.323  1.00  0.00     0.167 HD
ATOM     46  C   UNL A   1      44.508  30.939  28.534  1.00  0.00     0.034 A 
ATOM     47  C   UNL A   1      38.167  31.804  31.016  1.00  0.00     0.034 A 
ATOM     48  C   UNL A   1      44.768  30.895  29.945  1.00  0.00     0.049 A 
ATOM     49  C   UNL A   1      39.441  32.466  31.381  1.00  0.00     0.074 A 
ATOM     50  C   UNL A   1      45.315  29.968  30.808  1.00  0.00     0.029 A 
ATOM     51  N   UNL A   1      44.152  31.830  30.736  1.00  0.00    -0.354 N 
ATOM     52  N   UNL A   1      40.154  32.169  32.431  1.00  0.00    -0.248 NA
ATOM     53  C   UNL A   1      40.138  33.211  30.344  1.00  0.00     0.031 C 
ATOM     54  C   UNL A   1      44.607  30.140  32.031  1.00  0.00     0.029 A 
ATOM     55  C   UNL A   1      43.696  31.186  31.857  1.00  0.00     0.049 A 
ATOM     56  H   UNL A   1      44.053  32.789  30.536  1.00  0.00     0.167 HD
ATOM     57  C   UNL A   1      41.468  32.280  32.002  1.00  0.00     0.074 A 
ATOM     58  C   UNL A   1      41.396  33.041  30.757  1.00  0.00     0.031 C 
ATOM     59  C   UNL A   1      42.461  31.514  32.543  1.00  0.00     0.034 A 
BRANCH  46  60
ATOM     60  C   UNL A   1      44.978  32.080  27.662  1.00  0.00     0.023 A 
ATOM     61  C   UNL A   1      44.392  33.359  27.701  1.00  0.00     0.031 A 
ATOM     62  C   UNL A   1      46.179  31.982  26.925  1.00  0.00     0.131 A 
ATOM     63  C   UNL A   1      44.960  34.453  27.034  1.00  0.00     0.055 A 
ATOM     64  C   UNL A   1      46.785  33.090  26.316  1.00  0.00     0.041 A 
ATOM     65  F   UNL A   1      46.836  30.815  26.823  1.00  0.00    -0.206 F 
ATOM     66  C   UNL A   1      46.174  34.336  26.368  1.00  0.00     0.022 A 
BRANCH  63  67
ATOM     67  S   UNL A   1      44.119  36.060  27.038  1.00  0.00     0.124 S 
ATOM     68  O   UNL A   1      43.770  36.213  28.444  1.00  0.00    -0.237 OA
ATOM     69  O   UNL A   1      45.172  36.945  26.545  1.00  0.00    -0.237 OA
ATOM     70  O   UNL A   1      43.002  35.862  26.119  1.00  0.00    -0.744 OA
ENDBRANCH  63  67
ENDBRANCH  46  60
BRANCH  47  71
ATOM     71  C   UNL A   1      36.974  32.585  30.624  1.00  0.00     0.023 A 
ATOM     72  C   UNL A   1      36.181  33.188  31.619  1.00  0.00     0.031 A 
ATOM     73  C   UNL A   1      36.429  32.484  29.333  1.00  0.00     0.131 A 
ATOM     74  C   UNL A   1      34.881  33.618  31.330  1.00  0.00     0.055 A 
ATOM     75  C   UNL A   1      35.135  32.930  29.041  1.00  0.00     0.041 A 
ATOM     76  F   UNL A   1      37.119  31.888  28.348  1.00  0.00    -0.206 F 
ATOM     77  C   UNL A   1      34.348  33.487  30.047  1.00  0.00     0.022 A 
BRANCH  74  78
ATOM     78  S   UNL A   1      33.822  34.278  32.646  1.00  0.00     0.124 S 
ATOM     79  O   UNL A   1      34.783  34.990  33.485  1.00  0.00    -0.237 OA
ATOM     80  O   UNL A   1      32.901  35.120  31.891  1.00  0.00    -0.237 OA
ATOM     81  O   UNL A   1      33.242  33.083  33.251  1.00  0.00    -0.744 OA
ENDBRANCH  74  78
ENDBRANCH  47  71
BRANCH  59  82
ATOM     82  C   UNL A   1      42.178  30.728  33.805  1.00  0.00     0.023 A 
ATOM     83  C   UNL A   1      42.598  31.293  35.024  1.00  0.00     0.031 A 
ATOM     84  C   UNL A   1      41.746  29.388  33.827  1.00  0.00     0.131 A 
ATOM     85  C   UNL A   1      42.623  30.521  36.192  1.00  0.00     0.055 A 
ATOM     86  C   UNL A   1      41.699  28.644  35.012  1.00  0.00     0.041 A 
ATOM     87  F   UNL A   1      41.443  28.729  32.702  1.00  0.00    -0.206 F 
ATOM     88  C   UNL A   1      42.158  29.205  36.199  1.00  0.00     0.022 A 
BRANCH  85  89
ATOM     89  S   UNL A   1      43.427  31.157  37.686  1.00  0.00     0.124 S 
ATOM     90  O   UNL A   1      42.282  31.578  38.495  1.00  0.00    -0.237 OA
ATOM     91  O   UNL A   1      44.137  29.976  38.182  1.00  0.00    -0.237 OA
ATOM     92  O   UNL A   1      44.280  32.231  37.204  1.00  0.00    -0.744 OA
ENDBRANCH  85  89
ENDBRANCH  59  82
ENDBRANCH  33  34
ENDBRANCH  25  28
ENDBRANCH  23  24
ENDBRANCH  22  23
ENDBRANCH  21  22
ENDBRANCH   1  21
TORSDOF 19
ENDMDL
MODEL 3
REMARK VINA RESULT:     -11.0      3.267      7.941
REMARK SMILES COCc1nc2ccccc2n1CC(=O)NCCCCCCNC(=O)c1ccc(-c2c3nc(c(-c4cc(S(=O)(=O)[O-])ccc4F)c4ccc([nH]4)c(-c4cc(S(=O)(=O)[O-])ccc4F)c4nc(c(-c5cc(S(=O)(=O)[O-])ccc5F)c5ccc2[nH]5)C=C4)C=C3)cc1
REMARK SMILES IDX 19 1 18 2 17 3 16 4 14 5 15 6 13 8 12 9 4 10 5 11 6 12 11 13
REMARK SMILES IDX 7 14 10 15 8 16 9 17 3 18 2 19 1 20 20 21 21 22 22 23 23 24
REMARK SMILES IDX 24 25 25 27 26 28 27 29 88 30 28 31 87 32 29 33 30 34 31 35
REMARK SMILES IDX 81 36 32 37 86 38 80 39 82 40 33 41 85 42 79 43 78 44 34 46
REMARK SMILES IDX 66 47 46 48 65 49 47 50 50 51 64 52 83 53 48 54 49 55 63 57
REMARK SMILES IDX 84 58 51 59 35 60 36 61 44 62 37 63 43 64 45 65 42 66 38 67
REMARK SMILES IDX 39 68 40 69 41 70 67 71 68 72 76 73 69 74 75 75 77 76 74 77
REMARK SMILES IDX 70 78 71 79 72 80 73 81 52 82 53 83 61 84 54 85 60 86 62 87
REMARK SMILES IDX 59 88 55 89 56 90 57 91 58 92
REMARK H PARENT 16 7 23 26 82 45 50 56
REMARK Flexibility Score: inf
ROOT
ATOM      1  C   UNL A   1      33.392  22.783  24.312  1.00  0.00     0.002 C 
ENDROOT
BRANCH   1   2
ATOM      2  C   UNL A   1      32.043  22.278  23.785  1.00  0.00     0.021 C 
BRANCH   2   3
ATOM      3  C   UNL A   1      31.043  23.395  23.507  1.00  0.00     0.116 C 
BRANCH   3   4
ATOM      4  N   UNL A   1      30.636  24.060  24.726  1.00  0.00    -0.355 N 
ATOM      5  C   UNL A   1      30.848  25.348  25.116  1.00  0.00     0.240 C 
ATOM      6  O   UNL A   1      30.243  25.742  26.119  1.00  0.00    -0.273 OA
ATOM      7  H   UNL A   1      30.135  23.503  25.363  1.00  0.00     0.163 HD
BRANCH   5   8
ATOM      8  C   UNL A   1      31.668  26.299  24.266  1.00  0.00     0.223 C 
BRANCH   8   9
ATOM      9  N   UNL A   1      31.557  27.719  24.587  1.00  0.00    -0.316 N 
ATOM     10  C   UNL A   1      30.729  28.678  24.026  1.00  0.00     0.136 A 
ATOM     11  N   UNL A   1      30.866  29.829  24.666  1.00  0.00    -0.231 NA
ATOM     12  C   UNL A   1      31.844  29.645  25.600  1.00  0.00     0.089 A 
ATOM     13  C   UNL A   1      32.354  28.356  25.530  1.00  0.00     0.069 A 
ATOM     14  C   UNL A   1      32.356  30.547  26.546  1.00  0.00     0.030 A 
ATOM     15  C   UNL A   1      33.413  27.929  26.345  1.00  0.00     0.028 A 
ATOM     16  C   UNL A   1      33.388  30.126  27.391  1.00  0.00     0.002 A 
ATOM     17  C   UNL A   1      33.914  28.840  27.283  1.00  0.00     0.002 A 
BRANCH  10  18
ATOM     18  C   UNL A   1      29.769  28.529  22.883  1.00  0.00     0.235 C 
BRANCH  18  19
ATOM     19  O   UNL A   1      28.654  29.391  23.021  1.00  0.00    -0.377 OA
ATOM     20  C   UNL A   1      28.148  29.877  21.788  1.00  0.00     0.195 C 
ENDBRANCH  18  19
ENDBRANCH  10  18
ENDBRANCH   8   9
ENDBRANCH   5   8
ENDBRANCH   3   4
ENDBRANCH   2   3
ENDBRANCH   1   2
BRANCH   1  21
ATOM     21  C   UNL A   1      34.579  22.563  23.368  1.00  0.00     0.002 C 
BRANCH  21  22
ATOM     22  C   UNL A   1      35.913  22.258  24.059  1.00  0.00     0.021 C 
BRANCH  22  23
ATOM     23  C   UNL A   1      35.867  21.057  25.006  1.00  0.00     0.116 C 
BRANCH  23  24
ATOM     24  N   UNL A   1      37.004  20.173  24.869  1.00  0.00    -0.352 N 
ATOM     25  C   UNL A   1      38.286  20.176  25.343  1.00  0.00     0.251 C 
ATOM     26  H   UNL A   1      36.809  19.390  24.306  1.00  0.00     0.163 HD
ATOM     27  O   UNL A   1      38.967  19.190  25.050  1.00  0.00    -0.269 OA
BRANCH  25  28
ATOM     28  C   UNL A   1      38.913  21.285  26.116  1.00  0.00     0.039 A 
ATOM     29  C   UNL A   1      38.492  22.615  26.117  1.00  0.00     0.014 A 
ATOM     30  C   UNL A   1      40.055  20.947  26.868  1.00  0.00     0.014 A 
ATOM     31  C   UNL A   1      39.248  23.595  26.749  1.00  0.00     0.010 A 
ATOM     32  C   UNL A   1      40.799  21.920  27.529  1.00  0.00     0.010 A 
ATOM     33  C   UNL A   1      40.422  23.254  27.422  1.00  0.00    -0.014 A 
BRANCH  33  34
ATOM     34  C   UNL A   1      41.177  24.339  28.041  1.00  0.00     0.031 A 
ATOM     35  C   UNL A   1      40.458  25.641  28.154  1.00  0.00     0.074 A 
ATOM     36  C   UNL A   1      42.412  24.187  28.557  1.00  0.00     0.049 A 
ATOM     37  N   UNL A   1      40.741  26.773  27.592  1.00  0.00    -0.248 NA
ATOM     38  C   UNL A   1      39.199  25.644  28.908  1.00  0.00     0.031 C 
ATOM     39  C   UNL A   1      43.134  22.941  28.824  1.00  0.00     0.029 A 
ATOM     40  N   UNL A   1      43.247  25.142  29.052  1.00  0.00    -0.354 N 
ATOM     41  C   UNL A   1      39.788  27.684  28.054  1.00  0.00     0.074 A 
ATOM     42  C   UNL A   1      38.792  26.902  28.745  1.00  0.00     0.031 C 
ATOM     43  C   UNL A   1      44.181  23.202  29.639  1.00  0.00     0.029 A 
ATOM     44  C   UNL A   1      44.290  24.641  29.814  1.00  0.00     0.049 A 
ATOM     45  H   UNL A   1      43.120  26.104  28.886  1.00  0.00     0.167 HD
ATOM     46  C   UNL A   1      39.965  29.035  27.982  1.00  0.00     0.034 A 
ATOM     47  C   UNL A   1      45.132  25.352  30.602  1.00  0.00     0.034 A 
ATOM     48  C   UNL A   1      41.023  29.382  27.077  1.00  0.00     0.049 A 
ATOM     49  C   UNL A   1      45.079  26.772  30.182  1.00  0.00     0.074 A 
ATOM     50  C   UNL A   1      41.220  29.268  25.716  1.00  0.00     0.029 A 
ATOM     51  N   UNL A   1      42.252  29.672  27.612  1.00  0.00    -0.354 N 
ATOM     52  N   UNL A   1      45.555  27.228  29.058  1.00  0.00    -0.248 NA
ATOM     53  C   UNL A   1      44.128  27.642  30.857  1.00  0.00     0.031 C 
ATOM     54  C   UNL A   1      42.616  29.032  25.564  1.00  0.00     0.029 A 
ATOM     55  C   UNL A   1      43.197  29.056  26.834  1.00  0.00     0.049 A 
ATOM     56  H   UNL A   1      42.424  30.222  28.411  1.00  0.00     0.167 HD
ATOM     57  C   UNL A   1      44.646  28.199  28.665  1.00  0.00     0.074 A 
ATOM     58  C   UNL A   1      43.866  28.494  29.864  1.00  0.00     0.031 C 
ATOM     59  C   UNL A   1      44.423  28.473  27.345  1.00  0.00     0.034 A 
BRANCH  46  60
ATOM     60  C   UNL A   1      39.377  30.030  28.956  1.00  0.00     0.023 A 
ATOM     61  C   UNL A   1      38.222  30.782  28.672  1.00  0.00     0.031 A 
ATOM     62  C   UNL A   1      39.828  30.089  30.292  1.00  0.00     0.131 A 
ATOM     63  C   UNL A   1      37.580  31.550  29.652  1.00  0.00     0.055 A 
ATOM     64  C   UNL A   1      39.148  30.801  31.290  1.00  0.00     0.041 A 
ATOM     65  F   UNL A   1      40.916  29.407  30.688  1.00  0.00    -0.206 F 
ATOM     66  C   UNL A   1      38.015  31.539  30.971  1.00  0.00     0.022 A 
BRANCH  63  67
ATOM     67  S   UNL A   1      36.148  32.574  29.215  1.00  0.00     0.124 S 
ATOM     68  O   UNL A   1      35.967  32.251  27.806  1.00  0.00    -0.237 OA
ATOM     69  O   UNL A   1      35.126  32.054  30.121  1.00  0.00    -0.237 OA
ATOM     70  O   UNL A   1      36.598  33.931  29.509  1.00  0.00    -0.744 OA
ENDBRANCH  63  67
ENDBRANCH  46  60
BRANCH  47  71
ATOM     71  C   UNL A   1      45.573  24.962  31.960  1.00  0.00     0.023 A 
ATOM     72  C   UNL A   1      44.618  24.542  32.905  1.00  0.00     0.031 A 
ATOM     73  C   UNL A   1      46.852  25.294  32.434  1.00  0.00     0.131 A 
ATOM     74  C   UNL A   1      44.932  24.511  34.268  1.00  0.00     0.055 A 
ATOM     75  C   UNL A   1      47.170  25.246  33.796  1.00  0.00     0.041 A 
ATOM     76  F   UNL A   1      47.797  25.736  31.589  1.00  0.00    -0.206 F 
ATOM     77  C   UNL A   1      46.202  24.867  34.723  1.00  0.00     0.022 A 
BRANCH  74  78
ATOM     78  S   UNL A   1      43.659  24.089  35.491  1.00  0.00     0.124 S 
ATOM     79  O   UNL A   1      43.468  22.661  35.254  1.00  0.00    -0.237 OA
ATOM     80  O   UNL A   1      44.325  24.437  36.742  1.00  0.00    -0.237 OA
ATOM     81  O   UNL A   1      42.530  24.933  35.114  1.00  0.00    -0.744 OA
ENDBRANCH  74  78
ENDBRANCH  47  71
BRANCH  59  82
ATOM     82  C   UNL A   1      45.367  27.905  26.307  1.00  0.00     0.023 A 
ATOM     83  C   UNL A   1      45.266  26.529  26.029  1.00  0.00     0.031 A 
ATOM     84  C   UNL A   1      46.476  28.592  25.780  1.00  0.00     0.131 A 
ATOM     85  C   UNL A   1      46.266  25.877  25.297  1.00  0.00     0.055 A 
ATOM     86  C   UNL A   1      47.433  27.953  24.983  1.00  0.00     0.041 A 
ATOM     87  F   UNL A   1      46.722  29.872  26.089  1.00  0.00    -0.206 F 
ATOM     88  C   UNL A   1      47.341  26.585  24.754  1.00  0.00     0.022 A 
BRANCH  85  89
ATOM     89  S   UNL A   1      46.282  24.070  25.186  1.00  0.00     0.124 S 
ATOM     90  O   UNL A   1      47.190  23.703  26.275  1.00  0.00    -0.237 OA
ATOM     91  O   UNL A   1      44.875  23.732  25.410  1.00  0.00    -0.237 OA
ATOM     92  O   UNL A   1      46.774  23.798  23.845  1.00  0.00    -0.744 OA
ENDBRANCH  85  89
ENDBRANCH  59  82
ENDBRANCH  33  34
ENDBRANCH  25  28
ENDBRANCH  23  24
ENDBRANCH  22  23
ENDBRANCH  21  22
ENDBRANCH   1  21
TORSDOF 19
ENDMDL
