MODEL 1
REMARK VINA RESULT:     -11.3      0.000      0.000
REMARK SMILES C[C@H](c1cccc(-c2cc(C(=O)NCCCCCCNC(=O)c3ccc(-c4c5nc(c(-c6cc(S(=O)(=O)[O-])ccc6F)c6ccc([nH]6)c(-c6cc(S(=O)(=O)[O-])ccc6F)c6nc(c(-c7cc(S(=O)(=O)[O-])ccc7F)c7ccc4[nH]7)C=C6)C=C5)cc3)cc(S(=O)(=O)N3CCOCC3)c2)c1)[NH+](C)C
REMARK SMILES IDX 16 1 15 2 14 3 13 4 11 5 12 6 10 8 8 9 9 10 97 11 87 12
REMARK SMILES IDX 86 13 7 14 3 15 4 16 98 17 5 18 6 19 2 20 1 21 99 22 100 23
REMARK SMILES IDX 101 24 88 26 89 27 90 28 91 29 92 30 96 31 93 32 95 33 94 34
REMARK SMILES IDX 17 35 18 36 19 37 20 38 21 39 22 41 23 42 24 43 85 44 25 45
REMARK SMILES IDX 84 46 26 47 27 48 28 49 78 50 29 51 83 52 77 53 79 54 30 55
REMARK SMILES IDX 82 56 76 57 75 58 31 60 63 61 43 62 62 63 44 64 47 65 61 66
REMARK SMILES IDX 80 67 45 68 46 69 60 71 81 72 48 73 32 74 33 75 41 76 34 77
REMARK SMILES IDX 40 78 42 79 39 80 35 81 36 82 37 83 38 84 64 85 65 86 73 87
REMARK SMILES IDX 66 88 72 89 74 90 71 91 67 92 68 93 69 94 70 95 49 96 50 97
REMARK SMILES IDX 58 98 51 99 57 100 59 101 56 102 52 103 53 104 54 105 55 106
REMARK H PARENT 13 7 99 25 20 40 79 59 47 70
REMARK Flexibility Score: inf
ROOT
ATOM      1  C   UNL A   1      40.216  22.052  26.738  1.00  0.00     0.002 C 
ENDROOT
BRANCH   1   2
ATOM      2  C   UNL A   1      39.586  23.420  26.484  1.00  0.00     0.021 C 
BRANCH   2   3
ATOM      3  C   UNL A   1      38.118  23.435  26.082  1.00  0.00     0.116 C 
BRANCH   3   4
ATOM      4  N   UNL A   1      37.849  23.278  24.658  1.00  0.00    -0.352 N 
ATOM      5  C   UNL A   1      36.640  23.286  23.984  1.00  0.00     0.251 C 
ATOM      6  O   UNL A   1      36.613  23.120  22.768  1.00  0.00    -0.269 OA
ATOM      7  H   UNL A   1      38.643  23.146  24.092  1.00  0.00     0.163 HD
BRANCH   5   8
ATOM      8  C   UNL A   1      35.360  23.427  24.730  1.00  0.00     0.041 A 
ATOM      9  C   UNL A   1      33.424  24.806  25.307  1.00  0.00    -0.016 A 
ATOM     10  C   UNL A   1      34.729  24.684  24.798  1.00  0.00     0.022 A 
ATOM     11  C   UNL A   1      32.760  23.613  25.661  1.00  0.00     0.030 A 
ATOM     12  C   UNL A   1      33.401  22.382  25.632  1.00  0.00     0.084 A 
ATOM     13  C   UNL A   1      34.739  22.308  25.277  1.00  0.00     0.035 A 
BRANCH   9  14
ATOM     14  C   UNL A   1      32.683  26.088  25.401  1.00  0.00    -0.018 A 
ATOM     15  C   UNL A   1      30.899  27.537  24.480  1.00  0.00     0.010 A 
ATOM     16  C   UNL A   1      31.397  28.601  25.241  1.00  0.00     0.010 A 
ATOM     17  C   UNL A   1      31.513  26.280  24.634  1.00  0.00     0.018 A 
ATOM     18  C   UNL A   1      32.507  28.422  26.070  1.00  0.00     0.001 A 
ATOM     19  C   UNL A   1      33.158  27.182  26.135  1.00  0.00     0.009 A 
BRANCH  15  20
ATOM     20  C   UNL A   1      29.801  27.789  23.437  1.00  0.00     0.211 C 
ATOM     21  C   UNL A   1      28.554  26.914  23.668  1.00  0.00     0.081 C 
BRANCH  20  22
ATOM     22  N   UNL A   1      29.517  29.221  23.192  1.00  0.00    -0.334 N 
ATOM     23  C   UNL A   1      30.192  29.707  21.984  1.00  0.00     0.333 C 
ATOM     24  C   UNL A   1      28.093  29.545  23.127  1.00  0.00     0.333 C 
ATOM     25  H   UNL A   1      29.893  29.702  24.010  1.00  0.00     0.348 HD
ENDBRANCH  20  22
ENDBRANCH  15  20
ENDBRANCH   9  14
BRANCH  12  26
ATOM     26  S   UNL A   1      32.544  20.832  25.812  1.00  0.00     0.243 S 
ATOM     27  O   UNL A   1      33.095  20.238  27.018  1.00  0.00    -0.207 OA
ATOM     28  O   UNL A   1      31.144  21.142  25.682  1.00  0.00    -0.207 OA
BRANCH  26  29
ATOM     29  N   UNL A   1      33.018  19.908  24.513  1.00  0.00    -0.193 NA
ATOM     30  C   UNL A   1      32.486  20.100  23.150  1.00  0.00     0.131 C 
ATOM     31  C   UNL A   1      34.106  18.926  24.621  1.00  0.00     0.131 C 
ATOM     32  C   UNL A   1      32.155  18.740  22.515  1.00  0.00     0.177 C 
ATOM     33  C   UNL A   1      33.656  17.616  23.979  1.00  0.00     0.177 C 
ATOM     34  O   UNL A   1      33.241  17.805  22.619  1.00  0.00    -0.379 OA
ENDBRANCH  26  29
ENDBRANCH  12  26
ENDBRANCH   5   8
ENDBRANCH   3   4
ENDBRANCH   2   3
ENDBRANCH   1   2
BRANCH   1  35
ATOM     35  C   UNL A   1      39.509  20.839  26.131  1.00  0.00     0.002 C 
BRANCH  35  36
ATOM     36  C   UNL A   1      40.331  19.557  25.976  1.00  0.00     0.021 C 
BRANCH  36  37
ATOM     37  C   UNL A   1      41.728  19.558  26.590  1.00  0.00     0.116 C 
BRANCH  37  38
ATOM     38  N   UNL A   1      42.780  19.293  25.625  1.00  0.00    -0.352 N 
ATOM     39  C   UNL A   1      43.697  20.146  25.060  1.00  0.00     0.251 C 
ATOM     40  H   UNL A   1      42.845  18.357  25.328  1.00  0.00     0.163 HD
ATOM     41  O   UNL A   1      44.439  19.725  24.175  1.00  0.00    -0.269 OA
BRANCH  39  42
ATOM     42  C   UNL A   1      43.776  21.566  25.478  1.00  0.00     0.039 A 
ATOM     43  C   UNL A   1      44.208  21.854  26.777  1.00  0.00     0.014 A 
ATOM     44  C   UNL A   1      43.410  22.608  24.622  1.00  0.00     0.014 A 
ATOM     45  C   UNL A   1      44.335  23.183  27.194  1.00  0.00     0.010 A 
ATOM     46  C   UNL A   1      43.593  23.934  25.019  1.00  0.00     0.010 A 
ATOM     47  C   UNL A   1      44.060  24.235  26.307  1.00  0.00    -0.014 A 
BRANCH  47  48
ATOM     48  C   UNL A   1      44.259  25.653  26.711  1.00  0.00     0.031 A 
ATOM     49  C   UNL A   1      45.624  26.278  26.640  1.00  0.00     0.074 A 
ATOM     50  C   UNL A   1      43.222  26.354  27.212  1.00  0.00     0.049 A 
ATOM     51  N   UNL A   1      46.013  27.469  27.020  1.00  0.00    -0.248 NA
ATOM     52  C   UNL A   1      46.701  25.439  26.096  1.00  0.00     0.031 C 
ATOM     53  C   UNL A   1      41.860  25.842  27.379  1.00  0.00     0.029 A 
ATOM     54  N   UNL A   1      43.154  27.639  27.688  1.00  0.00    -0.354 N 
ATOM     55  C   UNL A   1      47.382  27.517  26.782  1.00  0.00     0.074 A 
ATOM     56  C   UNL A   1      47.761  26.215  26.269  1.00  0.00     0.031 C 
ATOM     57  C   UNL A   1      41.092  26.805  27.915  1.00  0.00     0.029 A 
ATOM     58  C   UNL A   1      41.910  27.988  28.161  1.00  0.00     0.049 A 
ATOM     59  H   UNL A   1      43.923  28.254  27.691  1.00  0.00     0.167 HD
ATOM     60  C   UNL A   1      48.241  28.553  26.959  1.00  0.00     0.034 A 
ATOM     61  C   UNL A   1      41.479  29.125  28.742  1.00  0.00     0.034 A 
ATOM     62  C   UNL A   1      47.844  29.850  27.453  1.00  0.00     0.049 A 
ATOM     63  C   UNL A   1      42.445  30.267  28.920  1.00  0.00     0.074 A 
ATOM     64  C   UNL A   1      48.613  30.992  27.595  1.00  0.00     0.029 A 
ATOM     65  N   UNL A   1      46.569  30.176  27.899  1.00  0.00    -0.354 N 
ATOM     66  N   UNL A   1      43.724  30.319  28.629  1.00  0.00    -0.248 NA
ATOM     67  C   UNL A   1      41.906  31.507  29.491  1.00  0.00     0.031 C 
ATOM     68  C   UNL A   1      47.820  31.988  28.180  1.00  0.00     0.029 A 
ATOM     69  C   UNL A   1      46.538  31.489  28.344  1.00  0.00     0.049 A 
ATOM     70  H   UNL A   1      45.797  29.563  27.898  1.00  0.00     0.167 HD
ATOM     71  C   UNL A   1      44.136  31.605  28.963  1.00  0.00     0.074 A 
ATOM     72  C   UNL A   1      42.967  32.300  29.463  1.00  0.00     0.031 C 
ATOM     73  C   UNL A   1      45.369  32.164  28.859  1.00  0.00     0.034 A 
BRANCH  60  74
ATOM     74  C   UNL A   1      49.697  28.307  26.644  1.00  0.00     0.023 A 
ATOM     75  C   UNL A   1      50.174  28.278  25.321  1.00  0.00     0.031 A 
ATOM     76  C   UNL A   1      50.617  28.064  27.679  1.00  0.00     0.131 A 
ATOM     77  C   UNL A   1      51.508  27.928  25.064  1.00  0.00     0.055 A 
ATOM     78  C   UNL A   1      51.963  27.795  27.421  1.00  0.00     0.041 A 
ATOM     79  F   UNL A   1      50.219  28.061  28.961  1.00  0.00    -0.206 F 
ATOM     80  C   UNL A   1      52.412  27.709  26.106  1.00  0.00     0.022 A 
BRANCH  77  81
ATOM     81  S   UNL A   1      52.006  27.615  23.348  1.00  0.00     0.124 S 
ATOM     82  O   UNL A   1      52.534  28.918  22.952  1.00  0.00    -0.237 OA
ATOM     83  O   UNL A   1      52.987  26.546  23.496  1.00  0.00    -0.237 OA
ATOM     84  O   UNL A   1      50.759  27.231  22.692  1.00  0.00    -0.744 OA
ENDBRANCH  77  81
ENDBRANCH  60  74
BRANCH  61  85
ATOM     85  C   UNL A   1      40.072  29.237  29.215  1.00  0.00     0.023 A 
ATOM     86  C   UNL A   1      39.751  29.115  30.574  1.00  0.00     0.031 A 
ATOM     87  C   UNL A   1      39.022  29.448  28.302  1.00  0.00     0.131 A 
ATOM     88  C   UNL A   1      38.408  29.168  30.982  1.00  0.00     0.055 A 
ATOM     89  C   UNL A   1      37.693  29.544  28.717  1.00  0.00     0.041 A 
ATOM     90  F   UNL A   1      39.280  29.581  26.991  1.00  0.00    -0.206 F 
ATOM     91  C   UNL A   1      37.380  29.393  30.064  1.00  0.00     0.022 A 
BRANCH  88  92
ATOM     92  S   UNL A   1      38.019  28.881  32.731  1.00  0.00     0.124 S 
ATOM     93  O   UNL A   1      39.045  29.674  33.399  1.00  0.00    -0.237 OA
ATOM     94  O   UNL A   1      36.654  29.388  32.824  1.00  0.00    -0.237 OA
ATOM     95  O   UNL A   1      38.155  27.434  32.876  1.00  0.00    -0.744 OA
ENDBRANCH  88  92
ENDBRANCH  61  85
BRANCH  73  96
ATOM     96  C   UNL A   1      45.499  33.610  29.266  1.00  0.00     0.023 A 
ATOM     97  C   UNL A   1      45.133  34.656  28.401  1.00  0.00     0.031 A 
ATOM     98  C   UNL A   1      46.011  33.945  30.531  1.00  0.00     0.131 A 
ATOM     99  C   UNL A   1      45.332  35.988  28.794  1.00  0.00     0.055 A 
ATOM    100  C   UNL A   1      46.159  35.271  30.937  1.00  0.00     0.041 A 
ATOM    101  F   UNL A   1      46.379  32.984  31.394  1.00  0.00    -0.206 F 
ATOM    102  C   UNL A   1      45.829  36.302  30.061  1.00  0.00     0.022 A 
BRANCH  99 103
ATOM    103  S   UNL A   1      45.006  37.310  27.594  1.00  0.00     0.124 S 
ATOM    104  O   UNL A   1      46.252  37.347  26.837  1.00  0.00    -0.237 OA
ATOM    105  O   UNL A   1      43.840  36.803  26.879  1.00  0.00    -0.237 OA
ATOM    106  O   UNL A   1      44.755  38.480  28.434  1.00  0.00    -0.744 OA
ENDBRANCH  99 103
ENDBRANCH  73  96
ENDBRANCH  47  48
ENDBRANCH  39  42
ENDBRANCH  37  38
ENDBRANCH  36  37
ENDBRANCH  35  36
ENDBRANCH   1  35
TORSDOF 21
ENDMDL
MODEL 2
REMARK VINA RESULT:     -10.7      3.613      6.188
REMARK SMILES C[C@H](c1cccc(-c2cc(C(=O)NCCCCCCNC(=O)c3ccc(-c4c5nc(c(-c6cc(S(=O)(=O)[O-])ccc6F)c6ccc([nH]6)c(-c6cc(S(=O)(=O)[O-])ccc6F)c6nc(c(-c7cc(S(=O)(=O)[O-])ccc7F)c7ccc4[nH]7)C=C6)C=C5)cc3)cc(S(=O)(=O)N3CCOCC3)c2)c1)[NH+](C)C
REMARK SMILES IDX 16 1 15 2 14 3 13 4 11 5 12 6 10 8 8 9 9 10 97 11 87 12
REMARK SMILES IDX 86 13 7 14 3 15 4 16 98 17 5 18 6 19 2 20 1 21 99 22 100 23
REMARK SMILES IDX 101 24 88 26 89 27 90 28 91 29 92 30 96 31 93 32 95 33 94 34
REMARK SMILES IDX 17 35 18 36 19 37 20 38 21 39 22 41 23 42 24 43 85 44 25 45
REMARK SMILES IDX 84 46 26 47 27 48 28 49 78 50 29 51 83 52 77 53 79 54 30 55
REMARK SMILES IDX 82 56 76 57 75 58 31 60 63 61 43 62 62 63 44 64 47 65 61 66
REMARK SMILES IDX 80 67 45 68 46 69 60 71 81 72 48 73 32 74 33 75 41 76 34 77
REMARK SMILES IDX 40 78 42 79 39 80 35 81 36 82 37 83 38 84 64 85 65 86 73 87
REMARK SMILES IDX 66 88 72 89 74 90 71 91 67 92 68 93 69 94 70 95 49 96 50 97
REMARK SMILES IDX 58 98 51 99 57 100 59 101 56 102 52 103 53 104 54 105 55 106
REMARK H PARENT 13 7 99 25 20 40 79 59 47 70
REMARK Flexibility Score: inf
ROOT
ATOM      1  C   UNL A   1      34.780  23.047  26.880  1.00  0.00     0.002 C 
ENDROOT
BRANCH   1   2
ATOM      2  C   UNL A   1      33.869  22.644  28.037  1.00  0.00     0.021 C 
BRANCH   2   3
ATOM      3  C   UNL A   1      32.370  22.721  27.789  1.00  0.00     0.116 C 
BRANCH   3   4
ATOM      4  N   UNL A   1      31.817  24.064  27.655  1.00  0.00    -0.352 N 
ATOM      5  C   UNL A   1      31.648  24.837  26.520  1.00  0.00     0.251 C 
ATOM      6  O   UNL A   1      31.173  25.965  26.610  1.00  0.00    -0.269 OA
ATOM      7  H   UNL A   1      31.522  24.483  28.495  1.00  0.00     0.163 HD
BRANCH   5   8
ATOM      8  C   UNL A   1      32.099  24.339  25.192  1.00  0.00     0.041 A 
ATOM      9  C   UNL A   1      32.233  22.493  23.592  1.00  0.00    -0.016 A 
ATOM     10  C   UNL A   1      32.018  22.963  24.900  1.00  0.00     0.022 A 
ATOM     11  C   UNL A   1      32.448  23.462  22.589  1.00  0.00     0.030 A 
ATOM     12  C   UNL A   1      32.570  24.812  22.890  1.00  0.00     0.084 A 
ATOM     13  C   UNL A   1      32.511  25.234  24.209  1.00  0.00     0.035 A 
BRANCH   9  14
ATOM     14  C   UNL A   1      32.153  21.066  23.197  1.00  0.00    -0.018 A 
ATOM     15  C   UNL A   1      32.565  18.704  23.821  1.00  0.00     0.010 A 
ATOM     16  C   UNL A   1      32.370  18.338  22.485  1.00  0.00     0.010 A 
ATOM     17  C   UNL A   1      32.379  20.057  24.161  1.00  0.00     0.018 A 
ATOM     18  C   UNL A   1      32.068  19.303  21.521  1.00  0.00     0.001 A 
ATOM     19  C   UNL A   1      31.981  20.657  21.869  1.00  0.00     0.009 A 
BRANCH  15  20
ATOM     20  C   UNL A   1      33.076  17.670  24.833  1.00  0.00     0.211 C 
ATOM     21  C   UNL A   1      32.110  16.481  25.003  1.00  0.00     0.081 C 
BRANCH  20  22
ATOM     22  N   UNL A   1      34.496  17.294  24.648  1.00  0.00    -0.334 N 
ATOM     23  C   UNL A   1      34.677  16.421  23.484  1.00  0.00     0.333 C 
ATOM     24  C   UNL A   1      35.407  18.433  24.557  1.00  0.00     0.333 C 
ATOM     25  H   UNL A   1      34.741  16.786  25.498  1.00  0.00     0.348 HD
ENDBRANCH  20  22
ENDBRANCH  15  20
ENDBRANCH   9  14
BRANCH  12  26
ATOM     26  S   UNL A   1      32.576  26.089  21.651  1.00  0.00     0.243 S 
ATOM     27  O   UNL A   1      33.980  26.389  21.430  1.00  0.00    -0.207 OA
ATOM     28  O   UNL A   1      31.719  25.615  20.595  1.00  0.00    -0.207 OA
BRANCH  26  29
ATOM     29  N   UNL A   1      31.868  27.412  22.370  1.00  0.00    -0.193 NA
ATOM     30  C   UNL A   1      32.633  28.586  22.830  1.00  0.00     0.131 C 
ATOM     31  C   UNL A   1      30.407  27.546  22.467  1.00  0.00     0.131 C 
ATOM     32  C   UNL A   1      32.145  29.025  24.219  1.00  0.00     0.177 C 
ATOM     33  C   UNL A   1      30.042  27.962  23.889  1.00  0.00     0.177 C 
ATOM     34  O   UNL A   1      30.717  29.166  24.282  1.00  0.00    -0.379 OA
ENDBRANCH  26  29
ENDBRANCH  12  26
ENDBRANCH   5   8
ENDBRANCH   3   4
ENDBRANCH   2   3
ENDBRANCH   1   2
BRANCH   1  35
ATOM     35  C   UNL A   1      35.365  21.918  26.031  1.00  0.00     0.002 C 
BRANCH  35  36
ATOM     36  C   UNL A   1      36.528  22.273  25.100  1.00  0.00     0.021 C 
BRANCH  36  37
ATOM     37  C   UNL A   1      37.750  22.922  25.745  1.00  0.00     0.116 C 
BRANCH  37  38
ATOM     38  N   UNL A   1      38.756  21.963  26.162  1.00  0.00    -0.352 N 
ATOM     39  C   UNL A   1      39.990  22.168  26.733  1.00  0.00     0.251 C 
ATOM     40  H   UNL A   1      38.520  21.020  26.012  1.00  0.00     0.163 HD
ATOM     41  O   UNL A   1      40.733  21.205  26.912  1.00  0.00    -0.269 OA
BRANCH  39  42
ATOM     42  C   UNL A   1      40.443  23.531  27.100  1.00  0.00     0.039 A 
ATOM     43  C   UNL A   1      40.249  24.567  26.179  1.00  0.00     0.014 A 
ATOM     44  C   UNL A   1      41.074  23.795  28.319  1.00  0.00     0.014 A 
ATOM     45  C   UNL A   1      40.626  25.873  26.506  1.00  0.00     0.010 A 
ATOM     46  C   UNL A   1      41.395  25.108  28.667  1.00  0.00     0.010 A 
ATOM     47  C   UNL A   1      41.172  26.160  27.766  1.00  0.00    -0.014 A 
BRANCH  47  48
ATOM     48  C   UNL A   1      41.512  27.555  28.157  1.00  0.00     0.031 A 
ATOM     49  C   UNL A   1      42.944  28.012  28.174  1.00  0.00     0.074 A 
ATOM     50  C   UNL A   1      40.534  28.388  28.566  1.00  0.00     0.049 A 
ATOM     51  N   UNL A   1      43.446  29.158  28.559  1.00  0.00    -0.248 NA
ATOM     52  C   UNL A   1      43.948  27.036  27.726  1.00  0.00     0.031 C 
ATOM     53  C   UNL A   1      39.112  28.046  28.644  1.00  0.00     0.029 A 
ATOM     54  N   UNL A   1      40.588  29.685  29.012  1.00  0.00    -0.354 N 
ATOM     55  C   UNL A   1      44.824  29.036  28.421  1.00  0.00     0.074 A 
ATOM     56  C   UNL A   1      45.078  27.686  27.962  1.00  0.00     0.031 C 
ATOM     57  C   UNL A   1      38.430  29.108  29.103  1.00  0.00     0.029 A 
ATOM     58  C   UNL A   1      39.365  30.192  29.386  1.00  0.00     0.049 A 
ATOM     59  H   UNL A   1      41.423  30.204  29.060  1.00  0.00     0.167 HD
ATOM     60  C   UNL A   1      45.787  29.968  28.641  1.00  0.00     0.034 A 
ATOM     61  C   UNL A   1      39.035  31.388  29.912  1.00  0.00     0.034 A 
ATOM     62  C   UNL A   1      45.515  31.316  29.080  1.00  0.00     0.049 A 
ATOM     63  C   UNL A   1      40.115  32.412  30.139  1.00  0.00     0.074 A 
ATOM     64  C   UNL A   1      46.404  32.362  29.255  1.00  0.00     0.029 A 
ATOM     65  N   UNL A   1      44.260  31.803  29.424  1.00  0.00    -0.354 N 
ATOM     66  N   UNL A   1      41.409  32.303  29.942  1.00  0.00    -0.248 NA
ATOM     67  C   UNL A   1      39.691  33.722  30.645  1.00  0.00     0.031 C 
ATOM     68  C   UNL A   1      45.698  33.461  29.762  1.00  0.00     0.029 A 
ATOM     69  C   UNL A   1      44.356  33.122  29.841  1.00  0.00     0.049 A 
ATOM     70  H   UNL A   1      43.423  31.286  29.379  1.00  0.00     0.167 HD
ATOM     71  C   UNL A   1      41.949  33.540  30.280  1.00  0.00     0.074 A 
ATOM     72  C   UNL A   1      40.840  34.382  30.680  1.00  0.00     0.031 C 
ATOM     73  C   UNL A   1      43.244  33.945  30.256  1.00  0.00     0.034 A 
BRANCH  60  74
ATOM     74  C   UNL A   1      47.221  29.542  28.438  1.00  0.00     0.023 A 
ATOM     75  C   UNL A   1      47.992  29.012  29.488  1.00  0.00     0.031 A 
ATOM     76  C   UNL A   1      47.839  29.699  27.184  1.00  0.00     0.131 A 
ATOM     77  C   UNL A   1      49.354  28.740  29.290  1.00  0.00     0.055 A 
ATOM     78  C   UNL A   1      49.175  29.350  26.972  1.00  0.00     0.041 A 
ATOM     79  F   UNL A   1      47.160  30.215  26.148  1.00  0.00    -0.206 F 
ATOM     80  C   UNL A   1      49.945  28.883  28.033  1.00  0.00     0.022 A 
BRANCH  77  81
ATOM     81  S   UNL A   1      50.376  28.341  30.735  1.00  0.00     0.124 S 
ATOM     82  O   UNL A   1      51.724  28.509  30.197  1.00  0.00    -0.237 OA
ATOM     83  O   UNL A   1      49.947  29.338  31.709  1.00  0.00    -0.237 OA
ATOM     84  O   UNL A   1      50.007  26.963  31.048  1.00  0.00    -0.744 OA
ENDBRANCH  77  81
ENDBRANCH  60  74
BRANCH  61  85
ATOM     85  C   UNL A   1      37.621  31.679  30.278  1.00  0.00     0.023 A 
ATOM     86  C   UNL A   1      36.705  32.142  29.322  1.00  0.00     0.031 A 
ATOM     87  C   UNL A   1      37.173  31.516  31.601  1.00  0.00     0.131 A 
ATOM     88  C   UNL A   1      35.394  32.461  29.710  1.00  0.00     0.055 A 
ATOM     89  C   UNL A   1      35.857  31.794  31.973  1.00  0.00     0.041 A 
ATOM     90  F   UNL A   1      38.010  31.067  32.550  1.00  0.00    -0.206 F 
ATOM     91  C   UNL A   1      34.961  32.280  31.026  1.00  0.00     0.022 A 
BRANCH  88  92
ATOM     92  S   UNL A   1      34.272  33.175  28.475  1.00  0.00     0.124 S 
ATOM     93  O   UNL A   1      33.420  34.023  29.301  1.00  0.00    -0.237 OA
ATOM     94  O   UNL A   1      35.201  33.868  27.588  1.00  0.00    -0.237 OA
ATOM     95  O   UNL A   1      33.616  32.006  27.895  1.00  0.00    -0.744 OA
ENDBRANCH  88  92
ENDBRANCH  61  85
BRANCH  73  96
ATOM     96  C   UNL A   1      43.518  35.376  30.644  1.00  0.00     0.023 A 
ATOM     97  C   UNL A   1      43.659  35.763  31.988  1.00  0.00     0.031 A 
ATOM     98  C   UNL A   1      43.620  36.369  29.655  1.00  0.00     0.131 A 
ATOM     99  C   UNL A   1      43.846  37.116  32.309  1.00  0.00     0.055 A 
ATOM    100  C   UNL A   1      43.858  37.706  29.976  1.00  0.00     0.041 A 
ATOM    101  F   UNL A   1      43.489  36.054  28.356  1.00  0.00    -0.206 F 
ATOM    102  C   UNL A   1      43.961  38.087  31.311  1.00  0.00     0.022 A 
BRANCH  99 103
ATOM    103  S   UNL A   1      43.860  37.604  34.057  1.00  0.00     0.124 S 
ATOM    104  O   UNL A   1      43.632  36.330  34.729  1.00  0.00    -0.237 OA
ATOM    105  O   UNL A   1      45.191  38.179  34.211  1.00  0.00    -0.237 OA
ATOM    106  O   UNL A   1      42.759  38.562  34.153  1.00  0.00    -0.744 OA
ENDBRANCH  99 103
ENDBRANCH  73  96
ENDBRANCH  47  48
ENDBRANCH  39  42
ENDBRANCH  37  38
ENDBRANCH  36  37
ENDBRANCH  35  36
ENDBRANCH   1  35
TORSDOF 21
ENDMDL
MODEL 3
REMARK VINA RESULT:     -10.2      5.563     13.292
REMARK SMILES C[C@H](c1cccc(-c2cc(C(=O)NCCCCCCNC(=O)c3ccc(-c4c5nc(c(-c6cc(S(=O)(=O)[O-])ccc6F)c6ccc([nH]6)c(-c6cc(S(=O)(=O)[O-])ccc6F)c6nc(c(-c7cc(S(=O)(=O)[O-])ccc7F)c7ccc4[nH]7)C=C6)C=C5)cc3)cc(S(=O)(=O)N3CCOCC3)c2)c1)[NH+](C)C
REMARK SMILES IDX 16 1 15 2 14 3 13 4 11 5 12 6 10 8 8 9 9 10 97 11 87 12
REMARK SMILES IDX 86 13 7 14 3 15 4 16 98 17 5 18 6 19 2 20 1 21 99 22 100 23
REMARK SMILES IDX 101 24 88 26 89 27 90 28 91 29 92 30 96 31 93 32 95 33 94 34
REMARK SMILES IDX 17 35 18 36 19 37 20 38 21 39 22 41 23 42 24 43 85 44 25 45
REMARK SMILES IDX 84 46 26 47 27 48 28 49 78 50 29 51 83 52 77 53 79 54 30 55
REMARK SMILES IDX 82 56 76 57 75 58 31 60 63 61 43 62 62 63 44 64 47 65 61 66
REMARK SMILES IDX 80 67 45 68 46 69 60 71 81 72 48 73 32 74 33 75 41 76 34 77
REMARK SMILES IDX 40 78 42 79 39 80 35 81 36 82 37 83 38 84 64 85 65 86 73 87
REMARK SMILES IDX 66 88 72 89 74 90 71 91 67 92 68 93 69 94 70 95 49 96 50 97
REMARK SMILES IDX 58 98 51 99 57 100 59 101 56 102 52 103 53 104 54 105 55 106
REMARK H PARENT 13 7 99 25 20 40 79 59 47 70
REMARK Flexibility Score: inf
ROOT
ATOM      1  C   UNL A   1      38.048  33.999  31.796  1.00  0.00     0.002 C 
ENDROOT
BRANCH   1   2
ATOM      2  C   UNL A   1      38.574  34.646  30.517  1.00  0.00     0.021 C 
BRANCH   2   3
ATOM      3  C   UNL A   1      39.840  34.051  29.918  1.00  0.00     0.116 C 
BRANCH   3   4
ATOM      4  N   UNL A   1      41.032  34.126  30.753  1.00  0.00    -0.352 N 
ATOM      5  C   UNL A   1      42.315  34.529  30.424  1.00  0.00     0.251 C 
ATOM      6  O   UNL A   1      43.203  34.508  31.271  1.00  0.00    -0.269 OA
ATOM      7  H   UNL A   1      40.908  33.848  31.689  1.00  0.00     0.163 HD
BRANCH   5   8
ATOM      8  C   UNL A   1      42.647  34.926  29.028  1.00  0.00     0.041 A 
ATOM      9  C   UNL A   1      42.948  36.712  27.384  1.00  0.00    -0.016 A 
ATOM     10  C   UNL A   1      42.449  36.258  28.617  1.00  0.00     0.022 A 
ATOM     11  C   UNL A   1      43.717  35.800  26.629  1.00  0.00     0.030 A 
ATOM     12  C   UNL A   1      43.873  34.476  27.019  1.00  0.00     0.084 A 
ATOM     13  C   UNL A   1      43.238  34.013  28.160  1.00  0.00     0.035 A 
BRANCH   9  14
ATOM     14  C   UNL A   1      42.795  38.099  26.882  1.00  0.00    -0.018 A 
ATOM     15  C   UNL A   1      43.834  40.323  26.553  1.00  0.00     0.010 A 
ATOM     16  C   UNL A   1      42.569  40.851  26.274  1.00  0.00     0.010 A 
ATOM     17  C   UNL A   1      43.928  38.937  26.780  1.00  0.00     0.018 A 
ATOM     18  C   UNL A   1      41.438  40.031  26.291  1.00  0.00     0.001 A 
ATOM     19  C   UNL A   1      41.546  38.671  26.612  1.00  0.00     0.009 A 
BRANCH  15  20
ATOM     20  C   UNL A   1      45.038  41.261  26.714  1.00  0.00     0.211 C 
ATOM     21  C   UNL A   1      45.118  41.885  28.121  1.00  0.00     0.081 C 
BRANCH  20  22
ATOM     22  N   UNL A   1      46.313  40.701  26.211  1.00  0.00    -0.334 N 
ATOM     23  C   UNL A   1      46.399  40.782  24.749  1.00  0.00     0.333 C 
ATOM     24  C   UNL A   1      47.505  41.298  26.809  1.00  0.00     0.333 C 
ATOM     25  H   UNL A   1      46.296  39.722  26.498  1.00  0.00     0.348 HD
ENDBRANCH  20  22
ENDBRANCH  15  20
ENDBRANCH   9  14
BRANCH  12  26
ATOM     26  S   UNL A   1      45.036  33.366  26.254  1.00  0.00     0.243 S 
ATOM     27  O   UNL A   1      44.477  33.084  24.944  1.00  0.00    -0.207 OA
ATOM     28  O   UNL A   1      46.328  33.979  26.421  1.00  0.00    -0.207 OA
BRANCH  26  29
ATOM     29  N   UNL A   1      44.978  31.970  27.157  1.00  0.00    -0.193 NA
ATOM     30  C   UNL A   1      44.034  30.870  26.882  1.00  0.00     0.131 C 
ATOM     31  C   UNL A   1      45.968  31.691  28.208  1.00  0.00     0.131 C 
ATOM     32  C   UNL A   1      43.414  30.365  28.194  1.00  0.00     0.177 C 
ATOM     33  C   UNL A   1      45.237  31.220  29.462  1.00  0.00     0.177 C 
ATOM     34  O   UNL A   1      44.403  30.082  29.197  1.00  0.00    -0.379 OA
ENDBRANCH  26  29
ENDBRANCH  12  26
ENDBRANCH   5   8
ENDBRANCH   3   4
ENDBRANCH   2   3
ENDBRANCH   1   2
BRANCH   1  35
ATOM     35  C   UNL A   1      36.531  33.852  31.927  1.00  0.00     0.002 C 
BRANCH  35  36
ATOM     36  C   UNL A   1      35.720  33.783  30.631  1.00  0.00     0.021 C 
BRANCH  36  37
ATOM     37  C   UNL A   1      34.484  32.888  30.640  1.00  0.00     0.116 C 
BRANCH  37  38
ATOM     38  N   UNL A   1      34.090  32.439  29.317  1.00  0.00    -0.352 N 
ATOM     39  C   UNL A   1      34.726  31.587  28.447  1.00  0.00     0.251 C 
ATOM     40  H   UNL A   1      33.235  32.802  28.993  1.00  0.00     0.163 HD
ATOM     41  O   UNL A   1      34.260  31.425  27.321  1.00  0.00    -0.269 OA
BRANCH  39  42
ATOM     42  C   UNL A   1      35.978  30.895  28.836  1.00  0.00     0.039 A 
ATOM     43  C   UNL A   1      37.195  31.408  28.372  1.00  0.00     0.014 A 
ATOM     44  C   UNL A   1      35.968  29.741  29.624  1.00  0.00     0.014 A 
ATOM     45  C   UNL A   1      38.398  30.807  28.752  1.00  0.00     0.010 A 
ATOM     46  C   UNL A   1      37.172  29.178  30.050  1.00  0.00     0.010 A 
ATOM     47  C   UNL A   1      38.399  29.706  29.621  1.00  0.00    -0.014 A 
BRANCH  47  48
ATOM     48  C   UNL A   1      39.673  29.099  30.092  1.00  0.00     0.031 A 
ATOM     49  C   UNL A   1      40.423  29.707  31.245  1.00  0.00     0.074 A 
ATOM     50  C   UNL A   1      40.191  28.043  29.434  1.00  0.00     0.049 A 
ATOM     51  N   UNL A   1      41.584  29.373  31.749  1.00  0.00    -0.248 NA
ATOM     52  C   UNL A   1      39.795  30.865  31.897  1.00  0.00     0.031 C 
ATOM     53  C   UNL A   1      39.584  27.395  28.268  1.00  0.00     0.029 A 
ATOM     54  N   UNL A   1      41.352  27.341  29.636  1.00  0.00    -0.354 N 
ATOM     55  C   UNL A   1      41.837  30.291  32.763  1.00  0.00     0.074 A 
ATOM     56  C   UNL A   1      40.727  31.222  32.767  1.00  0.00     0.031 C 
ATOM     57  C   UNL A   1      40.376  26.389  27.864  1.00  0.00     0.029 A 
ATOM     58  C   UNL A   1      41.561  26.340  28.716  1.00  0.00     0.049 A 
ATOM     59  H   UNL A   1      41.978  27.535  30.371  1.00  0.00     0.167 HD
ATOM     60  C   UNL A   1      42.888  30.342  33.621  1.00  0.00     0.034 A 
ATOM     61  C   UNL A   1      42.594  25.488  28.563  1.00  0.00     0.034 A 
ATOM     62  C   UNL A   1      43.976  29.393  33.616  1.00  0.00     0.049 A 
ATOM     63  C   UNL A   1      43.745  25.554  29.532  1.00  0.00     0.074 A 
ATOM     64  C   UNL A   1      45.046  29.303  34.489  1.00  0.00     0.029 A 
ATOM     65  N   UNL A   1      44.140  28.375  32.685  1.00  0.00    -0.354 N 
ATOM     66  N   UNL A   1      43.939  26.388  30.528  1.00  0.00    -0.248 NA
ATOM     67  C   UNL A   1      44.809  24.557  29.365  1.00  0.00     0.031 C 
ATOM     68  C   UNL A   1      45.887  28.272  34.051  1.00  0.00     0.029 A 
ATOM     69  C   UNL A   1      45.309  27.674  32.943  1.00  0.00     0.049 A 
ATOM     70  H   UNL A   1      43.517  28.179  31.948  1.00  0.00     0.167 HD
ATOM     71  C   UNL A   1      45.137  25.999  31.118  1.00  0.00     0.074 A 
ATOM     72  C   UNL A   1      45.613  24.850  30.377  1.00  0.00     0.031 C 
ATOM     73  C   UNL A   1      45.783  26.542  32.183  1.00  0.00     0.034 A 
BRANCH  60  74
ATOM     74  C   UNL A   1      42.917  31.481  34.611  1.00  0.00     0.023 A 
ATOM     75  C   UNL A   1      42.074  31.507  35.737  1.00  0.00     0.031 A 
ATOM     76  C   UNL A   1      43.777  32.576  34.410  1.00  0.00     0.131 A 
ATOM     77  C   UNL A   1      42.047  32.637  36.567  1.00  0.00     0.055 A 
ATOM     78  C   UNL A   1      43.803  33.664  35.285  1.00  0.00     0.041 A 
ATOM     79  F   UNL A   1      44.593  32.617  33.345  1.00  0.00    -0.206 F 
ATOM     80  C   UNL A   1      42.923  33.707  36.363  1.00  0.00     0.022 A 
BRANCH  77  81
ATOM     81  S   UNL A   1      40.746  32.757  37.826  1.00  0.00     0.124 S 
ATOM     82  O   UNL A   1      40.442  34.185  37.801  1.00  0.00    -0.237 OA
ATOM     83  O   UNL A   1      39.714  31.874  37.296  1.00  0.00    -0.237 OA
ATOM     84  O   UNL A   1      41.403  32.289  39.044  1.00  0.00    -0.744 OA
ENDBRANCH  77  81
ENDBRANCH  60  74
BRANCH  61  85
ATOM     85  C   UNL A   1      42.598  24.511  27.440  1.00  0.00     0.023 A 
ATOM     86  C   UNL A   1      42.021  23.240  27.582  1.00  0.00     0.031 A 
ATOM     87  C   UNL A   1      43.202  24.831  26.211  1.00  0.00     0.131 A 
ATOM     88  C   UNL A   1      42.091  22.320  26.524  1.00  0.00     0.055 A 
ATOM     89  C   UNL A   1      43.231  23.928  25.147  1.00  0.00     0.041 A 
ATOM     90  F   UNL A   1      43.759  26.038  26.024  1.00  0.00    -0.206 F 
ATOM     91  C   UNL A   1      42.682  22.660  25.304  1.00  0.00     0.022 A 
BRANCH  88  92
ATOM     92  S   UNL A   1      41.446  20.645  26.785  1.00  0.00     0.124 S 
ATOM     93  O   UNL A   1      40.061  20.913  27.154  1.00  0.00    -0.237 OA
ATOM     94  O   UNL A   1      41.656  20.033  25.477  1.00  0.00    -0.237 OA
ATOM     95  O   UNL A   1      42.288  20.120  27.858  1.00  0.00    -0.744 OA
ENDBRANCH  88  92
ENDBRANCH  61  85
BRANCH  73  96
ATOM     96  C   UNL A   1      47.057  25.867  32.622  1.00  0.00     0.023 A 
ATOM     97  C   UNL A   1      47.058  24.845  33.588  1.00  0.00     0.031 A 
ATOM     98  C   UNL A   1      48.291  26.265  32.078  1.00  0.00     0.131 A 
ATOM     99  C   UNL A   1      48.274  24.291  34.016  1.00  0.00     0.055 A 
ATOM    100  C   UNL A   1      49.493  25.674  32.470  1.00  0.00     0.041 A 
ATOM    101  F   UNL A   1      48.347  27.239  31.154  1.00  0.00    -0.206 F 
ATOM    102  C   UNL A   1      49.489  24.689  33.453  1.00  0.00     0.022 A 
BRANCH  99 103
ATOM    103  S   UNL A   1      48.254  23.094  35.380  1.00  0.00     0.124 S 
ATOM    104  O   UNL A   1      47.606  21.942  34.763  1.00  0.00    -0.237 OA
ATOM    105  O   UNL A   1      49.672  22.942  35.683  1.00  0.00    -0.237 OA
ATOM    106  O   UNL A   1      47.470  23.767  36.415  1.00  0.00    -0.744 OA
ENDBRANCH  99 103
ENDBRANCH  73  96
ENDBRANCH  47  48
ENDBRANCH  39  42
ENDBRANCH  37  38
ENDBRANCH  36  37
ENDBRANCH  35  36
ENDBRANCH   1  35
TORSDOF 21
ENDMDL
