MODEL 1
REMARK VINA RESULT:     -11.6      0.000      0.000
REMARK SMILES CC[C@@H](C(=O)NCCCCCCNC(=O)c1ccc(-c2c3nc(c(-c4cc(S(=O)(=O)[O-])ccc4F)c4ccc([nH]4)c(-c4cc(S(=O)(=O)[O-])ccc4F)c4nc(c(-c5cc(S(=O)(=O)[O-])ccc5F)c5ccc2[nH]5)C=C4)C=C3)cc1)N1CCN(Cc2cccc(C)c2)C(=O)C1=O
REMARK SMILES IDX 9 1 8 2 7 3 6 4 4 5 5 6 3 8 2 9 1 10 79 11 80 12 93 13 81 14
REMARK SMILES IDX 91 15 94 16 82 17 92 18 83 19 84 20 85 21 90 22 86 23 88 24
REMARK SMILES IDX 87 25 89 26 10 27 11 28 12 29 13 30 14 31 15 33 16 34 17 35
REMARK SMILES IDX 78 36 18 37 77 38 19 39 20 40 21 41 71 42 22 43 76 44 70 45
REMARK SMILES IDX 72 46 23 47 75 48 69 49 68 50 24 52 56 53 36 54 55 55 37 56
REMARK SMILES IDX 40 57 54 58 73 59 38 60 39 61 53 63 74 64 41 65 25 66 26 67
REMARK SMILES IDX 34 68 27 69 33 70 35 71 32 72 28 73 29 74 30 75 31 76 57 77
REMARK SMILES IDX 58 78 66 79 59 80 65 81 67 82 64 83 60 84 61 85 62 86 63 87
REMARK SMILES IDX 42 88 43 89 51 90 44 91 50 92 52 93 49 94 45 95 46 96 47 97
REMARK SMILES IDX 48 98
REMARK H PARENT 6 7 13 32 72 51 40 62
REMARK Flexibility Score: inf
ROOT
ATOM      1  C   UNL A   1      47.981  20.381  37.503  1.00  0.00     0.002 C 
ENDROOT
BRANCH   1   2
ATOM      2  C   UNL A   1      47.335  19.867  38.790  1.00  0.00     0.021 C 
BRANCH   2   3
ATOM      3  C   UNL A   1      46.306  18.753  38.568  1.00  0.00     0.116 C 
BRANCH   3   4
ATOM      4  N   UNL A   1      46.705  17.558  39.296  1.00  0.00    -0.354 N 
ATOM      5  C   UNL A   1      46.295  17.085  40.512  1.00  0.00     0.242 C 
ATOM      6  O   UNL A   1      46.948  16.170  41.026  1.00  0.00    -0.273 OA
ATOM      7  H   UNL A   1      47.378  17.002  38.840  1.00  0.00     0.163 HD
BRANCH   5   8
ATOM      8  C   UNL A   1      45.058  17.701  41.216  1.00  0.00     0.174 C 
BRANCH   8   9
ATOM      9  C   UNL A   1      45.477  18.562  42.429  1.00  0.00     0.032 C 
ATOM     10  C   UNL A   1      44.566  19.697  42.847  1.00  0.00     0.006 C 
ENDBRANCH   8   9
BRANCH   8  11
ATOM     11  N   UNL A   1      44.136  16.589  41.601  1.00  0.00    -0.321 N 
ATOM     12  C   UNL A   1      44.196  15.937  42.902  1.00  0.00     0.142 C 
ATOM     13  C   UNL A   1      43.085  16.208  40.742  1.00  0.00     0.312 C 
ATOM     14  C   UNL A   1      42.780  15.864  43.454  1.00  0.00     0.142 C 
ATOM     15  C   UNL A   1      42.151  15.032  41.255  1.00  0.00     0.312 C 
ATOM     16  O   UNL A   1      42.843  16.768  39.680  1.00  0.00    -0.263 OA
ATOM     17  N   UNL A   1      42.027  14.924  42.648  1.00  0.00    -0.328 N 
ATOM     18  O   UNL A   1      41.578  14.298  40.462  1.00  0.00    -0.263 OA
BRANCH  17  19
ATOM     19  C   UNL A   1      41.105  13.976  43.274  1.00  0.00     0.155 C 
BRANCH  19  20
ATOM     20  C   UNL A   1      41.761  12.671  43.687  1.00  0.00    -0.028 A 
ATOM     21  C   UNL A   1      41.329  11.452  43.151  1.00  0.00     0.005 A 
ATOM     22  C   UNL A   1      42.840  12.656  44.590  1.00  0.00     0.009 A 
ATOM     23  C   UNL A   1      41.975  10.260  43.493  1.00  0.00     0.001 A 
ATOM     24  C   UNL A   1      43.557  11.483  44.855  1.00  0.00    -0.051 A 
ATOM     25  C   UNL A   1      43.094  10.276  44.327  1.00  0.00     0.003 A 
ATOM     26  C   UNL A   1      44.799  11.524  45.696  1.00  0.00     0.044 C 
ENDBRANCH  19  20
ENDBRANCH  17  19
ENDBRANCH   8  11
ENDBRANCH   5   8
ENDBRANCH   3   4
ENDBRANCH   2   3
ENDBRANCH   1   2
BRANCH   1  27
ATOM     27  C   UNL A   1      47.310  21.619  36.902  1.00  0.00     0.002 C 
BRANCH  27  28
ATOM     28  C   UNL A   1      47.864  22.087  35.552  1.00  0.00     0.021 C 
BRANCH  28  29
ATOM     29  C   UNL A   1      47.506  23.518  35.149  1.00  0.00     0.116 C 
BRANCH  29  30
ATOM     30  N   UNL A   1      47.986  24.495  36.110  1.00  0.00    -0.352 N 
ATOM     31  C   UNL A   1      47.639  25.814  36.264  1.00  0.00     0.251 C 
ATOM     32  H   UNL A   1      48.658  24.161  36.747  1.00  0.00     0.163 HD
ATOM     33  O   UNL A   1      48.300  26.528  37.014  1.00  0.00    -0.269 OA
BRANCH  31  34
ATOM     34  C   UNL A   1      46.493  26.382  35.518  1.00  0.00     0.039 A 
ATOM     35  C   UNL A   1      46.701  27.516  34.728  1.00  0.00     0.014 A 
ATOM     36  C   UNL A   1      45.211  25.830  35.625  1.00  0.00     0.014 A 
ATOM     37  C   UNL A   1      45.637  28.069  34.011  1.00  0.00     0.010 A 
ATOM     38  C   UNL A   1      44.164  26.349  34.865  1.00  0.00     0.010 A 
ATOM     39  C   UNL A   1      44.364  27.480  34.057  1.00  0.00    -0.014 A 
BRANCH  39  40
ATOM     40  C   UNL A   1      43.226  28.055  33.292  1.00  0.00     0.031 A 
ATOM     41  C   UNL A   1      43.020  27.676  31.850  1.00  0.00     0.074 A 
ATOM     42  C   UNL A   1      42.410  28.952  33.880  1.00  0.00     0.049 A 
ATOM     43  N   UNL A   1      42.126  28.109  30.998  1.00  0.00    -0.248 NA
ATOM     44  C   UNL A   1      43.967  26.704  31.286  1.00  0.00     0.031 C 
ATOM     45  C   UNL A   1      42.533  29.430  35.258  1.00  0.00     0.029 A 
ATOM     46  N   UNL A   1      41.321  29.627  33.389  1.00  0.00    -0.354 N 
ATOM     47  C   UNL A   1      42.411  27.474  29.794  1.00  0.00     0.074 A 
ATOM     48  C   UNL A   1      43.595  26.671  30.015  1.00  0.00     0.031 C 
ATOM     49  C   UNL A   1      41.548  30.308  35.507  1.00  0.00     0.029 A 
ATOM     50  C   UNL A   1      40.743  30.480  34.301  1.00  0.00     0.049 A 
ATOM     51  H   UNL A   1      40.984  29.512  32.471  1.00  0.00     0.167 HD
ATOM     52  C   UNL A   1      41.735  27.537  28.618  1.00  0.00     0.034 A 
ATOM     53  C   UNL A   1      39.687  31.309  34.178  1.00  0.00     0.034 A 
ATOM     54  C   UNL A   1      40.545  28.327  28.417  1.00  0.00     0.049 A 
ATOM     55  C   UNL A   1      38.945  31.353  32.868  1.00  0.00     0.074 A 
ATOM     56  C   UNL A   1      39.753  28.428  27.286  1.00  0.00     0.029 A 
ATOM     57  N   UNL A   1      39.972  29.158  29.373  1.00  0.00    -0.354 N 
ATOM     58  N   UNL A   1      39.199  30.713  31.750  1.00  0.00    -0.248 NA
ATOM     59  C   UNL A   1      37.761  32.220  32.808  1.00  0.00     0.031 C 
ATOM     60  C   UNL A   1      38.736  29.356  27.539  1.00  0.00     0.029 A 
ATOM     61  C   UNL A   1      38.853  29.788  28.850  1.00  0.00     0.049 A 
ATOM     62  H   UNL A   1      40.312  29.282  30.289  1.00  0.00     0.167 HD
ATOM     63  C   UNL A   1      38.190  31.079  30.865  1.00  0.00     0.074 A 
ATOM     64  C   UNL A   1      37.317  31.985  31.583  1.00  0.00     0.031 C 
ATOM     65  C   UNL A   1      37.998  30.698  29.577  1.00  0.00     0.034 A 
BRANCH  52  66
ATOM     66  C   UNL A   1      42.292  26.745  27.458  1.00  0.00     0.023 A 
ATOM     67  C   UNL A   1      41.957  25.394  27.259  1.00  0.00     0.031 A 
ATOM     68  C   UNL A   1      43.202  27.336  26.564  1.00  0.00     0.131 A 
ATOM     69  C   UNL A   1      42.590  24.658  26.247  1.00  0.00     0.055 A 
ATOM     70  C   UNL A   1      43.766  26.618  25.506  1.00  0.00     0.041 A 
ATOM     71  F   UNL A   1      43.574  28.617  26.713  1.00  0.00    -0.206 F 
ATOM     72  C   UNL A   1      43.473  25.266  25.353  1.00  0.00     0.022 A 
BRANCH  69  73
ATOM     73  S   UNL A   1      42.356  22.860  26.210  1.00  0.00     0.124 S 
ATOM     74  O   UNL A   1      42.927  22.516  24.911  1.00  0.00    -0.237 OA
ATOM     75  O   UNL A   1      43.110  22.419  27.378  1.00  0.00    -0.237 OA
ATOM     76  O   UNL A   1      40.906  22.700  26.307  1.00  0.00    -0.744 OA
ENDBRANCH  69  73
ENDBRANCH  52  66
BRANCH  53  77
ATOM     77  C   UNL A   1      39.264  32.164  35.321  1.00  0.00     0.023 A 
ATOM     78  C   UNL A   1      39.795  33.451  35.497  1.00  0.00     0.031 A 
ATOM     79  C   UNL A   1      38.347  31.689  36.276  1.00  0.00     0.131 A 
ATOM     80  C   UNL A   1      39.438  34.205  36.625  1.00  0.00     0.055 A 
ATOM     81  C   UNL A   1      37.961  32.462  37.373  1.00  0.00     0.041 A 
ATOM     82  F   UNL A   1      37.803  30.469  36.148  1.00  0.00    -0.206 F 
ATOM     83  C   UNL A   1      38.518  33.724  37.559  1.00  0.00     0.022 A 
BRANCH  80  84
ATOM     84  S   UNL A   1      40.254  35.803  36.892  1.00  0.00     0.124 S 
ATOM     85  O   UNL A   1      39.684  36.612  35.821  1.00  0.00    -0.237 OA
ATOM     86  O   UNL A   1      39.827  36.138  38.246  1.00  0.00    -0.237 OA
ATOM     87  O   UNL A   1      41.674  35.488  36.749  1.00  0.00    -0.744 OA
ENDBRANCH  80  84
ENDBRANCH  53  77
BRANCH  65  88
ATOM     88  C   UNL A   1      36.769  31.231  28.885  1.00  0.00     0.023 A 
ATOM     89  C   UNL A   1      35.729  30.381  28.469  1.00  0.00     0.031 A 
ATOM     90  C   UNL A   1      36.651  32.606  28.616  1.00  0.00     0.131 A 
ATOM     91  C   UNL A   1      34.641  30.908  27.757  1.00  0.00     0.055 A 
ATOM     92  C   UNL A   1      35.541  33.131  27.954  1.00  0.00     0.041 A 
ATOM     93  F   UNL A   1      37.617  33.461  28.991  1.00  0.00    -0.206 F 
ATOM     94  C   UNL A   1      34.534  32.280  27.509  1.00  0.00     0.022 A 
BRANCH  91  95
ATOM     95  S   UNL A   1      33.408  29.764  27.078  1.00  0.00     0.124 S 
ATOM     96  O   UNL A   1      33.883  29.580  25.711  1.00  0.00    -0.237 OA
ATOM     97  O   UNL A   1      33.539  28.607  27.959  1.00  0.00    -0.237 OA
ATOM     98  O   UNL A   1      32.150  30.498  27.205  1.00  0.00    -0.744 OA
ENDBRANCH  91  95
ENDBRANCH  65  88
ENDBRANCH  39  40
ENDBRANCH  31  34
ENDBRANCH  29  30
ENDBRANCH  28  29
ENDBRANCH  27  28
ENDBRANCH   1  27
TORSDOF 20
ENDMDL
MODEL 2
REMARK VINA RESULT:     -11.0      1.845      2.118
REMARK SMILES CC[C@@H](C(=O)NCCCCCCNC(=O)c1ccc(-c2c3nc(c(-c4cc(S(=O)(=O)[O-])ccc4F)c4ccc([nH]4)c(-c4cc(S(=O)(=O)[O-])ccc4F)c4nc(c(-c5cc(S(=O)(=O)[O-])ccc5F)c5ccc2[nH]5)C=C4)C=C3)cc1)N1CCN(Cc2cccc(C)c2)C(=O)C1=O
REMARK SMILES IDX 9 1 8 2 7 3 6 4 4 5 5 6 3 8 2 9 1 10 79 11 80 12 93 13 81 14
REMARK SMILES IDX 91 15 94 16 82 17 92 18 83 19 84 20 85 21 90 22 86 23 88 24
REMARK SMILES IDX 87 25 89 26 10 27 11 28 12 29 13 30 14 31 15 33 16 34 17 35
REMARK SMILES IDX 78 36 18 37 77 38 19 39 20 40 21 41 71 42 22 43 76 44 70 45
REMARK SMILES IDX 72 46 23 47 75 48 69 49 68 50 24 52 56 53 36 54 55 55 37 56
REMARK SMILES IDX 40 57 54 58 73 59 38 60 39 61 53 63 74 64 41 65 25 66 26 67
REMARK SMILES IDX 34 68 27 69 33 70 35 71 32 72 28 73 29 74 30 75 31 76 57 77
REMARK SMILES IDX 58 78 66 79 59 80 65 81 67 82 64 83 60 84 61 85 62 86 63 87
REMARK SMILES IDX 42 88 43 89 51 90 44 91 50 92 52 93 49 94 45 95 46 96 47 97
REMARK SMILES IDX 48 98
REMARK H PARENT 6 7 13 32 72 51 40 62
REMARK Flexibility Score: inf
ROOT
ATOM      1  C   UNL A   1      47.950  20.848  37.562  1.00  0.00     0.002 C 
ENDROOT
BRANCH   1   2
ATOM      2  C   UNL A   1      47.352  20.162  38.791  1.00  0.00     0.021 C 
BRANCH   2   3
ATOM      3  C   UNL A   1      46.339  19.061  38.458  1.00  0.00     0.116 C 
BRANCH   3   4
ATOM      4  N   UNL A   1      46.710  17.826  39.132  1.00  0.00    -0.354 N 
ATOM      5  C   UNL A   1      46.260  17.289  40.307  1.00  0.00     0.242 C 
ATOM      6  O   UNL A   1      46.893  16.344  40.790  1.00  0.00    -0.273 OA
ATOM      7  H   UNL A   1      47.394  17.292  38.667  1.00  0.00     0.163 HD
BRANCH   5   8
ATOM      8  C   UNL A   1      45.004  17.873  41.004  1.00  0.00     0.174 C 
BRANCH   8   9
ATOM      9  C   UNL A   1      45.398  18.809  42.170  1.00  0.00     0.032 C 
ATOM     10  C   UNL A   1      44.678  20.136  42.295  1.00  0.00     0.006 C 
ENDBRANCH   8   9
BRANCH   8  11
ATOM     11  N   UNL A   1      44.147  16.735  41.455  1.00  0.00    -0.321 N 
ATOM     12  C   UNL A   1      44.339  16.069  42.736  1.00  0.00     0.142 C 
ATOM     13  C   UNL A   1      43.031  16.339  40.689  1.00  0.00     0.312 C 
ATOM     14  C   UNL A   1      42.981  15.954  43.413  1.00  0.00     0.142 C 
ATOM     15  C   UNL A   1      42.175  15.135  41.267  1.00  0.00     0.312 C 
ATOM     16  O   UNL A   1      42.681  16.906  39.662  1.00  0.00    -0.263 OA
ATOM     17  N   UNL A   1      42.180  15.007  42.664  1.00  0.00    -0.328 N 
ATOM     18  O   UNL A   1      41.549  14.397  40.519  1.00  0.00    -0.263 OA
BRANCH  17  19
ATOM     19  C   UNL A   1      41.341  14.029  43.357  1.00  0.00     0.155 C 
BRANCH  19  20
ATOM     20  C   UNL A   1      42.027  12.696  43.593  1.00  0.00    -0.028 A 
ATOM     21  C   UNL A   1      41.393  11.495  43.252  1.00  0.00     0.005 A 
ATOM     22  C   UNL A   1      43.327  12.634  44.126  1.00  0.00     0.009 A 
ATOM     23  C   UNL A   1      42.053  10.274  43.419  1.00  0.00     0.001 A 
ATOM     24  C   UNL A   1      44.033  11.427  44.199  1.00  0.00    -0.051 A 
ATOM     25  C   UNL A   1      43.373  10.240  43.874  1.00  0.00     0.003 A 
ATOM     26  C   UNL A   1      45.473  11.411  44.621  1.00  0.00     0.044 C 
ENDBRANCH  19  20
ENDBRANCH  17  19
ENDBRANCH   8  11
ENDBRANCH   5   8
ENDBRANCH   3   4
ENDBRANCH   2   3
ENDBRANCH   1   2
BRANCH   1  27
ATOM     27  C   UNL A   1      47.500  22.297  37.359  1.00  0.00     0.002 C 
BRANCH  27  28
ATOM     28  C   UNL A   1      48.238  23.076  36.263  1.00  0.00     0.021 C 
BRANCH  28  29
ATOM     29  C   UNL A   1      47.581  24.383  35.823  1.00  0.00     0.116 C 
BRANCH  29  30
ATOM     30  N   UNL A   1      48.277  25.549  36.337  1.00  0.00    -0.352 N 
ATOM     31  C   UNL A   1      48.048  26.881  36.098  1.00  0.00     0.251 C 
ATOM     32  H   UNL A   1      49.023  25.355  36.950  1.00  0.00     0.163 HD
ATOM     33  O   UNL A   1      48.871  27.711  36.477  1.00  0.00    -0.269 OA
BRANCH  31  34
ATOM     34  C   UNL A   1      46.834  27.317  35.372  1.00  0.00     0.039 A 
ATOM     35  C   UNL A   1      46.978  28.162  34.269  1.00  0.00     0.014 A 
ATOM     36  C   UNL A   1      45.557  26.931  35.795  1.00  0.00     0.014 A 
ATOM     37  C   UNL A   1      45.848  28.585  33.564  1.00  0.00     0.010 A 
ATOM     38  C   UNL A   1      44.436  27.308  35.057  1.00  0.00     0.010 A 
ATOM     39  C   UNL A   1      44.569  28.147  33.939  1.00  0.00    -0.014 A 
BRANCH  39  40
ATOM     40  C   UNL A   1      43.361  28.583  33.191  1.00  0.00     0.031 A 
ATOM     41  C   UNL A   1      43.184  28.191  31.749  1.00  0.00     0.074 A 
ATOM     42  C   UNL A   1      42.448  29.371  33.795  1.00  0.00     0.049 A 
ATOM     43  N   UNL A   1      42.233  28.517  30.911  1.00  0.00    -0.248 NA
ATOM     44  C   UNL A   1      44.235  27.345  31.167  1.00  0.00     0.031 C 
ATOM     45  C   UNL A   1      42.529  29.852  35.176  1.00  0.00     0.029 A 
ATOM     46  N   UNL A   1      41.279  29.911  33.323  1.00  0.00    -0.354 N 
ATOM     47  C   UNL A   1      42.579  27.928  29.699  1.00  0.00     0.074 A 
ATOM     48  C   UNL A   1      43.855  27.274  29.900  1.00  0.00     0.031 C 
ATOM     49  C   UNL A   1      41.447  30.601  35.443  1.00  0.00     0.029 A 
ATOM     50  C   UNL A   1      40.613  30.682  34.247  1.00  0.00     0.049 A 
ATOM     51  H   UNL A   1      40.947  29.761  32.408  1.00  0.00     0.167 HD
ATOM     52  C   UNL A   1      41.886  27.915  28.532  1.00  0.00     0.034 A 
ATOM     53  C   UNL A   1      39.463  31.376  34.143  1.00  0.00     0.034 A 
ATOM     54  C   UNL A   1      40.605  28.556  28.351  1.00  0.00     0.049 A 
ATOM     55  C   UNL A   1      38.704  31.337  32.842  1.00  0.00     0.074 A 
ATOM     56  C   UNL A   1      39.793  28.566  27.229  1.00  0.00     0.029 A 
ATOM     57  N   UNL A   1      39.947  29.305  29.319  1.00  0.00    -0.354 N 
ATOM     58  N   UNL A   1      39.021  30.739  31.717  1.00  0.00    -0.248 NA
ATOM     59  C   UNL A   1      37.422  32.054  32.802  1.00  0.00     0.031 C 
ATOM     60  C   UNL A   1      38.674  29.362  27.501  1.00  0.00     0.029 A 
ATOM     61  C   UNL A   1      38.754  29.797  28.814  1.00  0.00     0.049 A 
ATOM     62  H   UNL A   1      40.282  29.464  30.232  1.00  0.00     0.167 HD
ATOM     63  C   UNL A   1      37.963  30.985  30.846  1.00  0.00     0.074 A 
ATOM     64  C   UNL A   1      36.995  31.773  31.581  1.00  0.00     0.031 C 
ATOM     65  C   UNL A   1      37.804  30.591  29.557  1.00  0.00     0.034 A 
BRANCH  52  66
ATOM     66  C   UNL A   1      42.521  27.205  27.360  1.00  0.00     0.023 A 
ATOM     67  C   UNL A   1      42.274  25.845  27.101  1.00  0.00     0.031 A 
ATOM     68  C   UNL A   1      43.415  27.883  26.514  1.00  0.00     0.131 A 
ATOM     69  C   UNL A   1      42.978  25.187  26.080  1.00  0.00     0.055 A 
ATOM     70  C   UNL A   1      44.050  27.243  25.447  1.00  0.00     0.041 A 
ATOM     71  F   UNL A   1      43.704  29.178  26.721  1.00  0.00    -0.206 F 
ATOM     72  C   UNL A   1      43.845  25.883  25.235  1.00  0.00     0.022 A 
BRANCH  69  73
ATOM     73  S   UNL A   1      42.856  23.381  25.970  1.00  0.00     0.124 S 
ATOM     74  O   UNL A   1      41.481  23.153  26.407  1.00  0.00    -0.237 OA
ATOM     75  O   UNL A   1      43.128  23.132  24.559  1.00  0.00    -0.237 OA
ATOM     76  O   UNL A   1      43.884  22.911  26.896  1.00  0.00    -0.744 OA
ENDBRANCH  69  73
ENDBRANCH  52  66
BRANCH  53  77
ATOM     77  C   UNL A   1      38.952  32.166  35.297  1.00  0.00     0.023 A 
ATOM     78  C   UNL A   1      38.396  31.530  36.418  1.00  0.00     0.031 A 
ATOM     79  C   UNL A   1      38.982  33.571  35.279  1.00  0.00     0.131 A 
ATOM     80  C   UNL A   1      37.852  32.300  37.458  1.00  0.00     0.055 A 
ATOM     81  C   UNL A   1      38.479  34.331  36.337  1.00  0.00     0.041 A 
ATOM     82  F   UNL A   1      39.512  34.226  34.234  1.00  0.00    -0.206 F 
ATOM     83  C   UNL A   1      37.898  33.695  37.430  1.00  0.00     0.022 A 
BRANCH  80  84
ATOM     84  S   UNL A   1      37.014  31.445  38.822  1.00  0.00     0.124 S 
ATOM     85  O   UNL A   1      35.759  32.181  38.908  1.00  0.00    -0.237 OA
ATOM     86  O   UNL A   1      36.926  30.080  38.314  1.00  0.00    -0.237 OA
ATOM     87  O   UNL A   1      37.926  31.630  39.949  1.00  0.00    -0.744 OA
ENDBRANCH  80  84
ENDBRANCH  53  77
BRANCH  65  88
ATOM     88  C   UNL A   1      36.510  30.974  28.883  1.00  0.00     0.023 A 
ATOM     89  C   UNL A   1      36.080  32.311  28.817  1.00  0.00     0.031 A 
ATOM     90  C   UNL A   1      35.687  29.982  28.322  1.00  0.00     0.131 A 
ATOM     91  C   UNL A   1      34.832  32.614  28.253  1.00  0.00     0.055 A 
ATOM     92  C   UNL A   1      34.470  30.297  27.714  1.00  0.00     0.041 A 
ATOM     93  F   UNL A   1      36.051  28.690  28.359  1.00  0.00    -0.206 F 
ATOM     94  C   UNL A   1      34.031  31.617  27.689  1.00  0.00     0.022 A 
BRANCH  91  95
ATOM     95  S   UNL A   1      34.225  34.322  28.345  1.00  0.00     0.124 S 
ATOM     96  O   UNL A   1      34.852  34.931  27.176  1.00  0.00    -0.237 OA
ATOM     97  O   UNL A   1      32.779  34.142  28.272  1.00  0.00    -0.237 OA
ATOM     98  O   UNL A   1      34.726  34.795  29.635  1.00  0.00    -0.744 OA
ENDBRANCH  91  95
ENDBRANCH  65  88
ENDBRANCH  39  40
ENDBRANCH  31  34
ENDBRANCH  29  30
ENDBRANCH  28  29
ENDBRANCH  27  28
ENDBRANCH   1  27
TORSDOF 20
ENDMDL
MODEL 3
REMARK VINA RESULT:     -11.0      7.473     14.275
REMARK SMILES CC[C@@H](C(=O)NCCCCCCNC(=O)c1ccc(-c2c3nc(c(-c4cc(S(=O)(=O)[O-])ccc4F)c4ccc([nH]4)c(-c4cc(S(=O)(=O)[O-])ccc4F)c4nc(c(-c5cc(S(=O)(=O)[O-])ccc5F)c5ccc2[nH]5)C=C4)C=C3)cc1)N1CCN(Cc2cccc(C)c2)C(=O)C1=O
REMARK SMILES IDX 9 1 8 2 7 3 6 4 4 5 5 6 3 8 2 9 1 10 79 11 80 12 93 13 81 14
REMARK SMILES IDX 91 15 94 16 82 17 92 18 83 19 84 20 85 21 90 22 86 23 88 24
REMARK SMILES IDX 87 25 89 26 10 27 11 28 12 29 13 30 14 31 15 33 16 34 17 35
REMARK SMILES IDX 78 36 18 37 77 38 19 39 20 40 21 41 71 42 22 43 76 44 70 45
REMARK SMILES IDX 72 46 23 47 75 48 69 49 68 50 24 52 56 53 36 54 55 55 37 56
REMARK SMILES IDX 40 57 54 58 73 59 38 60 39 61 53 63 74 64 41 65 25 66 26 67
REMARK SMILES IDX 34 68 27 69 33 70 35 71 32 72 28 73 29 74 30 75 31 76 57 77
REMARK SMILES IDX 58 78 66 79 59 80 65 81 67 82 64 83 60 84 61 85 62 86 63 87
REMARK SMILES IDX 42 88 43 89 51 90 44 91 50 92 52 93 49 94 45 95 46 96 47 97
REMARK SMILES IDX 48 98
REMARK H PARENT 6 7 13 32 72 51 40 62
REMARK Flexibility Score: inf
ROOT
ATOM      1  C   UNL A   1      34.752  29.934  27.584  1.00  0.00     0.002 C 
ENDROOT
BRANCH   1   2
ATOM      2  C   UNL A   1      33.439  29.474  26.950  1.00  0.00     0.021 C 
BRANCH   2   3
ATOM      3  C   UNL A   1      33.454  28.017  26.476  1.00  0.00     0.116 C 
BRANCH   3   4
ATOM      4  N   UNL A   1      32.257  27.333  26.941  1.00  0.00    -0.354 N 
ATOM      5  C   UNL A   1      31.331  26.601  26.249  1.00  0.00     0.242 C 
ATOM      6  O   UNL A   1      30.276  26.312  26.824  1.00  0.00    -0.273 OA
ATOM      7  H   UNL A   1      32.088  27.408  27.907  1.00  0.00     0.163 HD
BRANCH   5   8
ATOM      8  C   UNL A   1      31.607  26.172  24.785  1.00  0.00     0.174 C 
BRANCH   8   9
ATOM      9  C   UNL A   1      30.296  25.789  24.059  1.00  0.00     0.032 C 
ATOM     10  C   UNL A   1      29.347  26.902  23.667  1.00  0.00     0.006 C 
ENDBRANCH   8   9
BRANCH   8  11
ATOM     11  N   UNL A   1      32.594  25.049  24.804  1.00  0.00    -0.321 N 
ATOM     12  C   UNL A   1      32.755  24.167  25.953  1.00  0.00     0.142 C 
ATOM     13  C   UNL A   1      33.331  24.731  23.645  1.00  0.00     0.312 C 
ATOM     14  C   UNL A   1      32.753  22.733  25.446  1.00  0.00     0.142 C 
ATOM     15  C   UNL A   1      34.335  23.508  23.766  1.00  0.00     0.312 C 
ATOM     16  O   UNL A   1      33.189  25.308  22.575  1.00  0.00    -0.263 OA
ATOM     17  N   UNL A   1      33.971  22.518  24.690  1.00  0.00    -0.328 N 
ATOM     18  O   UNL A   1      35.340  23.455  23.072  1.00  0.00    -0.263 OA
BRANCH  17  19
ATOM     19  C   UNL A   1      34.722  21.270  24.827  1.00  0.00     0.155 C 
BRANCH  19  20
ATOM     20  C   UNL A   1      33.972  20.049  24.324  1.00  0.00    -0.028 A 
ATOM     21  C   UNL A   1      32.846  20.189  23.504  1.00  0.00     0.005 A 
ATOM     22  C   UNL A   1      34.409  18.750  24.638  1.00  0.00     0.009 A 
ATOM     23  C   UNL A   1      32.194  19.061  22.999  1.00  0.00     0.001 A 
ATOM     24  C   UNL A   1      33.827  17.619  24.053  1.00  0.00    -0.051 A 
ATOM     25  C   UNL A   1      32.692  17.782  23.256  1.00  0.00     0.003 A 
ATOM     26  C   UNL A   1      34.413  16.257  24.280  1.00  0.00     0.044 C 
ENDBRANCH  19  20
ENDBRANCH  17  19
ENDBRANCH   8  11
ENDBRANCH   5   8
ENDBRANCH   3   4
ENDBRANCH   2   3
ENDBRANCH   1   2
BRANCH   1  27
ATOM     27  C   UNL A   1      34.787  31.414  27.976  1.00  0.00     0.002 C 
BRANCH  27  28
ATOM     28  C   UNL A   1      33.436  32.138  27.963  1.00  0.00     0.021 C 
BRANCH  28  29
ATOM     29  C   UNL A   1      33.426  33.508  27.286  1.00  0.00     0.116 C 
BRANCH  29  30
ATOM     30  N   UNL A   1      32.904  34.547  28.155  1.00  0.00    -0.352 N 
ATOM     31  C   UNL A   1      33.238  34.853  29.451  1.00  0.00     0.251 C 
ATOM     32  H   UNL A   1      32.210  35.119  27.755  1.00  0.00     0.163 HD
ATOM     33  O   UNL A   1      32.545  35.648  30.080  1.00  0.00    -0.269 OA
BRANCH  31  34
ATOM     34  C   UNL A   1      34.409  34.216  30.096  1.00  0.00     0.039 A 
ATOM     35  C   UNL A   1      34.191  33.300  31.128  1.00  0.00     0.014 A 
ATOM     36  C   UNL A   1      35.715  34.546  29.719  1.00  0.00     0.014 A 
ATOM     37  C   UNL A   1      35.278  32.682  31.751  1.00  0.00     0.010 A 
ATOM     38  C   UNL A   1      36.796  33.887  30.302  1.00  0.00     0.010 A 
ATOM     39  C   UNL A   1      36.589  32.954  31.332  1.00  0.00    -0.014 A 
BRANCH  39  40
ATOM     40  C   UNL A   1      37.753  32.297  31.981  1.00  0.00     0.031 A 
ATOM     41  C   UNL A   1      38.483  31.186  31.274  1.00  0.00     0.074 A 
ATOM     42  C   UNL A   1      38.122  32.665  33.224  1.00  0.00     0.049 A 
ATOM     43  N   UNL A   1      39.481  30.451  31.693  1.00  0.00    -0.248 NA
ATOM     44  C   UNL A   1      38.002  30.839  29.929  1.00  0.00     0.031 C 
ATOM     45  C   UNL A   1      37.468  33.699  34.028  1.00  0.00     0.029 A 
ATOM     46  N   UNL A   1      39.133  32.207  34.030  1.00  0.00    -0.354 N 
ATOM     47  C   UNL A   1      39.739  29.544  30.669  1.00  0.00     0.074 A 
ATOM     48  C   UNL A   1      38.754  29.788  29.637  1.00  0.00     0.031 C 
ATOM     49  C   UNL A   1      38.104  33.807  35.205  1.00  0.00     0.029 A 
ATOM     50  C   UNL A   1      39.189  32.832  35.255  1.00  0.00     0.049 A 
ATOM     51  H   UNL A   1      39.759  31.497  33.760  1.00  0.00     0.167 HD
ATOM     52  C   UNL A   1      40.720  28.610  30.589  1.00  0.00     0.034 A 
ATOM     53  C   UNL A   1      40.019  32.639  36.299  1.00  0.00     0.034 A 
ATOM     54  C   UNL A   1      41.707  28.390  31.618  1.00  0.00     0.049 A 
ATOM     55  C   UNL A   1      41.109  31.605  36.183  1.00  0.00     0.074 A 
ATOM     56  C   UNL A   1      42.773  27.506  31.621  1.00  0.00     0.029 A 
ATOM     57  N   UNL A   1      41.750  29.062  32.834  1.00  0.00    -0.354 N 
ATOM     58  N   UNL A   1      41.368  30.784  35.191  1.00  0.00    -0.248 NA
ATOM     59  C   UNL A   1      42.028  31.482  37.322  1.00  0.00     0.031 C 
ATOM     60  C   UNL A   1      43.426  27.606  32.856  1.00  0.00     0.029 A 
ATOM     61  C   UNL A   1      42.808  28.597  33.600  1.00  0.00     0.049 A 
ATOM     62  H   UNL A   1      41.119  29.766  33.112  1.00  0.00     0.167 HD
ATOM     63  C   UNL A   1      42.498  30.069  35.576  1.00  0.00     0.074 A 
ATOM     64  C   UNL A   1      42.877  30.564  36.884  1.00  0.00     0.031 C 
ATOM     65  C   UNL A   1      43.166  29.095  34.908  1.00  0.00     0.034 A 
BRANCH  52  66
ATOM     66  C   UNL A   1      40.748  27.743  29.352  1.00  0.00     0.023 A 
ATOM     67  C   UNL A   1      41.672  27.966  28.316  1.00  0.00     0.031 A 
ATOM     68  C   UNL A   1      39.812  26.706  29.187  1.00  0.00     0.131 A 
ATOM     69  C   UNL A   1      41.586  27.222  27.129  1.00  0.00     0.055 A 
ATOM     70  C   UNL A   1      39.786  25.914  28.037  1.00  0.00     0.041 A 
ATOM     71  F   UNL A   1      38.893  26.457  30.134  1.00  0.00    -0.206 F 
ATOM     72  C   UNL A   1      40.666  26.181  26.992  1.00  0.00     0.022 A 
BRANCH  69  73
ATOM     73  S   UNL A   1      42.595  27.735  25.712  1.00  0.00     0.124 S 
ATOM     74  O   UNL A   1      42.072  29.073  25.449  1.00  0.00    -0.237 OA
ATOM     75  O   UNL A   1      43.950  27.672  26.250  1.00  0.00    -0.237 OA
ATOM     76  O   UNL A   1      42.283  26.738  24.690  1.00  0.00    -0.744 OA
ENDBRANCH  69  73
ENDBRANCH  52  66
BRANCH  53  77
ATOM     77  C   UNL A   1      39.860  33.438  37.546  1.00  0.00     0.023 A 
ATOM     78  C   UNL A   1      40.731  34.497  37.841  1.00  0.00     0.031 A 
ATOM     79  C   UNL A   1      38.853  33.128  38.477  1.00  0.00     0.131 A 
ATOM     80  C   UNL A   1      40.608  35.184  39.058  1.00  0.00     0.055 A 
ATOM     81  C   UNL A   1      38.707  33.845  39.667  1.00  0.00     0.041 A 
ATOM     82  F   UNL A   1      37.989  32.131  38.236  1.00  0.00    -0.206 F 
ATOM     83  C   UNL A   1      39.596  34.872  39.969  1.00  0.00     0.022 A 
BRANCH  80  84
ATOM     84  S   UNL A   1      41.840  36.451  39.468  1.00  0.00     0.124 S 
ATOM     85  O   UNL A   1      43.050  35.651  39.621  1.00  0.00    -0.237 OA
ATOM     86  O   UNL A   1      41.786  37.316  38.295  1.00  0.00    -0.237 OA
ATOM     87  O   UNL A   1      41.322  37.043  40.700  1.00  0.00    -0.744 OA
ENDBRANCH  80  84
ENDBRANCH  53  77
BRANCH  65  88
ATOM     88  C   UNL A   1      44.401  28.539  35.571  1.00  0.00     0.023 A 
ATOM     89  C   UNL A   1      44.329  27.489  36.503  1.00  0.00     0.031 A 
ATOM     90  C   UNL A   1      45.664  29.086  35.282  1.00  0.00     0.131 A 
ATOM     91  C   UNL A   1      45.493  27.056  37.156  1.00  0.00     0.055 A 
ATOM     92  C   UNL A   1      46.825  28.615  35.896  1.00  0.00     0.041 A 
ATOM     93  F   UNL A   1      45.787  30.091  34.400  1.00  0.00    -0.206 F 
ATOM     94  C   UNL A   1      46.742  27.604  36.848  1.00  0.00     0.022 A 
BRANCH  91  95
ATOM     95  S   UNL A   1      45.342  25.827  38.483  1.00  0.00     0.124 S 
ATOM     96  O   UNL A   1      46.720  25.716  38.953  1.00  0.00    -0.237 OA
ATOM     97  O   UNL A   1      44.406  26.472  39.399  1.00  0.00    -0.237 OA
ATOM     98  O   UNL A   1      44.823  24.645  37.798  1.00  0.00    -0.744 OA
ENDBRANCH  91  95
ENDBRANCH  65  88
ENDBRANCH  39  40
ENDBRANCH  31  34
ENDBRANCH  29  30
ENDBRANCH  28  29
ENDBRANCH  27  28
ENDBRANCH   1  27
TORSDOF 20
ENDMDL
