MODEL 1
REMARK VINA RESULT:     -12.1      0.000      0.000
REMARK SMILES O=C(CSc1nnc2sc3ccccc3n12)N[C@H](Cc1c[nH]c2ccccc12)C(=O)NCCCCCCNC(=O)c1ccc(-c2c3nc(c(-c4cc(S(=O)(=O)[O-])ccc4F)c4ccc([nH]4)c(-c4cc(S(=O)(=O)[O-])ccc4F)c4nc(c(-c5cc(S(=O)(=O)[O-])ccc5F)c5ccc2[nH]5)C=C4)C=C3)cc1
REMARK SMILES IDX 34 1 33 2 32 3 31 4 29 5 30 6 18 8 17 9 1 10 2 11 3 13 4 14
REMARK SMILES IDX 5 15 6 16 16 17 7 18 8 19 15 20 9 21 10 22 14 23 11 24 13 25
REMARK SMILES IDX 12 26 19 27 20 28 21 29 28 30 22 31 23 32 27 33 24 35 26 36
REMARK SMILES IDX 25 37 35 38 36 39 37 40 38 41 39 42 40 44 41 45 42 46 103 47
REMARK SMILES IDX 43 48 102 49 44 50 45 51 46 52 96 53 47 54 101 55 95 56
REMARK SMILES IDX 97 57 48 58 100 59 94 60 93 61 49 63 81 64 61 65 80 66 62 67
REMARK SMILES IDX 65 68 79 69 98 70 63 71 64 72 78 74 99 75 66 76 50 77 51 78
REMARK SMILES IDX 59 79 52 80 58 81 60 82 57 83 53 84 54 85 55 86 56 87 82 88
REMARK SMILES IDX 83 89 91 90 84 91 90 92 92 93 89 94 85 95 86 96 87 97 88 98
REMARK SMILES IDX 67 99 68 100 76 101 69 102 75 103 77 104 74 105 70 106
REMARK SMILES IDX 71 107 72 108 73 109
REMARK H PARENT 31 7 17 12 22 34 38 43 97 62 65 73
REMARK Flexibility Score: inf
ROOT
ATOM      1  C   UNL A   1      34.100  32.380  28.135  1.00  0.00     0.002 C 
ENDROOT
BRANCH   1   2
ATOM      2  C   UNL A   1      33.390  31.199  27.478  1.00  0.00     0.021 C 
BRANCH   2   3
ATOM      3  C   UNL A   1      34.155  29.893  27.544  1.00  0.00     0.116 C 
BRANCH   3   4
ATOM      4  N   UNL A   1      34.512  29.364  26.247  1.00  0.00    -0.354 N 
ATOM      5  C   UNL A   1      33.702  28.807  25.302  1.00  0.00     0.242 C 
ATOM      6  O   UNL A   1      34.118  28.762  24.137  1.00  0.00    -0.273 OA
ATOM      7  H   UNL A   1      35.466  29.414  26.015  1.00  0.00     0.163 HD
BRANCH   5   8
ATOM      8  C   UNL A   1      32.252  28.380  25.614  1.00  0.00     0.175 C 
BRANCH   8   9
ATOM      9  N   UNL A   1      32.118  27.041  25.016  1.00  0.00    -0.343 N 
ATOM     10  O   UNL A   1      31.669  25.722  26.825  1.00  0.00    -0.274 OA
ATOM     11  C   UNL A   1      31.624  25.913  25.610  1.00  0.00     0.231 C 
ATOM     12  H   UNL A   1      32.418  26.948  24.082  1.00  0.00     0.164 HD
BRANCH  11  13
ATOM     13  C   UNL A   1      30.907  24.917  24.701  1.00  0.00     0.178 C 
BRANCH  13  14
ATOM     14  S   UNL A   1      31.873  24.361  23.268  1.00  0.00    -0.076 SA
BRANCH  14  15
ATOM     15  C   UNL A   1      33.407  24.001  23.984  1.00  0.00     0.197 A 
ATOM     16  N   UNL A   1      34.238  24.896  24.488  1.00  0.00    -0.122 NA
ATOM     17  N   UNL A   1      33.868  22.751  24.283  1.00  0.00    -0.260 N 
ATOM     18  N   UNL A   1      35.262  24.223  25.151  1.00  0.00    -0.118 NA
ATOM     19  C   UNL A   1      34.987  22.951  25.035  1.00  0.00     0.217 A 
ATOM     20  C   UNL A   1      33.502  21.426  24.087  1.00  0.00     0.068 A 
ATOM     21  S   UNL A   1      35.686  21.488  25.635  1.00  0.00    -0.094 S 
ATOM     22  C   UNL A   1      34.375  20.584  24.799  1.00  0.00     0.055 A 
ATOM     23  C   UNL A   1      32.449  20.945  23.330  1.00  0.00     0.028 A 
ATOM     24  C   UNL A   1      34.162  19.218  24.808  1.00  0.00     0.021 A 
ATOM     25  C   UNL A   1      32.249  19.567  23.328  1.00  0.00     0.002 A 
ATOM     26  C   UNL A   1      33.084  18.717  24.071  1.00  0.00     0.002 A 
ENDBRANCH  14  15
ENDBRANCH  13  14
ENDBRANCH  11  13
ENDBRANCH   8   9
BRANCH   8  27
ATOM     27  C   UNL A   1      31.181  29.450  25.350  1.00  0.00     0.072 C 
BRANCH  27  28
ATOM     28  C   UNL A   1      30.575  29.495  23.961  1.00  0.00    -0.020 A 
ATOM     29  C   UNL A   1      30.940  28.619  22.950  1.00  0.00     0.087 A 
ATOM     30  C   UNL A   1      29.588  30.376  23.387  1.00  0.00     0.003 A 
ATOM     31  N   UNL A   1      30.270  28.956  21.808  1.00  0.00    -0.361 N 
ATOM     32  C   UNL A   1      29.463  30.041  22.035  1.00  0.00     0.046 A 
ATOM     33  C   UNL A   1      28.806  31.454  23.857  1.00  0.00     0.010 A 
ATOM     34  H   UNL A   1      30.355  28.486  20.947  1.00  0.00     0.166 HD
ATOM     35  C   UNL A   1      28.646  30.748  21.140  1.00  0.00     0.026 A 
ATOM     36  C   UNL A   1      28.004  32.188  22.973  1.00  0.00     0.001 A 
ATOM     37  C   UNL A   1      27.932  31.841  21.631  1.00  0.00     0.002 A 
ENDBRANCH  27  28
ENDBRANCH   8  27
ENDBRANCH   5   8
ENDBRANCH   3   4
ENDBRANCH   2   3
ENDBRANCH   1   2
BRANCH   1  38
ATOM     38  C   UNL A   1      33.365  33.726  28.067  1.00  0.00     0.002 C 
BRANCH  38  39
ATOM     39  C   UNL A   1      34.004  34.893  28.835  1.00  0.00     0.021 C 
BRANCH  39  40
ATOM     40  C   UNL A   1      33.010  35.919  29.377  1.00  0.00     0.116 C 
BRANCH  40  41
ATOM     41  N   UNL A   1      32.497  35.575  30.684  1.00  0.00    -0.352 N 
ATOM     42  C   UNL A   1      33.003  34.999  31.812  1.00  0.00     0.251 C 
ATOM     43  H   UNL A   1      31.548  35.816  30.786  1.00  0.00     0.163 HD
ATOM     44  O   UNL A   1      32.209  34.898  32.753  1.00  0.00    -0.269 OA
BRANCH  42  45
ATOM     45  C   UNL A   1      34.380  34.459  31.970  1.00  0.00     0.039 A 
ATOM     46  C   UNL A   1      35.518  35.195  32.306  1.00  0.00     0.014 A 
ATOM     47  C   UNL A   1      34.525  33.082  31.715  1.00  0.00     0.014 A 
ATOM     48  C   UNL A   1      36.774  34.592  32.292  1.00  0.00     0.010 A 
ATOM     49  C   UNL A   1      35.773  32.472  31.719  1.00  0.00     0.010 A 
ATOM     50  C   UNL A   1      36.905  33.243  31.953  1.00  0.00    -0.014 A 
BRANCH  50  51
ATOM     51  C   UNL A   1      38.250  32.675  31.904  1.00  0.00     0.031 A 
ATOM     52  C   UNL A   1      39.033  32.772  33.170  1.00  0.00     0.074 A 
ATOM     53  C   UNL A   1      38.734  32.012  30.834  1.00  0.00     0.049 A 
ATOM     54  N   UNL A   1      40.123  33.434  33.395  1.00  0.00    -0.248 NA
ATOM     55  C   UNL A   1      38.460  32.143  34.367  1.00  0.00     0.031 C 
ATOM     56  C   UNL A   1      38.010  31.551  29.645  1.00  0.00     0.029 A 
ATOM     57  N   UNL A   1      39.985  31.516  30.640  1.00  0.00    -0.354 N 
ATOM     58  C   UNL A   1      40.475  33.165  34.720  1.00  0.00     0.074 A 
ATOM     59  C   UNL A   1      39.344  32.486  35.302  1.00  0.00     0.031 C 
ATOM     60  C   UNL A   1      38.769  30.644  28.987  1.00  0.00     0.029 A 
ATOM     61  C   UNL A   1      40.080  30.589  29.612  1.00  0.00     0.049 A 
ATOM     62  H   UNL A   1      40.760  31.792  31.182  1.00  0.00     0.167 HD
ATOM     63  C   UNL A   1      41.739  33.363  35.197  1.00  0.00     0.034 A 
ATOM     64  C   UNL A   1      41.133  29.777  29.347  1.00  0.00     0.034 A 
ATOM     65  C   UNL A   1      42.515  34.183  34.310  1.00  0.00     0.049 A 
ATOM     66  C   UNL A   1      42.330  30.336  30.021  1.00  0.00     0.074 A 
ATOM     67  C   UNL A   1      42.440  35.491  33.877  1.00  0.00     0.029 A 
ATOM     68  N   UNL A   1      43.385  33.554  33.455  1.00  0.00    -0.354 N 
ATOM     69  N   UNL A   1      42.923  31.441  29.665  1.00  0.00    -0.248 NA
ATOM     70  C   UNL A   1      42.608  29.886  31.376  1.00  0.00     0.031 C 
ATOM     71  C   UNL A   1      42.868  35.451  32.519  1.00  0.00     0.029 A 
ATOM     72  C   UNL A   1      43.230  34.134  32.223  1.00  0.00     0.049 A 
ATOM     73  H   UNL A   1      44.004  32.824  33.684  1.00  0.00     0.167 HD
ATOM     74  C   UNL A   1      43.258  32.055  30.863  1.00  0.00     0.074 A 
ATOM     75  C   UNL A   1      43.134  31.007  31.874  1.00  0.00     0.031 C 
ATOM     76  C   UNL A   1      43.334  33.415  30.971  1.00  0.00     0.034 A 
BRANCH  63  77
ATOM     77  C   UNL A   1      42.373  32.560  36.310  1.00  0.00     0.023 A 
ATOM     78  C   UNL A   1      42.790  31.227  36.146  1.00  0.00     0.031 A 
ATOM     79  C   UNL A   1      42.794  33.189  37.502  1.00  0.00     0.131 A 
ATOM     80  C   UNL A   1      43.567  30.573  37.112  1.00  0.00     0.055 A 
ATOM     81  C   UNL A   1      43.627  32.559  38.437  1.00  0.00     0.041 A 
ATOM     82  F   UNL A   1      42.458  34.462  37.769  1.00  0.00    -0.206 F 
ATOM     83  C   UNL A   1      44.019  31.241  38.242  1.00  0.00     0.022 A 
BRANCH  80  84
ATOM     84  S   UNL A   1      44.012  28.828  36.892  1.00  0.00     0.124 S 
ATOM     85  O   UNL A   1      44.743  28.551  38.128  1.00  0.00    -0.237 OA
ATOM     86  O   UNL A   1      42.693  28.200  36.788  1.00  0.00    -0.237 OA
ATOM     87  O   UNL A   1      44.796  28.825  35.670  1.00  0.00    -0.744 OA
ENDBRANCH  80  84
ENDBRANCH  63  77
BRANCH  64  88
ATOM     88  C   UNL A   1      41.046  28.337  29.012  1.00  0.00     0.023 A 
ATOM     89  C   UNL A   1      41.648  27.864  27.831  1.00  0.00     0.031 A 
ATOM     90  C   UNL A   1      40.115  27.497  29.647  1.00  0.00     0.131 A 
ATOM     91  C   UNL A   1      41.278  26.626  27.290  1.00  0.00     0.055 A 
ATOM     92  C   UNL A   1      39.762  26.251  29.115  1.00  0.00     0.041 A 
ATOM     93  F   UNL A   1      39.478  27.904  30.755  1.00  0.00    -0.206 F 
ATOM     94  C   UNL A   1      40.333  25.817  27.922  1.00  0.00     0.022 A 
BRANCH  91  95
ATOM     95  S   UNL A   1      41.953  26.088  25.695  1.00  0.00     0.124 S 
ATOM     96  O   UNL A   1      42.977  25.130  26.102  1.00  0.00    -0.237 OA
ATOM     97  O   UNL A   1      40.774  25.515  25.055  1.00  0.00    -0.237 OA
ATOM     98  O   UNL A   1      42.462  27.323  25.105  1.00  0.00    -0.744 OA
ENDBRANCH  91  95
ENDBRANCH  64  88
BRANCH  76  99
ATOM     99  C   UNL A   1      43.266  34.252  29.712  1.00  0.00     0.023 A 
ATOM    100  C   UNL A   1      44.482  34.701  29.166  1.00  0.00     0.031 A 
ATOM    101  C   UNL A   1      42.079  34.790  29.177  1.00  0.00     0.131 A 
ATOM    102  C   UNL A   1      44.488  35.659  28.148  1.00  0.00     0.055 A 
ATOM    103  C   UNL A   1      42.088  35.680  28.100  1.00  0.00     0.041 A 
ATOM    104  F   UNL A   1      40.884  34.541  29.727  1.00  0.00    -0.206 F 
ATOM    105  C   UNL A   1      43.298  36.120  27.581  1.00  0.00     0.022 A 
BRANCH 102 106
ATOM    106  S   UNL A   1      46.028  36.477  27.664  1.00  0.00     0.124 S 
ATOM    107  O   UNL A   1      46.716  35.427  26.922  1.00  0.00    -0.237 OA
ATOM    108  O   UNL A   1      45.536  37.594  26.856  1.00  0.00    -0.237 OA
ATOM    109  O   UNL A   1      46.643  36.857  28.932  1.00  0.00    -0.744 OA
ENDBRANCH 102 106
ENDBRANCH  76  99
ENDBRANCH  50  51
ENDBRANCH  42  45
ENDBRANCH  40  41
ENDBRANCH  39  40
ENDBRANCH  38  39
ENDBRANCH   1  38
TORSDOF 22
ENDMDL
MODEL 2
REMARK VINA RESULT:     -11.8      2.223      2.943
REMARK SMILES O=C(CSc1nnc2sc3ccccc3n12)N[C@H](Cc1c[nH]c2ccccc12)C(=O)NCCCCCCNC(=O)c1ccc(-c2c3nc(c(-c4cc(S(=O)(=O)[O-])ccc4F)c4ccc([nH]4)c(-c4cc(S(=O)(=O)[O-])ccc4F)c4nc(c(-c5cc(S(=O)(=O)[O-])ccc5F)c5ccc2[nH]5)C=C4)C=C3)cc1
REMARK SMILES IDX 34 1 33 2 32 3 31 4 29 5 30 6 18 8 17 9 1 10 2 11 3 13 4 14
REMARK SMILES IDX 5 15 6 16 16 17 7 18 8 19 15 20 9 21 10 22 14 23 11 24 13 25
REMARK SMILES IDX 12 26 19 27 20 28 21 29 28 30 22 31 23 32 27 33 24 35 26 36
REMARK SMILES IDX 25 37 35 38 36 39 37 40 38 41 39 42 40 44 41 45 42 46 103 47
REMARK SMILES IDX 43 48 102 49 44 50 45 51 46 52 96 53 47 54 101 55 95 56
REMARK SMILES IDX 97 57 48 58 100 59 94 60 93 61 49 63 81 64 61 65 80 66 62 67
REMARK SMILES IDX 65 68 79 69 98 70 63 71 64 72 78 74 99 75 66 76 50 77 51 78
REMARK SMILES IDX 59 79 52 80 58 81 60 82 57 83 53 84 54 85 55 86 56 87 82 88
REMARK SMILES IDX 83 89 91 90 84 91 90 92 92 93 89 94 85 95 86 96 87 97 88 98
REMARK SMILES IDX 67 99 68 100 76 101 69 102 75 103 77 104 74 105 70 106
REMARK SMILES IDX 71 107 72 108 73 109
REMARK H PARENT 31 7 17 12 22 34 38 43 97 62 65 73
REMARK Flexibility Score: inf
ROOT
ATOM      1  C   UNL A   1      34.761  32.028  28.033  1.00  0.00     0.002 C 
ENDROOT
BRANCH   1   2
ATOM      2  C   UNL A   1      33.852  30.985  27.388  1.00  0.00     0.021 C 
BRANCH   2   3
ATOM      3  C   UNL A   1      34.359  29.561  27.494  1.00  0.00     0.116 C 
BRANCH   3   4
ATOM      4  N   UNL A   1      34.660  28.956  26.216  1.00  0.00    -0.354 N 
ATOM      5  C   UNL A   1      33.797  28.523  25.254  1.00  0.00     0.242 C 
ATOM      6  O   UNL A   1      34.232  28.387  24.103  1.00  0.00    -0.273 OA
ATOM      7  H   UNL A   1      35.616  28.843  26.013  1.00  0.00     0.163 HD
BRANCH   5   8
ATOM      8  C   UNL A   1      32.287  28.347  25.527  1.00  0.00     0.175 C 
BRANCH   8   9
ATOM      9  N   UNL A   1      31.950  27.039  24.939  1.00  0.00    -0.343 N 
ATOM     10  O   UNL A   1      30.291  26.281  26.312  1.00  0.00    -0.274 OA
ATOM     11  C   UNL A   1      30.865  26.257  25.224  1.00  0.00     0.231 C 
ATOM     12  H   UNL A   1      32.576  26.689  24.263  1.00  0.00     0.164 HD
BRANCH  11  13
ATOM     13  C   UNL A   1      30.318  25.401  24.083  1.00  0.00     0.178 C 
BRANCH  13  14
ATOM     14  S   UNL A   1      31.536  24.310  23.296  1.00  0.00    -0.076 SA
BRANCH  14  15
ATOM     15  C   UNL A   1      31.741  23.075  24.491  1.00  0.00     0.197 A 
ATOM     16  N   UNL A   1      30.761  22.502  25.168  1.00  0.00    -0.122 NA
ATOM     17  N   UNL A   1      32.905  22.412  24.752  1.00  0.00    -0.260 N 
ATOM     18  N   UNL A   1      31.286  21.425  25.878  1.00  0.00    -0.118 NA
ATOM     19  C   UNL A   1      32.556  21.385  25.578  1.00  0.00     0.217 A 
ATOM     20  C   UNL A   1      34.244  22.465  24.389  1.00  0.00     0.068 A 
ATOM     21  S   UNL A   1      33.869  20.325  25.953  1.00  0.00    -0.094 S 
ATOM     22  C   UNL A   1      34.926  21.361  24.931  1.00  0.00     0.055 A 
ATOM     23  C   UNL A   1      34.870  23.422  23.610  1.00  0.00     0.028 A 
ATOM     24  C   UNL A   1      36.264  21.166  24.643  1.00  0.00     0.021 A 
ATOM     25  C   UNL A   1      36.222  23.231  23.337  1.00  0.00     0.002 A 
ATOM     26  C   UNL A   1      36.905  22.109  23.833  1.00  0.00     0.002 A 
ENDBRANCH  14  15
ENDBRANCH  13  14
ENDBRANCH  11  13
ENDBRANCH   8   9
BRANCH   8  27
ATOM     27  C   UNL A   1      31.417  29.575  25.218  1.00  0.00     0.072 C 
BRANCH  27  28
ATOM     28  C   UNL A   1      30.789  29.650  23.840  1.00  0.00    -0.020 A 
ATOM     29  C   UNL A   1      31.295  28.972  22.743  1.00  0.00     0.087 A 
ATOM     30  C   UNL A   1      29.642  30.383  23.362  1.00  0.00     0.003 A 
ATOM     31  N   UNL A   1      30.553  29.294  21.642  1.00  0.00    -0.361 N 
ATOM     32  C   UNL A   1      29.559  30.175  21.981  1.00  0.00     0.046 A 
ATOM     33  C   UNL A   1      28.679  31.237  23.943  1.00  0.00     0.010 A 
ATOM     34  H   UNL A   1      30.710  28.943  20.736  1.00  0.00     0.166 HD
ATOM     35  C   UNL A   1      28.607  30.805  21.165  1.00  0.00     0.026 A 
ATOM     36  C   UNL A   1      27.737  31.894  23.141  1.00  0.00     0.001 A 
ATOM     37  C   UNL A   1      27.707  31.684  21.769  1.00  0.00     0.002 A 
ENDBRANCH  27  28
ENDBRANCH   8  27
ENDBRANCH   5   8
ENDBRANCH   3   4
ENDBRANCH   2   3
ENDBRANCH   1   2
BRANCH   1  38
ATOM     38  C   UNL A   1      34.055  33.259  28.619  1.00  0.00     0.002 C 
BRANCH  38  39
ATOM     39  C   UNL A   1      34.943  34.257  29.380  1.00  0.00     0.021 C 
BRANCH  39  40
ATOM     40  C   UNL A   1      34.216  35.066  30.453  1.00  0.00     0.116 C 
BRANCH  40  41
ATOM     41  N   UNL A   1      33.776  34.261  31.569  1.00  0.00    -0.352 N 
ATOM     42  C   UNL A   1      34.322  33.275  32.338  1.00  0.00     0.251 C 
ATOM     43  H   UNL A   1      32.855  34.476  31.843  1.00  0.00     0.163 HD
ATOM     44  O   UNL A   1      33.592  32.845  33.237  1.00  0.00    -0.269 OA
BRANCH  42  45
ATOM     45  C   UNL A   1      35.667  32.668  32.149  1.00  0.00     0.039 A 
ATOM     46  C   UNL A   1      36.891  33.291  32.397  1.00  0.00     0.014 A 
ATOM     47  C   UNL A   1      35.673  31.357  31.637  1.00  0.00     0.014 A 
ATOM     48  C   UNL A   1      38.084  32.658  32.052  1.00  0.00     0.010 A 
ATOM     49  C   UNL A   1      36.861  30.714  31.310  1.00  0.00     0.010 A 
ATOM     50  C   UNL A   1      38.064  31.389  31.466  1.00  0.00    -0.014 A 
BRANCH  50  51
ATOM     51  C   UNL A   1      39.340  30.794  31.078  1.00  0.00     0.031 A 
ATOM     52  C   UNL A   1      40.252  30.437  32.204  1.00  0.00     0.074 A 
ATOM     53  C   UNL A   1      39.653  30.482  29.803  1.00  0.00     0.049 A 
ATOM     54  N   UNL A   1      41.414  30.932  32.488  1.00  0.00    -0.248 NA
ATOM     55  C   UNL A   1      39.745  29.491  33.207  1.00  0.00     0.031 C 
ATOM     56  C   UNL A   1      38.776  30.466  28.628  1.00  0.00     0.029 A 
ATOM     57  N   UNL A   1      40.829  30.006  29.311  1.00  0.00    -0.354 N 
ATOM     58  C   UNL A   1      41.870  30.234  33.609  1.00  0.00     0.074 A 
ATOM     59  C   UNL A   1      40.746  29.468  34.086  1.00  0.00     0.031 C 
ATOM     60  C   UNL A   1      39.380  29.776  27.632  1.00  0.00     0.029 A 
ATOM     61  C   UNL A   1      40.736  29.453  28.043  1.00  0.00     0.049 A 
ATOM     62  H   UNL A   1      41.675  30.052  29.813  1.00  0.00     0.167 HD
ATOM     63  C   UNL A   1      43.188  30.199  33.965  1.00  0.00     0.034 A 
ATOM     64  C   UNL A   1      41.680  28.712  27.410  1.00  0.00     0.034 A 
ATOM     65  C   UNL A   1      43.943  31.216  33.289  1.00  0.00     0.049 A 
ATOM     66  C   UNL A   1      42.983  28.959  28.072  1.00  0.00     0.074 A 
ATOM     67  C   UNL A   1      43.946  32.596  33.297  1.00  0.00     0.029 A 
ATOM     68  N   UNL A   1      44.663  30.847  32.180  1.00  0.00    -0.354 N 
ATOM     69  N   UNL A   1      43.636  30.086  28.008  1.00  0.00    -0.248 NA
ATOM     70  C   UNL A   1      43.352  28.085  29.174  1.00  0.00     0.031 C 
ATOM     71  C   UNL A   1      44.231  32.969  31.953  1.00  0.00     0.029 A 
ATOM     72  C   UNL A   1      44.440  31.798  31.219  1.00  0.00     0.049 A 
ATOM     73  H   UNL A   1      45.232  30.049  32.092  1.00  0.00     0.167 HD
ATOM     74  C   UNL A   1      44.143  30.265  29.286  1.00  0.00     0.074 A 
ATOM     75  C   UNL A   1      44.025  28.957  29.928  1.00  0.00     0.031 C 
ATOM     76  C   UNL A   1      44.353  31.513  29.802  1.00  0.00     0.034 A 
BRANCH  63  77
ATOM     77  C   UNL A   1      43.853  29.049  34.685  1.00  0.00     0.023 A 
ATOM     78  C   UNL A   1      44.240  29.118  36.036  1.00  0.00     0.031 A 
ATOM     79  C   UNL A   1      43.904  27.765  34.100  1.00  0.00     0.131 A 
ATOM     80  C   UNL A   1      44.653  27.980  36.743  1.00  0.00     0.055 A 
ATOM     81  C   UNL A   1      44.252  26.617  34.824  1.00  0.00     0.041 A 
ATOM     82  F   UNL A   1      43.558  27.575  32.816  1.00  0.00    -0.206 F 
ATOM     83  C   UNL A   1      44.628  26.721  36.156  1.00  0.00     0.022 A 
BRANCH  80  84
ATOM     84  S   UNL A   1      45.218  28.133  38.460  1.00  0.00     0.124 S 
ATOM     85  O   UNL A   1      44.460  27.069  39.118  1.00  0.00    -0.237 OA
ATOM     86  O   UNL A   1      46.655  27.885  38.319  1.00  0.00    -0.237 OA
ATOM     87  O   UNL A   1      44.858  29.492  38.821  1.00  0.00    -0.744 OA
ENDBRANCH  80  84
ENDBRANCH  63  77
BRANCH  64  88
ATOM     88  C   UNL A   1      41.428  27.461  26.657  1.00  0.00     0.023 A 
ATOM     89  C   UNL A   1      40.436  26.571  27.108  1.00  0.00     0.031 A 
ATOM     90  C   UNL A   1      42.354  26.979  25.717  1.00  0.00     0.131 A 
ATOM     91  C   UNL A   1      40.422  25.240  26.672  1.00  0.00     0.055 A 
ATOM     92  C   UNL A   1      42.326  25.654  25.266  1.00  0.00     0.041 A 
ATOM     93  F   UNL A   1      43.347  27.766  25.275  1.00  0.00    -0.206 F 
ATOM     94  C   UNL A   1      41.366  24.773  25.757  1.00  0.00     0.022 A 
BRANCH  91  95
ATOM     95  S   UNL A   1      39.229  24.063  27.365  1.00  0.00     0.124 S 
ATOM     96  O   UNL A   1      38.209  24.009  26.322  1.00  0.00    -0.237 OA
ATOM     97  O   UNL A   1      40.048  22.864  27.508  1.00  0.00    -0.237 OA
ATOM     98  O   UNL A   1      38.806  24.699  28.610  1.00  0.00    -0.744 OA
ENDBRANCH  91  95
ENDBRANCH  64  88
BRANCH  76  99
ATOM     99  C   UNL A   1      44.236  32.710  28.885  1.00  0.00     0.023 A 
ATOM    100  C   UNL A   1      45.385  33.091  28.167  1.00  0.00     0.031 A 
ATOM    101  C   UNL A   1      43.138  33.593  28.863  1.00  0.00     0.131 A 
ATOM    102  C   UNL A   1      45.419  34.311  27.485  1.00  0.00     0.055 A 
ATOM    103  C   UNL A   1      43.147  34.768  28.107  1.00  0.00     0.041 A 
ATOM    104  F   UNL A   1      42.061  33.394  29.633  1.00  0.00    -0.206 F 
ATOM    105  C   UNL A   1      44.292  35.132  27.413  1.00  0.00     0.022 A 
BRANCH 102 106
ATOM    106  S   UNL A   1      46.980  34.957  26.835  1.00  0.00     0.124 S 
ATOM    107  O   UNL A   1      46.802  36.398  26.978  1.00  0.00    -0.237 OA
ATOM    108  O   UNL A   1      47.958  34.355  27.743  1.00  0.00    -0.237 OA
ATOM    109  O   UNL A   1      47.026  34.462  25.463  1.00  0.00    -0.744 OA
ENDBRANCH 102 106
ENDBRANCH  76  99
ENDBRANCH  50  51
ENDBRANCH  42  45
ENDBRANCH  40  41
ENDBRANCH  39  40
ENDBRANCH  38  39
ENDBRANCH   1  38
TORSDOF 22
ENDMDL
MODEL 3
REMARK VINA RESULT:     -11.5      5.409     10.136
REMARK SMILES O=C(CSc1nnc2sc3ccccc3n12)N[C@H](Cc1c[nH]c2ccccc12)C(=O)NCCCCCCNC(=O)c1ccc(-c2c3nc(c(-c4cc(S(=O)(=O)[O-])ccc4F)c4ccc([nH]4)c(-c4cc(S(=O)(=O)[O-])ccc4F)c4nc(c(-c5cc(S(=O)(=O)[O-])ccc5F)c5ccc2[nH]5)C=C4)C=C3)cc1
REMARK SMILES IDX 34 1 33 2 32 3 31 4 29 5 30 6 18 8 17 9 1 10 2 11 3 13 4 14
REMARK SMILES IDX 5 15 6 16 16 17 7 18 8 19 15 20 9 21 10 22 14 23 11 24 13 25
REMARK SMILES IDX 12 26 19 27 20 28 21 29 28 30 22 31 23 32 27 33 24 35 26 36
REMARK SMILES IDX 25 37 35 38 36 39 37 40 38 41 39 42 40 44 41 45 42 46 103 47
REMARK SMILES IDX 43 48 102 49 44 50 45 51 46 52 96 53 47 54 101 55 95 56
REMARK SMILES IDX 97 57 48 58 100 59 94 60 93 61 49 63 81 64 61 65 80 66 62 67
REMARK SMILES IDX 65 68 79 69 98 70 63 71 64 72 78 74 99 75 66 76 50 77 51 78
REMARK SMILES IDX 59 79 52 80 58 81 60 82 57 83 53 84 54 85 55 86 56 87 82 88
REMARK SMILES IDX 83 89 91 90 84 91 90 92 92 93 89 94 85 95 86 96 87 97 88 98
REMARK SMILES IDX 67 99 68 100 76 101 69 102 75 103 77 104 74 105 70 106
REMARK SMILES IDX 71 107 72 108 73 109
REMARK H PARENT 31 7 17 12 22 34 38 43 97 62 65 73
REMARK Flexibility Score: inf
ROOT
ATOM      1  C   UNL A   1      45.367  25.524  31.521  1.00  0.00     0.002 C 
ENDROOT
BRANCH   1   2
ATOM      2  C   UNL A   1      45.984  26.862  31.917  1.00  0.00     0.021 C 
BRANCH   2   3
ATOM      3  C   UNL A   1      46.565  27.651  30.760  1.00  0.00     0.116 C 
BRANCH   3   4
ATOM      4  N   UNL A   1      47.692  27.004  30.127  1.00  0.00    -0.354 N 
ATOM      5  C   UNL A   1      47.813  26.569  28.841  1.00  0.00     0.242 C 
ATOM      6  O   UNL A   1      48.953  26.391  28.394  1.00  0.00    -0.273 OA
ATOM      7  H   UNL A   1      48.478  26.859  30.701  1.00  0.00     0.163 HD
BRANCH   5   8
ATOM      8  C   UNL A   1      46.594  26.444  27.901  1.00  0.00     0.175 C 
BRANCH   8   9
ATOM      9  N   UNL A   1      46.837  25.208  27.137  1.00  0.00    -0.343 N 
ATOM     10  O   UNL A   1      45.337  23.749  28.050  1.00  0.00    -0.274 OA
ATOM     11  C   UNL A   1      46.059  24.083  27.112  1.00  0.00     0.231 C 
ATOM     12  H   UNL A   1      47.650  25.189  26.581  1.00  0.00     0.164 HD
BRANCH  11  13
ATOM     13  C   UNL A   1      46.044  23.289  25.807  1.00  0.00     0.178 C 
BRANCH  13  14
ATOM     14  S   UNL A   1      44.739  23.766  24.639  1.00  0.00    -0.076 SA
BRANCH  14  15
ATOM     15  C   UNL A   1      43.315  23.629  25.613  1.00  0.00     0.197 A 
ATOM     16  N   UNL A   1      42.543  24.639  25.976  1.00  0.00    -0.122 NA
ATOM     17  N   UNL A   1      42.710  22.459  25.970  1.00  0.00    -0.260 N 
ATOM     18  N   UNL A   1      41.393  24.123  26.571  1.00  0.00    -0.118 NA
ATOM     19  C   UNL A   1      41.516  22.824  26.517  1.00  0.00     0.217 A 
ATOM     20  C   UNL A   1      42.941  21.092  25.885  1.00  0.00     0.068 A 
ATOM     21  S   UNL A   1      40.513  21.482  26.943  1.00  0.00    -0.094 S 
ATOM     22  C   UNL A   1      41.810  20.392  26.343  1.00  0.00     0.055 A 
ATOM     23  C   UNL A   1      44.079  20.456  25.423  1.00  0.00     0.028 A 
ATOM     24  C   UNL A   1      41.784  19.010  26.286  1.00  0.00     0.021 A 
ATOM     25  C   UNL A   1      44.056  19.065  25.385  1.00  0.00     0.002 A 
ATOM     26  C   UNL A   1      42.917  18.353  25.795  1.00  0.00     0.002 A 
ENDBRANCH  14  15
ENDBRANCH  13  14
ENDBRANCH  11  13
ENDBRANCH   8   9
BRANCH   8  27
ATOM     27  C   UNL A   1      46.195  27.733  27.168  1.00  0.00     0.072 C 
BRANCH  27  28
ATOM     28  C   UNL A   1      44.870  27.730  26.430  1.00  0.00    -0.020 A 
ATOM     29  C   UNL A   1      44.740  27.310  25.116  1.00  0.00     0.087 A 
ATOM     30  C   UNL A   1      43.552  28.137  26.851  1.00  0.00     0.003 A 
ATOM     31  N   UNL A   1      43.445  27.488  24.719  1.00  0.00    -0.361 N 
ATOM     32  C   UNL A   1      42.705  28.019  25.744  1.00  0.00     0.046 A 
ATOM     33  C   UNL A   1      42.984  28.632  28.045  1.00  0.00     0.010 A 
ATOM     34  H   UNL A   1      43.095  27.266  23.827  1.00  0.00     0.166 HD
ATOM     35  C   UNL A   1      41.357  28.409  25.763  1.00  0.00     0.026 A 
ATOM     36  C   UNL A   1      41.648  29.050  28.076  1.00  0.00     0.001 A 
ATOM     37  C   UNL A   1      40.848  28.945  26.946  1.00  0.00     0.002 A 
ENDBRANCH  27  28
ENDBRANCH   8  27
ENDBRANCH   5   8
ENDBRANCH   3   4
ENDBRANCH   2   3
ENDBRANCH   1   2
BRANCH   1  38
ATOM     38  C   UNL A   1      44.251  25.004  32.437  1.00  0.00     0.002 C 
BRANCH  38  39
ATOM     39  C   UNL A   1      44.402  23.561  32.945  1.00  0.00     0.021 C 
BRANCH  39  40
ATOM     40  C   UNL A   1      43.365  23.140  33.985  1.00  0.00     0.116 C 
BRANCH  40  41
ATOM     41  N   UNL A   1      43.761  23.454  35.339  1.00  0.00    -0.352 N 
ATOM     42  C   UNL A   1      43.724  24.559  36.137  1.00  0.00     0.251 C 
ATOM     43  H   UNL A   1      44.155  22.678  35.800  1.00  0.00     0.163 HD
ATOM     44  O   UNL A   1      44.163  24.398  37.280  1.00  0.00    -0.269 OA
BRANCH  42  45
ATOM     45  C   UNL A   1      43.254  25.911  35.729  1.00  0.00     0.039 A 
ATOM     46  C   UNL A   1      41.955  26.247  35.344  1.00  0.00     0.014 A 
ATOM     47  C   UNL A   1      44.241  26.914  35.705  1.00  0.00     0.014 A 
ATOM     48  C   UNL A   1      41.676  27.522  34.857  1.00  0.00     0.010 A 
ATOM     49  C   UNL A   1      43.963  28.193  35.238  1.00  0.00     0.010 A 
ATOM     50  C   UNL A   1      42.690  28.479  34.761  1.00  0.00    -0.014 A 
BRANCH  50  51
ATOM     51  C   UNL A   1      42.352  29.783  34.196  1.00  0.00     0.031 A 
ATOM     52  C   UNL A   1      41.788  30.773  35.159  1.00  0.00     0.074 A 
ATOM     53  C   UNL A   1      42.618  30.126  32.919  1.00  0.00     0.049 A 
ATOM     54  N   UNL A   1      40.606  31.301  35.174  1.00  0.00    -0.248 NA
ATOM     55  C   UNL A   1      42.615  31.129  36.321  1.00  0.00     0.031 C 
ATOM     56  C   UNL A   1      43.439  29.412  31.936  1.00  0.00     0.029 A 
ATOM     57  N   UNL A   1      42.280  31.267  32.260  1.00  0.00    -0.354 N 
ATOM     58  C   UNL A   1      40.592  32.194  36.248  1.00  0.00     0.074 A 
ATOM     59  C   UNL A   1      41.798  31.937  36.994  1.00  0.00     0.031 C 
ATOM     60  C   UNL A   1      43.731  30.246  30.911  1.00  0.00     0.029 A 
ATOM     61  C   UNL A   1      42.989  31.482  31.087  1.00  0.00     0.049 A 
ATOM     62  H   UNL A   1      41.590  31.889  32.588  1.00  0.00     0.167 HD
ATOM     63  C   UNL A   1      39.676  33.201  36.351  1.00  0.00     0.034 A 
ATOM     64  C   UNL A   1      43.024  32.625  30.359  1.00  0.00     0.034 A 
ATOM     65  C   UNL A   1      38.571  33.003  35.457  1.00  0.00     0.049 A 
ATOM     66  C   UNL A   1      41.853  33.453  30.739  1.00  0.00     0.074 A 
ATOM     67  C   UNL A   1      37.568  32.062  35.339  1.00  0.00     0.029 A 
ATOM     68  N   UNL A   1      38.577  33.693  34.270  1.00  0.00    -0.354 N 
ATOM     69  N   UNL A   1      40.619  33.152  30.452  1.00  0.00    -0.248 NA
ATOM     70  C   UNL A   1      42.029  34.402  31.827  1.00  0.00     0.031 C 
ATOM     71  C   UNL A   1      37.371  31.912  33.936  1.00  0.00     0.029 A 
ATOM     72  C   UNL A   1      38.223  32.809  33.286  1.00  0.00     0.049 A 
ATOM     73  H   UNL A   1      38.796  34.646  34.150  1.00  0.00     0.167 HD
ATOM     74  C   UNL A   1      39.904  33.494  31.590  1.00  0.00     0.074 A 
ATOM     75  C   UNL A   1      40.806  34.351  32.358  1.00  0.00     0.031 C 
ATOM     76  C   UNL A   1      38.762  32.833  31.942  1.00  0.00     0.034 A 
BRANCH  63  77
ATOM     77  C   UNL A   1      39.929  34.525  37.035  1.00  0.00     0.023 A 
ATOM     78  C   UNL A   1      39.400  34.843  38.299  1.00  0.00     0.031 A 
ATOM     79  C   UNL A   1      40.906  35.417  36.540  1.00  0.00     0.131 A 
ATOM     80  C   UNL A   1      39.818  35.976  39.010  1.00  0.00     0.055 A 
ATOM     81  C   UNL A   1      41.373  36.513  37.279  1.00  0.00     0.041 A 
ATOM     82  F   UNL A   1      41.483  35.217  35.345  1.00  0.00    -0.206 F 
ATOM     83  C   UNL A   1      40.828  36.797  38.523  1.00  0.00     0.022 A 
BRANCH  80  84
ATOM     84  S   UNL A   1      39.047  36.388  40.600  1.00  0.00     0.124 S 
ATOM     85  O   UNL A   1      38.296  37.597  40.261  1.00  0.00    -0.237 OA
ATOM     86  O   UNL A   1      38.236  35.194  40.850  1.00  0.00    -0.237 OA
ATOM     87  O   UNL A   1      40.177  36.566  41.493  1.00  0.00    -0.744 OA
ENDBRANCH  80  84
ENDBRANCH  63  77
BRANCH  64  88
ATOM     88  C   UNL A   1      44.242  33.241  29.783  1.00  0.00     0.023 A 
ATOM     89  C   UNL A   1      44.360  33.362  28.386  1.00  0.00     0.031 A 
ATOM     90  C   UNL A   1      45.409  33.400  30.549  1.00  0.00     0.131 A 
ATOM     91  C   UNL A   1      45.611  33.575  27.793  1.00  0.00     0.055 A 
ATOM     92  C   UNL A   1      46.655  33.634  29.956  1.00  0.00     0.041 A 
ATOM     93  F   UNL A   1      45.371  33.260  31.883  1.00  0.00    -0.206 F 
ATOM     94  C   UNL A   1      46.763  33.706  28.570  1.00  0.00     0.022 A 
BRANCH  91  95
ATOM     95  S   UNL A   1      45.777  33.588  25.987  1.00  0.00     0.124 S 
ATOM     96  O   UNL A   1      45.348  32.239  25.629  1.00  0.00    -0.237 OA
ATOM     97  O   UNL A   1      44.861  34.660  25.615  1.00  0.00    -0.237 OA
ATOM     98  O   UNL A   1      47.196  33.860  25.776  1.00  0.00    -0.744 OA
ENDBRANCH  91  95
ENDBRANCH  64  88
BRANCH  76  99
ATOM     99  C   UNL A   1      38.150  31.860  30.959  1.00  0.00     0.023 A 
ATOM    100  C   UNL A   1      37.135  32.345  30.115  1.00  0.00     0.031 A 
ATOM    101  C   UNL A   1      38.367  30.468  30.975  1.00  0.00     0.131 A 
ATOM    102  C   UNL A   1      36.370  31.460  29.349  1.00  0.00     0.055 A 
ATOM    103  C   UNL A   1      37.660  29.597  30.142  1.00  0.00     0.041 A 
ATOM    104  F   UNL A   1      39.203  29.897  31.852  1.00  0.00    -0.206 F 
ATOM    105  C   UNL A   1      36.655  30.093  29.323  1.00  0.00     0.022 A 
BRANCH 102 106
ATOM    106  S   UNL A   1      34.866  32.026  28.516  1.00  0.00     0.124 S 
ATOM    107  O   UNL A   1      34.085  32.569  29.623  1.00  0.00    -0.237 OA
ATOM    108  O   UNL A   1      35.395  33.018  27.579  1.00  0.00    -0.237 OA
ATOM    109  O   UNL A   1      34.326  30.820  27.898  1.00  0.00    -0.744 OA
ENDBRANCH 102 106
ENDBRANCH  76  99
ENDBRANCH  50  51
ENDBRANCH  42  45
ENDBRANCH  40  41
ENDBRANCH  39  40
ENDBRANCH  38  39
ENDBRANCH   1  38
TORSDOF 22
ENDMDL
