MODEL 1
REMARK VINA RESULT:     -11.3      0.000      0.000
REMARK SMILES O=C(NCCCCCCNC(=O)[C@H]1CCCC[C@H]1C(=O)N1CCN(S(=O)(=O)c2ccc(F)cc2)CC1)c1ccc(-c2c3nc(c(-c4cc(S(=O)(=O)[O-])ccc4F)c4ccc([nH]4)c(-c4cc(S(=O)(=O)[O-])ccc4F)c4nc(c(-c5cc(S(=O)(=O)[O-])ccc5F)c5ccc2[nH]5)C=C4)C=C3)cc1
REMARK SMILES IDX 6 1 5 2 4 3 3 4 1 5 2 6 37 8 38 9 99 10 39 11 98 12 40 13
REMARK SMILES IDX 41 14 42 15 92 16 43 17 97 18 91 19 93 20 44 21 96 22 90 23
REMARK SMILES IDX 89 24 45 26 77 27 57 28 76 29 58 30 61 31 75 32 94 33 59 34
REMARK SMILES IDX 60 35 74 37 95 38 62 39 46 40 47 41 55 42 48 43 54 44 56 45
REMARK SMILES IDX 53 46 49 47 50 48 51 49 52 50 78 51 79 52 87 53 80 54 86 55
REMARK SMILES IDX 88 56 85 57 81 58 82 59 83 60 84 61 63 62 64 63 72 64 65 65
REMARK SMILES IDX 71 66 73 67 70 68 66 69 67 70 68 71 69 72 7 73 8 74 9 75
REMARK SMILES IDX 10 76 11 77 12 79 13 80 14 81 18 82 15 83 17 84 16 85 19 86
REMARK SMILES IDX 20 87 21 88 22 89 36 90 23 91 35 92 24 93 25 94 26 95 27 96
REMARK SMILES IDX 28 97 29 98 34 99 30 100 33 101 31 102 32 103
REMARK H PARENT 3 7 93 25 61 36 10 78
REMARK Flexibility Score: inf
ROOT
ATOM      1  C   UNL A   1      35.560  33.410  28.008  1.00  0.00     0.002 C 
ENDROOT
BRANCH   1   2
ATOM      2  C   UNL A   1      34.394  34.392  27.951  1.00  0.00     0.021 C 
BRANCH   2   3
ATOM      3  C   UNL A   1      33.200  34.049  28.826  1.00  0.00     0.116 C 
BRANCH   3   4
ATOM      4  N   UNL A   1      32.965  35.012  29.889  1.00  0.00    -0.352 N 
ATOM      5  O   UNL A   1      33.273  35.964  31.917  1.00  0.00    -0.269 OA
ATOM      6  C   UNL A   1      33.655  35.162  31.071  1.00  0.00     0.251 C 
ATOM      7  H   UNL A   1      32.217  35.636  29.747  1.00  0.00     0.163 HD
BRANCH   6   8
ATOM      8  C   UNL A   1      34.844  34.317  31.322  1.00  0.00     0.039 A 
ATOM      9  C   UNL A   1      34.702  33.040  31.869  1.00  0.00     0.014 A 
ATOM     10  C   UNL A   1      36.116  34.832  31.056  1.00  0.00     0.014 A 
ATOM     11  C   UNL A   1      35.829  32.343  32.292  1.00  0.00     0.010 A 
ATOM     12  C   UNL A   1      37.250  34.088  31.400  1.00  0.00     0.010 A 
ATOM     13  C   UNL A   1      37.116  32.853  32.054  1.00  0.00    -0.014 A 
BRANCH  13  14
ATOM     14  C   UNL A   1      38.303  32.058  32.469  1.00  0.00     0.031 A 
ATOM     15  C   UNL A   1      38.872  30.989  31.573  1.00  0.00     0.074 A 
ATOM     16  C   UNL A   1      38.895  32.342  33.646  1.00  0.00     0.049 A 
ATOM     17  N   UNL A   1      39.892  30.199  31.788  1.00  0.00    -0.248 NA
ATOM     18  C   UNL A   1      38.213  30.775  30.275  1.00  0.00     0.031 C 
ATOM     19  C   UNL A   1      38.437  33.366  34.590  1.00  0.00     0.029 A 
ATOM     20  N   UNL A   1      40.014  31.823  34.244  1.00  0.00    -0.354 N 
ATOM     21  C   UNL A   1      39.991  29.385  30.664  1.00  0.00     0.074 A 
ATOM     22  C   UNL A   1      38.911  29.760  29.778  1.00  0.00     0.031 C 
ATOM     23  C   UNL A   1      39.297  33.437  35.616  1.00  0.00     0.029 A 
ATOM     24  C   UNL A   1      40.322  32.413  35.448  1.00  0.00     0.049 A 
ATOM     25  H   UNL A   1      40.547  31.095  33.849  1.00  0.00     0.167 HD
ATOM     26  C   UNL A   1      40.906  28.423  30.397  1.00  0.00     0.034 A 
ATOM     27  C   UNL A   1      41.301  32.147  36.334  1.00  0.00     0.034 A 
ATOM     28  C   UNL A   1      41.993  28.075  31.278  1.00  0.00     0.049 A 
ATOM     29  C   UNL A   1      42.265  31.034  36.036  1.00  0.00     0.074 A 
ATOM     30  C   UNL A   1      42.993  27.139  31.078  1.00  0.00     0.029 A 
ATOM     31  N   UNL A   1      42.224  28.646  32.521  1.00  0.00    -0.354 N 
ATOM     32  N   UNL A   1      42.330  30.269  34.972  1.00  0.00    -0.248 NA
ATOM     33  C   UNL A   1      43.276  30.736  37.059  1.00  0.00     0.031 C 
ATOM     34  C   UNL A   1      43.792  27.100  32.224  1.00  0.00     0.029 A 
ATOM     35  C   UNL A   1      43.330  28.058  33.112  1.00  0.00     0.049 A 
ATOM     36  H   UNL A   1      41.683  29.363  32.923  1.00  0.00     0.167 HD
ATOM     37  C   UNL A   1      43.391  29.399  35.197  1.00  0.00     0.074 A 
ATOM     38  C   UNL A   1      43.949  29.746  36.489  1.00  0.00     0.031 C 
ATOM     39  C   UNL A   1      43.859  28.402  34.408  1.00  0.00     0.034 A 
BRANCH  26  40
ATOM     40  C   UNL A   1      40.773  27.651  29.111  1.00  0.00     0.023 A 
ATOM     41  C   UNL A   1      41.645  27.863  28.032  1.00  0.00     0.031 A 
ATOM     42  C   UNL A   1      39.803  26.638  28.993  1.00  0.00     0.131 A 
ATOM     43  C   UNL A   1      41.516  27.088  26.869  1.00  0.00     0.055 A 
ATOM     44  C   UNL A   1      39.714  25.835  27.856  1.00  0.00     0.041 A 
ATOM     45  F   UNL A   1      38.937  26.404  29.993  1.00  0.00    -0.206 F 
ATOM     46  C   UNL A   1      40.573  26.060  26.783  1.00  0.00     0.022 A 
BRANCH  43  47
ATOM     47  S   UNL A   1      42.573  27.470  25.447  1.00  0.00     0.124 S 
ATOM     48  O   UNL A   1      42.018  28.745  25.001  1.00  0.00    -0.237 OA
ATOM     49  O   UNL A   1      43.903  27.527  26.043  1.00  0.00    -0.237 OA
ATOM     50  O   UNL A   1      42.346  26.346  24.539  1.00  0.00    -0.744 OA
ENDBRANCH  43  47
ENDBRANCH  26  40
BRANCH  27  51
ATOM     51  C   UNL A   1      41.382  32.916  37.607  1.00  0.00     0.023 A 
ATOM     52  C   UNL A   1      40.601  32.561  38.717  1.00  0.00     0.031 A 
ATOM     53  C   UNL A   1      42.245  34.020  37.727  1.00  0.00     0.131 A 
ATOM     54  C   UNL A   1      40.683  33.321  39.895  1.00  0.00     0.055 A 
ATOM     55  C   UNL A   1      42.355  34.743  38.915  1.00  0.00     0.041 A 
ATOM     56  F   UNL A   1      43.016  34.395  36.694  1.00  0.00    -0.206 F 
ATOM     57  C   UNL A   1      41.565  34.399  40.006  1.00  0.00     0.022 A 
BRANCH  54  58
ATOM     58  S   UNL A   1      39.583  32.903  41.275  1.00  0.00     0.124 S 
ATOM     59  O   UNL A   1      38.275  33.235  40.722  1.00  0.00    -0.237 OA
ATOM     60  O   UNL A   1      39.859  31.483  41.465  1.00  0.00    -0.237 OA
ATOM     61  O   UNL A   1      40.045  33.774  42.353  1.00  0.00    -0.744 OA
ENDBRANCH  54  58
ENDBRANCH  27  51
BRANCH  39  62
ATOM     62  C   UNL A   1      45.038  27.617  34.912  1.00  0.00     0.023 A 
ATOM     63  C   UNL A   1      44.862  26.436  35.649  1.00  0.00     0.031 A 
ATOM     64  C   UNL A   1      46.347  28.027  34.605  1.00  0.00     0.131 A 
ATOM     65  C   UNL A   1      45.983  25.709  36.074  1.00  0.00     0.055 A 
ATOM     66  C   UNL A   1      47.457  27.278  34.993  1.00  0.00     0.041 A 
ATOM     67  F   UNL A   1      46.564  29.149  33.900  1.00  0.00    -0.206 F 
ATOM     68  C   UNL A   1      47.278  26.113  35.735  1.00  0.00     0.022 A 
BRANCH  65  69
ATOM     69  S   UNL A   1      45.729  24.231  37.093  1.00  0.00     0.124 S 
ATOM     70  O   UNL A   1      44.612  24.639  37.939  1.00  0.00    -0.237 OA
ATOM     71  O   UNL A   1      45.433  23.206  36.098  1.00  0.00    -0.237 OA
ATOM     72  O   UNL A   1      47.006  24.069  37.785  1.00  0.00    -0.744 OA
ENDBRANCH  65  69
ENDBRANCH  39  62
ENDBRANCH  13  14
ENDBRANCH   6   8
ENDBRANCH   3   4
ENDBRANCH   2   3
ENDBRANCH   1   2
BRANCH   1  73
ATOM     73  C   UNL A   1      35.230  31.977  28.430  1.00  0.00     0.002 C 
BRANCH  73  74
ATOM     74  C   UNL A   1      35.647  30.838  27.488  1.00  0.00     0.021 C 
BRANCH  74  75
ATOM     75  C   UNL A   1      34.903  29.513  27.614  1.00  0.00     0.116 C 
BRANCH  75  76
ATOM     76  N   UNL A   1      34.720  28.828  26.354  1.00  0.00    -0.356 N 
ATOM     77  C   UNL A   1      33.588  28.865  25.596  1.00  0.00     0.223 C 
ATOM     78  H   UNL A   1      35.475  28.291  26.017  1.00  0.00     0.163 HD
ATOM     79  O   UNL A   1      33.750  29.071  24.396  1.00  0.00    -0.275 OA
BRANCH  77  80
ATOM     80  C   UNL A   1      32.227  28.560  26.221  1.00  0.00     0.091 C 
ATOM     81  C   UNL A   1      31.863  29.665  27.230  1.00  0.00     0.014 C 
ATOM     82  C   UNL A   1      31.074  28.489  25.189  1.00  0.00     0.091 C 
ATOM     83  C   UNL A   1      31.786  31.028  26.546  1.00  0.00     0.001 C 
ATOM     84  C   UNL A   1      30.854  29.827  24.454  1.00  0.00     0.014 C 
ATOM     85  C   UNL A   1      30.791  31.041  25.388  1.00  0.00     0.001 C 
BRANCH  82  86
ATOM     86  C   UNL A   1      30.946  27.327  24.177  1.00  0.00     0.226 C 
ATOM     87  O   UNL A   1      30.586  27.585  23.021  1.00  0.00    -0.275 OA
ATOM     88  N   UNL A   1      31.465  26.085  24.473  1.00  0.00    -0.340 N 
ATOM     89  C   UNL A   1      32.189  25.349  23.430  1.00  0.00     0.136 C 
ATOM     90  C   UNL A   1      30.883  25.207  25.477  1.00  0.00     0.136 C 
ATOM     91  C   UNL A   1      33.257  24.412  24.033  1.00  0.00     0.124 C 
ATOM     92  C   UNL A   1      31.976  24.349  26.126  1.00  0.00     0.124 C 
ATOM     93  N   UNL A   1      32.704  23.517  25.119  1.00  0.00    -0.194 NA
BRANCH  93  94
ATOM     94  S   UNL A   1      31.977  22.085  24.571  1.00  0.00     0.243 S 
ATOM     95  O   UNL A   1      30.987  21.668  25.544  1.00  0.00    -0.207 OA
ATOM     96  O   UNL A   1      31.610  22.281  23.188  1.00  0.00    -0.207 OA
BRANCH  94  97
ATOM     97  C   UNL A   1      33.299  20.885  24.620  1.00  0.00     0.082 A 
ATOM     98  C   UNL A   1      34.575  21.284  25.048  1.00  0.00     0.025 A 
ATOM     99  C   UNL A   1      33.047  19.548  24.297  1.00  0.00     0.025 A 
ATOM    100  C   UNL A   1      35.619  20.360  25.070  1.00  0.00     0.040 A 
ATOM    101  C   UNL A   1      34.090  18.620  24.359  1.00  0.00     0.040 A 
ATOM    102  C   UNL A   1      35.367  19.037  24.729  1.00  0.00     0.123 A 
ATOM    103  F   UNL A   1      36.366  18.147  24.769  1.00  0.00    -0.207 F 
ENDBRANCH  94  97
ENDBRANCH  93  94
ENDBRANCH  82  86
ENDBRANCH  77  80
ENDBRANCH  75  76
ENDBRANCH  74  75
ENDBRANCH  73  74
ENDBRANCH   1  73
TORSDOF 19
ENDMDL
MODEL 2
REMARK VINA RESULT:     -11.1      1.981      2.554
REMARK SMILES O=C(NCCCCCCNC(=O)[C@H]1CCCC[C@H]1C(=O)N1CCN(S(=O)(=O)c2ccc(F)cc2)CC1)c1ccc(-c2c3nc(c(-c4cc(S(=O)(=O)[O-])ccc4F)c4ccc([nH]4)c(-c4cc(S(=O)(=O)[O-])ccc4F)c4nc(c(-c5cc(S(=O)(=O)[O-])ccc5F)c5ccc2[nH]5)C=C4)C=C3)cc1
REMARK SMILES IDX 6 1 5 2 4 3 3 4 1 5 2 6 37 8 38 9 99 10 39 11 98 12 40 13
REMARK SMILES IDX 41 14 42 15 92 16 43 17 97 18 91 19 93 20 44 21 96 22 90 23
REMARK SMILES IDX 89 24 45 26 77 27 57 28 76 29 58 30 61 31 75 32 94 33 59 34
REMARK SMILES IDX 60 35 74 37 95 38 62 39 46 40 47 41 55 42 48 43 54 44 56 45
REMARK SMILES IDX 53 46 49 47 50 48 51 49 52 50 78 51 79 52 87 53 80 54 86 55
REMARK SMILES IDX 88 56 85 57 81 58 82 59 83 60 84 61 63 62 64 63 72 64 65 65
REMARK SMILES IDX 71 66 73 67 70 68 66 69 67 70 68 71 69 72 7 73 8 74 9 75
REMARK SMILES IDX 10 76 11 77 12 79 13 80 14 81 18 82 15 83 17 84 16 85 19 86
REMARK SMILES IDX 20 87 21 88 22 89 36 90 23 91 35 92 24 93 25 94 26 95 27 96
REMARK SMILES IDX 28 97 29 98 34 99 30 100 33 101 31 102 32 103
REMARK H PARENT 3 7 93 25 61 36 10 78
REMARK Flexibility Score: inf
ROOT
ATOM      1  C   UNL A   1      34.540  31.144  27.944  1.00  0.00     0.002 C 
ENDROOT
BRANCH   1   2
ATOM      2  C   UNL A   1      33.325  32.064  28.021  1.00  0.00     0.021 C 
BRANCH   2   3
ATOM      3  C   UNL A   1      33.493  33.433  27.382  1.00  0.00     0.116 C 
BRANCH   3   4
ATOM      4  N   UNL A   1      32.853  34.503  28.130  1.00  0.00    -0.352 N 
ATOM      5  O   UNL A   1      32.465  35.817  29.928  1.00  0.00    -0.269 OA
ATOM      6  C   UNL A   1      33.164  34.965  29.389  1.00  0.00     0.251 C 
ATOM      7  H   UNL A   1      32.103  34.953  27.680  1.00  0.00     0.163 HD
BRANCH   6   8
ATOM      8  C   UNL A   1      34.332  34.396  30.099  1.00  0.00     0.039 A 
ATOM      9  C   UNL A   1      35.625  34.603  29.613  1.00  0.00     0.014 A 
ATOM     10  C   UNL A   1      34.123  33.604  31.231  1.00  0.00     0.014 A 
ATOM     11  C   UNL A   1      36.688  33.895  30.164  1.00  0.00     0.010 A 
ATOM     12  C   UNL A   1      35.209  32.965  31.839  1.00  0.00     0.010 A 
ATOM     13  C   UNL A   1      36.495  33.076  31.289  1.00  0.00    -0.014 A 
BRANCH  13  14
ATOM     14  C   UNL A   1      37.663  32.377  31.889  1.00  0.00     0.031 A 
ATOM     15  C   UNL A   1      38.368  31.271  31.150  1.00  0.00     0.074 A 
ATOM     16  C   UNL A   1      38.114  32.784  33.093  1.00  0.00     0.049 A 
ATOM     17  N   UNL A   1      39.392  30.552  31.534  1.00  0.00    -0.248 NA
ATOM     18  C   UNL A   1      37.861  30.921  29.813  1.00  0.00     0.031 C 
ATOM     19  C   UNL A   1      37.516  33.855  33.895  1.00  0.00     0.029 A 
ATOM     20  N   UNL A   1      39.184  32.370  33.844  1.00  0.00    -0.354 N 
ATOM     21  C   UNL A   1      39.645  29.658  30.499  1.00  0.00     0.074 A 
ATOM     22  C   UNL A   1      38.650  29.906  29.478  1.00  0.00     0.031 C 
ATOM     23  C   UNL A   1      38.257  34.051  34.994  1.00  0.00     0.029 A 
ATOM     24  C   UNL A   1      39.337  33.070  35.019  1.00  0.00     0.049 A 
ATOM     25  H   UNL A   1      39.786  31.641  33.569  1.00  0.00     0.167 HD
ATOM     26  C   UNL A   1      40.622  28.725  30.409  1.00  0.00     0.034 A 
ATOM     27  C   UNL A   1      40.226  32.925  36.020  1.00  0.00     0.034 A 
ATOM     28  C   UNL A   1      41.623  28.504  31.423  1.00  0.00     0.049 A 
ATOM     29  C   UNL A   1      41.262  31.841  35.918  1.00  0.00     0.074 A 
ATOM     30  C   UNL A   1      42.676  27.606  31.407  1.00  0.00     0.029 A 
ATOM     31  N   UNL A   1      41.696  29.182  32.631  1.00  0.00    -0.354 N 
ATOM     32  N   UNL A   1      41.472  30.998  34.934  1.00  0.00    -0.248 NA
ATOM     33  C   UNL A   1      42.170  31.677  37.061  1.00  0.00     0.031 C 
ATOM     34  C   UNL A   1      43.350  27.699  32.628  1.00  0.00     0.029 A 
ATOM     35  C   UNL A   1      42.756  28.700  33.380  1.00  0.00     0.049 A 
ATOM     36  H   UNL A   1      41.085  29.901  32.914  1.00  0.00     0.167 HD
ATOM     37  C   UNL A   1      42.538  30.204  35.340  1.00  0.00     0.074 A 
ATOM     38  C   UNL A   1      42.941  30.680  36.648  1.00  0.00     0.031 C 
ATOM     39  C   UNL A   1      43.129  29.172  34.690  1.00  0.00     0.034 A 
BRANCH  26  40
ATOM     40  C   UNL A   1      40.659  27.847  29.186  1.00  0.00     0.023 A 
ATOM     41  C   UNL A   1      41.562  28.084  28.139  1.00  0.00     0.031 A 
ATOM     42  C   UNL A   1      39.826  26.717  29.104  1.00  0.00     0.131 A 
ATOM     43  C   UNL A   1      41.596  27.213  27.038  1.00  0.00     0.055 A 
ATOM     44  C   UNL A   1      39.902  25.825  28.033  1.00  0.00     0.041 A 
ATOM     45  F   UNL A   1      38.936  26.453  30.075  1.00  0.00    -0.206 F 
ATOM     46  C   UNL A   1      40.790  26.072  26.990  1.00  0.00     0.022 A 
BRANCH  43  47
ATOM     47  S   UNL A   1      42.683  27.614  25.644  1.00  0.00     0.124 S 
ATOM     48  O   UNL A   1      42.241  28.964  25.304  1.00  0.00    -0.237 OA
ATOM     49  O   UNL A   1      44.013  27.509  26.235  1.00  0.00    -0.237 OA
ATOM     50  O   UNL A   1      42.360  26.590  24.652  1.00  0.00    -0.744 OA
ENDBRANCH  43  47
ENDBRANCH  26  40
BRANCH  27  51
ATOM     51  C   UNL A   1      40.139  33.795  37.225  1.00  0.00     0.023 A 
ATOM     52  C   UNL A   1      41.040  34.851  37.422  1.00  0.00     0.031 A 
ATOM     53  C   UNL A   1      39.147  33.578  38.199  1.00  0.00     0.131 A 
ATOM     54  C   UNL A   1      40.946  35.639  38.580  1.00  0.00     0.055 A 
ATOM     55  C   UNL A   1      39.030  34.392  39.326  1.00  0.00     0.041 A 
ATOM     56  F   UNL A   1      38.258  32.582  38.052  1.00  0.00    -0.206 F 
ATOM     57  C   UNL A   1      39.938  35.426  39.525  1.00  0.00     0.022 A 
BRANCH  54  58
ATOM     58  S   UNL A   1      42.191  36.927  38.858  1.00  0.00     0.124 S 
ATOM     59  O   UNL A   1      43.086  36.276  39.808  1.00  0.00    -0.237 OA
ATOM     60  O   UNL A   1      42.720  37.134  37.514  1.00  0.00    -0.237 OA
ATOM     61  O   UNL A   1      41.413  38.041  39.396  1.00  0.00    -0.744 OA
ENDBRANCH  54  58
ENDBRANCH  27  51
BRANCH  39  62
ATOM     62  C   UNL A   1      44.280  28.491  35.377  1.00  0.00     0.023 A 
ATOM     63  C   UNL A   1      44.062  27.513  36.360  1.00  0.00     0.031 A 
ATOM     64  C   UNL A   1      45.603  28.783  35.004  1.00  0.00     0.131 A 
ATOM     65  C   UNL A   1      45.157  26.872  36.956  1.00  0.00     0.055 A 
ATOM     66  C   UNL A   1      46.686  28.111  35.569  1.00  0.00     0.041 A 
ATOM     67  F   UNL A   1      45.860  29.708  34.065  1.00  0.00    -0.206 F 
ATOM     68  C   UNL A   1      46.466  27.152  36.554  1.00  0.00     0.022 A 
BRANCH  65  69
ATOM     69  S   UNL A   1      44.849  25.672  38.281  1.00  0.00     0.124 S 
ATOM     70  O   UNL A   1      46.178  25.524  38.866  1.00  0.00    -0.237 OA
ATOM     71  O   UNL A   1      43.862  26.357  39.108  1.00  0.00    -0.237 OA
ATOM     72  O   UNL A   1      44.350  24.497  37.569  1.00  0.00    -0.744 OA
ENDBRANCH  65  69
ENDBRANCH  39  62
ENDBRANCH  13  14
ENDBRANCH   6   8
ENDBRANCH   3   4
ENDBRANCH   2   3
ENDBRANCH   1   2
BRANCH   1  73
ATOM     73  C   UNL A   1      34.278  29.693  27.534  1.00  0.00     0.002 C 
BRANCH  73  74
ATOM     74  C   UNL A   1      33.638  29.440  26.162  1.00  0.00     0.021 C 
BRANCH  74  75
ATOM     75  C   UNL A   1      32.115  29.476  26.078  1.00  0.00     0.116 C 
BRANCH  75  76
ATOM     76  N   UNL A   1      31.607  30.460  25.149  1.00  0.00    -0.356 N 
ATOM     77  C   UNL A   1      30.361  30.449  24.597  1.00  0.00     0.223 C 
ATOM     78  H   UNL A   1      32.210  31.196  24.895  1.00  0.00     0.163 HD
ATOM     79  O   UNL A   1      29.754  31.517  24.616  1.00  0.00    -0.275 OA
BRANCH  77  80
ATOM     80  C   UNL A   1      29.829  29.191  23.910  1.00  0.00     0.091 C 
ATOM     81  C   UNL A   1      28.342  29.385  23.560  1.00  0.00     0.014 C 
ATOM     82  C   UNL A   1      30.565  28.847  22.591  1.00  0.00     0.091 C 
ATOM     83  C   UNL A   1      28.150  30.568  22.615  1.00  0.00     0.001 C 
ATOM     84  C   UNL A   1      30.410  29.948  21.522  1.00  0.00     0.014 C 
ATOM     85  C   UNL A   1      28.966  30.425  21.333  1.00  0.00     0.001 C 
BRANCH  82  86
ATOM     86  C   UNL A   1      32.020  28.323  22.573  1.00  0.00     0.226 C 
ATOM     87  O   UNL A   1      32.940  29.135  22.416  1.00  0.00    -0.275 OA
ATOM     88  N   UNL A   1      32.302  27.037  22.979  1.00  0.00    -0.340 N 
ATOM     89  C   UNL A   1      33.476  26.799  23.826  1.00  0.00     0.136 C 
ATOM     90  C   UNL A   1      31.924  25.865  22.204  1.00  0.00     0.136 C 
ATOM     91  C   UNL A   1      33.279  25.569  24.739  1.00  0.00     0.124 C 
ATOM     92  C   UNL A   1      31.646  24.680  23.137  1.00  0.00     0.124 C 
ATOM     93  N   UNL A   1      32.835  24.341  23.978  1.00  0.00    -0.194 NA
BRANCH  93  94
ATOM     94  S   UNL A   1      34.089  23.433  23.283  1.00  0.00     0.243 S 
ATOM     95  O   UNL A   1      33.889  23.392  21.847  1.00  0.00    -0.207 OA
ATOM     96  O   UNL A   1      35.334  23.909  23.837  1.00  0.00    -0.207 OA
BRANCH  94  97
ATOM     97  C   UNL A   1      33.815  21.779  23.898  1.00  0.00     0.082 A 
ATOM     98  C   UNL A   1      34.867  21.095  24.526  1.00  0.00     0.025 A 
ATOM     99  C   UNL A   1      32.545  21.198  23.812  1.00  0.00     0.025 A 
ATOM    100  C   UNL A   1      34.670  19.795  24.991  1.00  0.00     0.040 A 
ATOM    101  C   UNL A   1      32.345  19.910  24.316  1.00  0.00     0.040 A 
ATOM    102  C   UNL A   1      33.411  19.217  24.886  1.00  0.00     0.123 A 
ATOM    103  F   UNL A   1      33.218  17.976  25.350  1.00  0.00    -0.207 F 
ENDBRANCH  94  97
ENDBRANCH  93  94
ENDBRANCH  82  86
ENDBRANCH  77  80
ENDBRANCH  75  76
ENDBRANCH  74  75
ENDBRANCH  73  74
ENDBRANCH   1  73
TORSDOF 19
ENDMDL
MODEL 3
REMARK VINA RESULT:     -11.1      1.595      7.557
REMARK SMILES O=C(NCCCCCCNC(=O)[C@H]1CCCC[C@H]1C(=O)N1CCN(S(=O)(=O)c2ccc(F)cc2)CC1)c1ccc(-c2c3nc(c(-c4cc(S(=O)(=O)[O-])ccc4F)c4ccc([nH]4)c(-c4cc(S(=O)(=O)[O-])ccc4F)c4nc(c(-c5cc(S(=O)(=O)[O-])ccc5F)c5ccc2[nH]5)C=C4)C=C3)cc1
REMARK SMILES IDX 6 1 5 2 4 3 3 4 1 5 2 6 37 8 38 9 99 10 39 11 98 12 40 13
REMARK SMILES IDX 41 14 42 15 92 16 43 17 97 18 91 19 93 20 44 21 96 22 90 23
REMARK SMILES IDX 89 24 45 26 77 27 57 28 76 29 58 30 61 31 75 32 94 33 59 34
REMARK SMILES IDX 60 35 74 37 95 38 62 39 46 40 47 41 55 42 48 43 54 44 56 45
REMARK SMILES IDX 53 46 49 47 50 48 51 49 52 50 78 51 79 52 87 53 80 54 86 55
REMARK SMILES IDX 88 56 85 57 81 58 82 59 83 60 84 61 63 62 64 63 72 64 65 65
REMARK SMILES IDX 71 66 73 67 70 68 66 69 67 70 68 71 69 72 7 73 8 74 9 75
REMARK SMILES IDX 10 76 11 77 12 79 13 80 14 81 18 82 15 83 17 84 16 85 19 86
REMARK SMILES IDX 20 87 21 88 22 89 36 90 23 91 35 92 24 93 25 94 26 95 27 96
REMARK SMILES IDX 28 97 29 98 34 99 30 100 33 101 31 102 32 103
REMARK H PARENT 3 7 93 25 61 36 10 78
REMARK Flexibility Score: inf
ROOT
ATOM      1  C   UNL A   1      36.062  33.066  28.189  1.00  0.00     0.002 C 
ENDROOT
BRANCH   1   2
ATOM      2  C   UNL A   1      34.905  34.047  28.023  1.00  0.00     0.021 C 
BRANCH   2   3
ATOM      3  C   UNL A   1      33.566  33.586  28.574  1.00  0.00     0.116 C 
BRANCH   3   4
ATOM      4  N   UNL A   1      32.952  34.543  29.479  1.00  0.00    -0.352 N 
ATOM      5  O   UNL A   1      32.630  35.610  31.447  1.00  0.00    -0.269 OA
ATOM      6  C   UNL A   1      33.312  34.842  30.774  1.00  0.00     0.251 C 
ATOM      7  H   UNL A   1      32.181  35.039  29.122  1.00  0.00     0.163 HD
BRANCH   6   8
ATOM      8  C   UNL A   1      34.512  34.200  31.356  1.00  0.00     0.039 A 
ATOM      9  C   UNL A   1      35.735  34.874  31.379  1.00  0.00     0.014 A 
ATOM     10  C   UNL A   1      34.420  32.890  31.835  1.00  0.00     0.014 A 
ATOM     11  C   UNL A   1      36.891  34.188  31.734  1.00  0.00     0.010 A 
ATOM     12  C   UNL A   1      35.573  32.232  32.277  1.00  0.00     0.010 A 
ATOM     13  C   UNL A   1      36.824  32.863  32.197  1.00  0.00    -0.014 A 
BRANCH  13  14
ATOM     14  C   UNL A   1      38.072  32.176  32.622  1.00  0.00     0.031 A 
ATOM     15  C   UNL A   1      38.688  32.448  33.969  1.00  0.00     0.074 A 
ATOM     16  C   UNL A   1      38.624  31.264  31.796  1.00  0.00     0.049 A 
ATOM     17  N   UNL A   1      39.778  31.945  34.489  1.00  0.00    -0.248 NA
ATOM     18  C   UNL A   1      37.998  33.410  34.845  1.00  0.00     0.031 C 
ATOM     19  C   UNL A   1      38.107  30.910  30.471  1.00  0.00     0.029 A 
ATOM     20  N   UNL A   1      39.718  30.452  31.948  1.00  0.00    -0.354 N 
ATOM     21  C   UNL A   1      39.915  32.534  35.741  1.00  0.00     0.074 A 
ATOM     22  C   UNL A   1      38.809  33.454  35.895  1.00  0.00     0.031 C 
ATOM     23  C   UNL A   1      38.847  29.917  29.958  1.00  0.00     0.029 A 
ATOM     24  C   UNL A   1      39.938  29.616  30.878  1.00  0.00     0.049 A 
ATOM     25  H   UNL A   1      40.292  30.465  32.749  1.00  0.00     0.167 HD
ATOM     26  C   UNL A   1      40.871  32.317  36.676  1.00  0.00     0.034 A 
ATOM     27  C   UNL A   1      40.922  28.725  30.644  1.00  0.00     0.034 A 
ATOM     28  C   UNL A   1      41.954  31.378  36.520  1.00  0.00     0.049 A 
ATOM     29  C   UNL A   1      42.001  28.551  31.675  1.00  0.00     0.074 A 
ATOM     30  C   UNL A   1      42.951  31.062  37.427  1.00  0.00     0.029 A 
ATOM     31  N   UNL A   1      42.184  30.608  35.389  1.00  0.00    -0.354 N 
ATOM     32  N   UNL A   1      42.117  29.130  32.847  1.00  0.00    -0.248 NA
ATOM     33  C   UNL A   1      43.088  27.618  31.351  1.00  0.00     0.031 C 
ATOM     34  C   UNL A   1      43.818  30.146  36.822  1.00  0.00     0.029 A 
ATOM     35  C   UNL A   1      43.325  29.842  35.564  1.00  0.00     0.049 A 
ATOM     36  H   UNL A   1      41.619  30.605  34.583  1.00  0.00     0.167 HD
ATOM     37  C   UNL A   1      43.290  28.630  33.401  1.00  0.00     0.074 A 
ATOM     38  C   UNL A   1      43.835  27.687  32.445  1.00  0.00     0.031 C 
ATOM     39  C   UNL A   1      43.864  28.925  34.592  1.00  0.00     0.034 A 
BRANCH  26  40
ATOM     40  C   UNL A   1      40.816  33.117  37.950  1.00  0.00     0.023 A 
ATOM     41  C   UNL A   1      40.145  32.642  39.088  1.00  0.00     0.031 A 
ATOM     42  C   UNL A   1      41.505  34.339  38.046  1.00  0.00     0.131 A 
ATOM     43  C   UNL A   1      40.159  33.398  40.271  1.00  0.00     0.055 A 
ATOM     44  C   UNL A   1      41.560  35.060  39.240  1.00  0.00     0.041 A 
ATOM     45  F   UNL A   1      42.152  34.843  36.982  1.00  0.00    -0.206 F 
ATOM     46  C   UNL A   1      40.882  34.591  40.361  1.00  0.00     0.022 A 
BRANCH  43  47
ATOM     47  S   UNL A   1      39.180  32.821  41.684  1.00  0.00     0.124 S 
ATOM     48  O   UNL A   1      40.196  32.737  42.731  1.00  0.00    -0.237 OA
ATOM     49  O   UNL A   1      38.190  33.880  41.840  1.00  0.00    -0.237 OA
ATOM     50  O   UNL A   1      38.651  31.536  41.232  1.00  0.00    -0.744 OA
ENDBRANCH  43  47
ENDBRANCH  26  40
BRANCH  27  51
ATOM     51  C   UNL A   1      40.956  27.974  29.359  1.00  0.00     0.023 A 
ATOM     52  C   UNL A   1      41.904  28.274  28.371  1.00  0.00     0.031 A 
ATOM     53  C   UNL A   1      40.034  26.943  29.104  1.00  0.00     0.131 A 
ATOM     54  C   UNL A   1      41.895  27.562  27.160  1.00  0.00     0.055 A 
ATOM     55  C   UNL A   1      40.058  26.209  27.918  1.00  0.00     0.041 A 
ATOM     56  F   UNL A   1      39.110  26.616  30.023  1.00  0.00    -0.206 F 
ATOM     57  C   UNL A   1      40.988  26.523  26.934  1.00  0.00     0.022 A 
BRANCH  54  58
ATOM     58  S   UNL A   1      43.063  28.045  25.860  1.00  0.00     0.124 S 
ATOM     59  O   UNL A   1      43.392  29.412  26.249  1.00  0.00    -0.237 OA
ATOM     60  O   UNL A   1      44.125  27.057  26.023  1.00  0.00    -0.237 OA
ATOM     61  O   UNL A   1      42.279  27.916  24.634  1.00  0.00    -0.744 OA
ENDBRANCH  54  58
ENDBRANCH  27  51
BRANCH  39  62
ATOM     62  C   UNL A   1      45.146  28.217  34.935  1.00  0.00     0.023 A 
ATOM     63  C   UNL A   1      46.392  28.785  34.630  1.00  0.00     0.031 A 
ATOM     64  C   UNL A   1      45.117  26.992  35.623  1.00  0.00     0.131 A 
ATOM     65  C   UNL A   1      47.569  28.115  34.995  1.00  0.00     0.055 A 
ATOM     66  C   UNL A   1      46.290  26.352  36.022  1.00  0.00     0.041 A 
ATOM     67  F   UNL A   1      43.948  26.413  35.939  1.00  0.00    -0.206 F 
ATOM     68  C   UNL A   1      47.525  26.912  35.704  1.00  0.00     0.022 A 
BRANCH  65  69
ATOM     69  S   UNL A   1      49.164  28.831  34.516  1.00  0.00     0.124 S 
ATOM     70  O   UNL A   1      49.748  27.757  33.718  1.00  0.00    -0.237 OA
ATOM     71  O   UNL A   1      48.768  30.028  33.780  1.00  0.00    -0.237 OA
ATOM     72  O   UNL A   1      49.824  29.083  35.795  1.00  0.00    -0.744 OA
ENDBRANCH  65  69
ENDBRANCH  39  62
ENDBRANCH  13  14
ENDBRANCH   6   8
ENDBRANCH   3   4
ENDBRANCH   2   3
ENDBRANCH   1   2
BRANCH   1  73
ATOM     73  C   UNL A   1      35.695  31.631  28.573  1.00  0.00     0.002 C 
BRANCH  73  74
ATOM     74  C   UNL A   1      35.820  30.546  27.494  1.00  0.00     0.021 C 
BRANCH  74  75
ATOM     75  C   UNL A   1      34.982  29.283  27.666  1.00  0.00     0.116 C 
BRANCH  75  76
ATOM     76  N   UNL A   1      34.777  28.550  26.438  1.00  0.00    -0.356 N 
ATOM     77  C   UNL A   1      33.648  28.594  25.676  1.00  0.00     0.223 C 
ATOM     78  H   UNL A   1      35.512  27.972  26.127  1.00  0.00     0.163 HD
ATOM     79  O   UNL A   1      33.818  28.741  24.468  1.00  0.00    -0.275 OA
BRANCH  77  80
ATOM     80  C   UNL A   1      32.276  28.365  26.310  1.00  0.00     0.091 C 
ATOM     81  C   UNL A   1      31.910  29.569  27.197  1.00  0.00     0.014 C 
ATOM     82  C   UNL A   1      31.135  28.200  25.274  1.00  0.00     0.091 C 
ATOM     83  C   UNL A   1      31.855  30.856  26.379  1.00  0.00     0.001 C 
ATOM     84  C   UNL A   1      30.938  29.460  24.406  1.00  0.00     0.014 C 
ATOM     85  C   UNL A   1      30.876  30.761  25.212  1.00  0.00     0.001 C 
BRANCH  82  86
ATOM     86  C   UNL A   1      31.008  26.944  24.383  1.00  0.00     0.226 C 
ATOM     87  O   UNL A   1      30.243  26.982  23.411  1.00  0.00    -0.275 OA
ATOM     88  N   UNL A   1      31.908  25.907  24.507  1.00  0.00    -0.340 N 
ATOM     89  C   UNL A   1      32.431  25.269  23.294  1.00  0.00     0.136 C 
ATOM     90  C   UNL A   1      31.936  25.022  25.662  1.00  0.00     0.136 C 
ATOM     91  C   UNL A   1      33.847  24.695  23.519  1.00  0.00     0.124 C 
ATOM     92  C   UNL A   1      33.368  24.536  25.921  1.00  0.00     0.124 C 
ATOM     93  N   UNL A   1      33.931  23.809  24.741  1.00  0.00    -0.194 NA
BRANCH  93  94
ATOM     94  S   UNL A   1      33.481  22.192  24.491  1.00  0.00     0.243 S 
ATOM     95  O   UNL A   1      32.646  21.769  25.599  1.00  0.00    -0.207 OA
ATOM     96  O   UNL A   1      33.012  22.073  23.131  1.00  0.00    -0.207 OA
BRANCH  94  97
ATOM     97  C   UNL A   1      35.018  21.293  24.619  1.00  0.00     0.082 A 
ATOM     98  C   UNL A   1      36.232  21.996  24.586  1.00  0.00     0.025 A 
ATOM     99  C   UNL A   1      35.008  19.908  24.815  1.00  0.00     0.025 A 
ATOM    100  C   UNL A   1      37.439  21.302  24.664  1.00  0.00     0.040 A 
ATOM    101  C   UNL A   1      36.221  19.223  24.931  1.00  0.00     0.040 A 
ATOM    102  C   UNL A   1      37.423  19.923  24.839  1.00  0.00     0.123 A 
ATOM    103  F   UNL A   1      38.582  19.260  24.933  1.00  0.00    -0.207 F 
ENDBRANCH  94  97
ENDBRANCH  93  94
ENDBRANCH  82  86
ENDBRANCH  77  80
ENDBRANCH  75  76
ENDBRANCH  74  75
ENDBRANCH  73  74
ENDBRANCH   1  73
TORSDOF 19
ENDMDL
