MODEL 1
REMARK VINA RESULT:     -10.9      0.000      0.000
REMARK SMILES NC(=O)c1c(F)cccc1O[C@@H](F)C(=O)NCCCCCCNC(=O)c1ccc(-c2c3nc(c(-c4cc(S(=O)(=O)[O-])ccc4F)c4ccc([nH]4)c(-c4cc(S(=O)(=O)[O-])ccc4F)c4nc(c(-c5cc(S(=O)(=O)[O-])ccc5F)c5ccc2[nH]5)C=C4)C=C3)cc1
REMARK SMILES IDX 19 1 18 2 17 3 16 4 14 5 15 6 12 8 13 9 11 10 10 11 4 12
REMARK SMILES IDX 5 13 6 14 7 15 9 16 8 17 2 18 1 19 3 22 20 23 21 24 22 25
REMARK SMILES IDX 23 26 24 27 25 29 26 30 27 31 88 32 28 33 87 34 29 35 30 36
REMARK SMILES IDX 31 37 81 38 32 39 86 40 80 41 82 42 33 43 85 44 79 45 78 46
REMARK SMILES IDX 34 48 66 49 46 50 65 51 47 52 50 53 64 54 83 55 48 56 49 57
REMARK SMILES IDX 63 59 84 60 51 61 35 62 36 63 44 64 37 65 43 66 45 67 42 68
REMARK SMILES IDX 38 69 39 70 40 71 41 72 67 73 68 74 76 75 69 76 75 77 77 78
REMARK SMILES IDX 74 79 70 80 71 81 72 82 73 83 52 84 53 85 61 86 54 87 60 88
REMARK SMILES IDX 62 89 59 90 55 91 56 92 57 93 58 94
REMARK H PARENT 16 7 1 20 1 21 23 28 82 47 50 58
REMARK Flexibility Score: inf
ROOT
ATOM      1  C   UNL A   1      34.807  24.191  23.664  1.00  0.00     0.002 C 
ENDROOT
BRANCH   1   2
ATOM      2  C   UNL A   1      34.702  24.794  25.065  1.00  0.00     0.021 C 
BRANCH   2   3
ATOM      3  C   UNL A   1      33.622  24.242  25.981  1.00  0.00     0.116 C 
BRANCH   3   4
ATOM      4  N   UNL A   1      32.528  23.551  25.359  1.00  0.00    -0.350 N 
ATOM      5  C   UNL A   1      31.238  23.973  25.182  1.00  0.00     0.294 C 
ATOM      6  O   UNL A   1      30.520  23.208  24.521  1.00  0.00    -0.267 OA
ATOM      7  H   UNL A   1      32.733  22.652  25.013  1.00  0.00     0.163 HD
BRANCH   5   8
ATOM      8  C   UNL A   1      30.626  25.314  25.772  1.00  0.00     0.440 C 
ATOM      9  F   UNL A   1      29.416  25.069  26.356  1.00  0.00    -0.191 F 
BRANCH   8  10
ATOM     10  O   UNL A   1      30.593  26.623  25.247  1.00  0.00    -0.451 OA
BRANCH  10  11
ATOM     11  C   UNL A   1      31.680  27.439  25.207  1.00  0.00     0.139 A 
ATOM     12  C   UNL A   1      32.316  28.036  24.114  1.00  0.00     0.117 A 
ATOM     13  C   UNL A   1      33.566  28.641  24.292  1.00  0.00     0.139 A 
ATOM     14  F   UNL A   1      34.244  29.123  23.241  1.00  0.00    -0.206 F 
ATOM     15  C   UNL A   1      34.180  28.687  25.543  1.00  0.00     0.040 A 
ATOM     16  C   UNL A   1      32.262  27.584  26.483  1.00  0.00     0.047 A 
ATOM     17  C   UNL A   1      33.513  28.179  26.650  1.00  0.00     0.007 A 
BRANCH  12  18
ATOM     18  C   UNL A   1      31.750  28.076  22.761  1.00  0.00     0.255 C 
ATOM     19  N   UNL A   1      31.385  29.309  22.296  1.00  0.00    -0.365 N 
ATOM     20  H   UNL A   1      30.999  29.402  21.395  1.00  0.00     0.159 HD
ATOM     21  H   UNL A   1      31.507  30.105  22.862  1.00  0.00     0.159 HD
ATOM     22  O   UNL A   1      31.614  27.057  22.107  1.00  0.00    -0.269 OA
ENDBRANCH  12  18
ENDBRANCH  10  11
ENDBRANCH   8  10
ENDBRANCH   5   8
ENDBRANCH   3   4
ENDBRANCH   2   3
ENDBRANCH   1   2
BRANCH   1  23
ATOM     23  C   UNL A   1      35.241  22.729  23.531  1.00  0.00     0.002 C 
BRANCH  23  24
ATOM     24  C   UNL A   1      36.614  22.326  24.074  1.00  0.00     0.021 C 
BRANCH  24  25
ATOM     25  C   UNL A   1      36.674  21.745  25.484  1.00  0.00     0.116 C 
BRANCH  25  26
ATOM     26  N   UNL A   1      37.717  20.751  25.656  1.00  0.00    -0.352 N 
ATOM     27  C   UNL A   1      39.030  20.887  26.033  1.00  0.00     0.251 C 
ATOM     28  H   UNL A   1      37.435  19.826  25.472  1.00  0.00     0.163 HD
ATOM     29  O   UNL A   1      39.760  19.898  26.003  1.00  0.00    -0.269 OA
BRANCH  27  30
ATOM     30  C   UNL A   1      39.588  22.201  26.440  1.00  0.00     0.039 A 
ATOM     31  C   UNL A   1      40.618  22.222  27.385  1.00  0.00     0.014 A 
ATOM     32  C   UNL A   1      39.092  23.407  25.936  1.00  0.00     0.014 A 
ATOM     33  C   UNL A   1      41.193  23.437  27.772  1.00  0.00     0.010 A 
ATOM     34  C   UNL A   1      39.713  24.613  26.269  1.00  0.00     0.010 A 
ATOM     35  C   UNL A   1      40.774  24.642  27.187  1.00  0.00    -0.014 A 
BRANCH  35  36
ATOM     36  C   UNL A   1      41.439  25.933  27.519  1.00  0.00     0.031 A 
ATOM     37  C   UNL A   1      40.717  26.980  28.323  1.00  0.00     0.074 A 
ATOM     38  C   UNL A   1      42.684  26.180  27.063  1.00  0.00     0.049 A 
ATOM     39  N   UNL A   1      41.103  28.191  28.640  1.00  0.00    -0.248 NA
ATOM     40  C   UNL A   1      39.378  26.630  28.819  1.00  0.00     0.031 C 
ATOM     41  C   UNL A   1      43.489  25.251  26.266  1.00  0.00     0.029 A 
ATOM     42  N   UNL A   1      43.494  27.280  27.204  1.00  0.00    -0.354 N 
ATOM     43  C   UNL A   1      40.058  28.746  29.369  1.00  0.00     0.074 A 
ATOM     44  C   UNL A   1      38.998  27.761  29.398  1.00  0.00     0.031 C 
ATOM     45  C   UNL A   1      44.688  25.804  26.024  1.00  0.00     0.029 A 
ATOM     46  C   UNL A   1      44.721  27.146  26.599  1.00  0.00     0.049 A 
ATOM     47  H   UNL A   1      43.220  28.089  27.694  1.00  0.00     0.167 HD
ATOM     48  C   UNL A   1      39.996  29.956  29.977  1.00  0.00     0.034 A 
ATOM     49  C   UNL A   1      45.756  28.005  26.504  1.00  0.00     0.034 A 
ATOM     50  C   UNL A   1      41.062  30.927  29.955  1.00  0.00     0.049 A 
ATOM     51  C   UNL A   1      45.643  29.366  27.136  1.00  0.00     0.074 A 
ATOM     52  C   UNL A   1      41.105  32.168  30.567  1.00  0.00     0.029 A 
ATOM     53  N   UNL A   1      42.271  30.770  29.291  1.00  0.00    -0.354 N 
ATOM     54  N   UNL A   1      44.641  29.878  27.811  1.00  0.00    -0.248 NA
ATOM     55  C   UNL A   1      46.796  30.265  26.993  1.00  0.00     0.031 C 
ATOM     56  C   UNL A   1      42.309  32.787  30.218  1.00  0.00     0.029 A 
ATOM     57  C   UNL A   1      43.053  31.903  29.453  1.00  0.00     0.049 A 
ATOM     58  H   UNL A   1      42.534  29.970  28.780  1.00  0.00     0.167 HD
ATOM     59  C   UNL A   1      45.053  31.151  28.193  1.00  0.00     0.074 A 
ATOM     60  C   UNL A   1      46.393  31.330  27.675  1.00  0.00     0.031 C 
ATOM     61  C   UNL A   1      44.382  32.081  28.919  1.00  0.00     0.034 A 
BRANCH  48  62
ATOM     62  C   UNL A   1      38.724  30.308  30.707  1.00  0.00     0.023 A 
ATOM     63  C   UNL A   1      37.676  30.993  30.069  1.00  0.00     0.031 A 
ATOM     64  C   UNL A   1      38.547  29.934  32.051  1.00  0.00     0.131 A 
ATOM     65  C   UNL A   1      36.518  31.327  30.788  1.00  0.00     0.055 A 
ATOM     66  C   UNL A   1      37.366  30.207  32.741  1.00  0.00     0.041 A 
ATOM     67  F   UNL A   1      39.522  29.294  32.714  1.00  0.00    -0.206 F 
ATOM     68  C   UNL A   1      36.345  30.916  32.112  1.00  0.00     0.022 A 
BRANCH  65  69
ATOM     69  S   UNL A   1      35.279  32.387  29.996  1.00  0.00     0.124 S 
ATOM     70  O   UNL A   1      34.359  32.641  31.102  1.00  0.00    -0.237 OA
ATOM     71  O   UNL A   1      36.074  33.525  29.551  1.00  0.00    -0.237 OA
ATOM     72  O   UNL A   1      34.743  31.546  28.928  1.00  0.00    -0.744 OA
ENDBRANCH  65  69
ENDBRANCH  48  62
BRANCH  49  73
ATOM     73  C   UNL A   1      46.990  27.598  25.776  1.00  0.00     0.023 A 
ATOM     74  C   UNL A   1      47.120  27.825  24.397  1.00  0.00     0.031 A 
ATOM     75  C   UNL A   1      48.066  26.997  26.454  1.00  0.00     0.131 A 
ATOM     76  C   UNL A   1      48.297  27.443  23.736  1.00  0.00     0.055 A 
ATOM     77  C   UNL A   1      49.249  26.653  25.799  1.00  0.00     0.041 A 
ATOM     78  F   UNL A   1      47.991  26.769  27.775  1.00  0.00    -0.206 F 
ATOM     79  C   UNL A   1      49.368  26.873  24.430  1.00  0.00     0.022 A 
BRANCH  76  80
ATOM     80  S   UNL A   1      48.409  27.690  21.942  1.00  0.00     0.124 S 
ATOM     81  O   UNL A   1      48.650  26.331  21.470  1.00  0.00    -0.237 OA
ATOM     82  O   UNL A   1      47.100  28.254  21.629  1.00  0.00    -0.237 OA
ATOM     83  O   UNL A   1      49.532  28.612  21.795  1.00  0.00    -0.744 OA
ENDBRANCH  76  80
ENDBRANCH  49  73
BRANCH  61  84
ATOM     84  C   UNL A   1      45.094  33.372  29.228  1.00  0.00     0.023 A 
ATOM     85  C   UNL A   1      44.972  34.499  28.399  1.00  0.00     0.031 A 
ATOM     86  C   UNL A   1      45.862  33.489  30.400  1.00  0.00     0.131 A 
ATOM     87  C   UNL A   1      45.630  35.690  28.741  1.00  0.00     0.055 A 
ATOM     88  C   UNL A   1      46.475  34.689  30.760  1.00  0.00     0.041 A 
ATOM     89  F   UNL A   1      46.008  32.441  31.228  1.00  0.00    -0.206 F 
ATOM     90  C   UNL A   1      46.365  35.797  29.926  1.00  0.00     0.022 A 
BRANCH  87  91
ATOM     91  S   UNL A   1      45.544  37.095  27.598  1.00  0.00     0.124 S 
ATOM     92  O   UNL A   1      46.111  38.173  28.403  1.00  0.00    -0.237 OA
ATOM     93  O   UNL A   1      46.360  36.641  26.477  1.00  0.00    -0.237 OA
ATOM     94  O   UNL A   1      44.116  37.219  27.312  1.00  0.00    -0.744 OA
ENDBRANCH  87  91
ENDBRANCH  61  84
ENDBRANCH  35  36
ENDBRANCH  27  30
ENDBRANCH  25  26
ENDBRANCH  24  25
ENDBRANCH  23  24
ENDBRANCH   1  23
TORSDOF 19
ENDMDL
MODEL 2
REMARK VINA RESULT:     -10.8      2.503      3.334
REMARK SMILES NC(=O)c1c(F)cccc1O[C@@H](F)C(=O)NCCCCCCNC(=O)c1ccc(-c2c3nc(c(-c4cc(S(=O)(=O)[O-])ccc4F)c4ccc([nH]4)c(-c4cc(S(=O)(=O)[O-])ccc4F)c4nc(c(-c5cc(S(=O)(=O)[O-])ccc5F)c5ccc2[nH]5)C=C4)C=C3)cc1
REMARK SMILES IDX 19 1 18 2 17 3 16 4 14 5 15 6 12 8 13 9 11 10 10 11 4 12
REMARK SMILES IDX 5 13 6 14 7 15 9 16 8 17 2 18 1 19 3 22 20 23 21 24 22 25
REMARK SMILES IDX 23 26 24 27 25 29 26 30 27 31 88 32 28 33 87 34 29 35 30 36
REMARK SMILES IDX 31 37 81 38 32 39 86 40 80 41 82 42 33 43 85 44 79 45 78 46
REMARK SMILES IDX 34 48 66 49 46 50 65 51 47 52 50 53 64 54 83 55 48 56 49 57
REMARK SMILES IDX 63 59 84 60 51 61 35 62 36 63 44 64 37 65 43 66 45 67 42 68
REMARK SMILES IDX 38 69 39 70 40 71 41 72 67 73 68 74 76 75 69 76 75 77 77 78
REMARK SMILES IDX 74 79 70 80 71 81 72 82 73 83 52 84 53 85 61 86 54 87 60 88
REMARK SMILES IDX 62 89 59 90 55 91 56 92 57 93 58 94
REMARK H PARENT 16 7 1 20 1 21 23 28 82 47 50 58
REMARK Flexibility Score: inf
ROOT
ATOM      1  C   UNL A   1      36.116  21.232  24.789  1.00  0.00     0.002 C 
ENDROOT
BRANCH   1   2
ATOM      2  C   UNL A   1      35.668  22.029  26.015  1.00  0.00     0.021 C 
BRANCH   2   3
ATOM      3  C   UNL A   1      34.176  22.078  26.305  1.00  0.00     0.116 C 
BRANCH   3   4
ATOM      4  N   UNL A   1      33.424  20.881  26.064  1.00  0.00    -0.350 N 
ATOM      5  C   UNL A   1      32.623  20.572  24.998  1.00  0.00     0.294 C 
ATOM      6  O   UNL A   1      32.166  19.419  24.999  1.00  0.00    -0.267 OA
ATOM      7  H   UNL A   1      33.492  20.187  26.760  1.00  0.00     0.163 HD
BRANCH   5   8
ATOM      8  C   UNL A   1      32.240  21.569  23.825  1.00  0.00     0.440 C 
ATOM      9  F   UNL A   1      33.344  22.249  23.396  1.00  0.00    -0.191 F 
BRANCH   8  10
ATOM     10  O   UNL A   1      31.124  22.417  23.660  1.00  0.00    -0.451 OA
BRANCH  10  11
ATOM     11  C   UNL A   1      31.114  23.722  24.046  1.00  0.00     0.139 A 
ATOM     12  C   UNL A   1      30.826  24.288  25.291  1.00  0.00     0.117 A 
ATOM     13  C   UNL A   1      30.642  25.673  25.390  1.00  0.00     0.139 A 
ATOM     14  F   UNL A   1      30.258  26.226  26.550  1.00  0.00    -0.206 F 
ATOM     15  C   UNL A   1      30.770  26.504  24.279  1.00  0.00     0.040 A 
ATOM     16  C   UNL A   1      31.342  24.583  22.953  1.00  0.00     0.047 A 
ATOM     17  C   UNL A   1      31.147  25.961  23.058  1.00  0.00     0.007 A 
BRANCH  12  18
ATOM     18  C   UNL A   1      30.700  23.515  26.532  1.00  0.00     0.255 C 
ATOM     19  N   UNL A   1      29.756  22.526  26.534  1.00  0.00    -0.365 N 
ATOM     20  H   UNL A   1      29.623  21.973  27.337  1.00  0.00     0.159 HD
ATOM     21  H   UNL A   1      29.208  22.367  25.732  1.00  0.00     0.159 HD
ATOM     22  O   UNL A   1      31.401  23.761  27.498  1.00  0.00    -0.269 OA
ENDBRANCH  12  18
ENDBRANCH  10  11
ENDBRANCH   8  10
ENDBRANCH   5   8
ENDBRANCH   3   4
ENDBRANCH   2   3
ENDBRANCH   1   2
BRANCH   1  23
ATOM     23  C   UNL A   1      36.664  19.818  25.001  1.00  0.00     0.002 C 
BRANCH  23  24
ATOM     24  C   UNL A   1      38.159  19.578  24.783  1.00  0.00     0.021 C 
BRANCH  24  25
ATOM     25  C   UNL A   1      39.117  20.036  25.879  1.00  0.00     0.116 C 
BRANCH  25  26
ATOM     26  N   UNL A   1      40.298  19.203  26.002  1.00  0.00    -0.352 N 
ATOM     27  C   UNL A   1      41.611  19.539  26.224  1.00  0.00     0.251 C 
ATOM     28  H   UNL A   1      40.129  18.237  25.911  1.00  0.00     0.163 HD
ATOM     29  O   UNL A   1      42.463  18.653  26.179  1.00  0.00    -0.269 OA
BRANCH  27  30
ATOM     30  C   UNL A   1      42.021  20.942  26.479  1.00  0.00     0.039 A 
ATOM     31  C   UNL A   1      42.257  21.335  27.800  1.00  0.00     0.014 A 
ATOM     32  C   UNL A   1      42.139  21.881  25.450  1.00  0.00     0.014 A 
ATOM     33  C   UNL A   1      42.676  22.640  28.081  1.00  0.00     0.010 A 
ATOM     34  C   UNL A   1      42.624  23.162  25.724  1.00  0.00     0.010 A 
ATOM     35  C   UNL A   1      42.903  23.555  27.041  1.00  0.00    -0.014 A 
BRANCH  35  36
ATOM     36  C   UNL A   1      43.437  24.918  27.316  1.00  0.00     0.031 A 
ATOM     37  C   UNL A   1      42.545  25.989  27.885  1.00  0.00     0.074 A 
ATOM     38  C   UNL A   1      44.721  25.205  27.018  1.00  0.00     0.049 A 
ATOM     39  N   UNL A   1      42.811  27.250  28.114  1.00  0.00    -0.248 NA
ATOM     40  C   UNL A   1      41.168  25.596  28.220  1.00  0.00     0.031 C 
ATOM     41  C   UNL A   1      45.687  24.259  26.456  1.00  0.00     0.029 A 
ATOM     42  N   UNL A   1      45.437  26.370  27.149  1.00  0.00    -0.354 N 
ATOM     43  C   UNL A   1      41.638  27.802  28.617  1.00  0.00     0.074 A 
ATOM     44  C   UNL A   1      40.643  26.751  28.606  1.00  0.00     0.031 C 
ATOM     45  C   UNL A   1      46.876  24.869  26.328  1.00  0.00     0.029 A 
ATOM     46  C   UNL A   1      46.748  26.262  26.745  1.00  0.00     0.049 A 
ATOM     47  H   UNL A   1      45.049  27.203  27.499  1.00  0.00     0.167 HD
ATOM     48  C   UNL A   1      41.418  29.061  29.068  1.00  0.00     0.034 A 
ATOM     49  C   UNL A   1      47.735  27.179  26.702  1.00  0.00     0.034 A 
ATOM     50  C   UNL A   1      42.420  30.099  29.090  1.00  0.00     0.049 A 
ATOM     51  C   UNL A   1      47.452  28.586  27.153  1.00  0.00     0.074 A 
ATOM     52  C   UNL A   1      42.301  31.396  29.556  1.00  0.00     0.029 A 
ATOM     53  N   UNL A   1      43.721  29.961  28.628  1.00  0.00    -0.354 N 
ATOM     54  N   UNL A   1      46.334  29.093  27.614  1.00  0.00    -0.248 NA
ATOM     55  C   UNL A   1      48.562  29.547  27.075  1.00  0.00     0.031 C 
ATOM     56  C   UNL A   1      43.507  32.061  29.316  1.00  0.00     0.029 A 
ATOM     57  C   UNL A   1      44.405  31.158  28.771  1.00  0.00     0.049 A 
ATOM     58  H   UNL A   1      44.103  29.133  28.254  1.00  0.00     0.167 HD
ATOM     59  C   UNL A   1      46.611  30.425  27.905  1.00  0.00     0.074 A 
ATOM     60  C   UNL A   1      48.002  30.645  27.567  1.00  0.00     0.031 C 
ATOM     61  C   UNL A   1      45.788  31.375  28.416  1.00  0.00     0.034 A 
BRANCH  48  62
ATOM     62  C   UNL A   1      40.033  29.395  29.564  1.00  0.00     0.023 A 
ATOM     63  C   UNL A   1      39.732  29.429  30.936  1.00  0.00     0.031 A 
ATOM     64  C   UNL A   1      39.006  29.704  28.654  1.00  0.00     0.131 A 
ATOM     65  C   UNL A   1      38.426  29.718  31.358  1.00  0.00     0.055 A 
ATOM     66  C   UNL A   1      37.727  30.058  29.082  1.00  0.00     0.041 A 
ATOM     67  F   UNL A   1      39.233  29.669  27.332  1.00  0.00    -0.206 F 
ATOM     68  C   UNL A   1      37.428  30.058  30.442  1.00  0.00     0.022 A 
BRANCH  65  69
ATOM     69  S   UNL A   1      38.026  29.552  33.118  1.00  0.00     0.124 S 
ATOM     70  O   UNL A   1      37.188  30.727  33.342  1.00  0.00    -0.237 OA
ATOM     71  O   UNL A   1      37.346  28.263  33.169  1.00  0.00    -0.237 OA
ATOM     72  O   UNL A   1      39.333  29.592  33.771  1.00  0.00    -0.744 OA
ENDBRANCH  65  69
ENDBRANCH  48  62
BRANCH  49  73
ATOM     73  C   UNL A   1      49.086  26.788  26.210  1.00  0.00     0.023 A 
ATOM     74  C   UNL A   1      49.562  27.250  24.974  1.00  0.00     0.031 A 
ATOM     75  C   UNL A   1      49.927  25.965  26.980  1.00  0.00     0.131 A 
ATOM     76  C   UNL A   1      50.843  26.877  24.537  1.00  0.00     0.055 A 
ATOM     77  C   UNL A   1      51.214  25.628  26.558  1.00  0.00     0.041 A 
ATOM     78  F   UNL A   1      49.518  25.507  28.173  1.00  0.00    -0.206 F 
ATOM     79  C   UNL A   1      51.677  26.082  25.327  1.00  0.00     0.022 A 
BRANCH  76  80
ATOM     80  S   UNL A   1      51.404  27.437  22.905  1.00  0.00     0.124 S 
ATOM     81  O   UNL A   1      52.853  27.351  23.044  1.00  0.00    -0.237 OA
ATOM     82  O   UNL A   1      50.785  26.460  22.016  1.00  0.00    -0.237 OA
ATOM     83  O   UNL A   1      50.864  28.792  22.807  1.00  0.00    -0.744 OA
ENDBRANCH  76  80
ENDBRANCH  49  73
BRANCH  61  84
ATOM     84  C   UNL A   1      46.372  32.738  28.675  1.00  0.00     0.023 A 
ATOM     85  C   UNL A   1      46.271  33.776  27.734  1.00  0.00     0.031 A 
ATOM     86  C   UNL A   1      46.992  33.017  29.907  1.00  0.00     0.131 A 
ATOM     87  C   UNL A   1      46.805  35.039  28.029  1.00  0.00     0.055 A 
ATOM     88  C   UNL A   1      47.477  34.288  30.214  1.00  0.00     0.041 A 
ATOM     89  F   UNL A   1      47.111  32.060  30.842  1.00  0.00    -0.206 F 
ATOM     90  C   UNL A   1      47.390  35.306  29.271  1.00  0.00     0.022 A 
BRANCH  87  91
ATOM     91  S   UNL A   1      46.757  36.328  26.754  1.00  0.00     0.124 S 
ATOM     92  O   UNL A   1      46.963  35.554  25.534  1.00  0.00    -0.237 OA
ATOM     93  O   UNL A   1      45.425  36.897  26.931  1.00  0.00    -0.237 OA
ATOM     94  O   UNL A   1      47.860  37.215  27.120  1.00  0.00    -0.744 OA
ENDBRANCH  87  91
ENDBRANCH  61  84
ENDBRANCH  35  36
ENDBRANCH  27  30
ENDBRANCH  25  26
ENDBRANCH  24  25
ENDBRANCH  23  24
ENDBRANCH   1  23
TORSDOF 19
ENDMDL
MODEL 3
REMARK VINA RESULT:     -10.8      1.397      7.648
REMARK SMILES NC(=O)c1c(F)cccc1O[C@@H](F)C(=O)NCCCCCCNC(=O)c1ccc(-c2c3nc(c(-c4cc(S(=O)(=O)[O-])ccc4F)c4ccc([nH]4)c(-c4cc(S(=O)(=O)[O-])ccc4F)c4nc(c(-c5cc(S(=O)(=O)[O-])ccc5F)c5ccc2[nH]5)C=C4)C=C3)cc1
REMARK SMILES IDX 19 1 18 2 17 3 16 4 14 5 15 6 12 8 13 9 11 10 10 11 4 12
REMARK SMILES IDX 5 13 6 14 7 15 9 16 8 17 2 18 1 19 3 22 20 23 21 24 22 25
REMARK SMILES IDX 23 26 24 27 25 29 26 30 27 31 88 32 28 33 87 34 29 35 30 36
REMARK SMILES IDX 31 37 81 38 32 39 86 40 80 41 82 42 33 43 85 44 79 45 78 46
REMARK SMILES IDX 34 48 66 49 46 50 65 51 47 52 50 53 64 54 83 55 48 56 49 57
REMARK SMILES IDX 63 59 84 60 51 61 35 62 36 63 44 64 37 65 43 66 45 67 42 68
REMARK SMILES IDX 38 69 39 70 40 71 41 72 67 73 68 74 76 75 69 76 75 77 77 78
REMARK SMILES IDX 74 79 70 80 71 81 72 82 73 83 52 84 53 85 61 86 54 87 60 88
REMARK SMILES IDX 62 89 59 90 55 91 56 92 57 93 58 94
REMARK H PARENT 16 7 1 20 1 21 23 28 82 47 50 58
REMARK Flexibility Score: inf
ROOT
ATOM      1  C   UNL A   1      33.982  21.503  24.177  1.00  0.00     0.002 C 
ENDROOT
BRANCH   1   2
ATOM      2  C   UNL A   1      32.490  21.513  23.840  1.00  0.00     0.021 C 
BRANCH   2   3
ATOM      3  C   UNL A   1      31.769  22.849  23.917  1.00  0.00     0.116 C 
BRANCH   3   4
ATOM      4  N   UNL A   1      31.363  23.298  25.218  1.00  0.00    -0.350 N 
ATOM      5  C   UNL A   1      31.990  24.183  26.053  1.00  0.00     0.294 C 
ATOM      6  O   UNL A   1      31.363  24.467  27.086  1.00  0.00    -0.267 OA
ATOM      7  H   UNL A   1      30.520  22.918  25.556  1.00  0.00     0.163 HD
BRANCH   5   8
ATOM      8  C   UNL A   1      33.422  24.818  25.803  1.00  0.00     0.440 C 
ATOM      9  F   UNL A   1      34.319  24.351  26.721  1.00  0.00    -0.191 F 
BRANCH   8  10
ATOM     10  O   UNL A   1      33.802  26.134  25.463  1.00  0.00    -0.451 OA
BRANCH  10  11
ATOM     11  C   UNL A   1      32.997  27.215  25.649  1.00  0.00     0.139 A 
ATOM     12  C   UNL A   1      32.024  27.764  24.809  1.00  0.00     0.117 A 
ATOM     13  C   UNL A   1      31.491  29.025  25.108  1.00  0.00     0.139 A 
ATOM     14  F   UNL A   1      30.637  29.619  24.262  1.00  0.00    -0.206 F 
ATOM     15  C   UNL A   1      31.889  29.732  26.240  1.00  0.00     0.040 A 
ATOM     16  C   UNL A   1      33.314  27.893  26.843  1.00  0.00     0.047 A 
ATOM     17  C   UNL A   1      32.786  29.153  27.128  1.00  0.00     0.007 A 
BRANCH  12  18
ATOM     18  C   UNL A   1      31.507  27.097  23.610  1.00  0.00     0.255 C 
ATOM     19  N   UNL A   1      32.047  27.493  22.418  1.00  0.00    -0.365 N 
ATOM     20  H   UNL A   1      31.741  27.082  21.577  1.00  0.00     0.159 HD
ATOM     21  H   UNL A   1      32.742  28.189  22.400  1.00  0.00     0.159 HD
ATOM     22  O   UNL A   1      30.638  26.245  23.690  1.00  0.00    -0.269 OA
ENDBRANCH  12  18
ENDBRANCH  10  11
ENDBRANCH   8  10
ENDBRANCH   5   8
ENDBRANCH   3   4
ENDBRANCH   2   3
ENDBRANCH   1   2
BRANCH   1  23
ATOM     23  C   UNL A   1      34.878  22.571  23.544  1.00  0.00     0.002 C 
BRANCH  23  24
ATOM     24  C   UNL A   1      36.332  22.670  24.012  1.00  0.00     0.021 C 
BRANCH  24  25
ATOM     25  C   UNL A   1      36.627  22.362  25.477  1.00  0.00     0.116 C 
BRANCH  25  26
ATOM     26  N   UNL A   1      37.699  21.403  25.662  1.00  0.00    -0.352 N 
ATOM     27  C   UNL A   1      38.987  21.575  26.105  1.00  0.00     0.251 C 
ATOM     28  H   UNL A   1      37.463  20.475  25.433  1.00  0.00     0.163 HD
ATOM     29  O   UNL A   1      39.757  20.616  26.074  1.00  0.00    -0.269 OA
BRANCH  27  30
ATOM     30  C   UNL A   1      39.474  22.893  26.584  1.00  0.00     0.039 A 
ATOM     31  C   UNL A   1      40.436  22.919  27.597  1.00  0.00     0.014 A 
ATOM     32  C   UNL A   1      38.973  24.098  26.080  1.00  0.00     0.014 A 
ATOM     33  C   UNL A   1      40.944  24.139  28.055  1.00  0.00     0.010 A 
ATOM     34  C   UNL A   1      39.530  25.312  26.487  1.00  0.00     0.010 A 
ATOM     35  C   UNL A   1      40.526  25.347  27.475  1.00  0.00    -0.014 A 
BRANCH  35  36
ATOM     36  C   UNL A   1      41.124  26.648  27.886  1.00  0.00     0.031 A 
ATOM     37  C   UNL A   1      42.568  26.953  27.589  1.00  0.00     0.074 A 
ATOM     38  C   UNL A   1      40.375  27.543  28.562  1.00  0.00     0.049 A 
ATOM     39  N   UNL A   1      43.280  27.995  27.940  1.00  0.00    -0.248 NA
ATOM     40  C   UNL A   1      43.313  25.949  26.818  1.00  0.00     0.031 C 
ATOM     41  C   UNL A   1      38.966  27.365  28.919  1.00  0.00     0.029 A 
ATOM     42  N   UNL A   1      40.689  28.782  29.066  1.00  0.00    -0.354 N 
ATOM     43  C   UNL A   1      44.556  27.772  27.433  1.00  0.00     0.074 A 
ATOM     44  C   UNL A   1      44.533  26.469  26.802  1.00  0.00     0.031 C 
ATOM     45  C   UNL A   1      38.528  28.467  29.547  1.00  0.00     0.029 A 
ATOM     46  C   UNL A   1      39.635  29.409  29.689  1.00  0.00     0.049 A 
ATOM     47  H   UNL A   1      41.584  29.182  28.989  1.00  0.00     0.167 HD
ATOM     48  C   UNL A   1      45.639  28.586  27.471  1.00  0.00     0.034 A 
ATOM     49  C   UNL A   1      39.564  30.601  30.315  1.00  0.00     0.034 A 
ATOM     50  C   UNL A   1      45.649  29.889  28.090  1.00  0.00     0.049 A 
ATOM     51  C   UNL A   1      40.794  31.464  30.396  1.00  0.00     0.074 A 
ATOM     52  C   UNL A   1      46.688  30.801  28.153  1.00  0.00     0.029 A 
ATOM     53  N   UNL A   1      44.574  30.467  28.750  1.00  0.00    -0.354 N 
ATOM     54  N   UNL A   1      41.995  31.230  29.923  1.00  0.00    -0.248 NA
ATOM     55  C   UNL A   1      40.662  32.748  31.099  1.00  0.00     0.031 C 
ATOM     56  C   UNL A   1      46.264  31.898  28.907  1.00  0.00     0.029 A 
ATOM     57  C   UNL A   1      44.934  31.709  29.249  1.00  0.00     0.049 A 
ATOM     58  H   UNL A   1      43.685  30.055  28.849  1.00  0.00     0.167 HD
ATOM     59  C   UNL A   1      42.756  32.349  30.248  1.00  0.00     0.074 A 
ATOM     60  C   UNL A   1      41.880  33.258  30.958  1.00  0.00     0.031 C 
ATOM     61  C   UNL A   1      44.060  32.602  29.972  1.00  0.00     0.034 A 
BRANCH  48  62
ATOM     62  C   UNL A   1      46.913  28.086  26.838  1.00  0.00     0.023 A 
ATOM     63  C   UNL A   1      47.096  28.102  25.445  1.00  0.00     0.031 A 
ATOM     64  C   UNL A   1      47.966  27.608  27.637  1.00  0.00     0.131 A 
ATOM     65  C   UNL A   1      48.285  27.605  24.890  1.00  0.00     0.055 A 
ATOM     66  C   UNL A   1      49.173  27.178  27.084  1.00  0.00     0.041 A 
ATOM     67  F   UNL A   1      47.838  27.553  28.972  1.00  0.00    -0.206 F 
ATOM     68  C   UNL A   1      49.334  27.167  25.701  1.00  0.00     0.022 A 
BRANCH  65  69
ATOM     69  S   UNL A   1      48.404  27.450  23.088  1.00  0.00     0.124 S 
ATOM     70  O   UNL A   1      48.287  26.006  22.908  1.00  0.00    -0.237 OA
ATOM     71  O   UNL A   1      47.273  28.246  22.626  1.00  0.00    -0.237 OA
ATOM     72  O   UNL A   1      49.722  28.006  22.784  1.00  0.00    -0.744 OA
ENDBRANCH  65  69
ENDBRANCH  48  62
BRANCH  49  73
ATOM     73  C   UNL A   1      38.275  31.045  30.915  1.00  0.00     0.023 A 
ATOM     74  C   UNL A   1      37.318  31.723  30.145  1.00  0.00     0.031 A 
ATOM     75  C   UNL A   1      37.973  30.776  32.262  1.00  0.00     0.131 A 
ATOM     76  C   UNL A   1      36.106  32.120  30.730  1.00  0.00     0.055 A 
ATOM     77  C   UNL A   1      36.752  31.140  32.830  1.00  0.00     0.041 A 
ATOM     78  F   UNL A   1      38.853  30.121  33.036  1.00  0.00    -0.206 F 
ATOM     79  C   UNL A   1      35.811  31.820  32.063  1.00  0.00     0.022 A 
BRANCH  76  80
ATOM     80  S   UNL A   1      34.918  33.053  29.726  1.00  0.00     0.124 S 
ATOM     81  O   UNL A   1      34.342  32.002  28.895  1.00  0.00    -0.237 OA
ATOM     82  O   UNL A   1      34.038  33.622  30.742  1.00  0.00    -0.237 OA
ATOM     83  O   UNL A   1      35.755  34.021  29.020  1.00  0.00    -0.744 OA
ENDBRANCH  76  80
ENDBRANCH  49  73
BRANCH  61  84
ATOM     84  C   UNL A   1      44.621  33.929  30.408  1.00  0.00     0.023 A 
ATOM     85  C   UNL A   1      44.507  35.079  29.609  1.00  0.00     0.031 A 
ATOM     86  C   UNL A   1      45.232  34.055  31.669  1.00  0.00     0.131 A 
ATOM     87  C   UNL A   1      45.020  36.301  30.068  1.00  0.00     0.055 A 
ATOM     88  C   UNL A   1      45.696  35.284  32.141  1.00  0.00     0.041 A 
ATOM     89  F   UNL A   1      45.364  32.988  32.474  1.00  0.00    -0.206 F 
ATOM     90  C   UNL A   1      45.596  36.414  31.337  1.00  0.00     0.022 A 
BRANCH  87  91
ATOM     91  S   UNL A   1      44.956  37.743  28.970  1.00  0.00     0.124 S 
ATOM     92  O   UNL A   1      46.250  38.371  29.221  1.00  0.00    -0.237 OA
ATOM     93  O   UNL A   1      44.787  37.132  27.656  1.00  0.00    -0.237 OA
ATOM     94  O   UNL A   1      43.798  38.493  29.456  1.00  0.00    -0.744 OA
ENDBRANCH  87  91
ENDBRANCH  61  84
ENDBRANCH  35  36
ENDBRANCH  27  30
ENDBRANCH  25  26
ENDBRANCH  24  25
ENDBRANCH  23  24
ENDBRANCH   1  23
TORSDOF 19
ENDMDL
