MODEL 1
REMARK VINA RESULT:     -11.4      0.000      0.000
REMARK SMILES COc1ccc(-c2c(C)n[nH]c2C)c(C(=O)NCCCCCCNC(=O)c2ccc(-c3c4nc(c(-c5cc(S(=O)(=O)[O-])ccc5F)c5ccc([nH]5)c(-c5cc(S(=O)(=O)[O-])ccc5F)c5nc(c(-c6cc(S(=O)(=O)[O-])ccc6F)c6ccc3[nH]6)C=C5)C=C4)cc2)c1
REMARK SMILES IDX 21 1 20 2 19 3 18 4 17 5 15 6 16 7 14 9 3 10 4 11 90 12 5 13
REMARK SMILES IDX 6 14 2 15 1 16 7 17 8 18 12 19 9 20 10 21 11 22 13 23 22 25
REMARK SMILES IDX 23 26 24 27 25 28 26 30 27 31 28 32 89 33 29 34 88 35 30 36
REMARK SMILES IDX 31 37 32 38 82 39 33 40 87 41 81 42 83 43 34 44 86 45 80 46
REMARK SMILES IDX 79 47 35 49 67 50 47 51 66 52 48 53 51 54 65 55 84 56 49 57
REMARK SMILES IDX 50 58 64 60 85 61 52 62 36 63 37 64 45 65 38 66 44 67 46 68
REMARK SMILES IDX 43 69 39 70 40 71 41 72 42 73 68 74 69 75 77 76 70 77 76 78
REMARK SMILES IDX 78 79 75 80 71 81 72 82 73 83 74 84 53 85 54 86 62 87 55 88
REMARK SMILES IDX 61 89 63 90 60 91 56 92 57 93 58 94 59 95
REMARK H PARENT 17 8 11 24 24 29 83 48 51 59
REMARK Flexibility Score: inf
ROOT
ATOM      1  C   UNL A   1      36.676  22.923  23.371  1.00  0.00     0.002 C 
ENDROOT
BRANCH   1   2
ATOM      2  C   UNL A   1      35.363  23.704  23.444  1.00  0.00     0.002 C 
BRANCH   2   3
ATOM      3  C   UNL A   1      34.080  22.915  23.183  1.00  0.00     0.021 C 
BRANCH   3   4
ATOM      4  C   UNL A   1      33.205  23.383  22.026  1.00  0.00     0.116 C 
BRANCH   4   5
ATOM      5  N   UNL A   1      31.803  23.587  22.356  1.00  0.00    -0.352 N 
ATOM      6  C   UNL A   1      31.183  24.521  23.166  1.00  0.00     0.252 C 
ATOM      7  O   UNL A   1      29.955  24.554  23.157  1.00  0.00    -0.269 OA
ATOM      8  H   UNL A   1      31.189  22.949  21.928  1.00  0.00     0.163 HD
BRANCH   6   9
ATOM      9  C   UNL A   1      31.974  25.438  24.043  1.00  0.00     0.051 A 
ATOM     10  C   UNL A   1      33.337  27.457  24.213  1.00  0.00     0.119 A 
ATOM     11  C   UNL A   1      33.705  27.095  25.504  1.00  0.00     0.047 A 
ATOM     12  C   UNL A   1      32.438  26.656  23.512  1.00  0.00     0.060 A 
ATOM     13  C   UNL A   1      33.145  25.965  26.101  1.00  0.00     0.013 A 
ATOM     14  C   UNL A   1      32.256  25.140  25.391  1.00  0.00    -0.002 A 
BRANCH  10  15
ATOM     15  O   UNL A   1      33.921  28.600  23.743  1.00  0.00    -0.497 OA
ATOM     16  C   UNL A   1      34.321  28.607  22.376  1.00  0.00     0.278 C 
ENDBRANCH  10  15
BRANCH  14  17
ATOM     17  C   UNL A   1      31.558  24.127  26.164  1.00  0.00     0.026 A 
ATOM     18  C   UNL A   1      30.207  24.151  26.617  1.00  0.00     0.067 A 
ATOM     19  C   UNL A   1      32.078  22.950  26.661  1.00  0.00     0.040 A 
ATOM     20  C   UNL A   1      29.186  25.200  26.371  1.00  0.00     0.069 C 
ATOM     21  N   UNL A   1      29.909  23.070  27.346  1.00  0.00    -0.180 NA
ATOM     22  N   UNL A   1      31.033  22.339  27.303  1.00  0.00    -0.282 N 
ATOM     23  C   UNL A   1      33.412  22.318  26.578  1.00  0.00     0.067 C 
ATOM     24  H   UNL A   1      31.101  21.440  27.698  1.00  0.00     0.190 HD
ENDBRANCH  14  17
ENDBRANCH   6   9
ENDBRANCH   4   5
ENDBRANCH   3   4
ENDBRANCH   2   3
ENDBRANCH   1   2
BRANCH   1  25
ATOM     25  C   UNL A   1      36.786  21.692  24.273  1.00  0.00     0.021 C 
BRANCH  25  26
ATOM     26  C   UNL A   1      37.338  21.938  25.673  1.00  0.00     0.116 C 
BRANCH  26  27
ATOM     27  N   UNL A   1      38.410  21.024  26.022  1.00  0.00    -0.352 N 
ATOM     28  C   UNL A   1      39.673  21.293  26.494  1.00  0.00     0.251 C 
ATOM     29  H   UNL A   1      38.202  20.069  25.905  1.00  0.00     0.163 HD
ATOM     30  O   UNL A   1      40.497  20.387  26.561  1.00  0.00    -0.269 OA
BRANCH  28  31
ATOM     31  C   UNL A   1      40.046  22.671  26.890  1.00  0.00     0.039 A 
ATOM     32  C   UNL A   1      40.905  22.850  27.978  1.00  0.00     0.014 A 
ATOM     33  C   UNL A   1      39.546  23.784  26.208  1.00  0.00     0.014 A 
ATOM     34  C   UNL A   1      41.306  24.137  28.342  1.00  0.00     0.010 A 
ATOM     35  C   UNL A   1      40.010  25.060  26.522  1.00  0.00     0.010 A 
ATOM     36  C   UNL A   1      40.891  25.253  27.597  1.00  0.00    -0.014 A 
BRANCH  36  37
ATOM     37  C   UNL A   1      41.362  26.623  27.937  1.00  0.00     0.031 A 
ATOM     38  C   UNL A   1      42.771  27.044  27.617  1.00  0.00     0.074 A 
ATOM     39  C   UNL A   1      40.531  27.476  28.569  1.00  0.00     0.049 A 
ATOM     40  N   UNL A   1      43.374  28.179  27.862  1.00  0.00    -0.248 NA
ATOM     41  C   UNL A   1      43.623  26.041  26.962  1.00  0.00     0.031 C 
ATOM     42  C   UNL A   1      39.153  27.176  28.960  1.00  0.00     0.029 A 
ATOM     43  N   UNL A   1      40.722  28.768  28.991  1.00  0.00    -0.354 N 
ATOM     44  C   UNL A   1      44.676  28.027  27.394  1.00  0.00     0.074 A 
ATOM     45  C   UNL A   1      44.791  26.660  26.929  1.00  0.00     0.031 C 
ATOM     46  C   UNL A   1      38.608  28.269  29.519  1.00  0.00     0.029 A 
ATOM     47  C   UNL A   1      39.610  29.328  29.577  1.00  0.00     0.049 A 
ATOM     48  H   UNL A   1      41.574  29.250  28.883  1.00  0.00     0.167 HD
ATOM     49  C   UNL A   1      45.672  28.947  27.329  1.00  0.00     0.034 A 
ATOM     50  C   UNL A   1      39.420  30.555  30.102  1.00  0.00     0.034 A 
ATOM     51  C   UNL A   1      45.540  30.304  27.805  1.00  0.00     0.049 A 
ATOM     52  C   UNL A   1      40.561  31.541  30.079  1.00  0.00     0.074 A 
ATOM     53  C   UNL A   1      46.468  31.330  27.759  1.00  0.00     0.029 A 
ATOM     54  N   UNL A   1      44.411  30.824  28.429  1.00  0.00    -0.354 N 
ATOM     55  N   UNL A   1      41.771  31.397  29.590  1.00  0.00    -0.248 NA
ATOM     56  C   UNL A   1      40.302  32.859  30.671  1.00  0.00     0.031 C 
ATOM     57  C   UNL A   1      45.933  32.439  28.425  1.00  0.00     0.029 A 
ATOM     58  C   UNL A   1      44.636  32.140  28.806  1.00  0.00     0.049 A 
ATOM     59  H   UNL A   1      43.574  30.329  28.582  1.00  0.00     0.167 HD
ATOM     60  C   UNL A   1      42.404  32.622  29.782  1.00  0.00     0.074 A 
ATOM     61  C   UNL A   1      41.436  33.493  30.417  1.00  0.00     0.031 C 
ATOM     62  C   UNL A   1      43.669  32.997  29.457  1.00  0.00     0.034 A 
BRANCH  49  63
ATOM     63  C   UNL A   1      46.994  28.493  26.750  1.00  0.00     0.023 A 
ATOM     64  C   UNL A   1      47.206  28.427  25.360  1.00  0.00     0.031 A 
ATOM     65  C   UNL A   1      48.037  28.063  27.589  1.00  0.00     0.131 A 
ATOM     66  C   UNL A   1      48.378  27.846  24.855  1.00  0.00     0.055 A 
ATOM     67  C   UNL A   1      49.244  27.581  27.079  1.00  0.00     0.041 A 
ATOM     68  F   UNL A   1      47.893  28.080  28.924  1.00  0.00    -0.206 F 
ATOM     69  C   UNL A   1      49.412  27.449  25.703  1.00  0.00     0.022 A 
BRANCH  66  70
ATOM     70  S   UNL A   1      48.446  27.441  23.087  1.00  0.00     0.124 S 
ATOM     71  O   UNL A   1      49.756  27.970  22.714  1.00  0.00    -0.237 OA
ATOM     72  O   UNL A   1      48.320  25.989  23.091  1.00  0.00    -0.237 OA
ATOM     73  O   UNL A   1      47.309  28.167  22.526  1.00  0.00    -0.744 OA
ENDBRANCH  66  70
ENDBRANCH  49  63
BRANCH  50  74
ATOM     74  C   UNL A   1      38.101  30.932  30.683  1.00  0.00     0.023 A 
ATOM     75  C   UNL A   1      37.143  31.607  29.911  1.00  0.00     0.031 A 
ATOM     76  C   UNL A   1      37.790  30.661  32.028  1.00  0.00     0.131 A 
ATOM     77  C   UNL A   1      35.941  32.031  30.498  1.00  0.00     0.055 A 
ATOM     78  C   UNL A   1      36.568  31.034  32.593  1.00  0.00     0.041 A 
ATOM     79  F   UNL A   1      38.668  30.015  32.812  1.00  0.00    -0.206 F 
ATOM     80  C   UNL A   1      35.640  31.736  31.829  1.00  0.00     0.022 A 
BRANCH  77  81
ATOM     81  S   UNL A   1      34.809  33.053  29.515  1.00  0.00     0.124 S 
ATOM     82  O   UNL A   1      34.110  32.046  28.727  1.00  0.00    -0.237 OA
ATOM     83  O   UNL A   1      34.025  33.717  30.552  1.00  0.00    -0.237 OA
ATOM     84  O   UNL A   1      35.707  33.925  28.762  1.00  0.00    -0.744 OA
ENDBRANCH  77  81
ENDBRANCH  50  74
BRANCH  62  85
ATOM     85  C   UNL A   1      44.056  34.430  29.745  1.00  0.00     0.023 A 
ATOM     86  C   UNL A   1      43.817  35.464  28.821  1.00  0.00     0.031 A 
ATOM     87  C   UNL A   1      44.701  34.760  30.950  1.00  0.00     0.131 A 
ATOM     88  C   UNL A   1      44.282  36.761  29.086  1.00  0.00     0.055 A 
ATOM     89  C   UNL A   1      45.097  36.067  31.240  1.00  0.00     0.041 A 
ATOM     90  F   UNL A   1      44.962  33.815  31.868  1.00  0.00    -0.206 F 
ATOM     91  C   UNL A   1      44.903  37.073  30.298  1.00  0.00     0.022 A 
BRANCH  88  92
ATOM     92  S   UNL A   1      44.172  38.009  27.774  1.00  0.00     0.124 S 
ATOM     93  O   UNL A   1      45.519  37.976  27.211  1.00  0.00    -0.237 OA
ATOM     94  O   UNL A   1      43.114  37.475  26.924  1.00  0.00    -0.237 OA
ATOM     95  O   UNL A   1      43.830  39.234  28.494  1.00  0.00    -0.744 OA
ENDBRANCH  88  92
ENDBRANCH  62  85
ENDBRANCH  36  37
ENDBRANCH  28  31
ENDBRANCH  26  27
ENDBRANCH  25  26
ENDBRANCH   1  25
TORSDOF 18
ENDMDL
MODEL 2
REMARK VINA RESULT:     -11.4      4.944      9.838
REMARK SMILES COc1ccc(-c2c(C)n[nH]c2C)c(C(=O)NCCCCCCNC(=O)c2ccc(-c3c4nc(c(-c5cc(S(=O)(=O)[O-])ccc5F)c5ccc([nH]5)c(-c5cc(S(=O)(=O)[O-])ccc5F)c5nc(c(-c6cc(S(=O)(=O)[O-])ccc6F)c6ccc3[nH]6)C=C5)C=C4)cc2)c1
REMARK SMILES IDX 21 1 20 2 19 3 18 4 17 5 15 6 16 7 14 9 3 10 4 11 90 12 5 13
REMARK SMILES IDX 6 14 2 15 1 16 7 17 8 18 12 19 9 20 10 21 11 22 13 23 22 25
REMARK SMILES IDX 23 26 24 27 25 28 26 30 27 31 28 32 89 33 29 34 88 35 30 36
REMARK SMILES IDX 31 37 32 38 82 39 33 40 87 41 81 42 83 43 34 44 86 45 80 46
REMARK SMILES IDX 79 47 35 49 67 50 47 51 66 52 48 53 51 54 65 55 84 56 49 57
REMARK SMILES IDX 50 58 64 60 85 61 52 62 36 63 37 64 45 65 38 66 44 67 46 68
REMARK SMILES IDX 43 69 39 70 40 71 41 72 42 73 68 74 69 75 77 76 70 77 76 78
REMARK SMILES IDX 78 79 75 80 71 81 72 82 73 83 74 84 53 85 54 86 62 87 55 88
REMARK SMILES IDX 61 89 63 90 60 91 56 92 57 93 58 94 59 95
REMARK H PARENT 17 8 11 24 24 29 83 48 51 59
REMARK Flexibility Score: inf
ROOT
ATOM      1  C   UNL A   1      33.588  27.507  24.074  1.00  0.00     0.002 C 
ENDROOT
BRANCH   1   2
ATOM      2  C   UNL A   1      33.291  27.365  22.580  1.00  0.00     0.002 C 
BRANCH   2   3
ATOM      3  C   UNL A   1      33.288  25.945  22.013  1.00  0.00     0.021 C 
BRANCH   3   4
ATOM      4  C   UNL A   1      33.778  24.834  22.934  1.00  0.00     0.116 C 
BRANCH   4   5
ATOM      5  N   UNL A   1      33.369  23.491  22.551  1.00  0.00    -0.352 N 
ATOM      6  C   UNL A   1      32.796  22.467  23.285  1.00  0.00     0.252 C 
ATOM      7  O   UNL A   1      32.418  21.473  22.671  1.00  0.00    -0.269 OA
ATOM      8  H   UNL A   1      33.527  23.274  21.605  1.00  0.00     0.163 HD
BRANCH   6   9
ATOM      9  C   UNL A   1      32.666  22.554  24.772  1.00  0.00     0.051 A 
ATOM     10  C   UNL A   1      31.257  23.111  26.688  1.00  0.00     0.119 A 
ATOM     11  C   UNL A   1      32.365  23.023  27.523  1.00  0.00     0.047 A 
ATOM     12  C   UNL A   1      31.404  22.827  25.331  1.00  0.00     0.060 A 
ATOM     13  C   UNL A   1      33.598  22.616  27.011  1.00  0.00     0.013 A 
ATOM     14  C   UNL A   1      33.758  22.352  25.639  1.00  0.00    -0.002 A 
BRANCH  10  15
ATOM     15  O   UNL A   1      30.095  23.484  27.303  1.00  0.00    -0.497 OA
ATOM     16  C   UNL A   1      29.046  22.522  27.342  1.00  0.00     0.278 C 
ENDBRANCH  10  15
BRANCH  14  17
ATOM     17  C   UNL A   1      35.006  21.722  25.245  1.00  0.00     0.026 A 
ATOM     18  C   UNL A   1      35.233  20.347  24.944  1.00  0.00     0.067 A 
ATOM     19  C   UNL A   1      36.243  22.320  25.128  1.00  0.00     0.040 A 
ATOM     20  C   UNL A   1      34.237  19.246  24.924  1.00  0.00     0.069 C 
ATOM     21  N   UNL A   1      36.518  20.106  24.663  1.00  0.00    -0.180 NA
ATOM     22  N   UNL A   1      37.088  21.320  24.722  1.00  0.00    -0.282 N 
ATOM     23  C   UNL A   1      36.718  23.707  25.314  1.00  0.00     0.067 C 
ATOM     24  H   UNL A   1      38.032  21.479  24.492  1.00  0.00     0.190 HD
ENDBRANCH  14  17
ENDBRANCH   6   9
ENDBRANCH   4   5
ENDBRANCH   3   4
ENDBRANCH   2   3
ENDBRANCH   1   2
BRANCH   1  25
ATOM     25  C   UNL A   1      33.274  28.865  24.704  1.00  0.00     0.021 C 
BRANCH  25  26
ATOM     26  C   UNL A   1      33.984  29.169  26.019  1.00  0.00     0.116 C 
BRANCH  26  27
ATOM     27  N   UNL A   1      33.652  30.480  26.546  1.00  0.00    -0.352 N 
ATOM     28  C   UNL A   1      34.238  31.189  27.568  1.00  0.00     0.251 C 
ATOM     29  H   UNL A   1      32.894  30.930  26.106  1.00  0.00     0.163 HD
ATOM     30  O   UNL A   1      33.697  32.208  27.982  1.00  0.00    -0.269 OA
BRANCH  28  31
ATOM     31  C   UNL A   1      35.497  30.709  28.185  1.00  0.00     0.039 A 
ATOM     32  C   UNL A   1      35.424  29.793  29.238  1.00  0.00     0.014 A 
ATOM     33  C   UNL A   1      36.742  31.166  27.745  1.00  0.00     0.014 A 
ATOM     34  C   UNL A   1      36.598  29.293  29.807  1.00  0.00     0.010 A 
ATOM     35  C   UNL A   1      37.911  30.606  28.258  1.00  0.00     0.010 A 
ATOM     36  C   UNL A   1      37.854  29.668  29.299  1.00  0.00    -0.014 A 
BRANCH  36  37
ATOM     37  C   UNL A   1      39.109  29.094  29.854  1.00  0.00     0.031 A 
ATOM     38  C   UNL A   1      39.691  29.632  31.134  1.00  0.00     0.074 A 
ATOM     39  C   UNL A   1      39.747  28.114  29.184  1.00  0.00     0.049 A 
ATOM     40  N   UNL A   1      40.788  29.285  31.757  1.00  0.00    -0.248 NA
ATOM     41  C   UNL A   1      38.954  30.727  31.780  1.00  0.00     0.031 C 
ATOM     42  C   UNL A   1      39.300  27.528  27.919  1.00  0.00     0.029 A 
ATOM     43  N   UNL A   1      40.903  27.432  29.474  1.00  0.00    -0.354 N 
ATOM     44  C   UNL A   1      40.875  30.119  32.867  1.00  0.00     0.074 A 
ATOM     45  C   UNL A   1      39.762  31.042  32.780  1.00  0.00     0.031 C 
ATOM     46  C   UNL A   1      40.145  26.545  27.567  1.00  0.00     0.029 A 
ATOM     47  C   UNL A   1      41.220  26.464  28.550  1.00  0.00     0.049 A 
ATOM     48  H   UNL A   1      41.452  27.619  30.269  1.00  0.00     0.167 HD
ATOM     49  C   UNL A   1      41.779  30.100  33.881  1.00  0.00     0.034 A 
ATOM     50  C   UNL A   1      42.260  25.608  28.500  1.00  0.00     0.034 A 
ATOM     51  C   UNL A   1      42.887  29.177  33.946  1.00  0.00     0.049 A 
ATOM     52  C   UNL A   1      43.289  25.647  29.602  1.00  0.00     0.074 A 
ATOM     53  C   UNL A   1      43.842  29.043  34.939  1.00  0.00     0.029 A 
ATOM     54  N   UNL A   1      43.200  28.235  32.972  1.00  0.00    -0.354 N 
ATOM     55  N   UNL A   1      43.332  26.411  30.669  1.00  0.00    -0.248 NA
ATOM     56  C   UNL A   1      44.404  24.699  29.493  1.00  0.00     0.031 C 
ATOM     57  C   UNL A   1      44.774  28.083  34.528  1.00  0.00     0.029 A 
ATOM     58  C   UNL A   1      44.353  27.548  33.322  1.00  0.00     0.049 A 
ATOM     59  H   UNL A   1      42.679  28.080  32.151  1.00  0.00     0.167 HD
ATOM     60  C   UNL A   1      44.459  26.006  31.379  1.00  0.00     0.074 A 
ATOM     61  C   UNL A   1      45.056  24.923  30.624  1.00  0.00     0.031 C 
ATOM     62  C   UNL A   1      44.953  26.481  32.552  1.00  0.00     0.034 A 
BRANCH  49  63
ATOM     63  C   UNL A   1      41.612  31.133  34.973  1.00  0.00     0.023 A 
ATOM     64  C   UNL A   1      40.490  31.132  35.823  1.00  0.00     0.031 A 
ATOM     65  C   UNL A   1      42.550  32.167  35.134  1.00  0.00     0.131 A 
ATOM     66  C   UNL A   1      40.282  32.195  36.714  1.00  0.00     0.055 A 
ATOM     67  C   UNL A   1      42.388  33.168  36.095  1.00  0.00     0.041 A 
ATOM     68  F   UNL A   1      43.633  32.240  34.343  1.00  0.00    -0.206 F 
ATOM     69  C   UNL A   1      41.237  33.199  36.876  1.00  0.00     0.022 A 
BRANCH  66  70
ATOM     70  S   UNL A   1      38.657  32.347  37.509  1.00  0.00     0.124 S 
ATOM     71  O   UNL A   1      39.024  32.373  38.924  1.00  0.00    -0.237 OA
ATOM     72  O   UNL A   1      38.151  33.597  36.956  1.00  0.00    -0.237 OA
ATOM     73  O   UNL A   1      37.953  31.141  37.080  1.00  0.00    -0.744 OA
ENDBRANCH  66  70
ENDBRANCH  49  63
BRANCH  50  74
ATOM     74  C   UNL A   1      42.382  24.632  27.380  1.00  0.00     0.023 A 
ATOM     75  C   UNL A   1      41.645  23.437  27.386  1.00  0.00     0.031 A 
ATOM     76  C   UNL A   1      43.264  24.856  26.308  1.00  0.00     0.131 A 
ATOM     77  C   UNL A   1      41.837  22.490  26.368  1.00  0.00     0.055 A 
ATOM     78  C   UNL A   1      43.409  23.936  25.267  1.00  0.00     0.041 A 
ATOM     79  F   UNL A   1      43.992  25.983  26.250  1.00  0.00    -0.206 F 
ATOM     80  C   UNL A   1      42.702  22.738  25.300  1.00  0.00     0.022 A 
BRANCH  77  81
ATOM     81  S   UNL A   1      41.000  20.887  26.506  1.00  0.00     0.124 S 
ATOM     82  O   UNL A   1      39.721  21.165  25.862  1.00  0.00    -0.237 OA
ATOM     83  O   UNL A   1      41.909  20.008  25.779  1.00  0.00    -0.237 OA
ATOM     84  O   UNL A   1      40.937  20.660  27.948  1.00  0.00    -0.744 OA
ENDBRANCH  77  81
ENDBRANCH  50  74
BRANCH  62  85
ATOM     85  C   UNL A   1      46.178  25.792  33.109  1.00  0.00     0.023 A 
ATOM     86  C   UNL A   1      46.083  24.644  33.917  1.00  0.00     0.031 A 
ATOM     87  C   UNL A   1      47.460  26.312  32.853  1.00  0.00     0.131 A 
ATOM     88  C   UNL A   1      47.239  24.097  34.495  1.00  0.00     0.055 A 
ATOM     89  C   UNL A   1      48.612  25.720  33.371  1.00  0.00     0.041 A 
ATOM     90  F   UNL A   1      47.614  27.409  32.094  1.00  0.00    -0.206 F 
ATOM     91  C   UNL A   1      48.505  24.616  34.211  1.00  0.00     0.022 A 
BRANCH  88  92
ATOM     92  S   UNL A   1      47.054  22.771  35.720  1.00  0.00     0.124 S 
ATOM     93  O   UNL A   1      47.022  23.518  36.973  1.00  0.00    -0.237 OA
ATOM     94  O   UNL A   1      45.798  22.148  35.317  1.00  0.00    -0.237 OA
ATOM     95  O   UNL A   1      48.246  21.949  35.517  1.00  0.00    -0.744 OA
ENDBRANCH  88  92
ENDBRANCH  62  85
ENDBRANCH  36  37
ENDBRANCH  28  31
ENDBRANCH  26  27
ENDBRANCH  25  26
ENDBRANCH   1  25
TORSDOF 18
ENDMDL
MODEL 3
REMARK VINA RESULT:     -11.4      5.269     10.461
REMARK SMILES COc1ccc(-c2c(C)n[nH]c2C)c(C(=O)NCCCCCCNC(=O)c2ccc(-c3c4nc(c(-c5cc(S(=O)(=O)[O-])ccc5F)c5ccc([nH]5)c(-c5cc(S(=O)(=O)[O-])ccc5F)c5nc(c(-c6cc(S(=O)(=O)[O-])ccc6F)c6ccc3[nH]6)C=C5)C=C4)cc2)c1
REMARK SMILES IDX 21 1 20 2 19 3 18 4 17 5 15 6 16 7 14 9 3 10 4 11 90 12 5 13
REMARK SMILES IDX 6 14 2 15 1 16 7 17 8 18 12 19 9 20 10 21 11 22 13 23 22 25
REMARK SMILES IDX 23 26 24 27 25 28 26 30 27 31 28 32 89 33 29 34 88 35 30 36
REMARK SMILES IDX 31 37 32 38 82 39 33 40 87 41 81 42 83 43 34 44 86 45 80 46
REMARK SMILES IDX 79 47 35 49 67 50 47 51 66 52 48 53 51 54 65 55 84 56 49 57
REMARK SMILES IDX 50 58 64 60 85 61 52 62 36 63 37 64 45 65 38 66 44 67 46 68
REMARK SMILES IDX 43 69 39 70 40 71 41 72 42 73 68 74 69 75 77 76 70 77 76 78
REMARK SMILES IDX 78 79 75 80 71 81 72 82 73 83 74 84 53 85 54 86 62 87 55 88
REMARK SMILES IDX 61 89 63 90 60 91 56 92 57 93 58 94 59 95
REMARK H PARENT 17 8 11 24 24 29 83 48 51 59
REMARK Flexibility Score: inf
ROOT
ATOM      1  C   UNL A   1      31.769  30.436  26.236  1.00  0.00     0.002 C 
ENDROOT
BRANCH   1   2
ATOM      2  C   UNL A   1      32.549  29.529  27.189  1.00  0.00     0.002 C 
BRANCH   2   3
ATOM      3  C   UNL A   1      33.688  28.712  26.579  1.00  0.00     0.021 C 
BRANCH   3   4
ATOM      4  C   UNL A   1      33.391  27.253  26.251  1.00  0.00     0.116 C 
BRANCH   4   5
ATOM      5  N   UNL A   1      32.035  26.818  26.548  1.00  0.00    -0.352 N 
ATOM      6  C   UNL A   1      31.206  25.913  25.909  1.00  0.00     0.252 C 
ATOM      7  O   UNL A   1      30.147  25.626  26.461  1.00  0.00    -0.269 OA
ATOM      8  H   UNL A   1      31.639  27.240  27.343  1.00  0.00     0.163 HD
BRANCH   6   9
ATOM      9  C   UNL A   1      31.570  25.328  24.582  1.00  0.00     0.051 A 
ATOM     10  C   UNL A   1      32.341  23.375  23.334  1.00  0.00     0.119 A 
ATOM     11  C   UNL A   1      32.536  24.174  22.213  1.00  0.00     0.047 A 
ATOM     12  C   UNL A   1      31.813  23.945  24.492  1.00  0.00     0.060 A 
ATOM     13  C   UNL A   1      32.167  25.519  22.239  1.00  0.00     0.013 A 
ATOM     14  C   UNL A   1      31.657  26.105  23.411  1.00  0.00    -0.002 A 
BRANCH  10  15
ATOM     15  O   UNL A   1      32.705  22.066  23.184  1.00  0.00    -0.497 OA
ATOM     16  C   UNL A   1      32.443  21.192  24.278  1.00  0.00     0.278 C 
ENDBRANCH  10  15
BRANCH  14  17
ATOM     17  C   UNL A   1      31.095  27.438  23.273  1.00  0.00     0.026 A 
ATOM     18  C   UNL A   1      29.720  27.813  23.302  1.00  0.00     0.067 A 
ATOM     19  C   UNL A   1      31.779  28.612  23.038  1.00  0.00     0.040 A 
ATOM     20  C   UNL A   1      28.544  26.934  23.518  1.00  0.00     0.069 C 
ATOM     21  N   UNL A   1      29.560  29.125  23.096  1.00  0.00    -0.180 NA
ATOM     22  N   UNL A   1      30.816  29.587  23.002  1.00  0.00    -0.282 N 
ATOM     23  C   UNL A   1      33.213  28.934  22.880  1.00  0.00     0.067 C 
ATOM     24  H   UNL A   1      31.028  30.544  22.916  1.00  0.00     0.190 HD
ENDBRANCH  14  17
ENDBRANCH   6   9
ENDBRANCH   4   5
ENDBRANCH   3   4
ENDBRANCH   2   3
ENDBRANCH   1   2
BRANCH   1  25
ATOM     25  C   UNL A   1      31.623  31.900  26.656  1.00  0.00     0.021 C 
BRANCH  25  26
ATOM     26  C   UNL A   1      32.920  32.631  26.986  1.00  0.00     0.116 C 
BRANCH  26  27
ATOM     27  N   UNL A   1      32.693  33.921  27.613  1.00  0.00    -0.352 N 
ATOM     28  C   UNL A   1      33.294  34.475  28.718  1.00  0.00     0.251 C 
ATOM     29  H   UNL A   1      32.009  34.482  27.182  1.00  0.00     0.163 HD
ATOM     30  O   UNL A   1      32.837  35.507  29.198  1.00  0.00    -0.269 OA
BRANCH  28  31
ATOM     31  C   UNL A   1      34.465  33.817  29.344  1.00  0.00     0.039 A 
ATOM     32  C   UNL A   1      34.246  32.782  30.258  1.00  0.00     0.014 A 
ATOM     33  C   UNL A   1      35.769  34.221  29.048  1.00  0.00     0.014 A 
ATOM     34  C   UNL A   1      35.335  32.117  30.827  1.00  0.00     0.010 A 
ATOM     35  C   UNL A   1      36.852  33.504  29.555  1.00  0.00     0.010 A 
ATOM     36  C   UNL A   1      36.649  32.448  30.455  1.00  0.00    -0.014 A 
BRANCH  36  37
ATOM     37  C   UNL A   1      37.813  31.704  31.007  1.00  0.00     0.031 A 
ATOM     38  C   UNL A   1      38.297  31.976  32.406  1.00  0.00     0.074 A 
ATOM     39  C   UNL A   1      38.461  30.810  30.232  1.00  0.00     0.049 A 
ATOM     40  N   UNL A   1      39.309  31.455  33.050  1.00  0.00    -0.248 NA
ATOM     41  C   UNL A   1      37.559  32.993  33.168  1.00  0.00     0.031 C 
ATOM     42  C   UNL A   1      38.108  30.480  28.850  1.00  0.00     0.029 A 
ATOM     43  N   UNL A   1      39.546  30.013  30.496  1.00  0.00    -0.354 N 
ATOM     44  C   UNL A   1      39.332  32.081  34.292  1.00  0.00     0.074 A 
ATOM     45  C   UNL A   1      38.283  33.078  34.272  1.00  0.00     0.031 C 
ATOM     46  C   UNL A   1      38.930  29.516  28.405  1.00  0.00     0.029 A 
ATOM     47  C   UNL A   1      39.900  29.196  29.447  1.00  0.00     0.049 A 
ATOM     48  H   UNL A   1      40.026  30.024  31.356  1.00  0.00     0.167 HD
ATOM     49  C   UNL A   1      40.133  31.829  35.360  1.00  0.00     0.034 A 
ATOM     50  C   UNL A   1      40.894  28.293  29.337  1.00  0.00     0.034 A 
ATOM     51  C   UNL A   1      41.180  30.835  35.357  1.00  0.00     0.049 A 
ATOM     52  C   UNL A   1      41.813  28.074  30.513  1.00  0.00     0.074 A 
ATOM     53  C   UNL A   1      42.028  30.471  36.390  1.00  0.00     0.029 A 
ATOM     54  N   UNL A   1      41.536  30.054  34.264  1.00  0.00    -0.354 N 
ATOM     55  N   UNL A   1      41.793  28.641  31.697  1.00  0.00    -0.248 NA
ATOM     56  C   UNL A   1      42.883  27.086  30.336  1.00  0.00     0.031 C 
ATOM     57  C   UNL A   1      42.943  29.533  35.898  1.00  0.00     0.029 A 
ATOM     58  C   UNL A   1      42.613  29.240  34.586  1.00  0.00     0.049 A 
ATOM     59  H   UNL A   1      41.088  30.075  33.387  1.00  0.00     0.167 HD
ATOM     60  C   UNL A   1      42.824  28.046  32.419  1.00  0.00     0.074 A 
ATOM     61  C   UNL A   1      43.434  27.070  31.539  1.00  0.00     0.031 C 
ATOM     62  C   UNL A   1      43.228  28.281  33.695  1.00  0.00     0.034 A 
BRANCH  49  63
ATOM     63  C   UNL A   1      39.915  32.670  36.598  1.00  0.00     0.023 A 
ATOM     64  C   UNL A   1      39.055  32.254  37.631  1.00  0.00     0.031 A 
ATOM     65  C   UNL A   1      40.526  33.931  36.727  1.00  0.00     0.131 A 
ATOM     66  C   UNL A   1      38.746  33.127  38.684  1.00  0.00     0.055 A 
ATOM     67  C   UNL A   1      40.293  34.754  37.832  1.00  0.00     0.041 A 
ATOM     68  F   UNL A   1      41.342  34.398  35.768  1.00  0.00    -0.206 F 
ATOM     69  C   UNL A   1      39.382  34.363  38.808  1.00  0.00     0.022 A 
BRANCH  66  70
ATOM     70  S   UNL A   1      37.361  32.702  39.777  1.00  0.00     0.124 S 
ATOM     71  O   UNL A   1      37.787  31.405  40.300  1.00  0.00    -0.237 OA
ATOM     72  O   UNL A   1      37.360  33.807  40.729  1.00  0.00    -0.237 OA
ATOM     73  O   UNL A   1      36.215  32.652  38.872  1.00  0.00    -0.744 OA
ENDBRANCH  66  70
ENDBRANCH  49  63
BRANCH  50  74
ATOM     74  C   UNL A   1      41.073  27.515  28.078  1.00  0.00     0.023 A 
ATOM     75  C   UNL A   1      40.734  26.153  28.022  1.00  0.00     0.031 A 
ATOM     76  C   UNL A   1      41.620  28.105  26.925  1.00  0.00     0.131 A 
ATOM     77  C   UNL A   1      40.989  25.415  26.856  1.00  0.00     0.055 A 
ATOM     78  C   UNL A   1      41.819  27.380  25.748  1.00  0.00     0.041 A 
ATOM     79  F   UNL A   1      41.960  29.405  26.922  1.00  0.00    -0.206 F 
ATOM     80  C   UNL A   1      41.514  26.022  25.714  1.00  0.00     0.022 A 
BRANCH  77  81
ATOM     81  S   UNL A   1      40.703  23.624  26.884  1.00  0.00     0.124 S 
ATOM     82  O   UNL A   1      41.020  23.295  28.269  1.00  0.00    -0.237 OA
ATOM     83  O   UNL A   1      39.295  23.538  26.508  1.00  0.00    -0.237 OA
ATOM     84  O   UNL A   1      41.643  23.115  25.889  1.00  0.00    -0.744 OA
ENDBRANCH  77  81
ENDBRANCH  50  74
BRANCH  62  85
ATOM     85  C   UNL A   1      44.356  27.427  34.226  1.00  0.00     0.023 A 
ATOM     86  C   UNL A   1      44.150  26.100  34.647  1.00  0.00     0.031 A 
ATOM     87  C   UNL A   1      45.653  27.959  34.341  1.00  0.00     0.131 A 
ATOM     88  C   UNL A   1      45.204  25.377  35.226  1.00  0.00     0.055 A 
ATOM     89  C   UNL A   1      46.715  27.210  34.850  1.00  0.00     0.041 A 
ATOM     90  F   UNL A   1      45.911  29.222  33.961  1.00  0.00    -0.206 F 
ATOM     91  C   UNL A   1      46.490  25.917  35.312  1.00  0.00     0.022 A 
BRANCH  88  92
ATOM     92  S   UNL A   1      44.844  23.765  35.976  1.00  0.00     0.124 S 
ATOM     93  O   UNL A   1      45.909  22.931  35.429  1.00  0.00    -0.237 OA
ATOM     94  O   UNL A   1      44.932  24.058  37.402  1.00  0.00    -0.237 OA
ATOM     95  O   UNL A   1      43.500  23.454  35.489  1.00  0.00    -0.744 OA
ENDBRANCH  88  92
ENDBRANCH  62  85
ENDBRANCH  36  37
ENDBRANCH  28  31
ENDBRANCH  26  27
ENDBRANCH  25  26
ENDBRANCH   1  25
TORSDOF 18
ENDMDL
