MODEL 1
REMARK VINA RESULT:     -11.2      0.000      0.000
REMARK SMILES O=C(NCCCCCCNC(=O)[C@H]1CC=CC[C@H]1C(=O)Nc1ccc(S(=O)(=O)N2CCc3ccccc32)cc1)c1ccc(-c2c3nc(c(-c4cc(S(=O)(=O)[O-])ccc4F)c4ccc([nH]4)c(-c4cc(S(=O)(=O)[O-])ccc4F)c4nc(c(-c5cc(S(=O)(=O)[O-])ccc5F)c5ccc2[nH]5)C=C4)C=C3)cc1
REMARK SMILES IDX 7 1 6 2 5 3 4 4 3 5 1 6 2 7 40 9 41 10 102 11 42 12 101 13
REMARK SMILES IDX 43 14 44 15 45 16 95 17 46 18 100 19 94 20 96 21 47 22 99 23
REMARK SMILES IDX 93 24 92 25 48 27 80 28 60 29 79 30 61 31 64 32 78 33 97 34
REMARK SMILES IDX 62 35 63 36 77 38 98 39 65 40 49 41 50 42 58 43 51 44 57 45
REMARK SMILES IDX 59 46 56 47 52 48 53 49 54 50 55 51 81 52 82 53 90 54 83 55
REMARK SMILES IDX 89 56 91 57 88 58 84 59 85 60 86 61 87 62 66 63 67 64 75 65
REMARK SMILES IDX 68 66 74 67 76 68 73 69 69 70 70 71 71 72 72 73 8 74 9 75
REMARK SMILES IDX 10 76 11 77 12 79 13 80 14 81 18 82 15 83 17 84 16 85 19 86
REMARK SMILES IDX 20 87 21 88 22 90 23 91 39 92 24 93 38 94 25 95 26 96 27 97
REMARK SMILES IDX 28 98 29 99 30 100 37 101 31 102 32 103 36 104 33 105 35 106
REMARK SMILES IDX 34 107
REMARK H PARENT 3 8 96 26 64 37 10 78 21 89
REMARK Flexibility Score: inf
ROOT
ATOM      1  C   UNL A   1      39.701  28.759  27.314  1.00  0.00     0.002 C 
ENDROOT
BRANCH   1   2
ATOM      2  C   UNL A   1      40.668  27.594  27.560  1.00  0.00     0.002 C 
BRANCH   2   3
ATOM      3  C   UNL A   1      40.079  26.193  27.442  1.00  0.00     0.021 C 
BRANCH   3   4
ATOM      4  C   UNL A   1      40.396  25.503  26.133  1.00  0.00     0.116 C 
BRANCH   4   5
ATOM      5  N   UNL A   1      40.878  24.145  26.326  1.00  0.00    -0.352 N 
ATOM      6  O   UNL A   1      42.480  22.554  26.456  1.00  0.00    -0.269 OA
ATOM      7  C   UNL A   1      42.185  23.732  26.432  1.00  0.00     0.251 C 
ATOM      8  H   UNL A   1      40.191  23.443  26.385  1.00  0.00     0.163 HD
BRANCH   7   9
ATOM      9  C   UNL A   1      43.218  24.786  26.499  1.00  0.00     0.039 A 
ATOM     10  C   UNL A   1      43.789  25.258  25.314  1.00  0.00     0.014 A 
ATOM     11  C   UNL A   1      43.656  25.237  27.743  1.00  0.00     0.014 A 
ATOM     12  C   UNL A   1      44.880  26.108  25.375  1.00  0.00     0.010 A 
ATOM     13  C   UNL A   1      44.686  26.175  27.798  1.00  0.00     0.010 A 
ATOM     14  C   UNL A   1      45.300  26.615  26.614  1.00  0.00    -0.014 A 
BRANCH  14  15
ATOM     15  C   UNL A   1      46.261  27.740  26.630  1.00  0.00     0.031 A 
ATOM     16  C   UNL A   1      45.798  29.164  26.672  1.00  0.00     0.074 A 
ATOM     17  C   UNL A   1      47.571  27.426  26.585  1.00  0.00     0.049 A 
ATOM     18  N   UNL A   1      46.515  30.255  26.619  1.00  0.00    -0.248 NA
ATOM     19  C   UNL A   1      44.350  29.399  26.778  1.00  0.00     0.031 C 
ATOM     20  C   UNL A   1      48.103  26.057  26.535  1.00  0.00     0.029 A 
ATOM     21  N   UNL A   1      48.690  28.212  26.574  1.00  0.00    -0.354 N 
ATOM     22  C   UNL A   1      45.611  31.309  26.654  1.00  0.00     0.074 A 
ATOM     23  C   UNL A   1      44.288  30.725  26.732  1.00  0.00     0.031 C 
ATOM     24  C   UNL A   1      49.441  26.102  26.529  1.00  0.00     0.029 A 
ATOM     25  C   UNL A   1      49.860  27.493  26.472  1.00  0.00     0.049 A 
ATOM     26  H   UNL A   1      48.662  29.194  26.633  1.00  0.00     0.167 HD
ATOM     27  C   UNL A   1      45.877  32.637  26.616  1.00  0.00     0.034 A 
ATOM     28  C   UNL A   1      51.127  27.907  26.290  1.00  0.00     0.034 A 
ATOM     29  C   UNL A   1      47.215  33.178  26.552  1.00  0.00     0.049 A 
ATOM     30  C   UNL A   1      51.378  29.385  26.201  1.00  0.00     0.074 A 
ATOM     31  C   UNL A   1      47.608  34.505  26.595  1.00  0.00     0.029 A 
ATOM     32  N   UNL A   1      48.373  32.425  26.408  1.00  0.00    -0.354 N 
ATOM     33  N   UNL A   1      50.514  30.371  26.294  1.00  0.00    -0.248 NA
ATOM     34  C   UNL A   1      52.762  29.809  25.976  1.00  0.00     0.031 C 
ATOM     35  C   UNL A   1      48.991  34.557  26.396  1.00  0.00     0.029 A 
ATOM     36  C   UNL A   1      49.474  33.261  26.304  1.00  0.00     0.049 A 
ATOM     37  H   UNL A   1      48.407  31.442  26.383  1.00  0.00     0.167 HD
ATOM     38  C   UNL A   1      51.258  31.535  26.142  1.00  0.00     0.074 A 
ATOM     39  C   UNL A   1      52.640  31.127  25.989  1.00  0.00     0.031 C 
ATOM     40  C   UNL A   1      50.838  32.825  26.124  1.00  0.00     0.034 A 
BRANCH  27  41
ATOM     41  C   UNL A   1      44.716  33.599  26.584  1.00  0.00     0.023 A 
ATOM     42  C   UNL A   1      44.255  34.259  27.736  1.00  0.00     0.031 A 
ATOM     43  C   UNL A   1      44.088  33.890  25.359  1.00  0.00     0.131 A 
ATOM     44  C   UNL A   1      43.177  35.154  27.642  1.00  0.00     0.055 A 
ATOM     45  C   UNL A   1      43.055  34.825  25.263  1.00  0.00     0.041 A 
ATOM     46  F   UNL A   1      44.474  33.275  24.231  1.00  0.00    -0.206 F 
ATOM     47  C   UNL A   1      42.591  35.459  26.411  1.00  0.00     0.022 A 
BRANCH  44  48
ATOM     48  S   UNL A   1      42.495  35.861  29.168  1.00  0.00     0.124 S 
ATOM     49  O   UNL A   1      41.488  34.867  29.530  1.00  0.00    -0.237 OA
ATOM     50  O   UNL A   1      43.665  35.928  30.035  1.00  0.00    -0.237 OA
ATOM     51  O   UNL A   1      41.961  37.151  28.740  1.00  0.00    -0.744 OA
ENDBRANCH  44  48
ENDBRANCH  27  41
BRANCH  28  52
ATOM     52  C   UNL A   1      52.224  26.917  26.098  1.00  0.00     0.023 A 
ATOM     53  C   UNL A   1      53.124  26.624  27.131  1.00  0.00     0.031 A 
ATOM     54  C   UNL A   1      52.410  26.275  24.858  1.00  0.00     0.131 A 
ATOM     55  C   UNL A   1      54.200  25.755  26.892  1.00  0.00     0.055 A 
ATOM     56  C   UNL A   1      53.442  25.361  24.647  1.00  0.00     0.041 A 
ATOM     57  F   UNL A   1      51.578  26.518  23.833  1.00  0.00    -0.206 F 
ATOM     58  C   UNL A   1      54.356  25.110  25.663  1.00  0.00     0.022 A 
BRANCH  55  59
ATOM     59  S   UNL A   1      55.463  25.574  28.180  1.00  0.00     0.124 S 
ATOM     60  O   UNL A   1      56.398  26.639  27.832  1.00  0.00    -0.237 OA
ATOM     61  O   UNL A   1      54.684  25.777  29.397  1.00  0.00    -0.237 OA
ATOM     62  O   UNL A   1      55.961  24.216  27.977  1.00  0.00    -0.744 OA
ENDBRANCH  55  59
ENDBRANCH  28  52
BRANCH  40  63
ATOM     63  C   UNL A   1      51.905  33.871  25.941  1.00  0.00     0.023 A 
ATOM     64  C   UNL A   1      52.501  34.504  27.045  1.00  0.00     0.031 A 
ATOM     65  C   UNL A   1      52.312  34.254  24.652  1.00  0.00     0.131 A 
ATOM     66  C   UNL A   1      53.436  35.526  26.839  1.00  0.00     0.055 A 
ATOM     67  C   UNL A   1      53.289  35.229  24.454  1.00  0.00     0.041 A 
ATOM     68  F   UNL A   1      51.768  33.683  23.566  1.00  0.00    -0.206 F 
ATOM     69  C   UNL A   1      53.848  35.880  25.551  1.00  0.00     0.022 A 
BRANCH  66  70
ATOM     70  S   UNL A   1      54.051  36.444  28.277  1.00  0.00     0.124 S 
ATOM     71  O   UNL A   1      55.432  35.983  28.361  1.00  0.00    -0.237 OA
ATOM     72  O   UNL A   1      53.865  37.832  27.866  1.00  0.00    -0.237 OA
ATOM     73  O   UNL A   1      53.180  36.000  29.364  1.00  0.00    -0.744 OA
ENDBRANCH  66  70
ENDBRANCH  40  63
ENDBRANCH  14  15
ENDBRANCH   7   9
ENDBRANCH   4   5
ENDBRANCH   3   4
ENDBRANCH   2   3
ENDBRANCH   1   2
BRANCH   1  74
ATOM     74  C   UNL A   1      38.605  28.916  28.367  1.00  0.00     0.021 C 
BRANCH  74  75
ATOM     75  C   UNL A   1      39.100  29.509  29.677  1.00  0.00     0.116 C 
BRANCH  75  76
ATOM     76  N   UNL A   1      38.896  30.933  29.750  1.00  0.00    -0.356 N 
ATOM     77  C   UNL A   1      37.810  31.674  30.046  1.00  0.00     0.224 C 
ATOM     78  H   UNL A   1      39.700  31.464  29.546  1.00  0.00     0.163 HD
ATOM     79  O   UNL A   1      38.017  32.896  30.137  1.00  0.00    -0.275 OA
BRANCH  77  80
ATOM     80  C   UNL A   1      36.367  31.179  30.215  1.00  0.00     0.095 C 
ATOM     81  C   UNL A   1      36.329  30.564  31.636  1.00  0.00     0.041 C 
ATOM     82  C   UNL A   1      35.070  31.969  29.994  1.00  0.00     0.095 C 
ATOM     83  C   UNL A   1      36.178  31.631  32.676  1.00  0.00    -0.030 C 
ATOM     84  C   UNL A   1      34.652  32.908  31.164  1.00  0.00     0.041 C 
ATOM     85  C   UNL A   1      35.409  32.705  32.452  1.00  0.00    -0.030 C 
BRANCH  82  86
ATOM     86  C   UNL A   1      34.531  32.520  28.667  1.00  0.00     0.228 C 
ATOM     87  O   UNL A   1      34.690  33.740  28.467  1.00  0.00    -0.274 OA
ATOM     88  N   UNL A   1      34.013  31.882  27.599  1.00  0.00    -0.326 N 
ATOM     89  H   UNL A   1      33.860  32.499  26.847  1.00  0.00     0.169 HD
BRANCH  88  90
ATOM     90  C   UNL A   1      33.641  30.582  27.280  1.00  0.00     0.041 A 
ATOM     91  C   UNL A   1      32.274  30.375  27.101  1.00  0.00     0.027 A 
ATOM     92  C   UNL A   1      34.504  29.504  27.157  1.00  0.00     0.027 A 
ATOM     93  C   UNL A   1      31.818  29.184  26.549  1.00  0.00     0.024 A 
ATOM     94  C   UNL A   1      34.044  28.286  26.630  1.00  0.00     0.024 A 
ATOM     95  C   UNL A   1      32.716  28.162  26.233  1.00  0.00     0.088 A 
BRANCH  95  96
ATOM     96  S   UNL A   1      32.032  26.653  25.609  1.00  0.00     0.264 S 
ATOM     97  O   UNL A   1      33.148  25.731  25.532  1.00  0.00    -0.201 OA
ATOM     98  O   UNL A   1      30.899  26.367  26.475  1.00  0.00    -0.201 OA
BRANCH  96  99
ATOM     99  N   UNL A   1      31.368  26.908  23.976  1.00  0.00    -0.266 N 
ATOM    100  C   UNL A   1      32.229  27.775  23.078  1.00  0.00     0.140 C 
ATOM    101  C   UNL A   1      31.483  25.606  23.327  1.00  0.00     0.055 A 
ATOM    102  C   UNL A   1      33.328  26.859  22.501  1.00  0.00     0.060 C 
ATOM    103  C   UNL A   1      32.726  25.504  22.701  1.00  0.00    -0.022 A 
ATOM    104  C   UNL A   1      30.727  24.494  23.654  1.00  0.00     0.027 A 
ATOM    105  C   UNL A   1      33.339  24.268  22.586  1.00  0.00     0.006 A 
ATOM    106  C   UNL A   1      31.330  23.244  23.520  1.00  0.00     0.002 A 
ATOM    107  C   UNL A   1      32.645  23.139  23.039  1.00  0.00     0.000 A 
ENDBRANCH  96  99
ENDBRANCH  95  96
ENDBRANCH  88  90
ENDBRANCH  82  86
ENDBRANCH  77  80
ENDBRANCH  75  76
ENDBRANCH  74  75
ENDBRANCH   1  74
TORSDOF 20
ENDMDL
MODEL 2
REMARK VINA RESULT:     -11.1      5.767     10.516
REMARK SMILES O=C(NCCCCCCNC(=O)[C@H]1CC=CC[C@H]1C(=O)Nc1ccc(S(=O)(=O)N2CCc3ccccc32)cc1)c1ccc(-c2c3nc(c(-c4cc(S(=O)(=O)[O-])ccc4F)c4ccc([nH]4)c(-c4cc(S(=O)(=O)[O-])ccc4F)c4nc(c(-c5cc(S(=O)(=O)[O-])ccc5F)c5ccc2[nH]5)C=C4)C=C3)cc1
REMARK SMILES IDX 7 1 6 2 5 3 4 4 3 5 1 6 2 7 40 9 41 10 102 11 42 12 101 13
REMARK SMILES IDX 43 14 44 15 45 16 95 17 46 18 100 19 94 20 96 21 47 22 99 23
REMARK SMILES IDX 93 24 92 25 48 27 80 28 60 29 79 30 61 31 64 32 78 33 97 34
REMARK SMILES IDX 62 35 63 36 77 38 98 39 65 40 49 41 50 42 58 43 51 44 57 45
REMARK SMILES IDX 59 46 56 47 52 48 53 49 54 50 55 51 81 52 82 53 90 54 83 55
REMARK SMILES IDX 89 56 91 57 88 58 84 59 85 60 86 61 87 62 66 63 67 64 75 65
REMARK SMILES IDX 68 66 74 67 76 68 73 69 69 70 70 71 71 72 72 73 8 74 9 75
REMARK SMILES IDX 10 76 11 77 12 79 13 80 14 81 18 82 15 83 17 84 16 85 19 86
REMARK SMILES IDX 20 87 21 88 22 90 23 91 39 92 24 93 38 94 25 95 26 96 27 97
REMARK SMILES IDX 28 98 29 99 30 100 37 101 31 102 32 103 36 104 33 105 35 106
REMARK SMILES IDX 34 107
REMARK H PARENT 3 8 96 26 64 37 10 78 21 89
REMARK Flexibility Score: inf
ROOT
ATOM      1  C   UNL A   1      46.035  24.919  28.082  1.00  0.00     0.002 C 
ENDROOT
BRANCH   1   2
ATOM      2  C   UNL A   1      45.673  24.442  26.670  1.00  0.00     0.002 C 
BRANCH   2   3
ATOM      3  C   UNL A   1      46.814  24.402  25.659  1.00  0.00     0.021 C 
BRANCH   3   4
ATOM      4  C   UNL A   1      47.941  25.362  25.969  1.00  0.00     0.116 C 
BRANCH   4   5
ATOM      5  N   UNL A   1      48.148  26.334  24.909  1.00  0.00    -0.352 N 
ATOM      6  O   UNL A   1      47.730  28.269  23.813  1.00  0.00    -0.269 OA
ATOM      7  C   UNL A   1      47.595  27.590  24.811  1.00  0.00     0.251 C 
ATOM      8  H   UNL A   1      48.750  26.063  24.179  1.00  0.00     0.163 HD
BRANCH   7   9
ATOM      9  C   UNL A   1      46.814  28.070  25.969  1.00  0.00     0.039 A 
ATOM     10  C   UNL A   1      47.484  28.626  27.062  1.00  0.00     0.014 A 
ATOM     11  C   UNL A   1      45.431  27.893  25.983  1.00  0.00     0.014 A 
ATOM     12  C   UNL A   1      46.782  28.908  28.221  1.00  0.00     0.010 A 
ATOM     13  C   UNL A   1      44.711  28.278  27.113  1.00  0.00     0.010 A 
ATOM     14  C   UNL A   1      45.384  28.789  28.235  1.00  0.00    -0.014 A 
BRANCH  14  15
ATOM     15  C   UNL A   1      44.635  29.374  29.368  1.00  0.00     0.031 A 
ATOM     16  C   UNL A   1      44.166  30.797  29.345  1.00  0.00     0.074 A 
ATOM     17  C   UNL A   1      44.409  28.575  30.430  1.00  0.00     0.049 A 
ATOM     18  N   UNL A   1      43.562  31.471  30.288  1.00  0.00    -0.248 NA
ATOM     19  C   UNL A   1      44.410  31.567  28.116  1.00  0.00     0.031 C 
ATOM     20  C   UNL A   1      44.842  27.175  30.532  1.00  0.00     0.029 A 
ATOM     21  N   UNL A   1      43.771  28.807  31.618  1.00  0.00    -0.354 N 
ATOM     22  C   UNL A   1      43.379  32.753  29.785  1.00  0.00     0.074 A 
ATOM     23  C   UNL A   1      43.939  32.763  28.449  1.00  0.00     0.031 C 
ATOM     24  C   UNL A   1      44.431  26.668  31.701  1.00  0.00     0.029 A 
ATOM     25  C   UNL A   1      43.799  27.727  32.471  1.00  0.00     0.049 A 
ATOM     26  H   UNL A   1      43.336  29.661  31.840  1.00  0.00     0.167 HD
ATOM     27  C   UNL A   1      42.801  33.813  30.398  1.00  0.00     0.034 A 
ATOM     28  C   UNL A   1      43.414  27.617  33.755  1.00  0.00     0.034 A 
ATOM     29  C   UNL A   1      42.243  33.756  31.728  1.00  0.00     0.049 A 
ATOM     30  C   UNL A   1      42.825  28.830  34.418  1.00  0.00     0.074 A 
ATOM     31  C   UNL A   1      41.558  34.743  32.416  1.00  0.00     0.029 A 
ATOM     32  N   UNL A   1      42.324  32.662  32.580  1.00  0.00    -0.354 N 
ATOM     33  N   UNL A   1      42.608  30.020  33.907  1.00  0.00    -0.248 NA
ATOM     34  C   UNL A   1      42.439  28.692  35.825  1.00  0.00     0.031 C 
ATOM     35  C   UNL A   1      41.297  34.275  33.708  1.00  0.00     0.029 A 
ATOM     36  C   UNL A   1      41.752  32.969  33.805  1.00  0.00     0.049 A 
ATOM     37  H   UNL A   1      42.729  31.795  32.348  1.00  0.00     0.167 HD
ATOM     38  C   UNL A   1      42.052  30.773  34.934  1.00  0.00     0.074 A 
ATOM     39  C   UNL A   1      41.937  29.891  36.079  1.00  0.00     0.031 C 
ATOM     40  C   UNL A   1      41.676  32.077  34.937  1.00  0.00     0.034 A 
BRANCH  27  41
ATOM     41  C   UNL A   1      42.789  35.138  29.676  1.00  0.00     0.023 A 
ATOM     42  C   UNL A   1      43.893  36.007  29.682  1.00  0.00     0.031 A 
ATOM     43  C   UNL A   1      41.657  35.512  28.929  1.00  0.00     0.131 A 
ATOM     44  C   UNL A   1      43.828  37.222  28.981  1.00  0.00     0.055 A 
ATOM     45  C   UNL A   1      41.621  36.694  28.186  1.00  0.00     0.041 A 
ATOM     46  F   UNL A   1      40.567  34.730  28.903  1.00  0.00    -0.206 F 
ATOM     47  C   UNL A   1      42.709  37.559  28.213  1.00  0.00     0.022 A 
BRANCH  44  48
ATOM     48  S   UNL A   1      45.199  38.399  29.145  1.00  0.00     0.124 S 
ATOM     49  O   UNL A   1      46.359  37.523  28.996  1.00  0.00    -0.237 OA
ATOM     50  O   UNL A   1      44.954  39.324  28.045  1.00  0.00    -0.237 OA
ATOM     51  O   UNL A   1      45.016  38.956  30.483  1.00  0.00    -0.744 OA
ENDBRANCH  44  48
ENDBRANCH  27  41
BRANCH  28  52
ATOM     52  C   UNL A   1      43.651  26.355  34.509  1.00  0.00     0.023 A 
ATOM     53  C   UNL A   1      44.949  25.936  34.832  1.00  0.00     0.031 A 
ATOM     54  C   UNL A   1      42.577  25.525  34.887  1.00  0.00     0.131 A 
ATOM     55  C   UNL A   1      45.146  24.699  35.463  1.00  0.00     0.055 A 
ATOM     56  C   UNL A   1      42.775  24.327  35.575  1.00  0.00     0.041 A 
ATOM     57  F   UNL A   1      41.312  25.876  34.604  1.00  0.00    -0.206 F 
ATOM     58  C   UNL A   1      44.068  23.899  35.851  1.00  0.00     0.022 A 
BRANCH  55  59
ATOM     59  S   UNL A   1      46.843  24.094  35.664  1.00  0.00     0.124 S 
ATOM     60  O   UNL A   1      46.710  23.213  36.819  1.00  0.00    -0.237 OA
ATOM     61  O   UNL A   1      47.082  23.438  34.383  1.00  0.00    -0.237 OA
ATOM     62  O   UNL A   1      47.612  25.313  35.894  1.00  0.00    -0.744 OA
ENDBRANCH  55  59
ENDBRANCH  28  52
BRANCH  40  63
ATOM     63  C   UNL A   1      41.099  32.602  36.224  1.00  0.00     0.023 A 
ATOM     64  C   UNL A   1      39.782  32.300  36.608  1.00  0.00     0.031 A 
ATOM     65  C   UNL A   1      41.865  33.430  37.062  1.00  0.00     0.131 A 
ATOM     66  C   UNL A   1      39.250  32.866  37.773  1.00  0.00     0.055 A 
ATOM     67  C   UNL A   1      41.351  33.940  38.253  1.00  0.00     0.041 A 
ATOM     68  F   UNL A   1      43.127  33.752  36.736  1.00  0.00    -0.206 F 
ATOM     69  C   UNL A   1      40.032  33.669  38.609  1.00  0.00     0.022 A 
BRANCH  66  70
ATOM     70  S   UNL A   1      37.495  32.603  38.145  1.00  0.00     0.124 S 
ATOM     71  O   UNL A   1      36.845  33.373  37.089  1.00  0.00    -0.237 OA
ATOM     72  O   UNL A   1      37.367  31.152  38.048  1.00  0.00    -0.237 OA
ATOM     73  O   UNL A   1      37.345  33.148  39.493  1.00  0.00    -0.744 OA
ENDBRANCH  66  70
ENDBRANCH  40  63
ENDBRANCH  14  15
ENDBRANCH   7   9
ENDBRANCH   4   5
ENDBRANCH   3   4
ENDBRANCH   2   3
ENDBRANCH   1   2
BRANCH   1  74
ATOM     74  C   UNL A   1      45.650  23.953  29.202  1.00  0.00     0.021 C 
BRANCH  74  75
ATOM     75  C   UNL A   1      44.254  23.369  29.050  1.00  0.00     0.116 C 
BRANCH  75  76
ATOM     76  N   UNL A   1      43.221  24.330  29.341  1.00  0.00    -0.356 N 
ATOM     77  C   UNL A   1      42.199  24.806  28.603  1.00  0.00     0.224 C 
ATOM     78  H   UNL A   1      43.271  24.709  30.249  1.00  0.00     0.163 HD
ATOM     79  O   UNL A   1      41.411  25.548  29.214  1.00  0.00    -0.275 OA
BRANCH  77  80
ATOM     80  C   UNL A   1      41.952  24.580  27.105  1.00  0.00     0.095 C 
ATOM     81  C   UNL A   1      41.312  23.172  27.023  1.00  0.00     0.041 C 
ATOM     82  C   UNL A   1      41.219  25.504  26.123  1.00  0.00     0.095 C 
ATOM     83  C   UNL A   1      39.851  23.230  27.344  1.00  0.00    -0.030 C 
ATOM     84  C   UNL A   1      39.664  25.426  26.167  1.00  0.00     0.041 C 
ATOM     85  C   UNL A   1      39.101  24.268  26.951  1.00  0.00    -0.030 C 
BRANCH  82  86
ATOM     86  C   UNL A   1      41.657  26.898  25.654  1.00  0.00     0.228 C 
ATOM     87  O   UNL A   1      42.343  26.943  24.614  1.00  0.00    -0.274 OA
ATOM     88  N   UNL A   1      41.319  28.121  26.106  1.00  0.00    -0.326 N 
ATOM     89  H   UNL A   1      41.673  28.833  25.526  1.00  0.00     0.169 HD
BRANCH  88  90
ATOM     90  C   UNL A   1      40.600  28.640  27.177  1.00  0.00     0.041 A 
ATOM     91  C   UNL A   1      41.317  28.799  28.361  1.00  0.00     0.027 A 
ATOM     92  C   UNL A   1      39.256  28.978  27.157  1.00  0.00     0.027 A 
ATOM     93  C   UNL A   1      40.772  29.526  29.413  1.00  0.00     0.024 A 
ATOM     94  C   UNL A   1      38.687  29.685  28.229  1.00  0.00     0.024 A 
ATOM     95  C   UNL A   1      39.479  30.045  29.316  1.00  0.00     0.088 A 
BRANCH  95  96
ATOM     96  S   UNL A   1      38.841  30.888  30.736  1.00  0.00     0.264 S 
ATOM     97  O   UNL A   1      39.977  31.064  31.619  1.00  0.00    -0.201 OA
ATOM     98  O   UNL A   1      38.137  32.043  30.204  1.00  0.00    -0.201 OA
BRANCH  96  99
ATOM     99  N   UNL A   1      37.617  29.881  31.550  1.00  0.00    -0.266 N 
ATOM    100  C   UNL A   1      38.091  29.238  32.839  1.00  0.00     0.140 C 
ATOM    101  C   UNL A   1      36.628  30.834  32.041  1.00  0.00     0.055 A 
ATOM    102  C   UNL A   1      37.960  30.311  33.941  1.00  0.00     0.060 C 
ATOM    103  C   UNL A   1      36.987  31.262  33.320  1.00  0.00    -0.022 A 
ATOM    104  C   UNL A   1      35.760  31.553  31.239  1.00  0.00     0.027 A 
ATOM    105  C   UNL A   1      36.651  32.539  33.738  1.00  0.00     0.006 A 
ATOM    106  C   UNL A   1      35.400  32.831  31.663  1.00  0.00     0.002 A 
ATOM    107  C   UNL A   1      35.886  33.337  32.879  1.00  0.00     0.000 A 
ENDBRANCH  96  99
ENDBRANCH  95  96
ENDBRANCH  88  90
ENDBRANCH  82  86
ENDBRANCH  77  80
ENDBRANCH  75  76
ENDBRANCH  74  75
ENDBRANCH   1  74
TORSDOF 20
ENDMDL
MODEL 3
REMARK VINA RESULT:     -11.0      4.569      7.839
REMARK SMILES O=C(NCCCCCCNC(=O)[C@H]1CC=CC[C@H]1C(=O)Nc1ccc(S(=O)(=O)N2CCc3ccccc32)cc1)c1ccc(-c2c3nc(c(-c4cc(S(=O)(=O)[O-])ccc4F)c4ccc([nH]4)c(-c4cc(S(=O)(=O)[O-])ccc4F)c4nc(c(-c5cc(S(=O)(=O)[O-])ccc5F)c5ccc2[nH]5)C=C4)C=C3)cc1
REMARK SMILES IDX 7 1 6 2 5 3 4 4 3 5 1 6 2 7 40 9 41 10 102 11 42 12 101 13
REMARK SMILES IDX 43 14 44 15 45 16 95 17 46 18 100 19 94 20 96 21 47 22 99 23
REMARK SMILES IDX 93 24 92 25 48 27 80 28 60 29 79 30 61 31 64 32 78 33 97 34
REMARK SMILES IDX 62 35 63 36 77 38 98 39 65 40 49 41 50 42 58 43 51 44 57 45
REMARK SMILES IDX 59 46 56 47 52 48 53 49 54 50 55 51 81 52 82 53 90 54 83 55
REMARK SMILES IDX 89 56 91 57 88 58 84 59 85 60 86 61 87 62 66 63 67 64 75 65
REMARK SMILES IDX 68 66 74 67 76 68 73 69 69 70 70 71 71 72 72 73 8 74 9 75
REMARK SMILES IDX 10 76 11 77 12 79 13 80 14 81 18 82 15 83 17 84 16 85 19 86
REMARK SMILES IDX 20 87 21 88 22 90 23 91 39 92 24 93 38 94 25 95 26 96 27 97
REMARK SMILES IDX 28 98 29 99 30 100 37 101 31 102 32 103 36 104 33 105 35 106
REMARK SMILES IDX 34 107
REMARK H PARENT 3 8 96 26 64 37 10 78 21 89
REMARK Flexibility Score: inf
ROOT
ATOM      1  C   UNL A   1      39.807  27.034  29.433  1.00  0.00     0.002 C 
ENDROOT
BRANCH   1   2
ATOM      2  C   UNL A   1      39.514  26.165  28.203  1.00  0.00     0.002 C 
BRANCH   2   3
ATOM      3  C   UNL A   1      40.302  24.865  28.092  1.00  0.00     0.021 C 
BRANCH   3   4
ATOM      4  C   UNL A   1      41.791  25.063  27.912  1.00  0.00     0.116 C 
BRANCH   4   5
ATOM      5  N   UNL A   1      42.161  25.241  26.518  1.00  0.00    -0.352 N 
ATOM      6  O   UNL A   1      42.673  26.471  24.690  1.00  0.00    -0.269 OA
ATOM      7  C   UNL A   1      42.512  26.415  25.893  1.00  0.00     0.251 C 
ATOM      8  H   UNL A   1      42.161  24.431  25.960  1.00  0.00     0.163 HD
BRANCH   7   9
ATOM      9  C   UNL A   1      42.667  27.610  26.747  1.00  0.00     0.039 A 
ATOM     10  C   UNL A   1      43.681  27.635  27.709  1.00  0.00     0.014 A 
ATOM     11  C   UNL A   1      41.754  28.658  26.630  1.00  0.00     0.014 A 
ATOM     12  C   UNL A   1      43.718  28.666  28.632  1.00  0.00     0.010 A 
ATOM     13  C   UNL A   1      41.861  29.746  27.495  1.00  0.00     0.010 A 
ATOM     14  C   UNL A   1      42.845  29.755  28.497  1.00  0.00    -0.014 A 
BRANCH  14  15
ATOM     15  C   UNL A   1      43.098  30.970  29.302  1.00  0.00     0.031 A 
ATOM     16  C   UNL A   1      42.302  31.274  30.533  1.00  0.00     0.074 A 
ATOM     17  C   UNL A   1      44.066  31.801  28.866  1.00  0.00     0.049 A 
ATOM     18  N   UNL A   1      42.359  32.330  31.300  1.00  0.00    -0.248 NA
ATOM     19  C   UNL A   1      41.310  30.275  30.958  1.00  0.00     0.031 C 
ATOM     20  C   UNL A   1      44.885  31.578  27.666  1.00  0.00     0.029 A 
ATOM     21  N   UNL A   1      44.532  32.988  29.362  1.00  0.00    -0.354 N 
ATOM     22  C   UNL A   1      41.394  32.144  32.282  1.00  0.00     0.074 A 
ATOM     23  C   UNL A   1      40.761  30.870  32.011  1.00  0.00     0.031 C 
ATOM     24  C   UNL A   1      45.767  32.576  27.539  1.00  0.00     0.029 A 
ATOM     25  C   UNL A   1      45.513  33.557  28.582  1.00  0.00     0.049 A 
ATOM     26  H   UNL A   1      44.198  33.394  30.193  1.00  0.00     0.167 HD
ATOM     27  C   UNL A   1      41.072  32.975  33.302  1.00  0.00     0.034 A 
ATOM     28  C   UNL A   1      46.102  34.763  28.661  1.00  0.00     0.034 A 
ATOM     29  C   UNL A   1      41.738  34.233  33.543  1.00  0.00     0.049 A 
ATOM     30  C   UNL A   1      45.683  35.679  29.776  1.00  0.00     0.074 A 
ATOM     31  C   UNL A   1      41.554  35.115  34.594  1.00  0.00     0.029 A 
ATOM     32  N   UNL A   1      42.697  34.799  32.713  1.00  0.00    -0.354 N 
ATOM     33  N   UNL A   1      44.806  35.462  30.730  1.00  0.00    -0.248 NA
ATOM     34  C   UNL A   1      46.319  36.998  29.824  1.00  0.00     0.031 C 
ATOM     35  C   UNL A   1      42.340  36.247  34.357  1.00  0.00     0.029 A 
ATOM     36  C   UNL A   1      43.072  36.043  33.198  1.00  0.00     0.049 A 
ATOM     37  H   UNL A   1      43.057  34.379  31.899  1.00  0.00     0.167 HD
ATOM     38  C   UNL A   1      44.791  36.621  31.496  1.00  0.00     0.074 A 
ATOM     39  C   UNL A   1      45.771  37.515  30.912  1.00  0.00     0.031 C 
ATOM     40  C   UNL A   1      44.033  36.924  32.579  1.00  0.00     0.034 A 
BRANCH  27  41
ATOM     41  C   UNL A   1      39.923  32.592  34.201  1.00  0.00     0.023 A 
ATOM     42  C   UNL A   1      38.668  33.220  34.125  1.00  0.00     0.031 A 
ATOM     43  C   UNL A   1      40.082  31.542  35.124  1.00  0.00     0.131 A 
ATOM     44  C   UNL A   1      37.631  32.812  34.980  1.00  0.00     0.055 A 
ATOM     45  C   UNL A   1      39.030  31.103  35.930  1.00  0.00     0.041 A 
ATOM     46  F   UNL A   1      41.264  30.920  35.253  1.00  0.00    -0.206 F 
ATOM     47  C   UNL A   1      37.797  31.742  35.864  1.00  0.00     0.022 A 
BRANCH  44  48
ATOM     48  S   UNL A   1      36.079  33.751  34.978  1.00  0.00     0.124 S 
ATOM     49  O   UNL A   1      35.833  33.919  36.408  1.00  0.00    -0.237 OA
ATOM     50  O   UNL A   1      36.441  34.959  34.247  1.00  0.00    -0.237 OA
ATOM     51  O   UNL A   1      35.142  32.864  34.293  1.00  0.00    -0.744 OA
ENDBRANCH  44  48
ENDBRANCH  27  41
BRANCH  28  52
ATOM     52  C   UNL A   1      47.073  35.199  27.618  1.00  0.00     0.023 A 
ATOM     53  C   UNL A   1      48.426  34.845  27.696  1.00  0.00     0.031 A 
ATOM     54  C   UNL A   1      46.665  36.012  26.543  1.00  0.00     0.131 A 
ATOM     55  C   UNL A   1      49.333  35.344  26.749  1.00  0.00     0.055 A 
ATOM     56  C   UNL A   1      47.559  36.451  25.566  1.00  0.00     0.041 A 
ATOM     57  F   UNL A   1      45.380  36.382  26.418  1.00  0.00    -0.206 F 
ATOM     58  C   UNL A   1      48.907  36.131  25.676  1.00  0.00     0.022 A 
BRANCH  55  59
ATOM     59  S   UNL A   1      51.102  35.046  27.009  1.00  0.00     0.124 S 
ATOM     60  O   UNL A   1      51.701  35.890  25.981  1.00  0.00    -0.237 OA
ATOM     61  O   UNL A   1      51.283  35.490  28.387  1.00  0.00    -0.237 OA
ATOM     62  O   UNL A   1      51.239  33.608  26.794  1.00  0.00    -0.744 OA
ENDBRANCH  55  59
ENDBRANCH  28  52
BRANCH  40  63
ATOM     63  C   UNL A   1      44.259  38.280  33.193  1.00  0.00     0.023 A 
ATOM     64  C   UNL A   1      43.389  39.352  32.930  1.00  0.00     0.031 A 
ATOM     65  C   UNL A   1      45.365  38.507  34.029  1.00  0.00     0.131 A 
ATOM     66  C   UNL A   1      43.670  40.619  33.456  1.00  0.00     0.055 A 
ATOM     67  C   UNL A   1      45.605  39.756  34.600  1.00  0.00     0.041 A 
ATOM     68  F   UNL A   1      46.228  37.516  34.305  1.00  0.00    -0.206 F 
ATOM     69  C   UNL A   1      44.762  40.825  34.304  1.00  0.00     0.022 A 
BRANCH  66  70
ATOM     70  S   UNL A   1      42.633  42.018  32.952  1.00  0.00     0.124 S 
ATOM     71  O   UNL A   1      41.968  42.367  34.203  1.00  0.00    -0.237 OA
ATOM     72  O   UNL A   1      43.617  42.979  32.463  1.00  0.00    -0.237 OA
ATOM     73  O   UNL A   1      41.763  41.447  31.925  1.00  0.00    -0.744 OA
ENDBRANCH  66  70
ENDBRANCH  40  63
ENDBRANCH  14  15
ENDBRANCH   7   9
ENDBRANCH   4   5
ENDBRANCH   3   4
ENDBRANCH   2   3
ENDBRANCH   1   2
BRANCH   1  74
ATOM     74  C   UNL A   1      38.857  28.215  29.624  1.00  0.00     0.021 C 
BRANCH  74  75
ATOM     75  C   UNL A   1      38.157  28.647  28.344  1.00  0.00     0.116 C 
BRANCH  75  76
ATOM     76  N   UNL A   1      38.166  30.076  28.167  1.00  0.00    -0.356 N 
ATOM     77  C   UNL A   1      37.358  31.048  28.636  1.00  0.00     0.224 C 
ATOM     78  H   UNL A   1      38.899  30.404  27.598  1.00  0.00     0.163 HD
ATOM     79  O   UNL A   1      37.730  32.207  28.384  1.00  0.00    -0.275 OA
BRANCH  77  80
ATOM     80  C   UNL A   1      36.026  30.870  29.376  1.00  0.00     0.095 C 
ATOM     81  C   UNL A   1      36.428  30.640  30.854  1.00  0.00     0.041 C 
ATOM     82  C   UNL A   1      34.802  31.796  29.346  1.00  0.00     0.095 C 
ATOM     83  C   UNL A   1      36.733  31.939  31.533  1.00  0.00    -0.030 C 
ATOM     84  C   UNL A   1      34.892  33.052  30.262  1.00  0.00     0.041 C 
ATOM     85  C   UNL A   1      36.026  33.042  31.255  1.00  0.00    -0.030 C 
BRANCH  82  86
ATOM     86  C   UNL A   1      33.887  32.089  28.150  1.00  0.00     0.228 C 
ATOM     87  O   UNL A   1      33.683  33.291  27.888  1.00  0.00    -0.274 OA
ATOM     88  N   UNL A   1      33.351  31.260  27.232  1.00  0.00    -0.326 N 
ATOM     89  H   UNL A   1      32.898  31.758  26.514  1.00  0.00     0.169 HD
BRANCH  88  90
ATOM     90  C   UNL A   1      33.272  29.887  27.034  1.00  0.00     0.041 A 
ATOM     91  C   UNL A   1      32.046  29.305  27.349  1.00  0.00     0.027 A 
ATOM     92  C   UNL A   1      34.302  29.078  26.582  1.00  0.00     0.027 A 
ATOM     93  C   UNL A   1      31.778  27.995  26.966  1.00  0.00     0.024 A 
ATOM     94  C   UNL A   1      34.049  27.743  26.223  1.00  0.00     0.024 A 
ATOM     95  C   UNL A   1      32.757  27.234  26.323  1.00  0.00     0.088 A 
BRANCH  95  96
ATOM     96  S   UNL A   1      32.351  25.553  25.946  1.00  0.00     0.264 S 
ATOM     97  O   UNL A   1      33.325  24.754  26.664  1.00  0.00    -0.201 OA
ATOM     98  O   UNL A   1      30.934  25.431  26.246  1.00  0.00    -0.201 OA
BRANCH  96  99
ATOM     99  N   UNL A   1      32.525  25.256  24.198  1.00  0.00    -0.266 N 
ATOM    100  C   UNL A   1      32.106  23.868  23.754  1.00  0.00     0.140 C 
ATOM    101  C   UNL A   1      31.496  26.088  23.582  1.00  0.00     0.055 A 
ATOM    102  C   UNL A   1      30.569  23.897  23.608  1.00  0.00     0.060 C 
ATOM    103  C   UNL A   1      30.306  25.365  23.489  1.00  0.00    -0.022 A 
ATOM    104  C   UNL A   1      31.526  27.470  23.530  1.00  0.00     0.027 A 
ATOM    105  C   UNL A   1      29.092  26.026  23.561  1.00  0.00     0.006 A 
ATOM    106  C   UNL A   1      30.307  28.142  23.581  1.00  0.00     0.002 A 
ATOM    107  C   UNL A   1      29.103  27.424  23.649  1.00  0.00     0.000 A 
ENDBRANCH  96  99
ENDBRANCH  95  96
ENDBRANCH  88  90
ENDBRANCH  82  86
ENDBRANCH  77  80
ENDBRANCH  75  76
ENDBRANCH  74  75
ENDBRANCH   1  74
TORSDOF 20
ENDMDL
