MODEL 1
REMARK VINA RESULT:     -10.6      0.000      0.000
REMARK SMILES C[C@H](Oc1ccccc1[N+](=O)[O-])C(=O)N1CCC[C@H](C(=O)NCCCCCCNC(=O)c2ccc(-c3c4nc(c(-c5cc(S(=O)(=O)[O-])ccc5F)c5ccc([nH]5)c(-c5cc(S(=O)(=O)[O-])ccc5F)c5nc(c(-c6cc(S(=O)(=O)[O-])ccc6F)c6ccc3[nH]6)C=C5)C=C4)cc2)C1
REMARK SMILES IDX 24 1 23 2 22 3 20 4 21 5 19 7 15 8 16 9 95 10 17 11 18 12
REMARK SMILES IDX 13 13 14 14 2 15 1 16 3 17 4 18 5 19 9 20 6 21 8 22 7 23
REMARK SMILES IDX 10 24 11 25 12 26 25 27 26 28 27 29 28 30 29 31 30 32 31 34
REMARK SMILES IDX 32 35 33 36 94 37 34 38 93 39 35 40 36 41 37 42 87 43 38 44
REMARK SMILES IDX 92 45 86 46 88 47 39 48 91 49 85 50 84 51 40 53 72 54 52 55
REMARK SMILES IDX 71 56 53 57 56 58 70 59 89 60 54 61 55 62 69 64 90 65 57 66
REMARK SMILES IDX 41 67 42 68 50 69 43 70 49 71 51 72 48 73 44 74 45 75 46 76
REMARK SMILES IDX 47 77 73 78 74 79 82 80 75 81 81 82 83 83 80 84 76 85 77 86
REMARK SMILES IDX 78 87 79 88 58 89 59 90 67 91 60 92 66 93 68 94 65 95 61 96
REMARK SMILES IDX 62 97 63 98 64 99
REMARK H PARENT 22 6 29 33 88 52 56 63
REMARK Flexibility Score: inf
ROOT
ATOM      1  C   UNL A   1      35.339  30.682  27.720  1.00  0.00     0.021 C 
ENDROOT
BRANCH   1   2
ATOM      2  C   UNL A   1      34.092  30.329  26.914  1.00  0.00     0.116 C 
BRANCH   2   3
ATOM      3  N   UNL A   1      34.269  29.182  26.050  1.00  0.00    -0.356 N 
ATOM      4  C   UNL A   1      33.358  28.390  25.431  1.00  0.00     0.224 C 
ATOM      5  O   UNL A   1      33.806  27.568  24.621  1.00  0.00    -0.275 OA
ATOM      6  H   UNL A   1      35.207  28.936  25.884  1.00  0.00     0.163 HD
BRANCH   4   7
ATOM      7  C   UNL A   1      31.849  28.415  25.710  1.00  0.00     0.098 C 
ATOM      8  N   UNL A   1      30.657  26.215  25.537  1.00  0.00    -0.339 N 
ATOM      9  C   UNL A   1      29.781  26.701  24.480  1.00  0.00     0.119 C 
ATOM     10  C   UNL A   1      31.279  27.187  26.425  1.00  0.00     0.133 C 
ATOM     11  C   UNL A   1      30.382  27.840  23.666  1.00  0.00     0.022 C 
ATOM     12  C   UNL A   1      31.006  28.924  24.536  1.00  0.00     0.017 C 
BRANCH   8  13
ATOM     13  C   UNL A   1      30.841  24.842  25.698  1.00  0.00     0.263 C 
ATOM     14  O   UNL A   1      30.351  24.243  26.658  1.00  0.00    -0.271 OA
BRANCH  13  15
ATOM     15  C   UNL A   1      31.962  24.195  24.846  1.00  0.00     0.259 C 
ATOM     16  C   UNL A   1      31.180  23.415  23.784  1.00  0.00     0.064 C 
BRANCH  15  17
ATOM     17  O   UNL A   1      32.862  23.480  25.689  1.00  0.00    -0.474 OA
BRANCH  17  18
ATOM     18  C   UNL A   1      34.173  23.206  25.458  1.00  0.00     0.197 A 
ATOM     19  C   UNL A   1      35.207  24.140  25.516  1.00  0.00     0.054 A 
ATOM     20  C   UNL A   1      34.503  21.915  24.997  1.00  0.00     0.310 A 
ATOM     21  C   UNL A   1      36.476  23.859  24.991  1.00  0.00     0.004 A 
ATOM     22  C   UNL A   1      35.778  21.626  24.473  1.00  0.00     0.090 A 
ATOM     23  C   UNL A   1      36.754  22.616  24.440  1.00  0.00     0.007 A 
BRANCH  20  24
ATOM     24  N   UNL A   1      33.546  20.803  25.081  1.00  0.00     0.066 N 
ATOM     25  O   UNL A   1      33.329  20.325  26.207  1.00  0.00    -0.258 OA
ATOM     26  O   UNL A   1      32.967  20.436  24.050  1.00  0.00    -0.258 OA
ENDBRANCH  20  24
ENDBRANCH  17  18
ENDBRANCH  15  17
ENDBRANCH  13  15
ENDBRANCH   8  13
ENDBRANCH   4   7
ENDBRANCH   2   3
ENDBRANCH   1   2
BRANCH   1  27
ATOM     27  C   UNL A   1      35.170  31.895  28.634  1.00  0.00     0.002 C 
BRANCH  27  28
ATOM     28  C   UNL A   1      35.682  33.227  28.068  1.00  0.00     0.002 C 
BRANCH  28  29
ATOM     29  C   UNL A   1      34.698  34.399  28.107  1.00  0.00     0.021 C 
BRANCH  29  30
ATOM     30  C   UNL A   1      33.310  34.073  28.651  1.00  0.00     0.116 C 
BRANCH  30  31
ATOM     31  N   UNL A   1      32.895  35.000  29.693  1.00  0.00    -0.352 N 
ATOM     32  C   UNL A   1      33.312  35.114  30.993  1.00  0.00     0.251 C 
ATOM     33  H   UNL A   1      32.205  35.648  29.420  1.00  0.00     0.163 HD
ATOM     34  O   UNL A   1      32.676  35.829  31.769  1.00  0.00    -0.269 OA
BRANCH  32  35
ATOM     35  C   UNL A   1      34.503  34.381  31.470  1.00  0.00     0.039 A 
ATOM     36  C   UNL A   1      34.331  33.120  32.051  1.00  0.00     0.014 A 
ATOM     37  C   UNL A   1      35.780  34.942  31.385  1.00  0.00     0.014 A 
ATOM     38  C   UNL A   1      35.443  32.402  32.497  1.00  0.00     0.010 A 
ATOM     39  C   UNL A   1      36.894  34.199  31.770  1.00  0.00     0.010 A 
ATOM     40  C   UNL A   1      36.737  32.924  32.334  1.00  0.00    -0.014 A 
BRANCH  40  41
ATOM     41  C   UNL A   1      37.937  32.153  32.756  1.00  0.00     0.031 A 
ATOM     42  C   UNL A   1      38.607  32.460  34.068  1.00  0.00     0.074 A 
ATOM     43  C   UNL A   1      38.453  31.221  31.932  1.00  0.00     0.049 A 
ATOM     44  N   UNL A   1      39.705  31.961  34.575  1.00  0.00    -0.248 NA
ATOM     45  C   UNL A   1      37.971  33.487  34.906  1.00  0.00     0.031 C 
ATOM     46  C   UNL A   1      37.911  30.861  30.620  1.00  0.00     0.029 A 
ATOM     47  N   UNL A   1      39.556  30.415  32.067  1.00  0.00    -0.354 N 
ATOM     48  C   UNL A   1      39.900  32.621  35.784  1.00  0.00     0.074 A 
ATOM     49  C   UNL A   1      38.837  33.598  35.902  1.00  0.00     0.031 C 
ATOM     50  C   UNL A   1      38.670  29.893  30.081  1.00  0.00     0.029 A 
ATOM     51  C   UNL A   1      39.777  29.595  30.983  1.00  0.00     0.049 A 
ATOM     52  H   UNL A   1      40.134  30.421  32.864  1.00  0.00     0.167 HD
ATOM     53  C   UNL A   1      40.864  32.418  36.717  1.00  0.00     0.034 A 
ATOM     54  C   UNL A   1      40.768  28.714  30.740  1.00  0.00     0.034 A 
ATOM     55  C   UNL A   1      41.908  31.431  36.586  1.00  0.00     0.049 A 
ATOM     56  C   UNL A   1      41.841  28.520  31.781  1.00  0.00     0.074 A 
ATOM     57  C   UNL A   1      42.903  31.102  37.491  1.00  0.00     0.029 A 
ATOM     58  N   UNL A   1      42.099  30.616  35.477  1.00  0.00    -0.354 N 
ATOM     59  N   UNL A   1      41.986  29.122  32.940  1.00  0.00    -0.248 NA
ATOM     60  C   UNL A   1      42.877  27.522  31.486  1.00  0.00     0.031 C 
ATOM     61  C   UNL A   1      43.732  30.140  36.903  1.00  0.00     0.029 A 
ATOM     62  C   UNL A   1      43.213  29.810  35.662  1.00  0.00     0.049 A 
ATOM     63  H   UNL A   1      41.527  30.612  34.675  1.00  0.00     0.167 HD
ATOM     64  C   UNL A   1      43.113  28.550  33.524  1.00  0.00     0.074 A 
ATOM     65  C   UNL A   1      43.598  27.548  32.597  1.00  0.00     0.031 C 
ATOM     66  C   UNL A   1      43.692  28.824  34.722  1.00  0.00     0.034 A 
BRANCH  53  67
ATOM     67  C   UNL A   1      40.842  33.302  37.943  1.00  0.00     0.023 A 
ATOM     68  C   UNL A   1      39.978  33.047  39.023  1.00  0.00     0.031 A 
ATOM     69  C   UNL A   1      41.678  34.430  38.023  1.00  0.00     0.131 A 
ATOM     70  C   UNL A   1      39.911  33.948  40.096  1.00  0.00     0.055 A 
ATOM     71  C   UNL A   1      41.666  35.278  39.134  1.00  0.00     0.041 A 
ATOM     72  F   UNL A   1      42.510  34.738  37.016  1.00  0.00    -0.206 F 
ATOM     73  C   UNL A   1      40.768  35.049  40.171  1.00  0.00     0.022 A 
BRANCH  70  74
ATOM     74  S   UNL A   1      38.586  33.742  41.318  1.00  0.00     0.124 S 
ATOM     75  O   UNL A   1      39.277  33.015  42.380  1.00  0.00    -0.237 OA
ATOM     76  O   UNL A   1      38.221  35.121  41.620  1.00  0.00    -0.237 OA
ATOM     77  O   UNL A   1      37.574  32.969  40.600  1.00  0.00    -0.744 OA
ENDBRANCH  70  74
ENDBRANCH  53  67
BRANCH  54  78
ATOM     78  C   UNL A   1      40.806  27.957  29.456  1.00  0.00     0.023 A 
ATOM     79  C   UNL A   1      41.727  28.284  28.449  1.00  0.00     0.031 A 
ATOM     80  C   UNL A   1      39.894  26.917  29.200  1.00  0.00     0.131 A 
ATOM     81  C   UNL A   1      41.687  27.614  27.217  1.00  0.00     0.055 A 
ATOM     82  C   UNL A   1      39.893  26.216  27.993  1.00  0.00     0.041 A 
ATOM     83  F   UNL A   1      38.993  26.559  30.130  1.00  0.00    -0.206 F 
ATOM     84  C   UNL A   1      40.786  26.572  26.987  1.00  0.00     0.022 A 
BRANCH  81  85
ATOM     85  S   UNL A   1      42.778  28.181  25.883  1.00  0.00     0.124 S 
ATOM     86  O   UNL A   1      44.074  27.685  26.329  1.00  0.00    -0.237 OA
ATOM     87  O   UNL A   1      42.201  27.517  24.718  1.00  0.00    -0.237 OA
ATOM     88  O   UNL A   1      42.621  29.634  25.910  1.00  0.00    -0.744 OA
ENDBRANCH  81  85
ENDBRANCH  54  78
BRANCH  66  89
ATOM     89  C   UNL A   1      44.890  27.990  35.109  1.00  0.00     0.023 A 
ATOM     90  C   UNL A   1      44.761  26.825  35.885  1.00  0.00     0.031 A 
ATOM     91  C   UNL A   1      46.179  28.377  34.703  1.00  0.00     0.131 A 
ATOM     92  C   UNL A   1      45.907  26.118  36.277  1.00  0.00     0.055 A 
ATOM     93  C   UNL A   1      47.310  27.636  35.045  1.00  0.00     0.041 A 
ATOM     94  F   UNL A   1      46.359  29.482  33.962  1.00  0.00    -0.206 F 
ATOM     95  C   UNL A   1      47.180  26.506  35.848  1.00  0.00     0.022 A 
BRANCH  92  96
ATOM     96  S   UNL A   1      45.723  24.732  37.434  1.00  0.00     0.124 S 
ATOM     97  O   UNL A   1      46.007  23.584  36.579  1.00  0.00    -0.237 OA
ATOM     98  O   UNL A   1      46.728  25.036  38.447  1.00  0.00    -0.237 OA
ATOM     99  O   UNL A   1      44.337  24.842  37.884  1.00  0.00    -0.744 OA
ENDBRANCH  92  96
ENDBRANCH  66  89
ENDBRANCH  40  41
ENDBRANCH  32  35
ENDBRANCH  30  31
ENDBRANCH  29  30
ENDBRANCH  28  29
ENDBRANCH  27  28
ENDBRANCH   1  27
TORSDOF 21
ENDMDL
MODEL 2
REMARK VINA RESULT:     -10.2      6.040     10.270
REMARK SMILES C[C@H](Oc1ccccc1[N+](=O)[O-])C(=O)N1CCC[C@H](C(=O)NCCCCCCNC(=O)c2ccc(-c3c4nc(c(-c5cc(S(=O)(=O)[O-])ccc5F)c5ccc([nH]5)c(-c5cc(S(=O)(=O)[O-])ccc5F)c5nc(c(-c6cc(S(=O)(=O)[O-])ccc6F)c6ccc3[nH]6)C=C5)C=C4)cc2)C1
REMARK SMILES IDX 24 1 23 2 22 3 20 4 21 5 19 7 15 8 16 9 95 10 17 11 18 12
REMARK SMILES IDX 13 13 14 14 2 15 1 16 3 17 4 18 5 19 9 20 6 21 8 22 7 23
REMARK SMILES IDX 10 24 11 25 12 26 25 27 26 28 27 29 28 30 29 31 30 32 31 34
REMARK SMILES IDX 32 35 33 36 94 37 34 38 93 39 35 40 36 41 37 42 87 43 38 44
REMARK SMILES IDX 92 45 86 46 88 47 39 48 91 49 85 50 84 51 40 53 72 54 52 55
REMARK SMILES IDX 71 56 53 57 56 58 70 59 89 60 54 61 55 62 69 64 90 65 57 66
REMARK SMILES IDX 41 67 42 68 50 69 43 70 49 71 51 72 48 73 44 74 45 75 46 76
REMARK SMILES IDX 47 77 73 78 74 79 82 80 75 81 81 82 83 83 80 84 76 85 77 86
REMARK SMILES IDX 78 87 79 88 58 89 59 90 67 91 60 92 66 93 68 94 65 95 61 96
REMARK SMILES IDX 62 97 63 98 64 99
REMARK H PARENT 22 6 29 33 88 52 56 63
REMARK Flexibility Score: inf
ROOT
ATOM      1  C   UNL A   1      38.494  22.575  26.154  1.00  0.00     0.021 C 
ENDROOT
BRANCH   1   2
ATOM      2  C   UNL A   1      37.632  23.810  25.907  1.00  0.00     0.116 C 
BRANCH   2   3
ATOM      3  N   UNL A   1      36.842  23.730  24.699  1.00  0.00    -0.356 N 
ATOM      4  C   UNL A   1      35.604  24.208  24.416  1.00  0.00     0.224 C 
ATOM      5  O   UNL A   1      35.238  24.122  23.236  1.00  0.00    -0.275 OA
ATOM      6  H   UNL A   1      37.274  23.248  23.958  1.00  0.00     0.163 HD
BRANCH   4   7
ATOM      7  C   UNL A   1      34.633  24.784  25.456  1.00  0.00     0.098 C 
ATOM      8  N   UNL A   1      32.300  23.865  25.417  1.00  0.00    -0.339 N 
ATOM      9  C   UNL A   1      31.721  25.175  25.151  1.00  0.00     0.119 C 
ATOM     10  C   UNL A   1      33.614  23.801  26.039  1.00  0.00     0.133 C 
ATOM     11  C   UNL A   1      32.676  26.132  24.449  1.00  0.00     0.022 C 
ATOM     12  C   UNL A   1      34.062  26.156  25.082  1.00  0.00     0.017 C 
BRANCH   8  13
ATOM     13  C   UNL A   1      31.568  22.718  25.113  1.00  0.00     0.263 C 
ATOM     14  O   UNL A   1      30.662  22.327  25.853  1.00  0.00    -0.271 OA
BRANCH  13  15
ATOM     15  C   UNL A   1      32.174  21.782  24.037  1.00  0.00     0.259 C 
ATOM     16  C   UNL A   1      31.453  22.218  22.757  1.00  0.00     0.064 C 
BRANCH  15  17
ATOM     17  O   UNL A   1      32.058  20.424  24.453  1.00  0.00    -0.474 OA
BRANCH  17  18
ATOM     18  C   UNL A   1      32.805  19.364  24.043  1.00  0.00     0.197 A 
ATOM     19  C   UNL A   1      32.344  18.329  23.230  1.00  0.00     0.054 A 
ATOM     20  C   UNL A   1      34.099  19.226  24.582  1.00  0.00     0.310 A 
ATOM     21  C   UNL A   1      33.066  17.137  23.085  1.00  0.00     0.004 A 
ATOM     22  C   UNL A   1      34.832  18.031  24.435  1.00  0.00     0.090 A 
ATOM     23  C   UNL A   1      34.293  16.973  23.712  1.00  0.00     0.007 A 
BRANCH  20  24
ATOM     24  N   UNL A   1      34.761  20.334  25.286  1.00  0.00     0.066 N 
ATOM     25  O   UNL A   1      35.698  20.899  24.698  1.00  0.00    -0.258 OA
ATOM     26  O   UNL A   1      34.324  20.685  26.389  1.00  0.00    -0.258 OA
ENDBRANCH  20  24
ENDBRANCH  17  18
ENDBRANCH  15  17
ENDBRANCH  13  15
ENDBRANCH   8  13
ENDBRANCH   4   7
ENDBRANCH   2   3
ENDBRANCH   1   2
BRANCH   1  27
ATOM     27  C   UNL A   1      39.958  22.885  26.463  1.00  0.00     0.002 C 
BRANCH  27  28
ATOM     28  C   UNL A   1      40.527  22.208  27.717  1.00  0.00     0.002 C 
BRANCH  28  29
ATOM     29  C   UNL A   1      41.015  20.767  27.543  1.00  0.00     0.021 C 
BRANCH  29  30
ATOM     30  C   UNL A   1      40.713  20.131  26.189  1.00  0.00     0.116 C 
BRANCH  30  31
ATOM     31  N   UNL A   1      41.869  19.446  25.633  1.00  0.00    -0.352 N 
ATOM     32  C   UNL A   1      43.102  19.932  25.285  1.00  0.00     0.251 C 
ATOM     33  H   UNL A   1      41.747  18.480  25.483  1.00  0.00     0.163 HD
ATOM     34  O   UNL A   1      43.867  19.222  24.629  1.00  0.00    -0.269 OA
BRANCH  32  35
ATOM     35  C   UNL A   1      43.513  21.297  25.676  1.00  0.00     0.039 A 
ATOM     36  C   UNL A   1      43.224  22.360  24.815  1.00  0.00     0.014 A 
ATOM     37  C   UNL A   1      44.214  21.529  26.862  1.00  0.00     0.014 A 
ATOM     38  C   UNL A   1      43.590  23.661  25.170  1.00  0.00     0.010 A 
ATOM     39  C   UNL A   1      44.521  22.833  27.246  1.00  0.00     0.010 A 
ATOM     40  C   UNL A   1      44.217  23.912  26.402  1.00  0.00    -0.014 A 
BRANCH  40  41
ATOM     41  C   UNL A   1      44.569  25.295  26.819  1.00  0.00     0.031 A 
ATOM     42  C   UNL A   1      43.514  26.200  27.396  1.00  0.00     0.074 A 
ATOM     43  C   UNL A   1      45.821  25.751  26.623  1.00  0.00     0.049 A 
ATOM     44  N   UNL A   1      43.601  27.459  27.741  1.00  0.00    -0.248 NA
ATOM     45  C   UNL A   1      42.177  25.616  27.580  1.00  0.00     0.031 C 
ATOM     46  C   UNL A   1      46.920  24.977  26.040  1.00  0.00     0.029 A 
ATOM     47  N   UNL A   1      46.381  26.978  26.880  1.00  0.00    -0.354 N 
ATOM     48  C   UNL A   1      42.329  27.823  28.171  1.00  0.00     0.074 A 
ATOM     49  C   UNL A   1      41.478  26.666  27.985  1.00  0.00     0.031 C 
ATOM     50  C   UNL A   1      48.023  25.740  26.002  1.00  0.00     0.029 A 
ATOM     51  C   UNL A   1      47.705  27.069  26.514  1.00  0.00     0.049 A 
ATOM     52  H   UNL A   1      45.882  27.722  27.289  1.00  0.00     0.167 HD
ATOM     53  C   UNL A   1      41.914  29.006  28.690  1.00  0.00     0.034 A 
ATOM     54  C   UNL A   1      48.559  28.110  26.571  1.00  0.00     0.034 A 
ATOM     55  C   UNL A   1      42.780  30.144  28.878  1.00  0.00     0.049 A 
ATOM     56  C   UNL A   1      48.071  29.422  27.131  1.00  0.00     0.074 A 
ATOM     57  C   UNL A   1      42.481  31.372  29.445  1.00  0.00     0.029 A 
ATOM     58  N   UNL A   1      44.116  30.200  28.500  1.00  0.00    -0.354 N 
ATOM     59  N   UNL A   1      46.875  29.737  27.575  1.00  0.00    -0.248 NA
ATOM     60  C   UNL A   1      49.049  30.514  27.208  1.00  0.00     0.031 C 
ATOM     61  C   UNL A   1      43.613  32.189  29.346  1.00  0.00     0.029 A 
ATOM     62  C   UNL A   1      44.643  31.449  28.791  1.00  0.00     0.049 A 
ATOM     63  H   UNL A   1      44.615  29.459  28.085  1.00  0.00     0.167 HD
ATOM     64  C   UNL A   1      46.969  31.055  28.012  1.00  0.00     0.074 A 
ATOM     65  C   UNL A   1      48.340  31.468  27.792  1.00  0.00     0.031 C 
ATOM     66  C   UNL A   1      46.010  31.851  28.553  1.00  0.00     0.034 A 
BRANCH  53  67
ATOM     67  C   UNL A   1      40.454  29.129  29.062  1.00  0.00     0.023 A 
ATOM     68  C   UNL A   1      40.025  29.080  30.401  1.00  0.00     0.031 A 
ATOM     69  C   UNL A   1      39.474  29.270  28.064  1.00  0.00     0.131 A 
ATOM     70  C   UNL A   1      38.655  29.091  30.700  1.00  0.00     0.055 A 
ATOM     71  C   UNL A   1      38.114  29.364  28.375  1.00  0.00     0.041 A 
ATOM     72  F   UNL A   1      39.817  29.303  26.767  1.00  0.00    -0.206 F 
ATOM     73  C   UNL A   1      37.697  29.259  29.698  1.00  0.00     0.022 A 
BRANCH  70  74
ATOM     74  S   UNL A   1      38.137  28.734  32.402  1.00  0.00     0.124 S 
ATOM     75  O   UNL A   1      39.047  29.580  33.169  1.00  0.00    -0.237 OA
ATOM     76  O   UNL A   1      36.737  29.139  32.396  1.00  0.00    -0.237 OA
ATOM     77  O   UNL A   1      38.372  27.297  32.537  1.00  0.00    -0.744 OA
ENDBRANCH  70  74
ENDBRANCH  53  67
BRANCH  54  78
ATOM     78  C   UNL A   1      49.958  27.967  26.075  1.00  0.00     0.023 A 
ATOM     79  C   UNL A   1      50.249  28.025  24.703  1.00  0.00     0.031 A 
ATOM     80  C   UNL A   1      51.022  27.730  26.964  1.00  0.00     0.131 A 
ATOM     81  C   UNL A   1      51.560  27.802  24.255  1.00  0.00     0.055 A 
ATOM     82  C   UNL A   1      52.334  27.562  26.517  1.00  0.00     0.041 A 
ATOM     83  F   UNL A   1      50.801  27.668  28.287  1.00  0.00    -0.206 F 
ATOM     84  C   UNL A   1      52.607  27.585  25.153  1.00  0.00     0.022 A 
BRANCH  81  85
ATOM     85  S   UNL A   1      51.864  27.714  22.469  1.00  0.00     0.124 S 
ATOM     86  O   UNL A   1      52.368  29.053  22.188  1.00  0.00    -0.237 OA
ATOM     87  O   UNL A   1      52.836  26.629  22.380  1.00  0.00    -0.237 OA
ATOM     88  O   UNL A   1      50.546  27.414  21.913  1.00  0.00    -0.744 OA
ENDBRANCH  81  85
ENDBRANCH  54  78
BRANCH  66  89
ATOM     89  C   UNL A   1      46.433  33.235  28.983  1.00  0.00     0.023 A 
ATOM     90  C   UNL A   1      46.408  34.326  28.097  1.00  0.00     0.031 A 
ATOM     91  C   UNL A   1      46.878  33.460  30.298  1.00  0.00     0.131 A 
ATOM     92  C   UNL A   1      46.873  35.580  28.520  1.00  0.00     0.055 A 
ATOM     93  C   UNL A   1      47.282  34.723  30.731  1.00  0.00     0.041 A 
ATOM     94  F   UNL A   1      46.924  32.453  31.185  1.00  0.00    -0.206 F 
ATOM     95  C   UNL A   1      47.293  35.790  29.837  1.00  0.00     0.022 A 
BRANCH  92  96
ATOM     96  S   UNL A   1      47.006  36.917  27.301  1.00  0.00     0.124 S 
ATOM     97  O   UNL A   1      46.600  36.247  26.070  1.00  0.00    -0.237 OA
ATOM     98  O   UNL A   1      46.073  37.909  27.824  1.00  0.00    -0.237 OA
ATOM     99  O   UNL A   1      48.415  37.300  27.364  1.00  0.00    -0.744 OA
ENDBRANCH  92  96
ENDBRANCH  66  89
ENDBRANCH  40  41
ENDBRANCH  32  35
ENDBRANCH  30  31
ENDBRANCH  29  30
ENDBRANCH  28  29
ENDBRANCH  27  28
ENDBRANCH   1  27
TORSDOF 21
ENDMDL
MODEL 3
REMARK VINA RESULT:     -10.0      1.604      3.285
REMARK SMILES C[C@H](Oc1ccccc1[N+](=O)[O-])C(=O)N1CCC[C@H](C(=O)NCCCCCCNC(=O)c2ccc(-c3c4nc(c(-c5cc(S(=O)(=O)[O-])ccc5F)c5ccc([nH]5)c(-c5cc(S(=O)(=O)[O-])ccc5F)c5nc(c(-c6cc(S(=O)(=O)[O-])ccc6F)c6ccc3[nH]6)C=C5)C=C4)cc2)C1
REMARK SMILES IDX 24 1 23 2 22 3 20 4 21 5 19 7 15 8 16 9 95 10 17 11 18 12
REMARK SMILES IDX 13 13 14 14 2 15 1 16 3 17 4 18 5 19 9 20 6 21 8 22 7 23
REMARK SMILES IDX 10 24 11 25 12 26 25 27 26 28 27 29 28 30 29 31 30 32 31 34
REMARK SMILES IDX 32 35 33 36 94 37 34 38 93 39 35 40 36 41 37 42 87 43 38 44
REMARK SMILES IDX 92 45 86 46 88 47 39 48 91 49 85 50 84 51 40 53 72 54 52 55
REMARK SMILES IDX 71 56 53 57 56 58 70 59 89 60 54 61 55 62 69 64 90 65 57 66
REMARK SMILES IDX 41 67 42 68 50 69 43 70 49 71 51 72 48 73 44 74 45 75 46 76
REMARK SMILES IDX 47 77 73 78 74 79 82 80 75 81 81 82 83 83 80 84 76 85 77 86
REMARK SMILES IDX 78 87 79 88 58 89 59 90 67 91 60 92 66 93 68 94 65 95 61 96
REMARK SMILES IDX 62 97 63 98 64 99
REMARK H PARENT 22 6 29 33 88 52 56 63
REMARK Flexibility Score: inf
ROOT
ATOM      1  C   UNL A   1      35.367  30.087  27.558  1.00  0.00     0.021 C 
ENDROOT
BRANCH   1   2
ATOM      2  C   UNL A   1      34.401  28.943  27.260  1.00  0.00     0.116 C 
BRANCH   2   3
ATOM      3  N   UNL A   1      34.516  28.428  25.914  1.00  0.00    -0.356 N 
ATOM      4  C   UNL A   1      33.922  27.363  25.319  1.00  0.00     0.224 C 
ATOM      5  O   UNL A   1      34.093  27.250  24.098  1.00  0.00    -0.275 OA
ATOM      6  H   UNL A   1      35.127  28.934  25.332  1.00  0.00     0.163 HD
BRANCH   4   7
ATOM      7  C   UNL A   1      33.118  26.286  26.061  1.00  0.00     0.098 C 
ATOM      8  N   UNL A   1      31.134  25.353  24.843  1.00  0.00    -0.339 N 
ATOM      9  C   UNL A   1      30.211  25.792  25.881  1.00  0.00     0.119 C 
ATOM     10  C   UNL A   1      32.535  25.168  25.193  1.00  0.00     0.133 C 
ATOM     11  C   UNL A   1      30.712  26.992  26.674  1.00  0.00     0.022 C 
ATOM     12  C   UNL A   1      32.162  26.843  27.121  1.00  0.00     0.017 C 
BRANCH   8  13
ATOM     13  C   UNL A   1      30.649  25.081  23.564  1.00  0.00     0.263 C 
ATOM     14  O   UNL A   1      30.424  23.924  23.202  1.00  0.00    -0.271 OA
BRANCH  13  15
ATOM     15  C   UNL A   1      30.757  26.230  22.531  1.00  0.00     0.259 C 
ATOM     16  C   UNL A   1      31.942  25.800  21.660  1.00  0.00     0.064 C 
BRANCH  15  17
ATOM     17  O   UNL A   1      30.829  27.485  23.204  1.00  0.00    -0.474 OA
BRANCH  17  18
ATOM     18  C   UNL A   1      29.840  28.407  23.346  1.00  0.00     0.197 A 
ATOM     19  C   UNL A   1      28.532  28.254  22.887  1.00  0.00     0.054 A 
ATOM     20  C   UNL A   1      30.188  29.666  23.876  1.00  0.00     0.310 A 
ATOM     21  C   UNL A   1      27.653  29.342  22.808  1.00  0.00     0.004 A 
ATOM     22  C   UNL A   1      29.306  30.763  23.803  1.00  0.00     0.090 A 
ATOM     23  C   UNL A   1      28.048  30.602  23.234  1.00  0.00     0.007 A 
BRANCH  20  24
ATOM     24  N   UNL A   1      31.469  29.882  24.565  1.00  0.00     0.066 N 
ATOM     25  O   UNL A   1      32.504  29.726  23.897  1.00  0.00    -0.258 OA
ATOM     26  O   UNL A   1      31.455  30.258  25.744  1.00  0.00    -0.258 OA
ENDBRANCH  20  24
ENDBRANCH  17  18
ENDBRANCH  15  17
ENDBRANCH  13  15
ENDBRANCH   8  13
ENDBRANCH   4   7
ENDBRANCH   2   3
ENDBRANCH   1   2
BRANCH   1  27
ATOM     27  C   UNL A   1      34.688  31.370  28.036  1.00  0.00     0.002 C 
BRANCH  27  28
ATOM     28  C   UNL A   1      35.552  32.638  27.973  1.00  0.00     0.002 C 
BRANCH  28  29
ATOM     29  C   UNL A   1      34.795  33.969  27.965  1.00  0.00     0.021 C 
BRANCH  29  30
ATOM     30  C   UNL A   1      33.324  33.891  28.365  1.00  0.00     0.116 C 
BRANCH  30  31
ATOM     31  N   UNL A   1      32.976  34.876  29.377  1.00  0.00    -0.352 N 
ATOM     32  C   UNL A   1      33.435  35.028  30.659  1.00  0.00     0.251 C 
ATOM     33  H   UNL A   1      32.304  35.540  29.096  1.00  0.00     0.163 HD
ATOM     34  O   UNL A   1      32.850  35.800  31.421  1.00  0.00    -0.269 OA
BRANCH  32  35
ATOM     35  C   UNL A   1      34.610  34.268  31.134  1.00  0.00     0.039 A 
ATOM     36  C   UNL A   1      34.414  32.998  31.685  1.00  0.00     0.014 A 
ATOM     37  C   UNL A   1      35.895  34.815  31.077  1.00  0.00     0.014 A 
ATOM     38  C   UNL A   1      35.512  32.255  32.128  1.00  0.00     0.010 A 
ATOM     39  C   UNL A   1      36.995  34.048  31.459  1.00  0.00     0.010 A 
ATOM     40  C   UNL A   1      36.814  32.763  31.992  1.00  0.00    -0.014 A 
BRANCH  40  41
ATOM     41  C   UNL A   1      37.998  31.967  32.412  1.00  0.00     0.031 A 
ATOM     42  C   UNL A   1      38.695  32.278  33.709  1.00  0.00     0.074 A 
ATOM     43  C   UNL A   1      38.478  31.007  31.597  1.00  0.00     0.049 A 
ATOM     44  N   UNL A   1      39.786  31.758  34.209  1.00  0.00    -0.248 NA
ATOM     45  C   UNL A   1      38.099  33.337  34.537  1.00  0.00     0.031 C 
ATOM     46  C   UNL A   1      37.907  30.639  30.299  1.00  0.00     0.029 A 
ATOM     47  N   UNL A   1      39.559  30.173  31.731  1.00  0.00    -0.354 N 
ATOM     48  C   UNL A   1      40.016  32.434  35.403  1.00  0.00     0.074 A 
ATOM     49  C   UNL A   1      38.982  33.441  35.519  1.00  0.00     0.031 C 
ATOM     50  C   UNL A   1      38.631  29.642  29.767  1.00  0.00     0.029 A 
ATOM     51  C   UNL A   1      39.743  29.329  30.659  1.00  0.00     0.049 A 
ATOM     52  H   UNL A   1      40.149  30.177  32.521  1.00  0.00     0.167 HD
ATOM     53  C   UNL A   1      40.987  32.220  36.327  1.00  0.00     0.034 A 
ATOM     54  C   UNL A   1      40.706  28.417  30.418  1.00  0.00     0.034 A 
ATOM     55  C   UNL A   1      42.002  31.203  36.199  1.00  0.00     0.049 A 
ATOM     56  C   UNL A   1      41.788  28.212  31.448  1.00  0.00     0.074 A 
ATOM     57  C   UNL A   1      43.000  30.862  37.096  1.00  0.00     0.029 A 
ATOM     58  N   UNL A   1      42.155  30.364  35.102  1.00  0.00    -0.354 N 
ATOM     59  N   UNL A   1      41.966  28.829  32.594  1.00  0.00    -0.248 NA
ATOM     60  C   UNL A   1      42.792  27.181  31.156  1.00  0.00     0.031 C 
ATOM     61  C   UNL A   1      43.794  29.868  36.514  1.00  0.00     0.029 A 
ATOM     62  C   UNL A   1      43.249  29.531  35.287  1.00  0.00     0.049 A 
ATOM     63  H   UNL A   1      41.572  30.362  34.308  1.00  0.00     0.167 HD
ATOM     64  C   UNL A   1      43.085  28.237  33.173  1.00  0.00     0.074 A 
ATOM     65  C   UNL A   1      43.529  27.207  32.257  1.00  0.00     0.031 C 
ATOM     66  C   UNL A   1      43.688  28.516  34.357  1.00  0.00     0.034 A 
BRANCH  53  67
ATOM     67  C   UNL A   1      41.007  33.125  37.537  1.00  0.00     0.023 A 
ATOM     68  C   UNL A   1      40.352  32.777  38.732  1.00  0.00     0.031 A 
ATOM     69  C   UNL A   1      41.667  34.366  37.489  1.00  0.00     0.131 A 
ATOM     70  C   UNL A   1      40.303  33.688  39.797  1.00  0.00     0.055 A 
ATOM     71  C   UNL A   1      41.685  35.234  38.584  1.00  0.00     0.041 A 
ATOM     72  F   UNL A   1      42.293  34.764  36.371  1.00  0.00    -0.206 F 
ATOM     73  C   UNL A   1      40.987  34.904  39.741  1.00  0.00     0.022 A 
BRANCH  70  74
ATOM     74  S   UNL A   1      39.210  33.324  41.199  1.00  0.00     0.124 S 
ATOM     75  O   UNL A   1      38.981  31.892  41.028  1.00  0.00    -0.237 OA
ATOM     76  O   UNL A   1      40.026  33.711  42.343  1.00  0.00    -0.237 OA
ATOM     77  O   UNL A   1      38.042  34.168  40.950  1.00  0.00    -0.744 OA
ENDBRANCH  70  74
ENDBRANCH  53  67
BRANCH  54  78
ATOM     78  C   UNL A   1      40.705  27.637  29.148  1.00  0.00     0.023 A 
ATOM     79  C   UNL A   1      41.610  27.932  28.116  1.00  0.00     0.031 A 
ATOM     80  C   UNL A   1      39.772  26.607  28.929  1.00  0.00     0.131 A 
ATOM     81  C   UNL A   1      41.534  27.241  26.898  1.00  0.00     0.055 A 
ATOM     82  C   UNL A   1      39.735  25.886  27.735  1.00  0.00     0.041 A 
ATOM     83  F   UNL A   1      38.885  26.281  29.883  1.00  0.00    -0.206 F 
ATOM     84  C   UNL A   1      40.612  26.210  26.705  1.00  0.00     0.022 A 
BRANCH  81  85
ATOM     85  S   UNL A   1      42.605  27.767  25.532  1.00  0.00     0.124 S 
ATOM     86  O   UNL A   1      43.864  28.018  26.222  1.00  0.00    -0.237 OA
ATOM     87  O   UNL A   1      42.573  26.601  24.655  1.00  0.00    -0.237 OA
ATOM     88  O   UNL A   1      41.931  28.954  25.009  1.00  0.00    -0.744 OA
ENDBRANCH  81  85
ENDBRANCH  54  78
BRANCH  66  89
ATOM     89  C   UNL A   1      44.868  27.657  34.743  1.00  0.00     0.023 A 
ATOM     90  C   UNL A   1      44.705  26.436  35.421  1.00  0.00     0.031 A 
ATOM     91  C   UNL A   1      46.175  28.074  34.435  1.00  0.00     0.131 A 
ATOM     92  C   UNL A   1      45.832  25.703  35.818  1.00  0.00     0.055 A 
ATOM     93  C   UNL A   1      47.290  27.310  34.780  1.00  0.00     0.041 A 
ATOM     94  F   UNL A   1      46.388  29.233  33.791  1.00  0.00    -0.206 F 
ATOM     95  C   UNL A   1      47.123  26.123  35.487  1.00  0.00     0.022 A 
BRANCH  92  96
ATOM     96  S   UNL A   1      45.595  24.233  36.856  1.00  0.00     0.124 S 
ATOM     97  O   UNL A   1      44.959  24.797  38.041  1.00  0.00    -0.237 OA
ATOM     98  O   UNL A   1      44.746  23.393  36.017  1.00  0.00    -0.237 OA
ATOM     99  O   UNL A   1      46.953  23.732  37.058  1.00  0.00    -0.744 OA
ENDBRANCH  92  96
ENDBRANCH  66  89
ENDBRANCH  40  41
ENDBRANCH  32  35
ENDBRANCH  30  31
ENDBRANCH  29  30
ENDBRANCH  28  29
ENDBRANCH  27  28
ENDBRANCH   1  27
TORSDOF 21
ENDMDL
