MODEL 1
REMARK VINA RESULT:     -11.1      0.000      0.000
REMARK SMILES C/C(=C\CN1CC(=O)N2CCC[C@H]2C1=O)C(=O)NCCCCCCNC(=O)c1ccc(-c2c3nc(c(-c4cc(S(=O)(=O)[O-])ccc4F)c4ccc([nH]4)c(-c4cc(S(=O)(=O)[O-])ccc4F)c4nc(c(-c5cc(S(=O)(=O)[O-])ccc5F)c5ccc2[nH]5)C=C4)C=C3)cc1
REMARK SMILES IDX 22 1 21 2 20 3 19 4 18 5 16 6 17 7 2 9 1 10 3 11 4 12 5 13
REMARK SMILES IDX 6 14 14 15 7 16 13 17 15 18 8 19 9 20 12 21 10 22 11 23
REMARK SMILES IDX 23 24 24 25 25 26 26 27 27 29 28 30 29 31 90 32 30 33 89 34
REMARK SMILES IDX 31 35 32 36 33 37 83 38 34 39 88 40 82 41 84 42 35 43 87 44
REMARK SMILES IDX 81 45 80 46 36 48 68 49 48 50 67 51 49 52 52 53 66 54 85 55
REMARK SMILES IDX 50 56 51 57 65 59 86 60 53 61 37 62 38 63 46 64 39 65 45 66
REMARK SMILES IDX 47 67 44 68 40 69 41 70 42 71 43 72 69 73 70 74 78 75 71 76
REMARK SMILES IDX 77 77 79 78 76 79 72 80 73 81 74 82 75 83 54 84 55 85 63 86
REMARK SMILES IDX 56 87 62 88 64 89 61 90 57 91 58 92 59 93 60 94
REMARK H PARENT 18 8 25 28 84 47 52 58
REMARK Flexibility Score: inf
ROOT
ATOM      1  C   UNL A   1      31.507  28.221  25.716  1.00  0.00     0.002 C 
ENDROOT
BRANCH   1   2
ATOM      2  C   UNL A   1      31.347  29.325  24.666  1.00  0.00     0.002 C 
BRANCH   2   3
ATOM      3  C   UNL A   1      31.640  28.941  23.217  1.00  0.00     0.021 C 
BRANCH   3   4
ATOM      4  C   UNL A   1      33.106  28.773  22.836  1.00  0.00     0.116 C 
BRANCH   4   5
ATOM      5  N   UNL A   1      33.370  27.668  21.934  1.00  0.00    -0.352 N 
ATOM      6  C   UNL A   1      33.312  26.317  22.120  1.00  0.00     0.246 C 
ATOM      7  O   UNL A   1      33.566  25.586  21.161  1.00  0.00    -0.270 OA
ATOM      8  H   UNL A   1      33.638  27.940  21.027  1.00  0.00     0.163 HD
BRANCH   6   9
ATOM      9  C   UNL A   1      33.046  25.699  23.465  1.00  0.00     0.012 C 
ATOM     10  C   UNL A   1      31.645  25.174  23.607  1.00  0.00     0.050 C 
ATOM     11  C   UNL A   1      33.963  25.699  24.453  1.00  0.00     0.003 C 
BRANCH  11  12
ATOM     12  C   UNL A   1      33.875  25.082  25.817  1.00  0.00     0.148 C 
BRANCH  12  13
ATOM     13  N   UNL A   1      33.992  23.627  25.762  1.00  0.00    -0.328 N 
ATOM     14  C   UNL A   1      32.844  22.839  26.242  1.00  0.00     0.220 C 
ATOM     15  C   UNL A   1      35.255  23.007  25.784  1.00  0.00     0.246 C 
ATOM     16  C   UNL A   1      32.754  21.467  25.567  1.00  0.00     0.242 C 
ATOM     17  C   UNL A   1      35.202  21.472  25.886  1.00  0.00     0.174 C 
ATOM     18  O   UNL A   1      36.316  23.621  25.862  1.00  0.00    -0.272 OA
ATOM     19  O   UNL A   1      31.695  20.875  25.391  1.00  0.00    -0.273 OA
ATOM     20  N   UNL A   1      33.988  20.920  25.305  1.00  0.00    -0.329 N 
ATOM     21  C   UNL A   1      36.304  20.744  25.124  1.00  0.00     0.037 C 
ATOM     22  C   UNL A   1      34.218  19.660  24.633  1.00  0.00     0.120 C 
ATOM     23  C   UNL A   1      35.689  19.361  24.894  1.00  0.00     0.024 C 
ENDBRANCH  12  13
ENDBRANCH  11  12
ENDBRANCH   6   9
ENDBRANCH   4   5
ENDBRANCH   3   4
ENDBRANCH   2   3
ENDBRANCH   1   2
BRANCH   1  24
ATOM     24  C   UNL A   1      32.589  28.428  26.781  1.00  0.00     0.021 C 
BRANCH  24  25
ATOM     25  C   UNL A   1      33.780  29.294  26.376  1.00  0.00     0.116 C 
BRANCH  25  26
ATOM     26  N   UNL A   1      33.643  30.673  26.804  1.00  0.00    -0.352 N 
ATOM     27  C   UNL A   1      34.401  31.410  27.681  1.00  0.00     0.251 C 
ATOM     28  H   UNL A   1      32.885  31.158  26.403  1.00  0.00     0.163 HD
ATOM     29  O   UNL A   1      34.003  32.522  28.020  1.00  0.00    -0.269 OA
BRANCH  27  30
ATOM     30  C   UNL A   1      35.670  30.879  28.237  1.00  0.00     0.039 A 
ATOM     31  C   UNL A   1      35.614  29.756  29.069  1.00  0.00     0.014 A 
ATOM     32  C   UNL A   1      36.901  31.497  27.994  1.00  0.00     0.014 A 
ATOM     33  C   UNL A   1      36.788  29.227  29.613  1.00  0.00     0.010 A 
ATOM     34  C   UNL A   1      38.079  30.931  28.487  1.00  0.00     0.010 A 
ATOM     35  C   UNL A   1      38.035  29.792  29.306  1.00  0.00    -0.014 A 
BRANCH  35  36
ATOM     36  C   UNL A   1      39.293  29.204  29.841  1.00  0.00     0.031 A 
ATOM     37  C   UNL A   1      39.963  29.806  31.048  1.00  0.00     0.074 A 
ATOM     38  C   UNL A   1      39.856  28.152  29.214  1.00  0.00     0.049 A 
ATOM     39  N   UNL A   1      41.081  29.459  31.635  1.00  0.00    -0.248 NA
ATOM     40  C   UNL A   1      39.301  30.967  31.658  1.00  0.00     0.031 C 
ATOM     41  C   UNL A   1      39.327  27.506  28.011  1.00  0.00     0.029 A 
ATOM     42  N   UNL A   1      40.998  27.443  29.494  1.00  0.00    -0.354 N 
ATOM     43  C   UNL A   1      41.262  30.364  32.676  1.00  0.00     0.074 A 
ATOM     44  C   UNL A   1      40.165  31.308  32.602  1.00  0.00     0.031 C 
ATOM     45  C   UNL A   1      40.130  26.485  27.670  1.00  0.00     0.029 A 
ATOM     46  C   UNL A   1      41.249  26.424  28.604  1.00  0.00     0.049 A 
ATOM     47  H   UNL A   1      41.583  27.645  30.259  1.00  0.00     0.167 HD
ATOM     48  C   UNL A   1      42.238  30.392  33.619  1.00  0.00     0.034 A 
ATOM     49  C   UNL A   1      42.268  25.544  28.543  1.00  0.00     0.034 A 
ATOM     50  C   UNL A   1      43.318  29.436  33.689  1.00  0.00     0.049 A 
ATOM     51  C   UNL A   1      43.343  25.598  29.598  1.00  0.00     0.074 A 
ATOM     52  C   UNL A   1      44.326  29.339  34.633  1.00  0.00     0.029 A 
ATOM     53  N   UNL A   1      43.534  28.412  32.776  1.00  0.00    -0.354 N 
ATOM     54  N   UNL A   1      43.471  26.429  30.606  1.00  0.00    -0.248 NA
ATOM     55  C   UNL A   1      44.403  24.584  29.515  1.00  0.00     0.031 C 
ATOM     56  C   UNL A   1      45.185  28.300  34.257  1.00  0.00     0.029 A 
ATOM     57  C   UNL A   1      44.674  27.699  33.118  1.00  0.00     0.049 A 
ATOM     58  H   UNL A   1      42.962  28.219  31.999  1.00  0.00     0.167 HD
ATOM     59  C   UNL A   1      44.610  26.019  31.293  1.00  0.00     0.074 A 
ATOM     60  C   UNL A   1      45.121  24.857  30.593  1.00  0.00     0.031 C 
ATOM     61  C   UNL A   1      45.183  26.552  32.403  1.00  0.00     0.034 A 
BRANCH  48  62
ATOM     62  C   UNL A   1      42.193  31.513  34.633  1.00  0.00     0.023 A 
ATOM     63  C   UNL A   1      41.257  31.522  35.682  1.00  0.00     0.031 A 
ATOM     64  C   UNL A   1      43.082  32.598  34.536  1.00  0.00     0.131 A 
ATOM     65  C   UNL A   1      41.180  32.626  36.544  1.00  0.00     0.055 A 
ATOM     66  C   UNL A   1      43.053  33.657  35.446  1.00  0.00     0.041 A 
ATOM     67  F   UNL A   1      43.986  32.656  33.545  1.00  0.00    -0.206 F 
ATOM     68  C   UNL A   1      42.088  33.684  36.449  1.00  0.00     0.022 A 
BRANCH  65  69
ATOM     69  S   UNL A   1      39.786  32.729  37.700  1.00  0.00     0.124 S 
ATOM     70  O   UNL A   1      39.200  34.019  37.340  1.00  0.00    -0.237 OA
ATOM     71  O   UNL A   1      39.001  31.551  37.354  1.00  0.00    -0.237 OA
ATOM     72  O   UNL A   1      40.427  32.690  39.013  1.00  0.00    -0.744 OA
ENDBRANCH  65  69
ENDBRANCH  48  62
BRANCH  49  73
ATOM     73  C   UNL A   1      42.332  24.539  27.444  1.00  0.00     0.023 A 
ATOM     74  C   UNL A   1      41.706  23.288  27.570  1.00  0.00     0.031 A 
ATOM     75  C   UNL A   1      43.055  24.800  26.267  1.00  0.00     0.131 A 
ATOM     76  C   UNL A   1      41.854  22.327  26.557  1.00  0.00     0.055 A 
ATOM     77  C   UNL A   1      43.157  23.860  25.240  1.00  0.00     0.041 A 
ATOM     78  F   UNL A   1      43.666  25.982  26.094  1.00  0.00    -0.206 F 
ATOM     79  C   UNL A   1      42.565  22.609  25.389  1.00  0.00     0.022 A 
BRANCH  76  80
ATOM     80  S   UNL A   1      41.170  20.669  26.828  1.00  0.00     0.124 S 
ATOM     81  O   UNL A   1      42.299  19.819  26.474  1.00  0.00    -0.237 OA
ATOM     82  O   UNL A   1      40.820  20.716  28.244  1.00  0.00    -0.237 OA
ATOM     83  O   UNL A   1      40.034  20.617  25.909  1.00  0.00    -0.744 OA
ENDBRANCH  76  80
ENDBRANCH  49  73
BRANCH  61  84
ATOM     84  C   UNL A   1      46.405  25.850  32.943  1.00  0.00     0.023 A 
ATOM     85  C   UNL A   1      47.694  26.135  32.459  1.00  0.00     0.031 A 
ATOM     86  C   UNL A   1      46.273  24.863  33.935  1.00  0.00     0.131 A 
ATOM     87  C   UNL A   1      48.794  25.397  32.924  1.00  0.00     0.055 A 
ATOM     88  C   UNL A   1      47.378  24.173  34.437  1.00  0.00     0.041 A 
ATOM     89  F   UNL A   1      45.066  24.549  34.431  1.00  0.00    -0.206 F 
ATOM     90  C   UNL A   1      48.645  24.428  33.920  1.00  0.00     0.022 A 
BRANCH  87  91
ATOM     91  S   UNL A   1      50.408  25.652  32.138  1.00  0.00     0.124 S 
ATOM     92  O   UNL A   1      51.284  24.831  32.968  1.00  0.00    -0.237 OA
ATOM     93  O   UNL A   1      50.175  25.164  30.783  1.00  0.00    -0.237 OA
ATOM     94  O   UNL A   1      50.621  27.093  32.249  1.00  0.00    -0.744 OA
ENDBRANCH  87  91
ENDBRANCH  61  84
ENDBRANCH  35  36
ENDBRANCH  27  30
ENDBRANCH  25  26
ENDBRANCH  24  25
ENDBRANCH   1  24
TORSDOF 18
ENDMDL
MODEL 2
REMARK VINA RESULT:     -11.0      4.861      9.992
REMARK SMILES C/C(=C\CN1CC(=O)N2CCC[C@H]2C1=O)C(=O)NCCCCCCNC(=O)c1ccc(-c2c3nc(c(-c4cc(S(=O)(=O)[O-])ccc4F)c4ccc([nH]4)c(-c4cc(S(=O)(=O)[O-])ccc4F)c4nc(c(-c5cc(S(=O)(=O)[O-])ccc5F)c5ccc2[nH]5)C=C4)C=C3)cc1
REMARK SMILES IDX 22 1 21 2 20 3 19 4 18 5 16 6 17 7 2 9 1 10 3 11 4 12 5 13
REMARK SMILES IDX 6 14 14 15 7 16 13 17 15 18 8 19 9 20 12 21 10 22 11 23
REMARK SMILES IDX 23 24 24 25 25 26 26 27 27 29 28 30 29 31 90 32 30 33 89 34
REMARK SMILES IDX 31 35 32 36 33 37 83 38 34 39 88 40 82 41 84 42 35 43 87 44
REMARK SMILES IDX 81 45 80 46 36 48 68 49 48 50 67 51 49 52 52 53 66 54 85 55
REMARK SMILES IDX 50 56 51 57 65 59 86 60 53 61 37 62 38 63 46 64 39 65 45 66
REMARK SMILES IDX 47 67 44 68 40 69 41 70 42 71 43 72 69 73 70 74 78 75 71 76
REMARK SMILES IDX 77 77 79 78 76 79 72 80 73 81 74 82 75 83 54 84 55 85 63 86
REMARK SMILES IDX 56 87 62 88 64 89 61 90 57 91 58 92 59 93 60 94
REMARK H PARENT 18 8 25 28 84 47 52 58
REMARK Flexibility Score: inf
ROOT
ATOM      1  C   UNL A   1      34.984  20.156  24.863  1.00  0.00     0.002 C 
ENDROOT
BRANCH   1   2
ATOM      2  C   UNL A   1      33.459  20.025  24.922  1.00  0.00     0.002 C 
BRANCH   2   3
ATOM      3  C   UNL A   1      32.660  20.850  23.914  1.00  0.00     0.021 C 
BRANCH   3   4
ATOM      4  C   UNL A   1      31.764  21.944  24.481  1.00  0.00     0.116 C 
BRANCH   4   5
ATOM      5  N   UNL A   1      31.804  22.066  25.926  1.00  0.00    -0.352 N 
ATOM      6  C   UNL A   1      32.079  23.129  26.736  1.00  0.00     0.246 C 
ATOM      7  O   UNL A   1      32.017  22.963  27.956  1.00  0.00    -0.270 OA
ATOM      8  H   UNL A   1      31.595  21.233  26.409  1.00  0.00     0.163 HD
BRANCH   6   9
ATOM      9  C   UNL A   1      32.544  24.454  26.197  1.00  0.00     0.012 C 
ATOM     10  C   UNL A   1      34.036  24.538  26.043  1.00  0.00     0.050 C 
ATOM     11  C   UNL A   1      31.695  25.473  25.957  1.00  0.00     0.003 C 
BRANCH  11  12
ATOM     12  C   UNL A   1      31.988  26.823  25.373  1.00  0.00     0.148 C 
BRANCH  12  13
ATOM     13  N   UNL A   1      30.921  27.270  24.480  1.00  0.00    -0.328 N 
ATOM     14  C   UNL A   1      29.842  26.312  24.186  1.00  0.00     0.220 C 
ATOM     15  C   UNL A   1      31.152  28.291  23.540  1.00  0.00     0.246 C 
ATOM     16  C   UNL A   1      28.520  27.007  23.847  1.00  0.00     0.242 C 
ATOM     17  C   UNL A   1      29.982  28.529  22.569  1.00  0.00     0.174 C 
ATOM     18  O   UNL A   1      32.234  28.854  23.396  1.00  0.00    -0.272 OA
ATOM     19  O   UNL A   1      27.423  26.505  24.071  1.00  0.00    -0.273 OA
ATOM     20  N   UNL A   1      28.697  28.180  23.154  1.00  0.00    -0.329 N 
ATOM     21  C   UNL A   1      29.782  29.984  22.157  1.00  0.00     0.037 C 
ATOM     22  C   UNL A   1      27.637  29.075  22.741  1.00  0.00     0.120 C 
ATOM     23  C   UNL A   1      28.308  30.013  21.744  1.00  0.00     0.024 C 
ENDBRANCH  12  13
ENDBRANCH  11  12
ENDBRANCH   6   9
ENDBRANCH   4   5
ENDBRANCH   3   4
ENDBRANCH   2   3
ENDBRANCH   1   2
BRANCH   1  24
ATOM     24  C   UNL A   1      35.552  21.568  24.688  1.00  0.00     0.021 C 
BRANCH  24  25
ATOM     25  C   UNL A   1      36.622  21.996  25.690  1.00  0.00     0.116 C 
BRANCH  25  26
ATOM     26  N   UNL A   1      37.655  20.993  25.869  1.00  0.00    -0.352 N 
ATOM     27  C   UNL A   1      38.990  21.135  26.158  1.00  0.00     0.251 C 
ATOM     28  H   UNL A   1      37.350  20.062  25.767  1.00  0.00     0.163 HD
ATOM     29  O   UNL A   1      39.718  20.147  26.105  1.00  0.00    -0.269 OA
BRANCH  27  30
ATOM     30  C   UNL A   1      39.565  22.458  26.508  1.00  0.00     0.039 A 
ATOM     31  C   UNL A   1      40.599  22.506  27.449  1.00  0.00     0.014 A 
ATOM     32  C   UNL A   1      39.071  23.648  25.964  1.00  0.00     0.014 A 
ATOM     33  C   UNL A   1      41.166  23.734  27.805  1.00  0.00     0.010 A 
ATOM     34  C   UNL A   1      39.680  24.866  26.274  1.00  0.00     0.010 A 
ATOM     35  C   UNL A   1      40.731  24.923  27.201  1.00  0.00    -0.014 A 
BRANCH  35  36
ATOM     36  C   UNL A   1      41.364  26.227  27.539  1.00  0.00     0.031 A 
ATOM     37  C   UNL A   1      42.748  26.554  27.042  1.00  0.00     0.074 A 
ATOM     38  C   UNL A   1      40.710  27.100  28.330  1.00  0.00     0.049 A 
ATOM     39  N   UNL A   1      43.479  27.618  27.264  1.00  0.00    -0.248 NA
ATOM     40  C   UNL A   1      43.405  25.538  26.208  1.00  0.00     0.031 C 
ATOM     41  C   UNL A   1      39.383  26.882  28.909  1.00  0.00     0.029 A 
ATOM     42  N   UNL A   1      41.070  28.344  28.789  1.00  0.00    -0.354 N 
ATOM     43  C   UNL A   1      44.685  27.396  26.606  1.00  0.00     0.074 A 
ATOM     44  C   UNL A   1      44.604  26.071  26.026  1.00  0.00     0.031 C 
ATOM     45  C   UNL A   1      39.033  27.961  29.627  1.00  0.00     0.029 A 
ATOM     46  C   UNL A   1      40.120  28.933  29.592  1.00  0.00     0.049 A 
ATOM     47  H   UNL A   1      41.927  28.772  28.565  1.00  0.00     0.167 HD
ATOM     48  C   UNL A   1      45.750  28.227  26.479  1.00  0.00     0.034 A 
ATOM     49  C   UNL A   1      40.128  30.118  30.233  1.00  0.00     0.034 A 
ATOM     50  C   UNL A   1      45.811  29.552  27.052  1.00  0.00     0.049 A 
ATOM     51  C   UNL A   1      41.324  31.024  30.081  1.00  0.00     0.074 A 
ATOM     52  C   UNL A   1      46.816  30.497  26.938  1.00  0.00     0.029 A 
ATOM     53  N   UNL A   1      44.826  30.119  27.851  1.00  0.00    -0.354 N 
ATOM     54  N   UNL A   1      42.435  30.819  29.412  1.00  0.00    -0.248 NA
ATOM     55  C   UNL A   1      41.259  32.325  30.758  1.00  0.00     0.031 C 
ATOM     56  C   UNL A   1      46.470  31.606  27.718  1.00  0.00     0.029 A 
ATOM     57  C   UNL A   1      45.214  31.387  28.261  1.00  0.00     0.049 A 
ATOM     58  H   UNL A   1      43.976  29.685  28.093  1.00  0.00     0.167 HD
ATOM     59  C   UNL A   1      43.189  31.979  29.567  1.00  0.00     0.074 A 
ATOM     60  C   UNL A   1      42.397  32.883  30.376  1.00  0.00     0.031 C 
ATOM     61  C   UNL A   1      44.423  32.273  29.081  1.00  0.00     0.034 A 
BRANCH  48  62
ATOM     62  C   UNL A   1      46.947  27.712  25.713  1.00  0.00     0.023 A 
ATOM     63  C   UNL A   1      47.169  28.062  24.369  1.00  0.00     0.031 A 
ATOM     64  C   UNL A   1      47.864  26.841  26.325  1.00  0.00     0.131 A 
ATOM     65  C   UNL A   1      48.235  27.486  23.661  1.00  0.00     0.055 A 
ATOM     66  C   UNL A   1      48.970  26.333  25.638  1.00  0.00     0.041 A 
ATOM     67  F   UNL A   1      47.695  26.454  27.600  1.00  0.00    -0.206 F 
ATOM     68  C   UNL A   1      49.152  26.642  24.294  1.00  0.00     0.022 A 
BRANCH  65  69
ATOM     69  S   UNL A   1      48.324  27.741  21.868  1.00  0.00     0.124 S 
ATOM     70  O   UNL A   1      47.006  28.305  21.585  1.00  0.00    -0.237 OA
ATOM     71  O   UNL A   1      49.452  28.655  21.735  1.00  0.00    -0.237 OA
ATOM     72  O   UNL A   1      48.544  26.396  21.341  1.00  0.00    -0.744 OA
ENDBRANCH  65  69
ENDBRANCH  48  62
BRANCH  49  73
ATOM     73  C   UNL A   1      38.972  30.523  31.083  1.00  0.00     0.023 A 
ATOM     74  C   UNL A   1      37.955  31.349  30.577  1.00  0.00     0.031 A 
ATOM     75  C   UNL A   1      38.890  30.123  32.429  1.00  0.00     0.131 A 
ATOM     76  C   UNL A   1      36.924  31.787  31.423  1.00  0.00     0.055 A 
ATOM     77  C   UNL A   1      37.835  30.520  33.252  1.00  0.00     0.041 A 
ATOM     78  F   UNL A   1      39.832  29.329  32.959  1.00  0.00    -0.206 F 
ATOM     79  C   UNL A   1      36.851  31.368  32.753  1.00  0.00     0.022 A 
BRANCH  76  80
ATOM     80  S   UNL A   1      35.721  32.982  30.778  1.00  0.00     0.124 S 
ATOM     81  O   UNL A   1      36.135  34.210  31.443  1.00  0.00    -0.237 OA
ATOM     82  O   UNL A   1      35.970  32.913  29.342  1.00  0.00    -0.237 OA
ATOM     83  O   UNL A   1      34.436  32.437  31.212  1.00  0.00    -0.744 OA
ENDBRANCH  76  80
ENDBRANCH  49  73
BRANCH  61  84
ATOM     84  C   UNL A   1      44.966  33.647  29.388  1.00  0.00     0.023 A 
ATOM     85  C   UNL A   1      44.791  34.726  28.503  1.00  0.00     0.031 A 
ATOM     86  C   UNL A   1      45.693  33.872  30.571  1.00  0.00     0.131 A 
ATOM     87  C   UNL A   1      45.388  35.964  28.785  1.00  0.00     0.055 A 
ATOM     88  C   UNL A   1      46.235  35.122  30.873  1.00  0.00     0.041 A 
ATOM     89  F   UNL A   1      45.892  32.877  31.450  1.00  0.00    -0.206 F 
ATOM     90  C   UNL A   1      46.097  36.172  29.971  1.00  0.00     0.022 A 
BRANCH  87  91
ATOM     91  S   UNL A   1      45.311  37.272  27.531  1.00  0.00     0.124 S 
ATOM     92  O   UNL A   1      44.007  37.033  26.920  1.00  0.00    -0.237 OA
ATOM     93  O   UNL A   1      45.424  38.483  28.336  1.00  0.00    -0.237 OA
ATOM     94  O   UNL A   1      46.459  36.991  26.671  1.00  0.00    -0.744 OA
ENDBRANCH  87  91
ENDBRANCH  61  84
ENDBRANCH  35  36
ENDBRANCH  27  30
ENDBRANCH  25  26
ENDBRANCH  24  25
ENDBRANCH   1  24
TORSDOF 18
ENDMDL
MODEL 3
REMARK VINA RESULT:     -10.7      1.555      2.180
REMARK SMILES C/C(=C\CN1CC(=O)N2CCC[C@H]2C1=O)C(=O)NCCCCCCNC(=O)c1ccc(-c2c3nc(c(-c4cc(S(=O)(=O)[O-])ccc4F)c4ccc([nH]4)c(-c4cc(S(=O)(=O)[O-])ccc4F)c4nc(c(-c5cc(S(=O)(=O)[O-])ccc5F)c5ccc2[nH]5)C=C4)C=C3)cc1
REMARK SMILES IDX 22 1 21 2 20 3 19 4 18 5 16 6 17 7 2 9 1 10 3 11 4 12 5 13
REMARK SMILES IDX 6 14 14 15 7 16 13 17 15 18 8 19 9 20 12 21 10 22 11 23
REMARK SMILES IDX 23 24 24 25 25 26 26 27 27 29 28 30 29 31 90 32 30 33 89 34
REMARK SMILES IDX 31 35 32 36 33 37 83 38 34 39 88 40 82 41 84 42 35 43 87 44
REMARK SMILES IDX 81 45 80 46 36 48 68 49 48 50 67 51 49 52 52 53 66 54 85 55
REMARK SMILES IDX 50 56 51 57 65 59 86 60 53 61 37 62 38 63 46 64 39 65 45 66
REMARK SMILES IDX 47 67 44 68 40 69 41 70 42 71 43 72 69 73 70 74 78 75 71 76
REMARK SMILES IDX 77 77 79 78 76 79 72 80 73 81 74 82 75 83 54 84 55 85 63 86
REMARK SMILES IDX 56 87 62 88 64 89 61 90 57 91 58 92 59 93 60 94
REMARK H PARENT 18 8 25 28 84 47 52 58
REMARK Flexibility Score: inf
ROOT
ATOM      1  C   UNL A   1      33.374  28.879  24.768  1.00  0.00     0.002 C 
ENDROOT
BRANCH   1   2
ATOM      2  C   UNL A   1      33.877  28.193  23.494  1.00  0.00     0.002 C 
BRANCH   2   3
ATOM      3  C   UNL A   1      32.871  28.037  22.356  1.00  0.00     0.021 C 
BRANCH   3   4
ATOM      4  C   UNL A   1      32.037  26.761  22.348  1.00  0.00     0.116 C 
BRANCH   4   5
ATOM      5  N   UNL A   1      30.631  26.960  22.643  1.00  0.00    -0.352 N 
ATOM      6  C   UNL A   1      29.877  26.613  23.727  1.00  0.00     0.246 C 
ATOM      7  O   UNL A   1      28.686  26.931  23.733  1.00  0.00    -0.270 OA
ATOM      8  H   UNL A   1      30.131  27.430  21.937  1.00  0.00     0.163 HD
BRANCH   6   9
ATOM      9  C   UNL A   1      30.422  25.781  24.854  1.00  0.00     0.012 C 
ATOM     10  C   UNL A   1      30.730  26.585  26.086  1.00  0.00     0.050 C 
ATOM     11  C   UNL A   1      30.673  24.464  24.722  1.00  0.00     0.003 C 
BRANCH  11  12
ATOM     12  C   UNL A   1      31.159  23.490  25.756  1.00  0.00     0.148 C 
BRANCH  12  13
ATOM     13  N   UNL A   1      32.489  22.979  25.436  1.00  0.00    -0.328 N 
ATOM     14  C   UNL A   1      33.497  23.955  24.988  1.00  0.00     0.220 C 
ATOM     15  C   UNL A   1      32.669  21.639  25.044  1.00  0.00     0.246 C 
ATOM     16  C   UNL A   1      34.926  23.511  25.316  1.00  0.00     0.242 C 
ATOM     17  C   UNL A   1      34.099  21.304  24.584  1.00  0.00     0.174 C 
ATOM     18  O   UNL A   1      31.750  20.832  24.933  1.00  0.00    -0.272 OA
ATOM     19  O   UNL A   1      35.841  24.301  25.526  1.00  0.00    -0.273 OA
ATOM     20  N   UNL A   1      35.098  22.152  25.218  1.00  0.00    -0.329 N 
ATOM     21  C   UNL A   1      34.571  19.899  24.943  1.00  0.00     0.037 C 
ATOM     22  C   UNL A   1      36.322  21.440  25.514  1.00  0.00     0.120 C 
ATOM     23  C   UNL A   1      36.094  20.048  24.935  1.00  0.00     0.024 C 
ENDBRANCH  12  13
ENDBRANCH  11  12
ENDBRANCH   6   9
ENDBRANCH   4   5
ENDBRANCH   3   4
ENDBRANCH   2   3
ENDBRANCH   1   2
BRANCH   1  24
ATOM     24  C   UNL A   1      33.987  28.414  26.093  1.00  0.00     0.021 C 
BRANCH  24  25
ATOM     25  C   UNL A   1      33.325  28.940  27.366  1.00  0.00     0.116 C 
BRANCH  25  26
ATOM     26  N   UNL A   1      33.338  30.388  27.447  1.00  0.00    -0.352 N 
ATOM     27  C   UNL A   1      34.266  31.239  27.997  1.00  0.00     0.251 C 
ATOM     28  H   UNL A   1      32.558  30.833  27.044  1.00  0.00     0.163 HD
ATOM     29  O   UNL A   1      33.993  32.432  28.096  1.00  0.00    -0.269 OA
BRANCH  27  30
ATOM     30  C   UNL A   1      35.573  30.737  28.490  1.00  0.00     0.039 A 
ATOM     31  C   UNL A   1      35.579  29.829  29.555  1.00  0.00     0.014 A 
ATOM     32  C   UNL A   1      36.787  31.185  27.959  1.00  0.00     0.014 A 
ATOM     33  C   UNL A   1      36.790  29.335  30.048  1.00  0.00     0.010 A 
ATOM     34  C   UNL A   1      37.992  30.643  28.411  1.00  0.00     0.010 A 
ATOM     35  C   UNL A   1      38.008  29.716  29.463  1.00  0.00    -0.014 A 
BRANCH  35  36
ATOM     36  C   UNL A   1      39.298  29.156  29.951  1.00  0.00     0.031 A 
ATOM     37  C   UNL A   1      39.994  29.767  31.138  1.00  0.00     0.074 A 
ATOM     38  C   UNL A   1      39.864  28.121  29.298  1.00  0.00     0.049 A 
ATOM     39  N   UNL A   1      41.140  29.444  31.684  1.00  0.00    -0.248 NA
ATOM     40  C   UNL A   1      39.325  30.909  31.778  1.00  0.00     0.031 C 
ATOM     41  C   UNL A   1      39.308  27.469  28.111  1.00  0.00     0.029 A 
ATOM     42  N   UNL A   1      41.031  27.439  29.535  1.00  0.00    -0.354 N 
ATOM     43  C   UNL A   1      41.335  30.348  32.724  1.00  0.00     0.074 A 
ATOM     44  C   UNL A   1      40.214  31.265  32.693  1.00  0.00     0.031 C 
ATOM     45  C   UNL A   1      40.124  26.470  27.735  1.00  0.00     0.029 A 
ATOM     46  C   UNL A   1      41.275  26.431  28.630  1.00  0.00     0.049 A 
ATOM     47  H   UNL A   1      41.637  27.651  30.280  1.00  0.00     0.167 HD
ATOM     48  C   UNL A   1      42.342  30.395  33.632  1.00  0.00     0.034 A 
ATOM     49  C   UNL A   1      42.313  25.577  28.528  1.00  0.00     0.034 A 
ATOM     50  C   UNL A   1      43.447  29.465  33.659  1.00  0.00     0.049 A 
ATOM     51  C   UNL A   1      43.423  25.651  29.546  1.00  0.00     0.074 A 
ATOM     52  C   UNL A   1      44.489  29.388  34.567  1.00  0.00     0.029 A 
ATOM     53  N   UNL A   1      43.656  28.451  32.732  1.00  0.00    -0.354 N 
ATOM     54  N   UNL A   1      43.565  26.479  30.554  1.00  0.00    -0.248 NA
ATOM     55  C   UNL A   1      44.503  24.664  29.419  1.00  0.00     0.031 C 
ATOM     56  C   UNL A   1      45.360  28.372  34.155  1.00  0.00     0.029 A 
ATOM     57  C   UNL A   1      44.824  27.764  33.031  1.00  0.00     0.049 A 
ATOM     58  H   UNL A   1      43.062  28.249  31.974  1.00  0.00     0.167 HD
ATOM     59  C   UNL A   1      44.738  26.094  31.198  1.00  0.00     0.074 A 
ATOM     60  C   UNL A   1      45.251  24.948  30.473  1.00  0.00     0.031 C 
ATOM     61  C   UNL A   1      45.335  26.634  32.291  1.00  0.00     0.034 A 
BRANCH  48  62
ATOM     62  C   UNL A   1      42.306  31.509  34.654  1.00  0.00     0.023 A 
ATOM     63  C   UNL A   1      41.344  31.539  35.678  1.00  0.00     0.031 A 
ATOM     64  C   UNL A   1      43.229  32.567  34.589  1.00  0.00     0.131 A 
ATOM     65  C   UNL A   1      41.278  32.638  36.548  1.00  0.00     0.055 A 
ATOM     66  C   UNL A   1      43.210  33.619  35.507  1.00  0.00     0.041 A 
ATOM     67  F   UNL A   1      44.159  32.605  33.621  1.00  0.00    -0.206 F 
ATOM     68  C   UNL A   1      42.221  33.668  36.485  1.00  0.00     0.022 A 
BRANCH  65  69
ATOM     69  S   UNL A   1      39.860  32.775  37.670  1.00  0.00     0.124 S 
ATOM     70  O   UNL A   1      39.330  34.090  37.314  1.00  0.00    -0.237 OA
ATOM     71  O   UNL A   1      39.042  31.631  37.285  1.00  0.00    -0.237 OA
ATOM     72  O   UNL A   1      40.463  32.693  38.998  1.00  0.00    -0.744 OA
ENDBRANCH  65  69
ENDBRANCH  48  62
BRANCH  49  73
ATOM     73  C   UNL A   1      42.363  24.579  27.421  1.00  0.00     0.023 A 
ATOM     74  C   UNL A   1      41.626  23.385  27.489  1.00  0.00     0.031 A 
ATOM     75  C   UNL A   1      43.181  24.788  26.297  1.00  0.00     0.131 A 
ATOM     76  C   UNL A   1      41.758  22.424  26.475  1.00  0.00     0.055 A 
ATOM     77  C   UNL A   1      43.269  23.851  25.266  1.00  0.00     0.041 A 
ATOM     78  F   UNL A   1      43.900  25.915  26.180  1.00  0.00    -0.206 F 
ATOM     79  C   UNL A   1      42.565  22.654  25.358  1.00  0.00     0.022 A 
BRANCH  76  80
ATOM     80  S   UNL A   1      40.919  20.828  26.677  1.00  0.00     0.124 S 
ATOM     81  O   UNL A   1      39.631  21.087  26.046  1.00  0.00    -0.237 OA
ATOM     82  O   UNL A   1      41.815  19.925  25.963  1.00  0.00    -0.237 OA
ATOM     83  O   UNL A   1      40.881  20.647  28.127  1.00  0.00    -0.744 OA
ENDBRANCH  76  80
ENDBRANCH  49  73
BRANCH  61  84
ATOM     84  C   UNL A   1      46.592  25.960  32.784  1.00  0.00     0.023 A 
ATOM     85  C   UNL A   1      46.547  24.870  33.671  1.00  0.00     0.031 A 
ATOM     86  C   UNL A   1      47.853  26.435  32.380  1.00  0.00     0.131 A 
ATOM     87  C   UNL A   1      47.741  24.329  34.174  1.00  0.00     0.055 A 
ATOM     88  C   UNL A   1      49.037  25.854  32.838  1.00  0.00     0.041 A 
ATOM     89  F   UNL A   1      47.954  27.473  31.536  1.00  0.00    -0.206 F 
ATOM     90  C   UNL A   1      48.985  24.806  33.752  1.00  0.00     0.022 A 
BRANCH  87  91
ATOM     91  S   UNL A   1      47.644  23.060  35.466  1.00  0.00     0.124 S 
ATOM     92  O   UNL A   1      48.506  23.617  36.504  1.00  0.00    -0.237 OA
ATOM     93  O   UNL A   1      46.218  23.032  35.769  1.00  0.00    -0.237 OA
ATOM     94  O   UNL A   1      48.162  21.861  34.808  1.00  0.00    -0.744 OA
ENDBRANCH  87  91
ENDBRANCH  61  84
ENDBRANCH  35  36
ENDBRANCH  27  30
ENDBRANCH  25  26
ENDBRANCH  24  25
ENDBRANCH   1  24
TORSDOF 18
ENDMDL
