MODEL 1
REMARK VINA RESULT:     -10.6      0.000      0.000
REMARK SMILES CC(C)[N@@H+]1CC[C@@H]([N@@H+]2CC[C@@H](C(=O)NCCCCCCNC(=O)c3ccc(-c4c5nc(c(-c6cc(S(=O)(=O)[O-])ccc6F)c6ccc([nH]6)c(-c6cc(S(=O)(=O)[O-])ccc6F)c6nc(c(-c7cc(S(=O)(=O)[O-])ccc7F)c7ccc4[nH]7)C=C6)C=C5)cc3)[C@H]2C)C1
REMARK SMILES IDX 18 1 17 2 16 3 15 4 14 5 12 6 13 7 11 9 8 10 9 11 87 12
REMARK SMILES IDX 10 14 88 15 7 16 4 17 5 18 89 19 6 21 2 22 1 23 3 24 19 25
REMARK SMILES IDX 20 26 21 27 22 28 23 30 24 31 25 32 86 33 26 34 85 35 27 36
REMARK SMILES IDX 28 37 29 38 79 39 30 40 84 41 78 42 80 43 31 44 83 45 77 46
REMARK SMILES IDX 76 47 32 49 64 50 44 51 63 52 45 53 48 54 62 55 81 56 46 57
REMARK SMILES IDX 47 58 61 60 82 61 49 62 33 63 34 64 42 65 35 66 41 67 43 68
REMARK SMILES IDX 40 69 36 70 37 71 38 72 39 73 65 74 66 75 74 76 67 77 73 78
REMARK SMILES IDX 75 79 72 80 68 81 69 82 70 83 71 84 50 85 51 86 59 87 52 88
REMARK SMILES IDX 58 89 60 90 57 91 53 92 54 93 55 94 56 95
REMARK H PARENT 14 8 8 13 4 20 21 29 80 48 48 59
REMARK Flexibility Score: inf
ROOT
ATOM      1  C   UNL A   1      41.070  21.821  27.864  1.00  0.00     0.002 C 
ENDROOT
BRANCH   1   2
ATOM      2  C   UNL A   1      40.708  22.750  26.701  1.00  0.00     0.002 C 
BRANCH   2   3
ATOM      3  C   UNL A   1      39.392  23.519  26.875  1.00  0.00     0.021 C 
BRANCH   3   4
ATOM      4  C   UNL A   1      38.219  22.931  26.091  1.00  0.00     0.116 C 
BRANCH   4   5
ATOM      5  N   UNL A   1      37.114  23.871  26.027  1.00  0.00    -0.356 N 
ATOM      6  C   UNL A   1      35.923  23.797  25.379  1.00  0.00     0.229 C 
ATOM      7  O   UNL A   1      35.247  24.824  25.302  1.00  0.00    -0.275 OA
ATOM      8  H   UNL A   1      37.252  24.700  26.540  1.00  0.00     0.163 HD
BRANCH   6   9
ATOM      9  C   UNL A   1      35.497  22.489  24.746  1.00  0.00     0.142 C 
ATOM     10  N   UNL A   1      33.412  21.250  24.805  1.00  0.00    -0.325 N 
ATOM     11  C   UNL A   1      33.289  22.340  23.828  1.00  0.00     0.263 C 
ATOM     12  C   UNL A   1      34.614  21.569  25.614  1.00  0.00     0.194 C 
ATOM     13  H   UNL A   1      32.561  21.222  25.368  1.00  0.00     0.348 HD
ATOM     14  C   UNL A   1      34.697  22.773  23.481  1.00  0.00     0.081 C 
ATOM     15  C   UNL A   1      34.201  22.102  26.985  1.00  0.00     0.076 C 
BRANCH  10  16
ATOM     16  C   UNL A   1      33.419  19.873  24.267  1.00  0.00     0.245 C 
ATOM     17  N   UNL A   1      33.979  17.778  25.412  1.00  0.00    -0.328 N 
ATOM     18  C   UNL A   1      32.561  18.073  25.607  1.00  0.00     0.269 C 
ATOM     19  C   UNL A   1      34.578  18.965  24.765  1.00  0.00     0.328 C 
ATOM     20  H   UNL A   1      34.410  17.617  26.323  1.00  0.00     0.348 HD
ATOM     21  C   UNL A   1      32.177  19.010  24.485  1.00  0.00     0.132 C 
BRANCH  17  22
ATOM     22  C   UNL A   1      34.291  16.495  24.765  1.00  0.00     0.177 C 
ATOM     23  C   UNL A   1      34.395  16.666  23.241  1.00  0.00     0.075 C 
ATOM     24  C   UNL A   1      35.538  15.768  25.283  1.00  0.00     0.075 C 
ENDBRANCH  17  22
ENDBRANCH  10  16
ENDBRANCH   6   9
ENDBRANCH   4   5
ENDBRANCH   3   4
ENDBRANCH   2   3
ENDBRANCH   1   2
BRANCH   1  25
ATOM     25  C   UNL A   1      41.630  20.459  27.447  1.00  0.00     0.021 C 
BRANCH  25  26
ATOM     26  C   UNL A   1      41.527  20.172  25.954  1.00  0.00     0.116 C 
BRANCH  26  27
ATOM     27  N   UNL A   1      42.726  19.526  25.445  1.00  0.00    -0.352 N 
ATOM     28  C   UNL A   1      43.929  20.090  25.102  1.00  0.00     0.251 C 
ATOM     29  H   UNL A   1      42.666  18.551  25.329  1.00  0.00     0.163 HD
ATOM     30  O   UNL A   1      44.759  19.432  24.479  1.00  0.00    -0.269 OA
BRANCH  28  31
ATOM     31  C   UNL A   1      44.206  21.496  25.467  1.00  0.00     0.039 A 
ATOM     32  C   UNL A   1      43.793  22.514  24.606  1.00  0.00     0.014 A 
ATOM     33  C   UNL A   1      44.858  21.807  26.664  1.00  0.00     0.014 A 
ATOM     34  C   UNL A   1      43.985  23.848  24.973  1.00  0.00     0.010 A 
ATOM     35  C   UNL A   1      44.974  23.134  27.065  1.00  0.00     0.010 A 
ATOM     36  C   UNL A   1      44.543  24.170  26.222  1.00  0.00    -0.014 A 
BRANCH  36  37
ATOM     37  C   UNL A   1      44.690  25.582  26.659  1.00  0.00     0.031 A 
ATOM     38  C   UNL A   1      46.034  26.255  26.588  1.00  0.00     0.074 A 
ATOM     39  C   UNL A   1      43.630  26.238  27.170  1.00  0.00     0.049 A 
ATOM     40  N   UNL A   1      46.384  27.451  26.989  1.00  0.00    -0.248 NA
ATOM     41  C   UNL A   1      47.137  25.468  26.016  1.00  0.00     0.031 C 
ATOM     42  C   UNL A   1      42.284  25.680  27.320  1.00  0.00     0.029 A 
ATOM     43  N   UNL A   1      43.514  27.513  27.665  1.00  0.00    -0.354 N 
ATOM     44  C   UNL A   1      47.746  27.556  26.727  1.00  0.00     0.074 A 
ATOM     45  C   UNL A   1      48.169  26.277  26.197  1.00  0.00     0.031 C 
ATOM     46  C   UNL A   1      41.474  26.616  27.841  1.00  0.00     0.029 A 
ATOM     47  C   UNL A   1      42.250  27.822  28.114  1.00  0.00     0.049 A 
ATOM     48  H   UNL A   1      44.266  28.149  27.696  1.00  0.00     0.167 HD
ATOM     49  C   UNL A   1      48.562  28.626  26.892  1.00  0.00     0.034 A 
ATOM     50  C   UNL A   1      41.773  28.941  28.694  1.00  0.00     0.034 A 
ATOM     51  C   UNL A   1      48.120  29.896  27.416  1.00  0.00     0.049 A 
ATOM     52  C   UNL A   1      42.711  30.104  28.908  1.00  0.00     0.074 A 
ATOM     53  C   UNL A   1      48.849  31.061  27.580  1.00  0.00     0.029 A 
ATOM     54  N   UNL A   1      46.836  30.166  27.873  1.00  0.00    -0.354 N 
ATOM     55  N   UNL A   1      43.987  30.202  28.612  1.00  0.00    -0.248 NA
ATOM     56  C   UNL A   1      42.142  31.308  29.525  1.00  0.00     0.031 C 
ATOM     57  C   UNL A   1      48.031  32.006  28.207  1.00  0.00     0.029 A 
ATOM     58  C   UNL A   1      46.763  31.466  28.352  1.00  0.00     0.049 A 
ATOM     59  H   UNL A   1      46.086  29.528  27.858  1.00  0.00     0.167 HD
ATOM     60  C   UNL A   1      44.361  31.495  28.975  1.00  0.00     0.074 A 
ATOM     61  C   UNL A   1      43.173  32.138  29.497  1.00  0.00     0.031 C 
ATOM     62  C   UNL A   1      45.574  32.095  28.880  1.00  0.00     0.034 A 
BRANCH  49  63
ATOM     63  C   UNL A   1      50.018  28.456  26.526  1.00  0.00     0.023 A 
ATOM     64  C   UNL A   1      50.492  28.728  25.231  1.00  0.00     0.031 A 
ATOM     65  C   UNL A   1      50.943  27.993  27.479  1.00  0.00     0.131 A 
ATOM     66  C   UNL A   1      51.830  28.461  24.902  1.00  0.00     0.055 A 
ATOM     67  C   UNL A   1      52.293  27.813  27.170  1.00  0.00     0.041 A 
ATOM     68  F   UNL A   1      50.548  27.692  28.726  1.00  0.00    -0.206 F 
ATOM     69  C   UNL A   1      52.741  28.032  25.870  1.00  0.00     0.022 A 
BRANCH  66  70
ATOM     70  S   UNL A   1      52.324  28.532  23.158  1.00  0.00     0.124 S 
ATOM     71  O   UNL A   1      53.707  28.990  23.263  1.00  0.00    -0.237 OA
ATOM     72  O   UNL A   1      52.137  27.153  22.722  1.00  0.00    -0.237 OA
ATOM     73  O   UNL A   1      51.397  29.502  22.579  1.00  0.00    -0.744 OA
ENDBRANCH  66  70
ENDBRANCH  49  63
BRANCH  50  74
ATOM     74  C   UNL A   1      40.349  29.022  29.129  1.00  0.00     0.023 A 
ATOM     75  C   UNL A   1      39.998  28.908  30.483  1.00  0.00     0.031 A 
ATOM     76  C   UNL A   1      39.310  29.164  28.190  1.00  0.00     0.131 A 
ATOM     77  C   UNL A   1      38.644  28.886  30.857  1.00  0.00     0.055 A 
ATOM     78  C   UNL A   1      37.968  29.203  28.573  1.00  0.00     0.041 A 
ATOM     79  F   UNL A   1      39.587  29.279  26.881  1.00  0.00    -0.206 F 
ATOM     80  C   UNL A   1      37.629  29.048  29.914  1.00  0.00     0.022 A 
BRANCH  77  81
ATOM     81  S   UNL A   1      38.228  28.538  32.588  1.00  0.00     0.124 S 
ATOM     82  O   UNL A   1      36.927  29.186  32.715  1.00  0.00    -0.237 OA
ATOM     83  O   UNL A   1      38.224  27.079  32.610  1.00  0.00    -0.237 OA
ATOM     84  O   UNL A   1      39.316  29.168  33.332  1.00  0.00    -0.744 OA
ENDBRANCH  77  81
ENDBRANCH  50  74
BRANCH  62  85
ATOM     85  C   UNL A   1      45.663  33.543  29.302  1.00  0.00     0.023 A 
ATOM     86  C   UNL A   1      45.484  34.596  28.389  1.00  0.00     0.031 A 
ATOM     87  C   UNL A   1      45.937  33.871  30.642  1.00  0.00     0.131 A 
ATOM     88  C   UNL A   1      45.639  35.925  28.815  1.00  0.00     0.055 A 
ATOM     89  C   UNL A   1      46.021  35.195  31.074  1.00  0.00     0.041 A 
ATOM     90  F   UNL A   1      46.121  32.906  31.558  1.00  0.00    -0.206 F 
ATOM     91  C   UNL A   1      45.886  36.231  30.156  1.00  0.00     0.022 A 
BRANCH  88  92
ATOM     92  S   UNL A   1      45.610  37.247  27.573  1.00  0.00     0.124 S 
ATOM     93  O   UNL A   1      44.192  37.586  27.525  1.00  0.00    -0.237 OA
ATOM     94  O   UNL A   1      46.487  38.252  28.166  1.00  0.00    -0.237 OA
ATOM     95  O   UNL A   1      46.135  36.600  26.372  1.00  0.00    -0.744 OA
ENDBRANCH  88  92
ENDBRANCH  62  85
ENDBRANCH  36  37
ENDBRANCH  28  31
ENDBRANCH  26  27
ENDBRANCH  25  26
ENDBRANCH   1  25
TORSDOF 18
ENDMDL
MODEL 2
REMARK VINA RESULT:     -10.5      7.337     13.096
REMARK SMILES CC(C)[N@@H+]1CC[C@@H]([N@@H+]2CC[C@@H](C(=O)NCCCCCCNC(=O)c3ccc(-c4c5nc(c(-c6cc(S(=O)(=O)[O-])ccc6F)c6ccc([nH]6)c(-c6cc(S(=O)(=O)[O-])ccc6F)c6nc(c(-c7cc(S(=O)(=O)[O-])ccc7F)c7ccc4[nH]7)C=C6)C=C5)cc3)[C@H]2C)C1
REMARK SMILES IDX 18 1 17 2 16 3 15 4 14 5 12 6 13 7 11 9 8 10 9 11 87 12
REMARK SMILES IDX 10 14 88 15 7 16 4 17 5 18 89 19 6 21 2 22 1 23 3 24 19 25
REMARK SMILES IDX 20 26 21 27 22 28 23 30 24 31 25 32 86 33 26 34 85 35 27 36
REMARK SMILES IDX 28 37 29 38 79 39 30 40 84 41 78 42 80 43 31 44 83 45 77 46
REMARK SMILES IDX 76 47 32 49 64 50 44 51 63 52 45 53 48 54 62 55 81 56 46 57
REMARK SMILES IDX 47 58 61 60 82 61 49 62 33 63 34 64 42 65 35 66 41 67 43 68
REMARK SMILES IDX 40 69 36 70 37 71 38 72 39 73 65 74 66 75 74 76 67 77 73 78
REMARK SMILES IDX 75 79 72 80 68 81 69 82 70 83 71 84 50 85 51 86 59 87 52 88
REMARK SMILES IDX 58 89 60 90 57 91 53 92 54 93 55 94 56 95
REMARK H PARENT 14 8 8 13 4 20 21 29 80 48 48 59
REMARK Flexibility Score: inf
ROOT
ATOM      1  C   UNL A   1      34.571  34.522  28.390  1.00  0.00     0.002 C 
ENDROOT
BRANCH   1   2
ATOM      2  C   UNL A   1      35.156  33.389  29.239  1.00  0.00     0.002 C 
BRANCH   2   3
ATOM      3  C   UNL A   1      34.536  32.008  28.988  1.00  0.00     0.021 C 
BRANCH   3   4
ATOM      4  C   UNL A   1      34.340  31.675  27.509  1.00  0.00     0.116 C 
BRANCH   4   5
ATOM      5  N   UNL A   1      34.758  30.314  27.225  1.00  0.00    -0.356 N 
ATOM      6  C   UNL A   1      34.061  29.256  26.734  1.00  0.00     0.229 C 
ATOM      7  O   UNL A   1      34.589  28.145  26.792  1.00  0.00    -0.275 OA
ATOM      8  H   UNL A   1      35.705  30.127  27.419  1.00  0.00     0.163 HD
BRANCH   6   9
ATOM      9  C   UNL A   1      32.665  29.469  26.187  1.00  0.00     0.142 C 
ATOM     10  N   UNL A   1      31.409  28.348  24.441  1.00  0.00    -0.325 N 
ATOM     11  C   UNL A   1      31.345  27.540  25.665  1.00  0.00     0.263 C 
ATOM     12  C   UNL A   1      32.505  29.323  24.659  1.00  0.00     0.194 C 
ATOM     13  H   UNL A   1      31.592  27.727  23.652  1.00  0.00     0.348 HD
ATOM     14  C   UNL A   1      31.713  28.458  26.811  1.00  0.00     0.081 C 
ATOM     15  C   UNL A   1      33.746  28.907  23.872  1.00  0.00     0.076 C 
BRANCH  10  16
ATOM     16  C   UNL A   1      30.148  28.978  23.993  1.00  0.00     0.245 C 
ATOM     17  N   UNL A   1      29.835  30.929  22.541  1.00  0.00    -0.328 N 
ATOM     18  C   UNL A   1      29.938  29.724  21.719  1.00  0.00     0.269 C 
ATOM     19  C   UNL A   1      30.161  30.530  23.927  1.00  0.00     0.328 C 
ATOM     20  H   UNL A   1      30.508  31.616  22.202  1.00  0.00     0.348 HD
ATOM     21  C   UNL A   1      29.586  28.572  22.632  1.00  0.00     0.132 C 
BRANCH  17  22
ATOM     22  C   UNL A   1      28.597  31.709  22.395  1.00  0.00     0.177 C 
ATOM     23  C   UNL A   1      27.944  31.440  21.030  1.00  0.00     0.075 C 
ATOM     24  C   UNL A   1      27.554  31.528  23.504  1.00  0.00     0.075 C 
ENDBRANCH  17  22
ENDBRANCH  10  16
ENDBRANCH   6   9
ENDBRANCH   4   5
ENDBRANCH   3   4
ENDBRANCH   2   3
ENDBRANCH   1   2
BRANCH   1  25
ATOM     25  C   UNL A   1      33.251  35.096  28.908  1.00  0.00     0.021 C 
BRANCH  25  26
ATOM     26  C   UNL A   1      33.407  36.342  29.772  1.00  0.00     0.116 C 
BRANCH  26  27
ATOM     27  N   UNL A   1      32.526  36.312  30.928  1.00  0.00    -0.352 N 
ATOM     28  C   UNL A   1      32.624  35.553  32.067  1.00  0.00     0.251 C 
ATOM     29  H   UNL A   1      31.752  36.918  30.887  1.00  0.00     0.163 HD
ATOM     30  O   UNL A   1      31.674  35.489  32.844  1.00  0.00    -0.269 OA
BRANCH  28  31
ATOM     31  C   UNL A   1      33.868  34.800  32.336  1.00  0.00     0.039 A 
ATOM     32  C   UNL A   1      35.093  35.468  32.271  1.00  0.00     0.014 A 
ATOM     33  C   UNL A   1      33.821  33.443  32.666  1.00  0.00     0.014 A 
ATOM     34  C   UNL A   1      36.267  34.785  32.593  1.00  0.00     0.010 A 
ATOM     35  C   UNL A   1      34.982  32.787  33.065  1.00  0.00     0.010 A 
ATOM     36  C   UNL A   1      36.219  33.450  33.029  1.00  0.00    -0.014 A 
BRANCH  36  37
ATOM     37  C   UNL A   1      37.451  32.729  33.442  1.00  0.00     0.031 A 
ATOM     38  C   UNL A   1      38.130  33.084  34.738  1.00  0.00     0.074 A 
ATOM     39  C   UNL A   1      37.986  31.799  32.629  1.00  0.00     0.049 A 
ATOM     40  N   UNL A   1      39.250  32.626  35.238  1.00  0.00    -0.248 NA
ATOM     41  C   UNL A   1      37.479  34.110  35.565  1.00  0.00     0.031 C 
ATOM     42  C   UNL A   1      37.436  31.392  31.333  1.00  0.00     0.029 A 
ATOM     43  N   UNL A   1      39.114  31.027  32.763  1.00  0.00    -0.354 N 
ATOM     44  C   UNL A   1      39.441  33.314  36.432  1.00  0.00     0.074 A 
ATOM     45  C   UNL A   1      38.357  34.266  36.543  1.00  0.00     0.031 C 
ATOM     46  C   UNL A   1      38.210  30.429  30.809  1.00  0.00     0.029 A 
ATOM     47  C   UNL A   1      39.341  30.185  31.699  1.00  0.00     0.049 A 
ATOM     48  H   UNL A   1      39.706  31.073  33.548  1.00  0.00     0.167 HD
ATOM     49  C   UNL A   1      40.417  33.149  37.359  1.00  0.00     0.034 A 
ATOM     50  C   UNL A   1      40.351  29.326  31.459  1.00  0.00     0.034 A 
ATOM     51  C   UNL A   1      41.486  32.188  37.234  1.00  0.00     0.049 A 
ATOM     52  C   UNL A   1      41.449  29.192  32.485  1.00  0.00     0.074 A 
ATOM     53  C   UNL A   1      42.498  31.903  38.134  1.00  0.00     0.029 A 
ATOM     54  N   UNL A   1      41.690  31.362  36.135  1.00  0.00    -0.354 N 
ATOM     55  N   UNL A   1      41.591  29.817  33.631  1.00  0.00    -0.248 NA
ATOM     56  C   UNL A   1      42.518  28.230  32.189  1.00  0.00     0.031 C 
ATOM     57  C   UNL A   1      43.355  30.967  37.548  1.00  0.00     0.029 A 
ATOM     58  C   UNL A   1      42.832  30.596  36.320  1.00  0.00     0.049 A 
ATOM     59  H   UNL A   1      41.108  31.325  35.341  1.00  0.00     0.167 HD
ATOM     60  C   UNL A   1      42.746  29.294  34.208  1.00  0.00     0.074 A 
ATOM     61  C   UNL A   1      43.252  28.296  33.289  1.00  0.00     0.031 C 
ATOM     62  C   UNL A   1      43.332  29.608  35.391  1.00  0.00     0.034 A 
BRANCH  49  63
ATOM     63  C   UNL A   1      40.383  34.047  38.574  1.00  0.00     0.023 A 
ATOM     64  C   UNL A   1      39.668  33.698  39.733  1.00  0.00     0.031 A 
ATOM     65  C   UNL A   1      41.057  35.281  38.566  1.00  0.00     0.131 A 
ATOM     66  C   UNL A   1      39.576  34.603  40.801  1.00  0.00     0.055 A 
ATOM     67  C   UNL A   1      41.036  36.139  39.668  1.00  0.00     0.041 A 
ATOM     68  F   UNL A   1      41.737  35.683  37.481  1.00  0.00    -0.206 F 
ATOM     69  C   UNL A   1      40.279  35.810  40.788  1.00  0.00     0.022 A 
BRANCH  66  70
ATOM     70  S   UNL A   1      38.402  34.249  42.137  1.00  0.00     0.124 S 
ATOM     71  O   UNL A   1      37.941  32.910  41.777  1.00  0.00    -0.237 OA
ATOM     72  O   UNL A   1      39.242  34.339  43.326  1.00  0.00    -0.237 OA
ATOM     73  O   UNL A   1      37.399  35.303  42.000  1.00  0.00    -0.744 OA
ENDBRANCH  66  70
ENDBRANCH  49  63
BRANCH  50  74
ATOM     74  C   UNL A   1      40.389  28.534  30.195  1.00  0.00     0.023 A 
ATOM     75  C   UNL A   1      41.283  28.861  29.163  1.00  0.00     0.031 A 
ATOM     76  C   UNL A   1      39.497  27.469  29.979  1.00  0.00     0.131 A 
ATOM     77  C   UNL A   1      41.230  28.165  27.944  1.00  0.00     0.055 A 
ATOM     78  C   UNL A   1      39.490  26.739  28.789  1.00  0.00     0.041 A 
ATOM     79  F   UNL A   1      38.621  27.111  30.932  1.00  0.00    -0.206 F 
ATOM     80  C   UNL A   1      40.351  27.097  27.756  1.00  0.00     0.022 A 
BRANCH  77  81
ATOM     81  S   UNL A   1      42.261  28.745  26.569  1.00  0.00     0.124 S 
ATOM     82  O   UNL A   1      42.862  29.947  27.136  1.00  0.00    -0.237 OA
ATOM     83  O   UNL A   1      43.159  27.613  26.367  1.00  0.00    -0.237 OA
ATOM     84  O   UNL A   1      41.297  28.974  25.496  1.00  0.00    -0.744 OA
ENDBRANCH  77  81
ENDBRANCH  50  74
BRANCH  62  85
ATOM     85  C   UNL A   1      44.560  28.820  35.784  1.00  0.00     0.023 A 
ATOM     86  C   UNL A   1      44.475  27.630  36.526  1.00  0.00     0.031 A 
ATOM     87  C   UNL A   1      45.838  29.275  35.411  1.00  0.00     0.131 A 
ATOM     88  C   UNL A   1      45.647  26.966  36.922  1.00  0.00     0.055 A 
ATOM     89  C   UNL A   1      46.996  28.575  35.748  1.00  0.00     0.041 A 
ATOM     90  F   UNL A   1      45.982  30.409  34.705  1.00  0.00    -0.206 F 
ATOM     91  C   UNL A   1      46.906  27.420  36.520  1.00  0.00     0.022 A 
BRANCH  88  92
ATOM     92  S   UNL A   1      45.509  25.555  38.052  1.00  0.00     0.124 S 
ATOM     93  O   UNL A   1      45.107  24.482  37.149  1.00  0.00    -0.237 OA
ATOM     94  O   UNL A   1      46.860  25.458  38.596  1.00  0.00    -0.237 OA
ATOM     95  O   UNL A   1      44.487  25.979  39.007  1.00  0.00    -0.744 OA
ENDBRANCH  88  92
ENDBRANCH  62  85
ENDBRANCH  36  37
ENDBRANCH  28  31
ENDBRANCH  26  27
ENDBRANCH  25  26
ENDBRANCH   1  25
TORSDOF 18
ENDMDL
MODEL 3
REMARK VINA RESULT:     -10.4      6.055     11.597
REMARK SMILES CC(C)[N@@H+]1CC[C@@H]([N@@H+]2CC[C@@H](C(=O)NCCCCCCNC(=O)c3ccc(-c4c5nc(c(-c6cc(S(=O)(=O)[O-])ccc6F)c6ccc([nH]6)c(-c6cc(S(=O)(=O)[O-])ccc6F)c6nc(c(-c7cc(S(=O)(=O)[O-])ccc7F)c7ccc4[nH]7)C=C6)C=C5)cc3)[C@H]2C)C1
REMARK SMILES IDX 18 1 17 2 16 3 15 4 14 5 12 6 13 7 11 9 8 10 9 11 87 12
REMARK SMILES IDX 10 14 88 15 7 16 4 17 5 18 89 19 6 21 2 22 1 23 3 24 19 25
REMARK SMILES IDX 20 26 21 27 22 28 23 30 24 31 25 32 86 33 26 34 85 35 27 36
REMARK SMILES IDX 28 37 29 38 79 39 30 40 84 41 78 42 80 43 31 44 83 45 77 46
REMARK SMILES IDX 76 47 32 49 64 50 44 51 63 52 45 53 48 54 62 55 81 56 46 57
REMARK SMILES IDX 47 58 61 60 82 61 49 62 33 63 34 64 42 65 35 66 41 67 43 68
REMARK SMILES IDX 40 69 36 70 37 71 38 72 39 73 65 74 66 75 74 76 67 77 73 78
REMARK SMILES IDX 75 79 72 80 68 81 69 82 70 83 71 84 50 85 51 86 59 87 52 88
REMARK SMILES IDX 58 89 60 90 57 91 53 92 54 93 55 94 56 95
REMARK H PARENT 14 8 8 13 4 20 21 29 80 48 48 59
REMARK Flexibility Score: inf
ROOT
ATOM      1  C   UNL A   1      34.401  31.690  28.569  1.00  0.00     0.002 C 
ENDROOT
BRANCH   1   2
ATOM      2  C   UNL A   1      35.552  31.229  27.669  1.00  0.00     0.002 C 
BRANCH   2   3
ATOM      3  C   UNL A   1      35.521  29.743  27.292  1.00  0.00     0.021 C 
BRANCH   3   4
ATOM      4  C   UNL A   1      34.112  29.166  27.149  1.00  0.00     0.116 C 
BRANCH   4   5
ATOM      5  N   UNL A   1      33.608  29.358  25.801  1.00  0.00    -0.356 N 
ATOM      6  C   UNL A   1      33.438  28.475  24.784  1.00  0.00     0.229 C 
ATOM      7  O   UNL A   1      33.200  28.929  23.664  1.00  0.00    -0.275 OA
ATOM      8  H   UNL A   1      33.343  30.283  25.591  1.00  0.00     0.163 HD
BRANCH   6   9
ATOM      9  C   UNL A   1      33.593  26.992  25.048  1.00  0.00     0.142 C 
ATOM     10  N   UNL A   1      32.125  25.102  24.649  1.00  0.00    -0.325 N 
ATOM     11  C   UNL A   1      32.795  25.456  23.391  1.00  0.00     0.263 C 
ATOM     12  C   UNL A   1      32.335  26.257  25.555  1.00  0.00     0.194 C 
ATOM     13  H   UNL A   1      31.137  24.935  24.454  1.00  0.00     0.348 HD
ATOM     14  C   UNL A   1      34.005  26.286  23.763  1.00  0.00     0.081 C 
ATOM     15  C   UNL A   1      31.053  27.081  25.667  1.00  0.00     0.076 C 
BRANCH  10  16
ATOM     16  C   UNL A   1      32.496  23.807  25.258  1.00  0.00     0.245 C 
ATOM     17  N   UNL A   1      34.552  22.503  24.966  1.00  0.00    -0.328 N 
ATOM     18  C   UNL A   1      34.740  23.468  26.047  1.00  0.00     0.269 C 
ATOM     19  C   UNL A   1      33.257  22.822  24.328  1.00  0.00     0.328 C 
ATOM     20  H   UNL A   1      35.312  22.609  24.295  1.00  0.00     0.348 HD
ATOM     21  C   UNL A   1      33.351  23.827  26.524  1.00  0.00     0.132 C 
BRANCH  17  22
ATOM     22  C   UNL A   1      34.737  21.088  25.320  1.00  0.00     0.177 C 
ATOM     23  C   UNL A   1      33.641  20.220  24.682  1.00  0.00     0.075 C 
ATOM     24  C   UNL A   1      36.112  20.490  25.001  1.00  0.00     0.075 C 
ENDBRANCH  17  22
ENDBRANCH  10  16
ENDBRANCH   6   9
ENDBRANCH   4   5
ENDBRANCH   3   4
ENDBRANCH   2   3
ENDBRANCH   1   2
BRANCH   1  25
ATOM     25  C   UNL A   1      33.446  32.697  27.926  1.00  0.00     0.021 C 
BRANCH  25  26
ATOM     26  C   UNL A   1      33.921  34.143  28.000  1.00  0.00     0.116 C 
BRANCH  26  27
ATOM     27  N   UNL A   1      33.227  34.886  29.040  1.00  0.00    -0.352 N 
ATOM     28  C   UNL A   1      33.416  34.848  30.398  1.00  0.00     0.251 C 
ATOM     29  H   UNL A   1      32.525  35.501  28.726  1.00  0.00     0.163 HD
ATOM     30  O   UNL A   1      32.594  35.373  31.145  1.00  0.00    -0.269 OA
BRANCH  28  31
ATOM     31  C   UNL A   1      34.599  34.154  30.951  1.00  0.00     0.039 A 
ATOM     32  C   UNL A   1      34.408  33.073  31.814  1.00  0.00     0.014 A 
ATOM     33  C   UNL A   1      35.890  34.561  30.605  1.00  0.00     0.014 A 
ATOM     34  C   UNL A   1      35.515  32.364  32.285  1.00  0.00     0.010 A 
ATOM     35  C   UNL A   1      36.986  33.805  31.010  1.00  0.00     0.010 A 
ATOM     36  C   UNL A   1      36.811  32.700  31.858  1.00  0.00    -0.014 A 
BRANCH  36  37
ATOM     37  C   UNL A   1      37.994  31.914  32.294  1.00  0.00     0.031 A 
ATOM     38  C   UNL A   1      38.677  32.242  33.595  1.00  0.00     0.074 A 
ATOM     39  C   UNL A   1      38.485  30.947  31.496  1.00  0.00     0.049 A 
ATOM     40  N   UNL A   1      39.763  31.725  34.113  1.00  0.00    -0.248 NA
ATOM     41  C   UNL A   1      38.076  33.312  34.405  1.00  0.00     0.031 C 
ATOM     42  C   UNL A   1      37.928  30.560  30.197  1.00  0.00     0.029 A 
ATOM     43  N   UNL A   1      39.565  30.114  31.652  1.00  0.00    -0.354 N 
ATOM     44  C   UNL A   1      39.979  32.413  35.303  1.00  0.00     0.074 A 
ATOM     45  C   UNL A   1      38.950  33.427  35.392  1.00  0.00     0.031 C 
ATOM     46  C   UNL A   1      38.652  29.549  29.691  1.00  0.00     0.029 A 
ATOM     47  C   UNL A   1      39.756  29.249  30.597  1.00  0.00     0.049 A 
ATOM     48  H   UNL A   1      40.150  30.133  32.443  1.00  0.00     0.167 HD
ATOM     49  C   UNL A   1      40.932  32.202  36.244  1.00  0.00     0.034 A 
ATOM     50  C   UNL A   1      40.719  28.332  30.378  1.00  0.00     0.034 A 
ATOM     51  C   UNL A   1      41.946  31.180  36.141  1.00  0.00     0.049 A 
ATOM     52  C   UNL A   1      41.795  28.145  31.419  1.00  0.00     0.074 A 
ATOM     53  C   UNL A   1      42.929  30.847  37.056  1.00  0.00     0.029 A 
ATOM     54  N   UNL A   1      42.115  30.333  35.052  1.00  0.00    -0.354 N 
ATOM     55  N   UNL A   1      41.958  28.773  32.561  1.00  0.00    -0.248 NA
ATOM     56  C   UNL A   1      42.810  27.121  31.145  1.00  0.00     0.031 C 
ATOM     57  C   UNL A   1      43.739  29.858  36.489  1.00  0.00     0.029 A 
ATOM     58  C   UNL A   1      43.209  29.505  35.258  1.00  0.00     0.049 A 
ATOM     59  H   UNL A   1      41.542  30.322  34.251  1.00  0.00     0.167 HD
ATOM     60  C   UNL A   1      43.075  28.190  33.157  1.00  0.00     0.074 A 
ATOM     61  C   UNL A   1      43.534  27.155  32.253  1.00  0.00     0.031 C 
ATOM     62  C   UNL A   1      43.663  28.481  34.345  1.00  0.00     0.034 A 
BRANCH  49  63
ATOM     63  C   UNL A   1      40.935  33.113  37.450  1.00  0.00     0.023 A 
ATOM     64  C   UNL A   1      40.278  32.763  38.643  1.00  0.00     0.031 A 
ATOM     65  C   UNL A   1      41.585  34.358  37.400  1.00  0.00     0.131 A 
ATOM     66  C   UNL A   1      40.217  33.677  39.705  1.00  0.00     0.055 A 
ATOM     67  C   UNL A   1      41.597  35.228  38.493  1.00  0.00     0.041 A 
ATOM     68  F   UNL A   1      42.210  34.760  36.282  1.00  0.00    -0.206 F 
ATOM     69  C   UNL A   1      40.896  34.897  39.649  1.00  0.00     0.022 A 
BRANCH  66  70
ATOM     70  S   UNL A   1      39.110  33.317  41.095  1.00  0.00     0.124 S 
ATOM     71  O   UNL A   1      37.964  34.170  40.788  1.00  0.00    -0.237 OA
ATOM     72  O   UNL A   1      38.894  31.881  40.962  1.00  0.00    -0.237 OA
ATOM     73  O   UNL A   1      39.885  33.726  42.265  1.00  0.00    -0.744 OA
ENDBRANCH  66  70
ENDBRANCH  49  63
BRANCH  50  74
ATOM     74  C   UNL A   1      40.726  27.527  29.122  1.00  0.00     0.023 A 
ATOM     75  C   UNL A   1      41.633  27.808  28.088  1.00  0.00     0.031 A 
ATOM     76  C   UNL A   1      39.793  26.495  28.916  1.00  0.00     0.131 A 
ATOM     77  C   UNL A   1      41.554  27.103  26.876  1.00  0.00     0.055 A 
ATOM     78  C   UNL A   1      39.758  25.755  27.732  1.00  0.00     0.041 A 
ATOM     79  F   UNL A   1      38.903  26.181  29.871  1.00  0.00    -0.206 F 
ATOM     80  C   UNL A   1      40.634  26.069  26.697  1.00  0.00     0.022 A 
BRANCH  77  81
ATOM     81  S   UNL A   1      42.607  27.629  25.496  1.00  0.00     0.124 S 
ATOM     82  O   UNL A   1      42.556  26.462  24.623  1.00  0.00    -0.237 OA
ATOM     83  O   UNL A   1      41.909  28.818  25.020  1.00  0.00    -0.237 OA
ATOM     84  O   UNL A   1      43.899  27.879  26.131  1.00  0.00    -0.744 OA
ENDBRANCH  77  81
ENDBRANCH  50  74
BRANCH  62  85
ATOM     85  C   UNL A   1      44.839  27.629  34.759  1.00  0.00     0.023 A 
ATOM     86  C   UNL A   1      44.678  26.457  35.519  1.00  0.00     0.031 A 
ATOM     87  C   UNL A   1      46.145  28.001  34.391  1.00  0.00     0.131 A 
ATOM     88  C   UNL A   1      45.805  25.731  35.935  1.00  0.00     0.055 A 
ATOM     89  C   UNL A   1      47.257  27.239  34.749  1.00  0.00     0.041 A 
ATOM     90  F   UNL A   1      46.361  29.113  33.669  1.00  0.00    -0.206 F 
ATOM     91  C   UNL A   1      47.092  26.104  35.537  1.00  0.00     0.022 A 
BRANCH  88  92
ATOM     92  S   UNL A   1      45.576  24.349  37.086  1.00  0.00     0.124 S 
ATOM     93  O   UNL A   1      45.188  23.268  36.186  1.00  0.00    -0.237 OA
ATOM     94  O   UNL A   1      46.896  24.228  37.696  1.00  0.00    -0.237 OA
ATOM     95  O   UNL A   1      44.522  24.820  37.981  1.00  0.00    -0.744 OA
ENDBRANCH  88  92
ENDBRANCH  62  85
ENDBRANCH  36  37
ENDBRANCH  28  31
ENDBRANCH  26  27
ENDBRANCH  25  26
ENDBRANCH   1  25
TORSDOF 18
ENDMDL
