MODEL 1
REMARK VINA RESULT:     -11.7      0.000      0.000
REMARK SMILES CC(C)n1ncnc1C[C@@H](C(=O)NCCCCCCNC(=O)c1ccc(-c2c3nc(c(-c4cc(S(=O)(=O)[O-])ccc4F)c4ccc([nH]4)c(-c4cc(S(=O)(=O)[O-])ccc4F)c4nc(c(-c5cc(S(=O)(=O)[O-])ccc5F)c5ccc2[nH]5)C=C4)C=C3)cc1)c1cccc(Br)c1
REMARK SMILES IDX 16 1 15 2 14 3 13 4 11 5 12 6 10 8 9 9 8 10 4 11 5 12 6 13
REMARK SMILES IDX 7 14 2 15 1 16 3 17 86 18 87 19 92 20 88 21 90 22 89 23
REMARK SMILES IDX 91 24 17 25 18 26 19 27 20 28 21 29 22 31 23 32 24 33 85 34
REMARK SMILES IDX 25 35 84 36 26 37 27 38 28 39 78 40 29 41 83 42 77 43 79 44
REMARK SMILES IDX 30 45 82 46 76 47 75 48 31 50 63 51 43 52 62 53 44 54 47 55
REMARK SMILES IDX 61 56 80 57 45 58 46 59 60 61 81 62 48 63 32 64 33 65 41 66
REMARK SMILES IDX 34 67 40 68 42 69 39 70 35 71 36 72 37 73 38 74 64 75 65 76
REMARK SMILES IDX 73 77 66 78 72 79 74 80 71 81 67 82 68 83 69 84 70 85 49 86
REMARK SMILES IDX 50 87 58 88 51 89 57 90 59 91 56 92 52 93 53 94 54 95 55 96
REMARK H PARENT 13 7 20 30 79 49 47 60
REMARK Flexibility Score: inf
ROOT
ATOM      1  C   UNL A   1      31.492  27.545  26.856  1.00  0.00     0.002 C 
ENDROOT
BRANCH   1   2
ATOM      2  C   UNL A   1      31.504  26.068  26.468  1.00  0.00     0.021 C 
BRANCH   2   3
ATOM      3  C   UNL A   1      30.145  25.425  26.178  1.00  0.00     0.116 C 
BRANCH   3   4
ATOM      4  N   UNL A   1      30.146  24.055  26.647  1.00  0.00    -0.356 N 
ATOM      5  C   UNL A   1      30.549  22.946  25.958  1.00  0.00     0.228 C 
ATOM      6  O   UNL A   1      29.906  21.914  26.172  1.00  0.00    -0.274 OA
ATOM      7  H   UNL A   1      29.821  23.906  27.564  1.00  0.00     0.163 HD
BRANCH   5   8
ATOM      8  C   UNL A   1      31.809  22.973  25.047  1.00  0.00     0.116 C 
BRANCH   8   9
ATOM      9  C   UNL A   1      31.390  23.432  23.619  1.00  0.00     0.095 C 
BRANCH   9  10
ATOM     10  C   UNL A   1      32.008  24.697  23.110  1.00  0.00     0.128 A 
ATOM     11  N   UNL A   1      33.208  25.296  23.450  1.00  0.00    -0.248 N 
ATOM     12  N   UNL A   1      33.242  26.553  22.938  1.00  0.00    -0.159 NA
ATOM     13  C   UNL A   1      32.306  26.475  21.996  1.00  0.00     0.246 A 
ATOM     14  N   UNL A   1      31.498  25.390  22.107  1.00  0.00    -0.220 NA
BRANCH  11  15
ATOM     15  C   UNL A   1      34.504  24.766  23.862  1.00  0.00     0.103 C 
ATOM     16  C   UNL A   1      34.733  24.547  25.350  1.00  0.00     0.033 C 
ATOM     17  C   UNL A   1      34.777  23.461  23.096  1.00  0.00     0.033 C 
ENDBRANCH  11  15
ENDBRANCH   9  10
ENDBRANCH   8   9
BRANCH   8  18
ATOM     18  C   UNL A   1      32.490  21.565  24.975  1.00  0.00    -0.034 A 
ATOM     19  C   UNL A   1      33.553  21.236  25.838  1.00  0.00     0.004 A 
ATOM     20  C   UNL A   1      32.121  20.583  24.033  1.00  0.00     0.020 A 
ATOM     21  C   UNL A   1      34.311  20.073  25.665  1.00  0.00     0.001 A 
ATOM     22  C   UNL A   1      32.882  19.420  23.858  1.00  0.00     0.018 A 
ATOM     23  C   UNL A   1      33.996  19.176  24.651  1.00  0.00     0.016 A 
ATOM     24  Br  UNL A   1      32.424  18.188  22.496  1.00  0.00    -0.051 Br
ENDBRANCH   8  18
ENDBRANCH   5   8
ENDBRANCH   3   4
ENDBRANCH   2   3
ENDBRANCH   1   2
BRANCH   1  25
ATOM     25  C   UNL A   1      32.656  28.375  26.303  1.00  0.00     0.002 C 
BRANCH  25  26
ATOM     26  C   UNL A   1      32.786  29.808  26.839  1.00  0.00     0.021 C 
BRANCH  26  27
ATOM     27  C   UNL A   1      34.219  30.240  27.120  1.00  0.00     0.116 C 
BRANCH  27  28
ATOM     28  N   UNL A   1      34.293  31.553  27.753  1.00  0.00    -0.352 N 
ATOM     29  C   UNL A   1      35.079  31.952  28.820  1.00  0.00     0.251 C 
ATOM     30  H   UNL A   1      33.706  32.247  27.371  1.00  0.00     0.163 HD
ATOM     31  O   UNL A   1      34.778  32.941  29.465  1.00  0.00    -0.269 OA
BRANCH  29  32
ATOM     32  C   UNL A   1      36.288  31.167  29.152  1.00  0.00     0.039 A 
ATOM     33  C   UNL A   1      36.235  29.777  29.295  1.00  0.00     0.014 A 
ATOM     34  C   UNL A   1      37.487  31.848  29.356  1.00  0.00     0.014 A 
ATOM     35  C   UNL A   1      37.409  29.083  29.592  1.00  0.00     0.010 A 
ATOM     36  C   UNL A   1      38.662  31.158  29.500  1.00  0.00     0.010 A 
ATOM     37  C   UNL A   1      38.621  29.784  29.688  1.00  0.00    -0.014 A 
BRANCH  37  38
ATOM     38  C   UNL A   1      39.898  29.093  29.835  1.00  0.00     0.031 A 
ATOM     39  C   UNL A   1      40.260  28.833  31.252  1.00  0.00     0.074 A 
ATOM     40  C   UNL A   1      40.556  28.522  28.800  1.00  0.00     0.049 A 
ATOM     41  N   UNL A   1      41.188  29.406  31.941  1.00  0.00    -0.248 NA
ATOM     42  C   UNL A   1      39.363  27.988  32.061  1.00  0.00     0.031 C 
ATOM     43  C   UNL A   1      40.142  28.451  27.393  1.00  0.00     0.029 A 
ATOM     44  N   UNL A   1      41.697  27.779  28.802  1.00  0.00    -0.354 N 
ATOM     45  C   UNL A   1      41.174  28.783  33.184  1.00  0.00     0.074 A 
ATOM     46  C   UNL A   1      39.898  28.131  33.276  1.00  0.00     0.031 C 
ATOM     47  C   UNL A   1      40.883  27.525  26.743  1.00  0.00     0.029 A 
ATOM     48  C   UNL A   1      41.929  27.051  27.633  1.00  0.00     0.049 A 
ATOM     49  H   UNL A   1      42.312  27.757  29.570  1.00  0.00     0.167 HD
ATOM     50  C   UNL A   1      42.327  28.624  33.893  1.00  0.00     0.034 A 
ATOM     51  C   UNL A   1      42.897  26.115  27.414  1.00  0.00     0.034 A 
ATOM     52  C   UNL A   1      43.372  29.474  33.357  1.00  0.00     0.049 A 
ATOM     53  C   UNL A   1      43.960  26.370  28.419  1.00  0.00     0.074 A 
ATOM     54  C   UNL A   1      43.500  30.833  33.143  1.00  0.00     0.029 A 
ATOM     55  N   UNL A   1      44.330  28.886  32.556  1.00  0.00    -0.354 N 
ATOM     56  N   UNL A   1      44.680  27.458  28.431  1.00  0.00    -0.248 NA
ATOM     57  C   UNL A   1      43.868  25.677  29.696  1.00  0.00     0.031 C 
ATOM     58  C   UNL A   1      44.146  30.946  31.875  1.00  0.00     0.029 A 
ATOM     59  C   UNL A   1      44.475  29.663  31.433  1.00  0.00     0.049 A 
ATOM     60  H   UNL A   1      44.821  28.056  32.755  1.00  0.00     0.167 HD
ATOM     61  C   UNL A   1      44.739  27.832  29.765  1.00  0.00     0.074 A 
ATOM     62  C   UNL A   1      44.309  26.646  30.506  1.00  0.00     0.031 C 
ATOM     63  C   UNL A   1      44.842  29.146  30.126  1.00  0.00     0.034 A 
BRANCH  50  64
ATOM     64  C   UNL A   1      42.643  27.438  34.783  1.00  0.00     0.023 A 
ATOM     65  C   UNL A   1      43.510  26.463  34.251  1.00  0.00     0.031 A 
ATOM     66  C   UNL A   1      41.948  27.061  35.954  1.00  0.00     0.131 A 
ATOM     67  C   UNL A   1      43.555  25.164  34.786  1.00  0.00     0.055 A 
ATOM     68  C   UNL A   1      42.048  25.787  36.523  1.00  0.00     0.041 A 
ATOM     69  F   UNL A   1      41.069  27.855  36.572  1.00  0.00    -0.206 F 
ATOM     70  C   UNL A   1      42.826  24.816  35.917  1.00  0.00     0.022 A 
BRANCH  67  71
ATOM     71  S   UNL A   1      44.438  23.889  33.854  1.00  0.00     0.124 S 
ATOM     72  O   UNL A   1      43.355  22.970  33.522  1.00  0.00    -0.237 OA
ATOM     73  O   UNL A   1      44.993  24.659  32.747  1.00  0.00    -0.237 OA
ATOM     74  O   UNL A   1      45.415  23.384  34.815  1.00  0.00    -0.744 OA
ENDBRANCH  67  71
ENDBRANCH  50  64
BRANCH  51  75
ATOM     75  C   UNL A   1      42.805  24.847  26.626  1.00  0.00     0.023 A 
ATOM     76  C   UNL A   1      43.882  24.311  25.878  1.00  0.00     0.031 A 
ATOM     77  C   UNL A   1      41.694  23.996  26.823  1.00  0.00     0.131 A 
ATOM     78  C   UNL A   1      43.815  22.986  25.372  1.00  0.00     0.055 A 
ATOM     79  C   UNL A   1      41.636  22.692  26.326  1.00  0.00     0.041 A 
ATOM     80  F   UNL A   1      40.659  24.375  27.588  1.00  0.00    -0.206 F 
ATOM     81  C   UNL A   1      42.702  22.176  25.607  1.00  0.00     0.022 A 
BRANCH  78  82
ATOM     82  S   UNL A   1      45.221  22.247  24.466  1.00  0.00     0.124 S 
ATOM     83  O   UNL A   1      44.568  21.237  23.643  1.00  0.00    -0.237 OA
ATOM     84  O   UNL A   1      45.782  23.395  23.763  1.00  0.00    -0.237 OA
ATOM     85  O   UNL A   1      46.072  21.712  25.531  1.00  0.00    -0.744 OA
ENDBRANCH  78  82
ENDBRANCH  51  75
BRANCH  63  86
ATOM     86  C   UNL A   1      45.187  30.165  29.053  1.00  0.00     0.023 A 
ATOM     87  C   UNL A   1      46.496  30.521  28.647  1.00  0.00     0.031 A 
ATOM     88  C   UNL A   1      44.114  30.721  28.336  1.00  0.00     0.131 A 
ATOM     89  C   UNL A   1      46.684  31.413  27.570  1.00  0.00     0.055 A 
ATOM     90  C   UNL A   1      44.303  31.581  27.256  1.00  0.00     0.041 A 
ATOM     91  F   UNL A   1      42.847  30.408  28.656  1.00  0.00    -0.206 F 
ATOM     92  C   UNL A   1      45.591  31.937  26.874  1.00  0.00     0.022 A 
BRANCH  89  93
ATOM     93  S   UNL A   1      48.357  31.941  27.067  1.00  0.00     0.124 S 
ATOM     94  O   UNL A   1      48.105  33.012  26.110  1.00  0.00    -0.237 OA
ATOM     95  O   UNL A   1      48.957  32.344  28.337  1.00  0.00    -0.237 OA
ATOM     96  O   UNL A   1      48.934  30.728  26.484  1.00  0.00    -0.744 OA
ENDBRANCH  89  93
ENDBRANCH  63  86
ENDBRANCH  37  38
ENDBRANCH  29  32
ENDBRANCH  27  28
ENDBRANCH  26  27
ENDBRANCH  25  26
ENDBRANCH   1  25
TORSDOF 20
ENDMDL
MODEL 2
REMARK VINA RESULT:     -11.5      2.965      8.930
REMARK SMILES CC(C)n1ncnc1C[C@@H](C(=O)NCCCCCCNC(=O)c1ccc(-c2c3nc(c(-c4cc(S(=O)(=O)[O-])ccc4F)c4ccc([nH]4)c(-c4cc(S(=O)(=O)[O-])ccc4F)c4nc(c(-c5cc(S(=O)(=O)[O-])ccc5F)c5ccc2[nH]5)C=C4)C=C3)cc1)c1cccc(Br)c1
REMARK SMILES IDX 16 1 15 2 14 3 13 4 11 5 12 6 10 8 9 9 8 10 4 11 5 12 6 13
REMARK SMILES IDX 7 14 2 15 1 16 3 17 86 18 87 19 92 20 88 21 90 22 89 23
REMARK SMILES IDX 91 24 17 25 18 26 19 27 20 28 21 29 22 31 23 32 24 33 85 34
REMARK SMILES IDX 25 35 84 36 26 37 27 38 28 39 78 40 29 41 83 42 77 43 79 44
REMARK SMILES IDX 30 45 82 46 76 47 75 48 31 50 63 51 43 52 62 53 44 54 47 55
REMARK SMILES IDX 61 56 80 57 45 58 46 59 60 61 81 62 48 63 32 64 33 65 41 66
REMARK SMILES IDX 34 67 40 68 42 69 39 70 35 71 36 72 37 73 38 74 64 75 65 76
REMARK SMILES IDX 73 77 66 78 72 79 74 80 71 81 67 82 68 83 69 84 70 85 49 86
REMARK SMILES IDX 50 87 58 88 51 89 57 90 59 91 56 92 52 93 53 94 54 95 55 96
REMARK H PARENT 13 7 20 30 79 49 47 60
REMARK Flexibility Score: inf
ROOT
ATOM      1  C   UNL A   1      40.681  22.647  26.855  1.00  0.00     0.002 C 
ENDROOT
BRANCH   1   2
ATOM      2  C   UNL A   1      39.178  22.539  26.607  1.00  0.00     0.021 C 
BRANCH   2   3
ATOM      3  C   UNL A   1      38.445  23.839  26.266  1.00  0.00     0.116 C 
BRANCH   3   4
ATOM      4  N   UNL A   1      37.624  23.640  25.090  1.00  0.00    -0.356 N 
ATOM      5  C   UNL A   1      36.283  23.378  25.054  1.00  0.00     0.228 C 
ATOM      6  O   UNL A   1      35.905  22.616  24.159  1.00  0.00    -0.274 OA
ATOM      7  H   UNL A   1      38.082  23.700  24.221  1.00  0.00     0.163 HD
BRANCH   5   8
ATOM      8  C   UNL A   1      35.292  24.091  26.018  1.00  0.00     0.116 C 
BRANCH   8   9
ATOM      9  C   UNL A   1      34.416  23.016  26.726  1.00  0.00     0.095 C 
BRANCH   9  10
ATOM     10  C   UNL A   1      32.964  22.985  26.362  1.00  0.00     0.128 A 
ATOM     11  N   UNL A   1      32.349  22.528  25.210  1.00  0.00    -0.248 N 
ATOM     12  N   UNL A   1      31.053  22.931  25.204  1.00  0.00    -0.159 NA
ATOM     13  C   UNL A   1      30.860  23.205  26.492  1.00  0.00     0.246 A 
ATOM     14  N   UNL A   1      32.006  23.305  27.214  1.00  0.00    -0.220 NA
BRANCH  11  15
ATOM     15  C   UNL A   1      32.662  21.453  24.273  1.00  0.00     0.103 C 
ATOM     16  C   UNL A   1      32.155  20.059  24.609  1.00  0.00     0.033 C 
ATOM     17  C   UNL A   1      32.180  21.857  22.870  1.00  0.00     0.033 C 
ENDBRANCH  11  15
ENDBRANCH   9  10
ENDBRANCH   8   9
BRANCH   8  18
ATOM     18  C   UNL A   1      34.378  25.102  25.249  1.00  0.00    -0.034 A 
ATOM     19  C   UNL A   1      33.708  26.132  25.938  1.00  0.00     0.004 A 
ATOM     20  C   UNL A   1      34.137  25.017  23.862  1.00  0.00     0.020 A 
ATOM     21  C   UNL A   1      32.731  26.920  25.319  1.00  0.00     0.001 A 
ATOM     22  C   UNL A   1      33.158  25.803  23.244  1.00  0.00     0.018 A 
ATOM     23  C   UNL A   1      32.431  26.735  23.975  1.00  0.00     0.016 A 
ATOM     24  Br  UNL A   1      32.779  25.567  21.404  1.00  0.00    -0.051 Br
ENDBRANCH   8  18
ENDBRANCH   5   8
ENDBRANCH   3   4
ENDBRANCH   2   3
ENDBRANCH   1   2
BRANCH   1  25
ATOM     25  C   UNL A   1      41.247  21.656  27.877  1.00  0.00     0.002 C 
BRANCH  25  26
ATOM     26  C   UNL A   1      41.739  20.310  27.323  1.00  0.00     0.021 C 
BRANCH  26  27
ATOM     27  C   UNL A   1      41.822  20.255  25.804  1.00  0.00     0.116 C 
BRANCH  27  28
ATOM     28  N   UNL A   1      43.167  19.947  25.329  1.00  0.00    -0.352 N 
ATOM     29  C   UNL A   1      44.186  20.825  25.002  1.00  0.00     0.251 C 
ATOM     30  H   UNL A   1      43.378  18.990  25.229  1.00  0.00     0.163 HD
ATOM     31  O   UNL A   1      45.102  20.458  24.286  1.00  0.00    -0.269 OA
BRANCH  29  32
ATOM     32  C   UNL A   1      44.147  22.201  25.541  1.00  0.00     0.039 A 
ATOM     33  C   UNL A   1      43.509  23.235  24.849  1.00  0.00     0.014 A 
ATOM     34  C   UNL A   1      44.794  22.460  26.748  1.00  0.00     0.014 A 
ATOM     35  C   UNL A   1      43.487  24.512  25.411  1.00  0.00     0.010 A 
ATOM     36  C   UNL A   1      44.647  23.673  27.370  1.00  0.00     0.010 A 
ATOM     37  C   UNL A   1      44.055  24.720  26.678  1.00  0.00    -0.014 A 
BRANCH  37  38
ATOM     38  C   UNL A   1      43.919  25.991  27.381  1.00  0.00     0.031 A 
ATOM     39  C   UNL A   1      44.961  26.979  27.007  1.00  0.00     0.074 A 
ATOM     40  C   UNL A   1      42.822  26.327  28.099  1.00  0.00     0.049 A 
ATOM     41  N   UNL A   1      45.950  27.387  27.728  1.00  0.00    -0.248 NA
ATOM     42  C   UNL A   1      45.038  27.418  25.602  1.00  0.00     0.031 C 
ATOM     43  C   UNL A   1      41.593  25.548  28.291  1.00  0.00     0.029 A 
ATOM     44  N   UNL A   1      42.523  27.497  28.729  1.00  0.00    -0.354 N 
ATOM     45  C   UNL A   1      46.603  28.348  26.965  1.00  0.00     0.074 A 
ATOM     46  C   UNL A   1      46.166  28.133  25.614  1.00  0.00     0.031 C 
ATOM     47  C   UNL A   1      40.615  26.346  28.777  1.00  0.00     0.029 A 
ATOM     48  C   UNL A   1      41.181  27.649  29.085  1.00  0.00     0.049 A 
ATOM     49  H   UNL A   1      43.202  28.185  28.917  1.00  0.00     0.167 HD
ATOM     50  C   UNL A   1      47.214  29.410  27.562  1.00  0.00     0.034 A 
ATOM     51  C   UNL A   1      40.573  28.765  29.581  1.00  0.00     0.034 A 
ATOM     52  C   UNL A   1      47.378  29.167  28.982  1.00  0.00     0.049 A 
ATOM     53  C   UNL A   1      41.652  29.607  30.156  1.00  0.00     0.074 A 
ATOM     54  C   UNL A   1      47.995  28.184  29.732  1.00  0.00     0.029 A 
ATOM     55  N   UNL A   1      46.494  29.784  29.845  1.00  0.00    -0.354 N 
ATOM     56  N   UNL A   1      42.362  29.245  31.189  1.00  0.00    -0.248 NA
ATOM     57  C   UNL A   1      42.284  30.589  29.286  1.00  0.00     0.031 C 
ATOM     58  C   UNL A   1      47.099  27.929  30.812  1.00  0.00     0.029 A 
ATOM     59  C   UNL A   1      46.042  28.837  30.731  1.00  0.00     0.049 A 
ATOM     60  H   UNL A   1      46.235  30.734  29.827  1.00  0.00     0.167 HD
ATOM     61  C   UNL A   1      43.667  29.579  30.860  1.00  0.00     0.074 A 
ATOM     62  C   UNL A   1      43.545  30.493  29.723  1.00  0.00     0.031 C 
ATOM     63  C   UNL A   1      44.723  28.857  31.341  1.00  0.00     0.034 A 
BRANCH  50  64
ATOM     64  C   UNL A   1      47.294  30.808  26.979  1.00  0.00     0.023 A 
ATOM     65  C   UNL A   1      48.557  31.431  27.002  1.00  0.00     0.031 A 
ATOM     66  C   UNL A   1      46.202  31.656  26.684  1.00  0.00     0.131 A 
ATOM     67  C   UNL A   1      48.680  32.825  26.878  1.00  0.00     0.055 A 
ATOM     68  C   UNL A   1      46.338  33.034  26.494  1.00  0.00     0.041 A 
ATOM     69  F   UNL A   1      44.935  31.232  26.647  1.00  0.00    -0.206 F 
ATOM     70  C   UNL A   1      47.578  33.634  26.629  1.00  0.00     0.022 A 
BRANCH  67  71
ATOM     71  S   UNL A   1      50.286  33.575  27.245  1.00  0.00     0.124 S 
ATOM     72  O   UNL A   1      51.140  32.398  27.343  1.00  0.00    -0.237 OA
ATOM     73  O   UNL A   1      50.490  34.427  26.079  1.00  0.00    -0.237 OA
ATOM     74  O   UNL A   1      50.048  34.283  28.501  1.00  0.00    -0.744 OA
ENDBRANCH  67  71
ENDBRANCH  50  64
BRANCH  51  75
ATOM     75  C   UNL A   1      39.197  29.279  29.298  1.00  0.00     0.023 A 
ATOM     76  C   UNL A   1      38.381  29.908  30.271  1.00  0.00     0.031 A 
ATOM     77  C   UNL A   1      38.768  29.387  27.957  1.00  0.00     0.131 A 
ATOM     78  C   UNL A   1      37.205  30.602  29.882  1.00  0.00     0.055 A 
ATOM     79  C   UNL A   1      37.611  30.075  27.580  1.00  0.00     0.041 A 
ATOM     80  F   UNL A   1      39.511  28.901  26.950  1.00  0.00    -0.206 F 
ATOM     81  C   UNL A   1      36.830  30.695  28.541  1.00  0.00     0.022 A 
BRANCH  78  82
ATOM     82  S   UNL A   1      36.177  31.481  31.111  1.00  0.00     0.124 S 
ATOM     83  O   UNL A   1      35.045  31.930  30.308  1.00  0.00    -0.237 OA
ATOM     84  O   UNL A   1      35.903  30.442  32.097  1.00  0.00    -0.237 OA
ATOM     85  O   UNL A   1      37.053  32.554  31.587  1.00  0.00    -0.744 OA
ENDBRANCH  78  82
ENDBRANCH  51  75
BRANCH  63  86
ATOM     86  C   UNL A   1      44.470  27.873  32.470  1.00  0.00     0.023 A 
ATOM     87  C   UNL A   1      44.318  28.210  33.837  1.00  0.00     0.031 A 
ATOM     88  C   UNL A   1      44.269  26.529  32.109  1.00  0.00     0.131 A 
ATOM     89  C   UNL A   1      43.991  27.212  34.779  1.00  0.00     0.055 A 
ATOM     90  C   UNL A   1      43.921  25.551  33.039  1.00  0.00     0.041 A 
ATOM     91  F   UNL A   1      44.378  26.146  30.826  1.00  0.00    -0.206 F 
ATOM     92  C   UNL A   1      43.789  25.888  34.379  1.00  0.00     0.022 A 
BRANCH  89  93
ATOM     93  S   UNL A   1      43.852  27.606  36.556  1.00  0.00     0.124 S 
ATOM     94  O   UNL A   1      44.723  28.764  36.719  1.00  0.00    -0.237 OA
ATOM     95  O   UNL A   1      42.421  27.853  36.713  1.00  0.00    -0.237 OA
ATOM     96  O   UNL A   1      44.332  26.387  37.211  1.00  0.00    -0.744 OA
ENDBRANCH  89  93
ENDBRANCH  63  86
ENDBRANCH  37  38
ENDBRANCH  29  32
ENDBRANCH  27  28
ENDBRANCH  26  27
ENDBRANCH  25  26
ENDBRANCH   1  25
TORSDOF 20
ENDMDL
MODEL 3
REMARK VINA RESULT:     -11.3      2.793      7.397
REMARK SMILES CC(C)n1ncnc1C[C@@H](C(=O)NCCCCCCNC(=O)c1ccc(-c2c3nc(c(-c4cc(S(=O)(=O)[O-])ccc4F)c4ccc([nH]4)c(-c4cc(S(=O)(=O)[O-])ccc4F)c4nc(c(-c5cc(S(=O)(=O)[O-])ccc5F)c5ccc2[nH]5)C=C4)C=C3)cc1)c1cccc(Br)c1
REMARK SMILES IDX 16 1 15 2 14 3 13 4 11 5 12 6 10 8 9 9 8 10 4 11 5 12 6 13
REMARK SMILES IDX 7 14 2 15 1 16 3 17 86 18 87 19 92 20 88 21 90 22 89 23
REMARK SMILES IDX 91 24 17 25 18 26 19 27 20 28 21 29 22 31 23 32 24 33 85 34
REMARK SMILES IDX 25 35 84 36 26 37 27 38 28 39 78 40 29 41 83 42 77 43 79 44
REMARK SMILES IDX 30 45 82 46 76 47 75 48 31 50 63 51 43 52 62 53 44 54 47 55
REMARK SMILES IDX 61 56 80 57 45 58 46 59 60 61 81 62 48 63 32 64 33 65 41 66
REMARK SMILES IDX 34 67 40 68 42 69 39 70 35 71 36 72 37 73 38 74 64 75 65 76
REMARK SMILES IDX 73 77 66 78 72 79 74 80 71 81 67 82 68 83 69 84 70 85 49 86
REMARK SMILES IDX 50 87 58 88 51 89 57 90 59 91 56 92 52 93 53 94 54 95 55 96
REMARK H PARENT 13 7 20 30 79 49 47 60
REMARK Flexibility Score: inf
ROOT
ATOM      1  C   UNL A   1      32.621  26.792  24.383  1.00  0.00     0.002 C 
ENDROOT
BRANCH   1   2
ATOM      2  C   UNL A   1      33.133  26.044  23.154  1.00  0.00     0.021 C 
BRANCH   2   3
ATOM      3  C   UNL A   1      32.826  24.546  23.087  1.00  0.00     0.116 C 
BRANCH   3   4
ATOM      4  N   UNL A   1      32.374  24.084  24.383  1.00  0.00    -0.356 N 
ATOM      5  C   UNL A   1      32.178  22.790  24.777  1.00  0.00     0.228 C 
ATOM      6  O   UNL A   1      31.233  22.598  25.547  1.00  0.00    -0.274 OA
ATOM      7  H   UNL A   1      32.189  24.779  25.055  1.00  0.00     0.163 HD
BRANCH   5   8
ATOM      8  C   UNL A   1      33.161  21.659  24.360  1.00  0.00     0.116 C 
BRANCH   8   9
ATOM      9  C   UNL A   1      32.588  20.292  24.838  1.00  0.00     0.095 C 
BRANCH   9  10
ATOM     10  C   UNL A   1      32.704  19.143  23.884  1.00  0.00     0.128 A 
ATOM     11  N   UNL A   1      33.346  17.927  24.037  1.00  0.00    -0.248 N 
ATOM     12  N   UNL A   1      33.416  17.303  22.834  1.00  0.00    -0.159 NA
ATOM     13  C   UNL A   1      32.468  17.944  22.153  1.00  0.00     0.246 A 
ATOM     14  N   UNL A   1      32.055  19.099  22.734  1.00  0.00    -0.220 NA
BRANCH  11  15
ATOM     15  C   UNL A   1      33.582  17.063  25.190  1.00  0.00     0.103 C 
ATOM     16  C   UNL A   1      32.420  16.215  25.682  1.00  0.00     0.033 C 
ATOM     17  C   UNL A   1      34.796  16.165  24.901  1.00  0.00     0.033 C 
ENDBRANCH  11  15
ENDBRANCH   9  10
ENDBRANCH   8   9
BRANCH   8  18
ATOM     18  C   UNL A   1      34.583  21.885  24.974  1.00  0.00    -0.034 A 
ATOM     19  C   UNL A   1      34.899  23.089  25.631  1.00  0.00     0.004 A 
ATOM     20  C   UNL A   1      35.622  20.938  24.867  1.00  0.00     0.020 A 
ATOM     21  C   UNL A   1      36.209  23.402  26.008  1.00  0.00     0.001 A 
ATOM     22  C   UNL A   1      36.934  21.252  25.242  1.00  0.00     0.018 A 
ATOM     23  C   UNL A   1      37.238  22.494  25.785  1.00  0.00     0.016 A 
ATOM     24  Br  UNL A   1      38.323  19.996  24.964  1.00  0.00    -0.051 Br
ENDBRANCH   8  18
ENDBRANCH   5   8
ENDBRANCH   3   4
ENDBRANCH   2   3
ENDBRANCH   1   2
BRANCH   1  25
ATOM     25  C   UNL A   1      33.533  27.913  24.893  1.00  0.00     0.002 C 
BRANCH  25  26
ATOM     26  C   UNL A   1      33.835  27.915  26.399  1.00  0.00     0.021 C 
BRANCH  26  27
ATOM     27  C   UNL A   1      35.239  28.385  26.752  1.00  0.00     0.116 C 
BRANCH  27  28
ATOM     28  N   UNL A   1      35.235  29.484  27.713  1.00  0.00    -0.352 N 
ATOM     29  C   UNL A   1      36.182  29.788  28.675  1.00  0.00     0.251 C 
ATOM     30  H   UNL A   1      34.458  30.088  27.670  1.00  0.00     0.163 HD
ATOM     31  O   UNL A   1      35.882  30.489  29.627  1.00  0.00    -0.269 OA
BRANCH  29  32
ATOM     32  C   UNL A   1      37.554  29.260  28.524  1.00  0.00     0.039 A 
ATOM     33  C   UNL A   1      38.349  29.604  27.426  1.00  0.00     0.014 A 
ATOM     34  C   UNL A   1      38.036  28.376  29.488  1.00  0.00     0.014 A 
ATOM     35  C   UNL A   1      39.644  29.090  27.341  1.00  0.00     0.010 A 
ATOM     36  C   UNL A   1      39.351  27.991  29.485  1.00  0.00     0.010 A 
ATOM     37  C   UNL A   1      40.139  28.287  28.381  1.00  0.00    -0.014 A 
BRANCH  37  38
ATOM     38  C   UNL A   1      41.533  27.858  28.423  1.00  0.00     0.031 A 
ATOM     39  C   UNL A   1      41.784  26.616  27.649  1.00  0.00     0.074 A 
ATOM     40  C   UNL A   1      42.534  28.637  28.894  1.00  0.00     0.049 A 
ATOM     41  N   UNL A   1      42.048  25.443  28.116  1.00  0.00    -0.248 NA
ATOM     42  C   UNL A   1      41.514  26.625  26.200  1.00  0.00     0.031 C 
ATOM     43  C   UNL A   1      42.448  30.010  29.406  1.00  0.00     0.029 A 
ATOM     44  N   UNL A   1      43.876  28.406  28.913  1.00  0.00    -0.354 N 
ATOM     45  C   UNL A   1      42.260  24.634  27.006  1.00  0.00     0.074 A 
ATOM     46  C   UNL A   1      41.673  25.335  25.898  1.00  0.00     0.031 C 
ATOM     47  C   UNL A   1      43.683  30.558  29.461  1.00  0.00     0.029 A 
ATOM     48  C   UNL A   1      44.666  29.534  29.144  1.00  0.00     0.049 A 
ATOM     49  H   UNL A   1      44.260  27.510  28.774  1.00  0.00     0.167 HD
ATOM     50  C   UNL A   1      43.151  23.604  27.057  1.00  0.00     0.034 A 
ATOM     51  C   UNL A   1      46.025  29.629  29.067  1.00  0.00     0.034 A 
ATOM     52  C   UNL A   1      43.497  23.302  28.433  1.00  0.00     0.049 A 
ATOM     53  C   UNL A   1      46.548  28.247  29.206  1.00  0.00     0.074 A 
ATOM     54  C   UNL A   1      42.774  22.947  29.557  1.00  0.00     0.029 A 
ATOM     55  N   UNL A   1      44.708  23.763  28.907  1.00  0.00    -0.354 N 
ATOM     56  N   UNL A   1      46.421  27.545  30.298  1.00  0.00    -0.248 NA
ATOM     57  C   UNL A   1      46.739  27.467  27.991  1.00  0.00     0.031 C 
ATOM     58  C   UNL A   1      43.370  23.685  30.623  1.00  0.00     0.029 A 
ATOM     59  C   UNL A   1      44.484  24.361  30.122  1.00  0.00     0.049 A 
ATOM     60  H   UNL A   1      45.578  23.678  28.453  1.00  0.00     0.167 HD
ATOM     61  C   UNL A   1      46.055  26.279  29.869  1.00  0.00     0.074 A 
ATOM     62  C   UNL A   1      46.365  26.263  28.438  1.00  0.00     0.031 C 
ATOM     63  C   UNL A   1      45.265  25.472  30.640  1.00  0.00     0.034 A 
BRANCH  50  64
ATOM     64  C   UNL A   1      44.016  23.144  25.900  1.00  0.00     0.023 A 
ATOM     65  C   UNL A   1      44.042  21.760  25.642  1.00  0.00     0.031 A 
ATOM     66  C   UNL A   1      45.012  23.905  25.245  1.00  0.00     0.131 A 
ATOM     67  C   UNL A   1      45.082  21.181  24.895  1.00  0.00     0.055 A 
ATOM     68  C   UNL A   1      46.006  23.331  24.446  1.00  0.00     0.041 A 
ATOM     69  F   UNL A   1      45.145  25.226  25.399  1.00  0.00    -0.206 F 
ATOM     70  C   UNL A   1      46.069  21.957  24.297  1.00  0.00     0.022 A 
BRANCH  67  71
ATOM     71  S   UNL A   1      45.224  19.377  24.885  1.00  0.00     0.124 S 
ATOM     72  O   UNL A   1      43.968  18.984  25.512  1.00  0.00    -0.237 OA
ATOM     73  O   UNL A   1      45.351  19.095  23.460  1.00  0.00    -0.237 OA
ATOM     74  O   UNL A   1      46.425  19.129  25.679  1.00  0.00    -0.744 OA
ENDBRANCH  67  71
ENDBRANCH  50  64
BRANCH  51  75
ATOM     75  C   UNL A   1      46.851  30.769  28.564  1.00  0.00     0.023 A 
ATOM     76  C   UNL A   1      48.078  31.165  29.150  1.00  0.00     0.031 A 
ATOM     77  C   UNL A   1      46.551  31.329  27.302  1.00  0.00     0.131 A 
ATOM     78  C   UNL A   1      48.936  32.075  28.477  1.00  0.00     0.055 A 
ATOM     79  C   UNL A   1      47.402  32.220  26.642  1.00  0.00     0.041 A 
ATOM     80  F   UNL A   1      45.456  30.956  26.621  1.00  0.00    -0.206 F 
ATOM     81  C   UNL A   1      48.604  32.589  27.222  1.00  0.00     0.022 A 
BRANCH  78  82
ATOM     82  S   UNL A   1      50.557  32.543  29.181  1.00  0.00     0.124 S 
ATOM     83  O   UNL A   1      51.029  33.550  28.237  1.00  0.00    -0.237 OA
ATOM     84  O   UNL A   1      50.199  33.018  30.512  1.00  0.00    -0.237 OA
ATOM     85  O   UNL A   1      51.313  31.289  29.166  1.00  0.00    -0.744 OA
ENDBRANCH  78  82
ENDBRANCH  51  75
BRANCH  63  86
ATOM     86  C   UNL A   1      45.037  25.859  32.091  1.00  0.00     0.023 A 
ATOM     87  C   UNL A   1      43.909  26.553  32.590  1.00  0.00     0.031 A 
ATOM     88  C   UNL A   1      45.978  25.396  33.027  1.00  0.00     0.131 A 
ATOM     89  C   UNL A   1      43.769  26.769  33.977  1.00  0.00     0.055 A 
ATOM     90  C   UNL A   1      45.824  25.589  34.398  1.00  0.00     0.041 A 
ATOM     91  F   UNL A   1      47.061  24.712  32.622  1.00  0.00    -0.206 F 
ATOM     92  C   UNL A   1      44.721  26.284  34.878  1.00  0.00     0.022 A 
BRANCH  89  93
ATOM     93  S   UNL A   1      42.358  27.717  34.644  1.00  0.00     0.124 S 
ATOM     94  O   UNL A   1      42.762  28.014  36.014  1.00  0.00    -0.237 OA
ATOM     95  O   UNL A   1      42.287  28.858  33.735  1.00  0.00    -0.237 OA
ATOM     96  O   UNL A   1      41.238  26.781  34.530  1.00  0.00    -0.744 OA
ENDBRANCH  89  93
ENDBRANCH  63  86
ENDBRANCH  37  38
ENDBRANCH  29  32
ENDBRANCH  27  28
ENDBRANCH  26  27
ENDBRANCH  25  26
ENDBRANCH   1  25
TORSDOF 20
ENDMDL
