MODEL 1
REMARK VINA RESULT:     -12.2      0.000      0.000
REMARK SMILES O=C(NCCCCCCNC(=O)C1CCN(c2ccc(C(F)(F)F)cc2[N+](=O)[O-])CC1)c1ccc(-c2c3nc(c(-c4cc(S(=O)(=O)[O-])ccc4F)c4ccc([nH]4)c(-c4cc(S(=O)(=O)[O-])ccc4F)c4nc(c(-c5cc(S(=O)(=O)[O-])ccc5F)c5ccc2[nH]5)C=C4)C=C3)cc1
REMARK SMILES IDX 6 1 5 2 4 3 3 4 1 5 2 6 32 8 33 9 94 10 34 11 93 12 35 13
REMARK SMILES IDX 36 14 37 15 87 16 38 17 92 18 86 19 88 20 39 21 91 22 85 23
REMARK SMILES IDX 84 24 40 26 72 27 52 28 71 29 53 30 56 31 70 32 89 33 54 34
REMARK SMILES IDX 55 35 69 37 90 38 57 39 41 40 42 41 50 42 43 43 49 44 51 45
REMARK SMILES IDX 48 46 44 47 45 48 46 49 47 50 73 51 74 52 82 53 75 54 81 55
REMARK SMILES IDX 83 56 80 57 76 58 77 59 78 60 79 61 58 62 59 63 67 64 60 65
REMARK SMILES IDX 66 66 68 67 65 68 61 69 62 70 63 71 64 72 7 73 8 74 9 75
REMARK SMILES IDX 10 76 11 77 12 79 13 80 14 81 31 82 15 83 30 84 16 85 17 86
REMARK SMILES IDX 18 87 26 88 19 89 25 90 20 91 27 92 28 93 29 94 21 95 22 96
REMARK SMILES IDX 23 97 24 98
REMARK H PARENT 3 7 88 25 56 36 10 78
REMARK Flexibility Score: inf
ROOT
ATOM      1  C   UNL A   1      31.506  30.524  26.912  1.00  0.00     0.002 C 
ENDROOT
BRANCH   1   2
ATOM      2  C   UNL A   1      31.578  32.039  26.724  1.00  0.00     0.021 C 
BRANCH   2   3
ATOM      3  C   UNL A   1      32.883  32.674  27.179  1.00  0.00     0.116 C 
BRANCH   3   4
ATOM      4  N   UNL A   1      32.717  34.055  27.603  1.00  0.00    -0.352 N 
ATOM      5  O   UNL A   1      32.975  35.832  28.974  1.00  0.00    -0.269 OA
ATOM      6  C   UNL A   1      33.334  34.705  28.646  1.00  0.00     0.251 C 
ATOM      7  H   UNL A   1      32.083  34.593  27.077  1.00  0.00     0.163 HD
BRANCH   6   8
ATOM      8  C   UNL A   1      34.420  34.020  29.384  1.00  0.00     0.039 A 
ATOM      9  C   UNL A   1      35.756  34.273  29.062  1.00  0.00     0.014 A 
ATOM     10  C   UNL A   1      34.100  33.110  30.395  1.00  0.00     0.014 A 
ATOM     11  C   UNL A   1      36.761  33.518  29.654  1.00  0.00     0.010 A 
ATOM     12  C   UNL A   1      35.121  32.415  31.052  1.00  0.00     0.010 A 
ATOM     13  C   UNL A   1      36.460  32.598  30.671  1.00  0.00    -0.014 A 
BRANCH  13  14
ATOM     14  C   UNL A   1      37.580  31.908  31.362  1.00  0.00     0.031 A 
ATOM     15  C   UNL A   1      38.372  30.823  30.688  1.00  0.00     0.074 A 
ATOM     16  C   UNL A   1      37.911  32.325  32.601  1.00  0.00     0.049 A 
ATOM     17  N   UNL A   1      39.412  30.166  31.135  1.00  0.00    -0.248 NA
ATOM     18  C   UNL A   1      37.938  30.415  29.344  1.00  0.00     0.031 C 
ATOM     19  C   UNL A   1      37.197  33.361  33.355  1.00  0.00     0.029 A 
ATOM     20  N   UNL A   1      38.938  31.962  33.432  1.00  0.00    -0.354 N 
ATOM     21  C   UNL A   1      39.756  29.263  30.135  1.00  0.00     0.074 A 
ATOM     22  C   UNL A   1      38.791  29.437  29.069  1.00  0.00     0.031 C 
ATOM     23  C   UNL A   1      37.842  33.590  34.508  1.00  0.00     0.029 A 
ATOM     24  C   UNL A   1      38.971  32.674  34.609  1.00  0.00     0.049 A 
ATOM     25  H   UNL A   1      39.590  31.259  33.209  1.00  0.00     0.167 HD
ATOM     26  C   UNL A   1      40.787  28.381  30.110  1.00  0.00     0.034 A 
ATOM     27  C   UNL A   1      39.806  32.591  35.662  1.00  0.00     0.034 A 
ATOM     28  C   UNL A   1      41.738  28.219  31.186  1.00  0.00     0.049 A 
ATOM     29  C   UNL A   1      40.931  31.595  35.608  1.00  0.00     0.074 A 
ATOM     30  C   UNL A   1      42.819  27.357  31.261  1.00  0.00     0.029 A 
ATOM     31  N   UNL A   1      41.721  28.934  32.377  1.00  0.00    -0.354 N 
ATOM     32  N   UNL A   1      41.243  30.755  34.648  1.00  0.00    -0.248 NA
ATOM     33  C   UNL A   1      41.819  31.541  36.773  1.00  0.00     0.031 C 
ATOM     34  C   UNL A   1      43.421  27.512  32.517  1.00  0.00     0.029 A 
ATOM     35  C   UNL A   1      42.758  28.518  33.200  1.00  0.00     0.049 A 
ATOM     36  H   UNL A   1      41.068  29.634  32.605  1.00  0.00     0.167 HD
ATOM     37  C   UNL A   1      42.367  30.072  35.097  1.00  0.00     0.074 A 
ATOM     38  C   UNL A   1      42.702  30.632  36.392  1.00  0.00     0.031 C 
ATOM     39  C   UNL A   1      43.057  29.066  34.501  1.00  0.00     0.034 A 
BRANCH  26  40
ATOM     40  C   UNL A   1      40.917  27.496  28.894  1.00  0.00     0.023 A 
ATOM     41  C   UNL A   1      41.924  27.701  27.934  1.00  0.00     0.031 A 
ATOM     42  C   UNL A   1      40.026  26.427  28.692  1.00  0.00     0.131 A 
ATOM     43  C   UNL A   1      41.984  26.885  26.794  1.00  0.00     0.055 A 
ATOM     44  C   UNL A   1      40.131  25.576  27.590  1.00  0.00     0.041 A 
ATOM     45  F   UNL A   1      39.032  26.193  29.565  1.00  0.00    -0.206 F 
ATOM     46  C   UNL A   1      41.109  25.809  26.627  1.00  0.00     0.022 A 
BRANCH  43  47
ATOM     47  S   UNL A   1      43.160  27.310  25.480  1.00  0.00     0.124 S 
ATOM     48  O   UNL A   1      44.199  28.014  26.228  1.00  0.00    -0.237 OA
ATOM     49  O   UNL A   1      43.531  26.003  24.951  1.00  0.00    -0.237 OA
ATOM     50  O   UNL A   1      42.376  28.149  24.576  1.00  0.00    -0.744 OA
ENDBRANCH  43  47
ENDBRANCH  26  40
BRANCH  27  51
ATOM     51  C   UNL A   1      39.589  33.445  36.863  1.00  0.00     0.023 A 
ATOM     52  C   UNL A   1      38.974  32.937  38.018  1.00  0.00     0.031 A 
ATOM     53  C   UNL A   1      39.967  34.801  36.859  1.00  0.00     0.131 A 
ATOM     54  C   UNL A   1      38.714  33.789  39.102  1.00  0.00     0.055 A 
ATOM     55  C   UNL A   1      39.759  35.629  37.961  1.00  0.00     0.041 A 
ATOM     56  F   UNL A   1      40.563  35.336  35.781  1.00  0.00    -0.206 F 
ATOM     57  C   UNL A   1      39.115  35.127  39.087  1.00  0.00     0.022 A 
BRANCH  54  58
ATOM     58  S   UNL A   1      37.758  33.144  40.501  1.00  0.00     0.124 S 
ATOM     59  O   UNL A   1      38.532  31.967  40.877  1.00  0.00    -0.237 OA
ATOM     60  O   UNL A   1      37.798  34.265  41.435  1.00  0.00    -0.237 OA
ATOM     61  O   UNL A   1      36.446  32.868  39.918  1.00  0.00    -0.744 OA
ENDBRANCH  54  58
ENDBRANCH  27  51
BRANCH  39  62
ATOM     62  C   UNL A   1      44.245  28.532  35.260  1.00  0.00     0.023 A 
ATOM     63  C   UNL A   1      44.109  27.477  36.181  1.00  0.00     0.031 A 
ATOM     64  C   UNL A   1      45.512  29.118  35.106  1.00  0.00     0.131 A 
ATOM     65  C   UNL A   1      45.204  27.090  36.966  1.00  0.00     0.055 A 
ATOM     66  C   UNL A   1      46.614  28.687  35.847  1.00  0.00     0.041 A 
ATOM     67  F   UNL A   1      45.697  30.129  34.242  1.00  0.00    -0.206 F 
ATOM     68  C   UNL A   1      46.458  27.680  36.795  1.00  0.00     0.022 A 
BRANCH  65  69
ATOM     69  S   UNL A   1      44.936  25.885  38.296  1.00  0.00     0.124 S 
ATOM     70  O   UNL A   1      44.546  26.745  39.409  1.00  0.00    -0.237 OA
ATOM     71  O   UNL A   1      43.884  25.040  37.743  1.00  0.00    -0.237 OA
ATOM     72  O   UNL A   1      46.239  25.238  38.439  1.00  0.00    -0.744 OA
ENDBRANCH  65  69
ENDBRANCH  39  62
ENDBRANCH  13  14
ENDBRANCH   6   8
ENDBRANCH   3   4
ENDBRANCH   2   3
ENDBRANCH   1   2
BRANCH   1  73
ATOM     73  C   UNL A   1      32.859  29.819  27.059  1.00  0.00     0.002 C 
BRANCH  73  74
ATOM     74  C   UNL A   1      32.830  28.290  26.897  1.00  0.00     0.021 C 
BRANCH  74  75
ATOM     75  C   UNL A   1      31.667  27.768  26.051  1.00  0.00     0.116 C 
BRANCH  75  76
ATOM     76  N   UNL A   1      31.110  26.566  26.642  1.00  0.00    -0.356 N 
ATOM     77  C   UNL A   1      31.361  25.262  26.343  1.00  0.00     0.223 C 
ATOM     78  H   UNL A   1      30.455  26.714  27.362  1.00  0.00     0.163 HD
ATOM     79  O   UNL A   1      30.574  24.412  26.755  1.00  0.00    -0.275 OA
BRANCH  77  80
ATOM     80  C   UNL A   1      32.638  24.909  25.592  1.00  0.00     0.082 C 
ATOM     81  C   UNL A   1      32.342  24.164  24.283  1.00  0.00     0.035 C 
ATOM     82  C   UNL A   1      33.557  24.096  26.519  1.00  0.00     0.035 C 
ATOM     83  C   UNL A   1      31.931  22.709  24.493  1.00  0.00     0.117 C 
ATOM     84  C   UNL A   1      33.068  22.655  26.699  1.00  0.00     0.117 C 
ATOM     85  N   UNL A   1      32.902  22.065  25.376  1.00  0.00    -0.366 N 
BRANCH  85  86
ATOM     86  C   UNL A   1      33.299  20.777  25.082  1.00  0.00     0.116 A 
ATOM     87  C   UNL A   1      32.288  19.803  24.987  1.00  0.00     0.034 A 
ATOM     88  C   UNL A   1      34.609  20.333  24.852  1.00  0.00     0.293 A 
ATOM     89  C   UNL A   1      32.562  18.470  24.663  1.00  0.00     0.016 A 
ATOM     90  C   UNL A   1      34.906  18.995  24.524  1.00  0.00     0.101 A 
ATOM     91  C   UNL A   1      33.876  18.051  24.424  1.00  0.00     0.062 A 
BRANCH  88  92
ATOM     92  N   UNL A   1      35.742  21.227  25.009  1.00  0.00     0.064 N 
ATOM     93  O   UNL A   1      36.160  21.397  26.166  1.00  0.00    -0.258 OA
ATOM     94  O   UNL A   1      36.157  21.819  24.004  1.00  0.00    -0.258 OA
ENDBRANCH  88  92
BRANCH  91  95
ATOM     95  C   UNL A   1      34.153  16.609  24.081  1.00  0.00     0.416 C 
ATOM     96  F   UNL A   1      35.237  16.118  24.743  1.00  0.00    -0.166 F 
ATOM     97  F   UNL A   1      33.116  15.788  24.400  1.00  0.00    -0.166 F 
ATOM     98  F   UNL A   1      34.401  16.403  22.758  1.00  0.00    -0.166 F 
ENDBRANCH  91  95
ENDBRANCH  85  86
ENDBRANCH  77  80
ENDBRANCH  75  76
ENDBRANCH  74  75
ENDBRANCH  73  74
ENDBRANCH   1  73
TORSDOF 19
ENDMDL
MODEL 2
REMARK VINA RESULT:     -12.1      3.151      8.268
REMARK SMILES O=C(NCCCCCCNC(=O)C1CCN(c2ccc(C(F)(F)F)cc2[N+](=O)[O-])CC1)c1ccc(-c2c3nc(c(-c4cc(S(=O)(=O)[O-])ccc4F)c4ccc([nH]4)c(-c4cc(S(=O)(=O)[O-])ccc4F)c4nc(c(-c5cc(S(=O)(=O)[O-])ccc5F)c5ccc2[nH]5)C=C4)C=C3)cc1
REMARK SMILES IDX 6 1 5 2 4 3 3 4 1 5 2 6 32 8 33 9 94 10 34 11 93 12 35 13
REMARK SMILES IDX 36 14 37 15 87 16 38 17 92 18 86 19 88 20 39 21 91 22 85 23
REMARK SMILES IDX 84 24 40 26 72 27 52 28 71 29 53 30 56 31 70 32 89 33 54 34
REMARK SMILES IDX 55 35 69 37 90 38 57 39 41 40 42 41 50 42 43 43 49 44 51 45
REMARK SMILES IDX 48 46 44 47 45 48 46 49 47 50 73 51 74 52 82 53 75 54 81 55
REMARK SMILES IDX 83 56 80 57 76 58 77 59 78 60 79 61 58 62 59 63 67 64 60 65
REMARK SMILES IDX 66 66 68 67 65 68 61 69 62 70 63 71 64 72 7 73 8 74 9 75
REMARK SMILES IDX 10 76 11 77 12 79 13 80 14 81 31 82 15 83 30 84 16 85 17 86
REMARK SMILES IDX 18 87 26 88 19 89 25 90 20 91 27 92 28 93 29 94 21 95 22 96
REMARK SMILES IDX 23 97 24 98
REMARK H PARENT 3 7 88 25 56 36 10 78
REMARK Flexibility Score: inf
ROOT
ATOM      1  C   UNL A   1      32.961  29.270  24.820  1.00  0.00     0.002 C 
ENDROOT
BRANCH   1   2
ATOM      2  C   UNL A   1      33.505  28.172  25.732  1.00  0.00     0.021 C 
BRANCH   2   3
ATOM      3  C   UNL A   1      33.655  28.576  27.192  1.00  0.00     0.116 C 
BRANCH   3   4
ATOM      4  N   UNL A   1      33.501  30.007  27.395  1.00  0.00    -0.352 N 
ATOM      5  O   UNL A   1      34.031  32.034  28.242  1.00  0.00    -0.269 OA
ATOM      6  C   UNL A   1      34.371  30.877  28.012  1.00  0.00     0.251 C 
ATOM      7  H   UNL A   1      32.670  30.405  27.048  1.00  0.00     0.163 HD
BRANCH   6   8
ATOM      8  C   UNL A   1      35.711  30.395  28.415  1.00  0.00     0.039 A 
ATOM      9  C   UNL A   1      35.867  29.643  29.582  1.00  0.00     0.014 A 
ATOM     10  C   UNL A   1      36.822  30.708  27.626  1.00  0.00     0.014 A 
ATOM     11  C   UNL A   1      37.142  29.323  30.030  1.00  0.00     0.010 A 
ATOM     12  C   UNL A   1      38.099  30.306  28.036  1.00  0.00     0.010 A 
ATOM     13  C   UNL A   1      38.271  29.630  29.253  1.00  0.00    -0.014 A 
BRANCH  13  14
ATOM     14  C   UNL A   1      39.602  29.154  29.712  1.00  0.00     0.031 A 
ATOM     15  C   UNL A   1      40.308  29.794  30.875  1.00  0.00     0.074 A 
ATOM     16  C   UNL A   1      40.141  28.085  29.092  1.00  0.00     0.049 A 
ATOM     17  N   UNL A   1      41.444  29.459  31.432  1.00  0.00    -0.248 NA
ATOM     18  C   UNL A   1      39.662  30.964  31.488  1.00  0.00     0.031 C 
ATOM     19  C   UNL A   1      39.547  27.398  27.940  1.00  0.00     0.029 A 
ATOM     20  N   UNL A   1      41.280  27.369  29.351  1.00  0.00    -0.354 N 
ATOM     21  C   UNL A   1      41.657  30.376  32.456  1.00  0.00     0.074 A 
ATOM     22  C   UNL A   1      40.544  31.303  32.420  1.00  0.00     0.031 C 
ATOM     23  C   UNL A   1      40.293  26.329  27.632  1.00  0.00     0.029 A 
ATOM     24  C   UNL A   1      41.453  26.291  28.513  1.00  0.00     0.049 A 
ATOM     25  H   UNL A   1      41.914  27.604  30.066  1.00  0.00     0.167 HD
ATOM     26  C   UNL A   1      42.681  30.431  33.344  1.00  0.00     0.034 A 
ATOM     27  C   UNL A   1      42.442  25.380  28.450  1.00  0.00     0.034 A 
ATOM     28  C   UNL A   1      43.786  29.500  33.360  1.00  0.00     0.049 A 
ATOM     29  C   UNL A   1      43.569  25.475  29.441  1.00  0.00     0.074 A 
ATOM     30  C   UNL A   1      44.873  29.463  34.217  1.00  0.00     0.029 A 
ATOM     31  N   UNL A   1      43.947  28.439  32.477  1.00  0.00    -0.354 N 
ATOM     32  N   UNL A   1      43.748  26.348  30.406  1.00  0.00    -0.248 NA
ATOM     33  C   UNL A   1      44.623  24.461  29.339  1.00  0.00     0.031 C 
ATOM     34  C   UNL A   1      45.716  28.418  33.818  1.00  0.00     0.029 A 
ATOM     35  C   UNL A   1      45.123  27.758  32.755  1.00  0.00     0.049 A 
ATOM     36  H   UNL A   1      43.317  28.205  31.757  1.00  0.00     0.167 HD
ATOM     37  C   UNL A   1      44.936  25.984  31.027  1.00  0.00     0.074 A 
ATOM     38  C   UNL A   1      45.405  24.787  30.355  1.00  0.00     0.031 C 
ATOM     39  C   UNL A   1      45.590  26.586  32.053  1.00  0.00     0.034 A 
BRANCH  26  40
ATOM     40  C   UNL A   1      42.674  31.558  34.348  1.00  0.00     0.023 A 
ATOM     41  C   UNL A   1      41.821  31.546  35.467  1.00  0.00     0.031 A 
ATOM     42  C   UNL A   1      43.534  32.659  34.190  1.00  0.00     0.131 A 
ATOM     43  C   UNL A   1      41.812  32.634  36.353  1.00  0.00     0.055 A 
ATOM     44  C   UNL A   1      43.569  33.707  35.111  1.00  0.00     0.041 A 
ATOM     45  F   UNL A   1      44.358  32.734  33.132  1.00  0.00    -0.206 F 
ATOM     46  C   UNL A   1      42.697  33.704  36.196  1.00  0.00     0.022 A 
BRANCH  43  47
ATOM     47  S   UNL A   1      40.556  32.680  37.661  1.00  0.00     0.124 S 
ATOM     48  O   UNL A   1      40.140  34.080  37.623  1.00  0.00    -0.237 OA
ATOM     49  O   UNL A   1      39.573  31.711  37.190  1.00  0.00    -0.237 OA
ATOM     50  O   UNL A   1      41.293  32.289  38.860  1.00  0.00    -0.744 OA
ENDBRANCH  43  47
ENDBRANCH  26  40
BRANCH  27  51
ATOM     51  C   UNL A   1      42.430  24.329  27.395  1.00  0.00     0.023 A 
ATOM     52  C   UNL A   1      41.762  23.110  27.587  1.00  0.00     0.031 A 
ATOM     53  C   UNL A   1      43.123  24.518  26.184  1.00  0.00     0.131 A 
ATOM     54  C   UNL A   1      41.837  22.111  26.605  1.00  0.00     0.055 A 
ATOM     55  C   UNL A   1      43.146  23.543  25.187  1.00  0.00     0.041 A 
ATOM     56  F   UNL A   1      43.776  25.667  25.948  1.00  0.00    -0.206 F 
ATOM     57  C   UNL A   1      42.513  22.325  25.401  1.00  0.00     0.022 A 
BRANCH  54  58
ATOM     58  S   UNL A   1      41.115  20.487  26.964  1.00  0.00     0.124 S 
ATOM     59  O   UNL A   1      40.786  20.611  28.379  1.00  0.00    -0.237 OA
ATOM     60  O   UNL A   1      39.983  20.451  26.043  1.00  0.00    -0.237 OA
ATOM     61  O   UNL A   1      42.199  19.556  26.654  1.00  0.00    -0.744 OA
ENDBRANCH  54  58
ENDBRANCH  27  51
BRANCH  39  62
ATOM     62  C   UNL A   1      46.874  25.936  32.499  1.00  0.00     0.023 A 
ATOM     63  C   UNL A   1      46.892  24.997  33.547  1.00  0.00     0.031 A 
ATOM     64  C   UNL A   1      48.099  26.298  31.913  1.00  0.00     0.131 A 
ATOM     65  C   UNL A   1      48.115  24.509  34.027  1.00  0.00     0.055 A 
ATOM     66  C   UNL A   1      49.310  25.761  32.355  1.00  0.00     0.041 A 
ATOM     67  F   UNL A   1      48.139  27.190  30.911  1.00  0.00    -0.206 F 
ATOM     68  C   UNL A   1      49.323  24.875  33.428  1.00  0.00     0.022 A 
BRANCH  65  69
ATOM     69  S   UNL A   1      48.113  23.478  35.520  1.00  0.00     0.124 S 
ATOM     70  O   UNL A   1      47.511  22.240  35.032  1.00  0.00    -0.237 OA
ATOM     71  O   UNL A   1      49.531  23.410  35.853  1.00  0.00    -0.237 OA
ATOM     72  O   UNL A   1      47.291  24.238  36.460  1.00  0.00    -0.744 OA
ENDBRANCH  65  69
ENDBRANCH  39  62
ENDBRANCH  13  14
ENDBRANCH   6   8
ENDBRANCH   3   4
ENDBRANCH   2   3
ENDBRANCH   1   2
BRANCH   1  73
ATOM     73  C   UNL A   1      31.492  29.111  24.411  1.00  0.00     0.002 C 
BRANCH  73  74
ATOM     74  C   UNL A   1      31.246  28.836  22.918  1.00  0.00     0.021 C 
BRANCH  74  75
ATOM     75  C   UNL A   1      30.601  27.480  22.626  1.00  0.00     0.116 C 
BRANCH  75  76
ATOM     76  N   UNL A   1      31.406  26.729  21.682  1.00  0.00    -0.356 N 
ATOM     77  C   UNL A   1      32.521  25.981  21.903  1.00  0.00     0.223 C 
ATOM     78  H   UNL A   1      31.103  26.766  20.746  1.00  0.00     0.163 HD
ATOM     79  O   UNL A   1      33.212  25.671  20.934  1.00  0.00    -0.275 OA
BRANCH  77  80
ATOM     80  C   UNL A   1      32.817  25.494  23.315  1.00  0.00     0.082 C 
ATOM     81  C   UNL A   1      34.151  24.738  23.392  1.00  0.00     0.035 C 
ATOM     82  C   UNL A   1      31.640  24.632  23.805  1.00  0.00     0.035 C 
ATOM     83  C   UNL A   1      34.085  23.332  22.801  1.00  0.00     0.117 C 
ATOM     84  C   UNL A   1      31.629  23.246  23.152  1.00  0.00     0.117 C 
ATOM     85  N   UNL A   1      32.934  22.632  23.369  1.00  0.00    -0.366 N 
BRANCH  85  86
ATOM     86  C   UNL A   1      33.083  21.306  23.718  1.00  0.00     0.116 A 
ATOM     87  C   UNL A   1      32.313  20.368  23.006  1.00  0.00     0.034 A 
ATOM     88  C   UNL A   1      33.934  20.787  24.704  1.00  0.00     0.293 A 
ATOM     89  C   UNL A   1      32.401  18.993  23.247  1.00  0.00     0.016 A 
ATOM     90  C   UNL A   1      34.037  19.406  24.962  1.00  0.00     0.101 A 
ATOM     91  C   UNL A   1      33.267  18.495  24.227  1.00  0.00     0.062 A 
BRANCH  88  92
ATOM     92  N   UNL A   1      34.710  21.665  25.563  1.00  0.00     0.064 N 
ATOM     93  O   UNL A   1      34.084  22.278  26.442  1.00  0.00    -0.258 OA
ATOM     94  O   UNL A   1      35.914  21.806  25.311  1.00  0.00    -0.258 OA
ENDBRANCH  88  92
BRANCH  91  95
ATOM     95  C   UNL A   1      33.344  17.010  24.476  1.00  0.00     0.416 C 
ATOM     96  F   UNL A   1      32.170  16.502  24.943  1.00  0.00    -0.166 F 
ATOM     97  F   UNL A   1      33.635  16.305  23.349  1.00  0.00    -0.166 F 
ATOM     98  F   UNL A   1      34.290  16.661  25.391  1.00  0.00    -0.166 F 
ENDBRANCH  91  95
ENDBRANCH  85  86
ENDBRANCH  77  80
ENDBRANCH  75  76
ENDBRANCH  74  75
ENDBRANCH  73  74
ENDBRANCH   1  73
TORSDOF 19
ENDMDL
MODEL 3
REMARK VINA RESULT:     -12.0      3.737      8.282
REMARK SMILES O=C(NCCCCCCNC(=O)C1CCN(c2ccc(C(F)(F)F)cc2[N+](=O)[O-])CC1)c1ccc(-c2c3nc(c(-c4cc(S(=O)(=O)[O-])ccc4F)c4ccc([nH]4)c(-c4cc(S(=O)(=O)[O-])ccc4F)c4nc(c(-c5cc(S(=O)(=O)[O-])ccc5F)c5ccc2[nH]5)C=C4)C=C3)cc1
REMARK SMILES IDX 6 1 5 2 4 3 3 4 1 5 2 6 32 8 33 9 94 10 34 11 93 12 35 13
REMARK SMILES IDX 36 14 37 15 87 16 38 17 92 18 86 19 88 20 39 21 91 22 85 23
REMARK SMILES IDX 84 24 40 26 72 27 52 28 71 29 53 30 56 31 70 32 89 33 54 34
REMARK SMILES IDX 55 35 69 37 90 38 57 39 41 40 42 41 50 42 43 43 49 44 51 45
REMARK SMILES IDX 48 46 44 47 45 48 46 49 47 50 73 51 74 52 82 53 75 54 81 55
REMARK SMILES IDX 83 56 80 57 76 58 77 59 78 60 79 61 58 62 59 63 67 64 60 65
REMARK SMILES IDX 66 66 68 67 65 68 61 69 62 70 63 71 64 72 7 73 8 74 9 75
REMARK SMILES IDX 10 76 11 77 12 79 13 80 14 81 31 82 15 83 30 84 16 85 17 86
REMARK SMILES IDX 18 87 26 88 19 89 25 90 20 91 27 92 28 93 29 94 21 95 22 96
REMARK SMILES IDX 23 97 24 98
REMARK H PARENT 3 7 88 25 56 36 10 78
REMARK Flexibility Score: inf
ROOT
ATOM      1  C   UNL A   1      32.972  29.233  24.848  1.00  0.00     0.002 C 
ENDROOT
BRANCH   1   2
ATOM      2  C   UNL A   1      33.359  28.145  25.849  1.00  0.00     0.021 C 
BRANCH   2   3
ATOM      3  C   UNL A   1      33.542  28.633  27.278  1.00  0.00     0.116 C 
BRANCH   3   4
ATOM      4  N   UNL A   1      33.430  30.078  27.395  1.00  0.00    -0.352 N 
ATOM      5  O   UNL A   1      34.012  32.134  28.127  1.00  0.00    -0.269 OA
ATOM      6  C   UNL A   1      34.319  30.956  27.969  1.00  0.00     0.251 C 
ATOM      7  H   UNL A   1      32.614  30.478  27.016  1.00  0.00     0.163 HD
BRANCH   6   8
ATOM      8  C   UNL A   1      35.641  30.460  28.415  1.00  0.00     0.039 A 
ATOM      9  C   UNL A   1      35.739  29.632  29.535  1.00  0.00     0.014 A 
ATOM     10  C   UNL A   1      36.790  30.836  27.714  1.00  0.00     0.014 A 
ATOM     11  C   UNL A   1      36.991  29.293  30.034  1.00  0.00     0.010 A 
ATOM     12  C   UNL A   1      38.047  30.419  28.168  1.00  0.00     0.010 A 
ATOM     13  C   UNL A   1      38.158  29.662  29.345  1.00  0.00    -0.014 A 
BRANCH  13  14
ATOM     14  C   UNL A   1      39.467  29.168  29.847  1.00  0.00     0.031 A 
ATOM     15  C   UNL A   1      40.109  29.750  31.075  1.00  0.00     0.074 A 
ATOM     16  C   UNL A   1      40.043  28.134  29.201  1.00  0.00     0.049 A 
ATOM     17  N   UNL A   1      41.218  29.391  31.671  1.00  0.00    -0.248 NA
ATOM     18  C   UNL A   1      39.426  30.885  31.713  1.00  0.00     0.031 C 
ATOM     19  C   UNL A   1      39.512  27.505  27.987  1.00  0.00     0.029 A 
ATOM     20  N   UNL A   1      41.172  27.410  29.481  1.00  0.00    -0.354 N 
ATOM     21  C   UNL A   1      41.373  30.255  32.750  1.00  0.00     0.074 A 
ATOM     22  C   UNL A   1      40.257  31.179  32.705  1.00  0.00     0.031 C 
ATOM     23  C   UNL A   1      40.280  26.455  27.663  1.00  0.00     0.029 A 
ATOM     24  C   UNL A   1      41.393  26.376  28.600  1.00  0.00     0.049 A 
ATOM     25  H   UNL A   1      41.767  27.609  30.238  1.00  0.00     0.167 HD
ATOM     26  C   UNL A   1      42.350  30.268  33.690  1.00  0.00     0.034 A 
ATOM     27  C   UNL A   1      42.390  25.473  28.540  1.00  0.00     0.034 A 
ATOM     28  C   UNL A   1      43.458  29.341  33.715  1.00  0.00     0.049 A 
ATOM     29  C   UNL A   1      43.465  25.521  29.591  1.00  0.00     0.074 A 
ATOM     30  C   UNL A   1      44.501  29.264  34.624  1.00  0.00     0.029 A 
ATOM     31  N   UNL A   1      43.670  28.327  32.789  1.00  0.00    -0.354 N 
ATOM     32  N   UNL A   1      43.589  26.344  30.607  1.00  0.00    -0.248 NA
ATOM     33  C   UNL A   1      44.528  24.517  29.491  1.00  0.00     0.031 C 
ATOM     34  C   UNL A   1      45.369  28.243  34.216  1.00  0.00     0.029 A 
ATOM     35  C   UNL A   1      44.835  27.637  33.091  1.00  0.00     0.049 A 
ATOM     36  H   UNL A   1      43.079  28.128  32.027  1.00  0.00     0.167 HD
ATOM     37  C   UNL A   1      44.746  25.952  31.269  1.00  0.00     0.074 A 
ATOM     38  C   UNL A   1      45.256  24.794  30.561  1.00  0.00     0.031 C 
ATOM     39  C   UNL A   1      45.344  26.504  32.355  1.00  0.00     0.034 A 
BRANCH  26  40
ATOM     40  C   UNL A   1      42.285  31.342  34.749  1.00  0.00     0.023 A 
ATOM     41  C   UNL A   1      42.905  32.592  34.574  1.00  0.00     0.031 A 
ATOM     42  C   UNL A   1      41.589  31.117  35.950  1.00  0.00     0.131 A 
ATOM     43  C   UNL A   1      42.861  33.547  35.601  1.00  0.00     0.055 A 
ATOM     44  C   UNL A   1      41.491  32.095  36.941  1.00  0.00     0.041 A 
ATOM     45  F   UNL A   1      40.992  29.936  36.182  1.00  0.00    -0.206 F 
ATOM     46  C   UNL A   1      42.138  33.316  36.775  1.00  0.00     0.022 A 
BRANCH  43  47
ATOM     47  S   UNL A   1      43.846  35.060  35.425  1.00  0.00     0.124 S 
ATOM     48  O   UNL A   1      44.168  35.367  36.817  1.00  0.00    -0.237 OA
ATOM     49  O   UNL A   1      44.961  34.618  34.596  1.00  0.00    -0.237 OA
ATOM     50  O   UNL A   1      42.926  35.997  34.785  1.00  0.00    -0.744 OA
ENDBRANCH  43  47
ENDBRANCH  26  40
BRANCH  27  51
ATOM     51  C   UNL A   1      42.438  24.477  27.434  1.00  0.00     0.023 A 
ATOM     52  C   UNL A   1      41.629  23.330  27.449  1.00  0.00     0.031 A 
ATOM     53  C   UNL A   1      43.326  24.644  26.354  1.00  0.00     0.131 A 
ATOM     54  C   UNL A   1      41.756  22.373  26.431  1.00  0.00     0.055 A 
ATOM     55  C   UNL A   1      43.407  23.718  25.315  1.00  0.00     0.041 A 
ATOM     56  F   UNL A   1      44.119  25.726  26.289  1.00  0.00    -0.206 F 
ATOM     57  C   UNL A   1      42.630  22.566  25.357  1.00  0.00     0.022 A 
BRANCH  54  58
ATOM     58  S   UNL A   1      40.829  20.822  26.578  1.00  0.00     0.124 S 
ATOM     59  O   UNL A   1      39.532  21.194  26.023  1.00  0.00    -0.237 OA
ATOM     60  O   UNL A   1      41.635  19.912  25.772  1.00  0.00    -0.237 OA
ATOM     61  O   UNL A   1      40.839  20.555  28.016  1.00  0.00    -0.744 OA
ENDBRANCH  54  58
ENDBRANCH  27  51
BRANCH  39  62
ATOM     62  C   UNL A   1      46.607  25.836  32.833  1.00  0.00     0.023 A 
ATOM     63  C   UNL A   1      47.851  26.114  32.238  1.00  0.00     0.031 A 
ATOM     64  C   UNL A   1      46.562  24.869  33.852  1.00  0.00     0.131 A 
ATOM     65  C   UNL A   1      48.985  25.381  32.614  1.00  0.00     0.055 A 
ATOM     66  C   UNL A   1      47.707  24.186  34.266  1.00  0.00     0.041 A 
ATOM     67  F   UNL A   1      45.400  24.564  34.453  1.00  0.00    -0.206 F 
ATOM     68  C   UNL A   1      48.923  24.429  33.633  1.00  0.00     0.022 A 
BRANCH  65  69
ATOM     69  S   UNL A   1      50.519  25.610  31.671  1.00  0.00     0.124 S 
ATOM     70  O   UNL A   1      51.521  25.662  32.732  1.00  0.00    -0.237 OA
ATOM     71  O   UNL A   1      50.545  24.420  30.828  1.00  0.00    -0.237 OA
ATOM     72  O   UNL A   1      50.300  26.868  30.961  1.00  0.00    -0.744 OA
ENDBRANCH  65  69
ENDBRANCH  39  62
ENDBRANCH  13  14
ENDBRANCH   6   8
ENDBRANCH   3   4
ENDBRANCH   2   3
ENDBRANCH   1   2
BRANCH   1  73
ATOM     73  C   UNL A   1      31.518  29.192  24.366  1.00  0.00     0.002 C 
BRANCH  73  74
ATOM     74  C   UNL A   1      31.326  28.950  22.860  1.00  0.00     0.021 C 
BRANCH  74  75
ATOM     75  C   UNL A   1      30.623  27.635  22.518  1.00  0.00     0.116 C 
BRANCH  75  76
ATOM     76  N   UNL A   1      31.446  26.837  21.628  1.00  0.00    -0.356 N 
ATOM     77  C   UNL A   1      32.533  26.071  21.914  1.00  0.00     0.223 C 
ATOM     78  H   UNL A   1      31.180  26.853  20.680  1.00  0.00     0.163 HD
ATOM     79  O   UNL A   1      33.253  25.717  20.982  1.00  0.00    -0.275 OA
BRANCH  77  80
ATOM     80  C   UNL A   1      32.762  25.620  23.350  1.00  0.00     0.082 C 
ATOM     81  C   UNL A   1      34.120  24.925  23.521  1.00  0.00     0.035 C 
ATOM     82  C   UNL A   1      31.597  24.715  23.784  1.00  0.00     0.035 C 
ATOM     83  C   UNL A   1      34.152  23.508  22.953  1.00  0.00     0.117 C 
ATOM     84  C   UNL A   1      31.685  23.319  23.156  1.00  0.00     0.117 C 
ATOM     85  N   UNL A   1      32.999  22.768  23.463  1.00  0.00    -0.366 N 
BRANCH  85  86
ATOM     86  C   UNL A   1      33.184  21.455  23.845  1.00  0.00     0.116 A 
ATOM     87  C   UNL A   1      32.437  20.480  23.158  1.00  0.00     0.034 A 
ATOM     88  C   UNL A   1      34.050  20.983  24.841  1.00  0.00     0.293 A 
ATOM     89  C   UNL A   1      32.561  19.113  23.434  1.00  0.00     0.016 A 
ATOM     90  C   UNL A   1      34.189  19.611  25.133  1.00  0.00     0.101 A 
ATOM     91  C   UNL A   1      33.442  18.663  24.423  1.00  0.00     0.062 A 
BRANCH  88  92
ATOM     92  N   UNL A   1      34.804  21.901  25.676  1.00  0.00     0.064 N 
ATOM     93  O   UNL A   1      36.029  21.948  25.486  1.00  0.00    -0.258 OA
ATOM     94  O   UNL A   1      34.194  22.507  26.568  1.00  0.00    -0.258 OA
ENDBRANCH  88  92
BRANCH  91  95
ATOM     95  C   UNL A   1      33.558  17.187  24.708  1.00  0.00     0.416 C 
ATOM     96  F   UNL A   1      33.309  16.891  26.014  1.00  0.00    -0.166 F 
ATOM     97  F   UNL A   1      32.680  16.443  23.982  1.00  0.00    -0.166 F 
ATOM     98  F   UNL A   1      34.792  16.677  24.441  1.00  0.00    -0.166 F 
ENDBRANCH  91  95
ENDBRANCH  85  86
ENDBRANCH  77  80
ENDBRANCH  75  76
ENDBRANCH  74  75
ENDBRANCH  73  74
ENDBRANCH   1  73
TORSDOF 19
ENDMDL
