MODEL 1
REMARK VINA RESULT:     -12.1      0.000      0.000
REMARK SMILES CCc1ccc(C[NH+]2CCC(Oc3ccccc3OC)(C(=O)NCCCCCCNC(=O)c3ccc(-c4c5nc(c(-c6cc(S(=O)(=O)[O-])ccc6F)c6ccc([nH]6)c(-c6cc(S(=O)(=O)[O-])ccc6F)c6nc(c(-c7cc(S(=O)(=O)[O-])ccc7F)c7ccc4[nH]7)C=C6)C=C5)cc3)CC2)nc1
REMARK SMILES IDX 26 1 25 2 24 3 23 4 21 5 22 6 11 8 8 9 9 10 97 11 10 13
REMARK SMILES IDX 96 14 7 15 6 16 3 17 4 18 99 19 5 20 98 21 2 22 1 23 12 24
REMARK SMILES IDX 13 25 14 26 18 27 15 28 17 29 16 30 19 31 20 32 27 33 28 34
REMARK SMILES IDX 29 35 30 36 31 37 32 39 33 40 34 41 95 42 35 43 94 44 36 45
REMARK SMILES IDX 37 46 38 47 88 48 39 49 93 50 87 51 89 52 40 53 92 54 86 55
REMARK SMILES IDX 85 56 41 58 73 59 53 60 72 61 54 62 57 63 71 64 90 65 55 66
REMARK SMILES IDX 56 67 70 69 91 70 58 71 42 72 43 73 51 74 44 75 50 76 52 77
REMARK SMILES IDX 49 78 45 79 46 80 47 81 48 82 74 83 75 84 83 85 76 86 82 87
REMARK SMILES IDX 84 88 81 89 77 90 78 91 79 92 80 93 59 94 60 95 68 96 61 97
REMARK SMILES IDX 67 98 69 99 66 100 62 101 63 102 64 103 65 104
REMARK H PARENT 23 7 8 12 30 38 89 57 57 68
REMARK Flexibility Score: inf
ROOT
ATOM      1  C   UNL A   1      32.365  29.904  26.546  1.00  0.00     0.002 C 
ENDROOT
BRANCH   1   2
ATOM      2  C   UNL A   1      31.756  28.766  27.370  1.00  0.00     0.021 C 
BRANCH   2   3
ATOM      3  C   UNL A   1      32.487  27.434  27.231  1.00  0.00     0.116 C 
BRANCH   3   4
ATOM      4  N   UNL A   1      31.576  26.316  27.097  1.00  0.00    -0.353 N 
ATOM      5  C   UNL A   1      31.734  25.108  26.475  1.00  0.00     0.264 C 
ATOM      6  O   UNL A   1      30.861  24.271  26.735  1.00  0.00    -0.270 OA
ATOM      7  H   UNL A   1      30.699  26.447  27.525  1.00  0.00     0.163 HD
BRANCH   5   8
ATOM      8  C   UNL A   1      32.928  24.803  25.501  1.00  0.00     0.197 C 
ATOM      9  N   UNL A   1      32.174  25.932  22.886  1.00  0.00    -0.330 N 
ATOM     10  C   UNL A   1      32.541  26.811  24.001  1.00  0.00     0.267 C 
ATOM     11  C   UNL A   1      31.506  24.714  23.368  1.00  0.00     0.267 C 
ATOM     12  H   UNL A   1      33.037  25.644  22.425  1.00  0.00     0.348 HD
ATOM     13  C   UNL A   1      33.511  26.100  24.927  1.00  0.00     0.120 C 
ATOM     14  C   UNL A   1      32.408  23.929  24.334  1.00  0.00     0.120 C 
BRANCH   9  15
ATOM     15  C   UNL A   1      31.369  26.641  21.861  1.00  0.00     0.319 C 
BRANCH  15  16
ATOM     16  C   UNL A   1      30.514  27.793  22.369  1.00  0.00     0.095 A 
ATOM     17  C   UNL A   1      28.757  29.860  22.883  1.00  0.00    -0.030 A 
ATOM     18  C   UNL A   1      28.467  28.577  23.349  1.00  0.00     0.007 A 
ATOM     19  C   UNL A   1      29.955  30.029  22.198  1.00  0.00     0.115 A 
ATOM     20  C   UNL A   1      29.352  27.531  23.093  1.00  0.00     0.030 A 
ATOM     21  N   UNL A   1      30.842  29.041  21.957  1.00  0.00    -0.255 NA
BRANCH  17  22
ATOM     22  C   UNL A   1      27.768  30.981  23.044  1.00  0.00     0.034 C 
ATOM     23  C   UNL A   1      27.975  32.127  22.064  1.00  0.00     0.009 C 
ENDBRANCH  17  22
ENDBRANCH  15  16
ENDBRANCH   9  15
BRANCH   8  24
ATOM     24  O   UNL A   1      33.882  24.144  26.367  1.00  0.00    -0.473 OA
BRANCH  24  25
ATOM     25  C   UNL A   1      34.814  23.301  25.844  1.00  0.00     0.162 A 
ATOM     26  C   UNL A   1      35.965  23.905  25.324  1.00  0.00     0.050 A 
ATOM     27  C   UNL A   1      34.609  21.931  25.647  1.00  0.00     0.160 A 
ATOM     28  C   UNL A   1      36.929  23.141  24.667  1.00  0.00     0.004 A 
ATOM     29  C   UNL A   1      35.588  21.166  25.008  1.00  0.00     0.050 A 
ATOM     30  C   UNL A   1      36.743  21.769  24.511  1.00  0.00     0.004 A 
BRANCH  27  31
ATOM     31  O   UNL A   1      33.524  21.236  26.107  1.00  0.00    -0.493 OA
ATOM     32  C   UNL A   1      33.338  20.001  25.425  1.00  0.00     0.278 C 
ENDBRANCH  27  31
ENDBRANCH  24  25
ENDBRANCH   8  24
ENDBRANCH   5   8
ENDBRANCH   3   4
ENDBRANCH   2   3
ENDBRANCH   1   2
BRANCH   1  33
ATOM     33  C   UNL A   1      31.355  30.881  25.935  1.00  0.00     0.002 C 
BRANCH  33  34
ATOM     34  C   UNL A   1      31.381  32.301  26.511  1.00  0.00     0.021 C 
BRANCH  34  35
ATOM     35  C   UNL A   1      32.663  32.670  27.253  1.00  0.00     0.116 C 
BRANCH  35  36
ATOM     36  N   UNL A   1      32.685  34.070  27.637  1.00  0.00    -0.352 N 
ATOM     37  C   UNL A   1      33.405  34.699  28.623  1.00  0.00     0.251 C 
ATOM     38  H   UNL A   1      32.094  34.657  27.112  1.00  0.00     0.163 HD
ATOM     39  O   UNL A   1      33.118  35.850  28.938  1.00  0.00    -0.269 OA
BRANCH  37  40
ATOM     40  C   UNL A   1      34.507  33.989  29.312  1.00  0.00     0.039 A 
ATOM     41  C   UNL A   1      35.825  34.321  28.991  1.00  0.00     0.014 A 
ATOM     42  C   UNL A   1      34.248  32.980  30.246  1.00  0.00     0.014 A 
ATOM     43  C   UNL A   1      36.881  33.675  29.638  1.00  0.00     0.010 A 
ATOM     44  C   UNL A   1      35.301  32.387  30.941  1.00  0.00     0.010 A 
ATOM     45  C   UNL A   1      36.629  32.722  30.639  1.00  0.00    -0.014 A 
BRANCH  45  46
ATOM     46  C   UNL A   1      37.750  32.069  31.366  1.00  0.00     0.031 A 
ATOM     47  C   UNL A   1      38.535  30.960  30.718  1.00  0.00     0.074 A 
ATOM     48  C   UNL A   1      38.035  32.453  32.627  1.00  0.00     0.049 A 
ATOM     49  N   UNL A   1      39.535  30.264  31.197  1.00  0.00    -0.248 NA
ATOM     50  C   UNL A   1      38.122  30.563  29.364  1.00  0.00     0.031 C 
ATOM     51  C   UNL A   1      37.310  33.479  33.380  1.00  0.00     0.029 A 
ATOM     52  N   UNL A   1      39.006  32.028  33.498  1.00  0.00    -0.354 N 
ATOM     53  C   UNL A   1      39.866  29.343  30.208  1.00  0.00     0.074 A 
ATOM     54  C   UNL A   1      38.913  29.526  29.133  1.00  0.00     0.031 C 
ATOM     55  C   UNL A   1      37.883  33.627  34.585  1.00  0.00     0.029 A 
ATOM     56  C   UNL A   1      38.990  32.684  34.707  1.00  0.00     0.049 A 
ATOM     57  H   UNL A   1      39.654  31.320  33.278  1.00  0.00     0.167 HD
ATOM     58  C   UNL A   1      40.883  28.445  30.188  1.00  0.00     0.034 A 
ATOM     59  C   UNL A   1      39.778  32.545  35.791  1.00  0.00     0.034 A 
ATOM     60  C   UNL A   1      41.828  28.281  31.266  1.00  0.00     0.049 A 
ATOM     61  C   UNL A   1      40.906  31.545  35.743  1.00  0.00     0.074 A 
ATOM     62  C   UNL A   1      42.923  27.435  31.336  1.00  0.00     0.029 A 
ATOM     63  N   UNL A   1      41.792  28.975  32.470  1.00  0.00    -0.354 N 
ATOM     64  N   UNL A   1      41.240  30.719  34.778  1.00  0.00    -0.248 NA
ATOM     65  C   UNL A   1      41.777  31.477  36.923  1.00  0.00     0.031 C 
ATOM     66  C   UNL A   1      43.506  27.571  32.600  1.00  0.00     0.029 A 
ATOM     67  C   UNL A   1      42.828  28.560  33.294  1.00  0.00     0.049 A 
ATOM     68  H   UNL A   1      41.127  29.662  32.704  1.00  0.00     0.167 HD
ATOM     69  C   UNL A   1      42.383  30.060  35.223  1.00  0.00     0.074 A 
ATOM     70  C   UNL A   1      42.688  30.599  36.532  1.00  0.00     0.031 C 
ATOM     71  C   UNL A   1      43.117  29.100  34.603  1.00  0.00     0.034 A 
BRANCH  58  72
ATOM     72  C   UNL A   1      41.004  27.560  28.967  1.00  0.00     0.023 A 
ATOM     73  C   UNL A   1      42.007  27.764  28.003  1.00  0.00     0.031 A 
ATOM     74  C   UNL A   1      40.088  26.515  28.748  1.00  0.00     0.131 A 
ATOM     75  C   UNL A   1      42.022  26.994  26.829  1.00  0.00     0.055 A 
ATOM     76  C   UNL A   1      40.161  25.696  27.619  1.00  0.00     0.041 A 
ATOM     77  F   UNL A   1      39.095  26.282  29.620  1.00  0.00    -0.206 F 
ATOM     78  C   UNL A   1      41.122  25.942  26.643  1.00  0.00     0.022 A 
BRANCH  75  79
ATOM     79  S   UNL A   1      43.136  27.485  25.484  1.00  0.00     0.124 S 
ATOM     80  O   UNL A   1      42.223  28.194  24.591  1.00  0.00    -0.237 OA
ATOM     81  O   UNL A   1      44.122  28.307  26.175  1.00  0.00    -0.237 OA
ATOM     82  O   UNL A   1      43.634  26.211  24.970  1.00  0.00    -0.744 OA
ENDBRANCH  75  79
ENDBRANCH  58  72
BRANCH  59  83
ATOM     83  C   UNL A   1      39.545  33.375  37.007  1.00  0.00     0.023 A 
ATOM     84  C   UNL A   1      38.918  32.836  38.142  1.00  0.00     0.031 A 
ATOM     85  C   UNL A   1      39.908  34.733  37.038  1.00  0.00     0.131 A 
ATOM     86  C   UNL A   1      38.627  33.661  39.240  1.00  0.00     0.055 A 
ATOM     87  C   UNL A   1      39.667  35.537  38.153  1.00  0.00     0.041 A 
ATOM     88  F   UNL A   1      40.518  35.296  35.983  1.00  0.00    -0.206 F 
ATOM     89  C   UNL A   1      39.009  35.004  39.258  1.00  0.00     0.022 A 
BRANCH  86  90
ATOM     90  S   UNL A   1      37.664  32.972  40.613  1.00  0.00     0.124 S 
ATOM     91  O   UNL A   1      37.937  33.931  41.678  1.00  0.00    -0.237 OA
ATOM     92  O   UNL A   1      36.310  32.986  40.069  1.00  0.00    -0.237 OA
ATOM     93  O   UNL A   1      38.244  31.644  40.804  1.00  0.00    -0.744 OA
ENDBRANCH  86  90
ENDBRANCH  59  83
BRANCH  71  94
ATOM     94  C   UNL A   1      44.354  28.615  35.324  1.00  0.00     0.023 A 
ATOM     95  C   UNL A   1      44.297  27.608  36.303  1.00  0.00     0.031 A 
ATOM     96  C   UNL A   1      45.603  29.199  35.050  1.00  0.00     0.131 A 
ATOM     97  C   UNL A   1      45.451  27.269  37.026  1.00  0.00     0.055 A 
ATOM     98  C   UNL A   1      46.762  28.809  35.724  1.00  0.00     0.041 A 
ATOM     99  F   UNL A   1      45.718  30.167  34.125  1.00  0.00    -0.206 F 
ATOM    100  C   UNL A   1      46.686  27.853  36.731  1.00  0.00     0.022 A 
BRANCH  97 101
ATOM    101  S   UNL A   1      45.292  26.146  38.442  1.00  0.00     0.124 S 
ATOM    102  O   UNL A   1      46.475  26.479  39.228  1.00  0.00    -0.237 OA
ATOM    103  O   UNL A   1      44.012  26.549  39.015  1.00  0.00    -0.237 OA
ATOM    104  O   UNL A   1      45.306  24.818  37.829  1.00  0.00    -0.744 OA
ENDBRANCH  97 101
ENDBRANCH  71  94
ENDBRANCH  45  46
ENDBRANCH  37  40
ENDBRANCH  35  36
ENDBRANCH  34  35
ENDBRANCH  33  34
ENDBRANCH   1  33
TORSDOF 22
ENDMDL
MODEL 2
REMARK VINA RESULT:     -11.8      0.974      7.369
REMARK SMILES CCc1ccc(C[NH+]2CCC(Oc3ccccc3OC)(C(=O)NCCCCCCNC(=O)c3ccc(-c4c5nc(c(-c6cc(S(=O)(=O)[O-])ccc6F)c6ccc([nH]6)c(-c6cc(S(=O)(=O)[O-])ccc6F)c6nc(c(-c7cc(S(=O)(=O)[O-])ccc7F)c7ccc4[nH]7)C=C6)C=C5)cc3)CC2)nc1
REMARK SMILES IDX 26 1 25 2 24 3 23 4 21 5 22 6 11 8 8 9 9 10 97 11 10 13
REMARK SMILES IDX 96 14 7 15 6 16 3 17 4 18 99 19 5 20 98 21 2 22 1 23 12 24
REMARK SMILES IDX 13 25 14 26 18 27 15 28 17 29 16 30 19 31 20 32 27 33 28 34
REMARK SMILES IDX 29 35 30 36 31 37 32 39 33 40 34 41 95 42 35 43 94 44 36 45
REMARK SMILES IDX 37 46 38 47 88 48 39 49 93 50 87 51 89 52 40 53 92 54 86 55
REMARK SMILES IDX 85 56 41 58 73 59 53 60 72 61 54 62 57 63 71 64 90 65 55 66
REMARK SMILES IDX 56 67 70 69 91 70 58 71 42 72 43 73 51 74 44 75 50 76 52 77
REMARK SMILES IDX 49 78 45 79 46 80 47 81 48 82 74 83 75 84 83 85 76 86 82 87
REMARK SMILES IDX 84 88 81 89 77 90 78 91 79 92 80 93 59 94 60 95 68 96 61 97
REMARK SMILES IDX 67 98 69 99 66 100 62 101 63 102 64 103 65 104
REMARK H PARENT 23 7 8 12 30 38 89 57 57 68
REMARK Flexibility Score: inf
ROOT
ATOM      1  C   UNL A   1      31.996  29.697  25.765  1.00  0.00     0.002 C 
ENDROOT
BRANCH   1   2
ATOM      2  C   UNL A   1      31.770  28.868  27.032  1.00  0.00     0.021 C 
BRANCH   2   3
ATOM      3  C   UNL A   1      32.537  27.549  27.060  1.00  0.00     0.116 C 
BRANCH   3   4
ATOM      4  N   UNL A   1      31.658  26.398  27.050  1.00  0.00    -0.353 N 
ATOM      5  C   UNL A   1      31.828  25.152  26.512  1.00  0.00     0.264 C 
ATOM      6  O   UNL A   1      30.993  24.313  26.871  1.00  0.00    -0.270 OA
ATOM      7  H   UNL A   1      30.796  26.536  27.505  1.00  0.00     0.163 HD
BRANCH   5   8
ATOM      8  C   UNL A   1      32.989  24.809  25.511  1.00  0.00     0.197 C 
ATOM      9  N   UNL A   1      32.169  25.877  22.891  1.00  0.00    -0.330 N 
ATOM     10  C   UNL A   1      32.577  26.782  23.971  1.00  0.00     0.267 C 
ATOM     11  C   UNL A   1      31.503  24.680  23.424  1.00  0.00     0.267 C 
ATOM     12  H   UNL A   1      33.015  25.569  22.412  1.00  0.00     0.348 HD
ATOM     13  C   UNL A   1      33.567  26.084  24.887  1.00  0.00     0.120 C 
ATOM     14  C   UNL A   1      32.426  23.911  24.383  1.00  0.00     0.120 C 
BRANCH   9  15
ATOM     15  C   UNL A   1      31.340  26.569  21.872  1.00  0.00     0.319 C 
BRANCH  15  16
ATOM     16  C   UNL A   1      30.506  27.737  22.376  1.00  0.00     0.095 A 
ATOM     17  C   UNL A   1      28.785  29.836  22.884  1.00  0.00    -0.030 A 
ATOM     18  C   UNL A   1      28.472  28.560  23.353  1.00  0.00     0.007 A 
ATOM     19  C   UNL A   1      29.987  29.982  22.199  1.00  0.00     0.115 A 
ATOM     20  C   UNL A   1      29.338  27.498  23.100  1.00  0.00     0.030 A 
ATOM     21  N   UNL A   1      30.857  28.978  21.962  1.00  0.00    -0.255 NA
BRANCH  17  22
ATOM     22  C   UNL A   1      27.816  30.975  23.041  1.00  0.00     0.034 C 
ATOM     23  C   UNL A   1      28.268  32.262  22.365  1.00  0.00     0.009 C 
ENDBRANCH  17  22
ENDBRANCH  15  16
ENDBRANCH   9  15
BRANCH   8  24
ATOM     24  O   UNL A   1      33.962  24.162  26.366  1.00  0.00    -0.473 OA
BRANCH  24  25
ATOM     25  C   UNL A   1      34.935  23.379  25.825  1.00  0.00     0.162 A 
ATOM     26  C   UNL A   1      35.854  24.028  24.992  1.00  0.00     0.050 A 
ATOM     27  C   UNL A   1      34.957  21.983  25.915  1.00  0.00     0.160 A 
ATOM     28  C   UNL A   1      36.822  23.299  24.302  1.00  0.00     0.004 A 
ATOM     29  C   UNL A   1      35.943  21.258  25.240  1.00  0.00     0.050 A 
ATOM     30  C   UNL A   1      36.869  21.912  24.428  1.00  0.00     0.004 A 
BRANCH  27  31
ATOM     31  O   UNL A   1      34.110  21.243  26.693  1.00  0.00    -0.493 OA
ATOM     32  C   UNL A   1      33.022  20.701  25.954  1.00  0.00     0.278 C 
ENDBRANCH  27  31
ENDBRANCH  24  25
ENDBRANCH   8  24
ENDBRANCH   5   8
ENDBRANCH   3   4
ENDBRANCH   2   3
ENDBRANCH   1   2
BRANCH   1  33
ATOM     33  C   UNL A   1      31.310  31.067  25.751  1.00  0.00     0.002 C 
BRANCH  33  34
ATOM     34  C   UNL A   1      31.432  31.879  27.045  1.00  0.00     0.021 C 
BRANCH  34  35
ATOM     35  C   UNL A   1      32.764  32.602  27.225  1.00  0.00     0.116 C 
BRANCH  35  36
ATOM     36  N   UNL A   1      32.585  33.956  27.719  1.00  0.00    -0.352 N 
ATOM     37  C   UNL A   1      33.241  34.617  28.729  1.00  0.00     0.251 C 
ATOM     38  H   UNL A   1      31.887  34.479  27.262  1.00  0.00     0.163 HD
ATOM     39  O   UNL A   1      32.793  35.681  29.143  1.00  0.00    -0.269 OA
BRANCH  37  40
ATOM     40  C   UNL A   1      34.469  34.042  29.323  1.00  0.00     0.039 A 
ATOM     41  C   UNL A   1      34.348  33.197  30.429  1.00  0.00     0.014 A 
ATOM     42  C   UNL A   1      35.735  34.357  28.819  1.00  0.00     0.014 A 
ATOM     43  C   UNL A   1      35.492  32.631  30.998  1.00  0.00     0.010 A 
ATOM     44  C   UNL A   1      36.868  33.736  29.343  1.00  0.00     0.010 A 
ATOM     45  C   UNL A   1      36.760  32.873  30.444  1.00  0.00    -0.014 A 
BRANCH  45  46
ATOM     46  C   UNL A   1      37.974  32.232  31.016  1.00  0.00     0.031 A 
ATOM     47  C   UNL A   1      38.621  32.795  32.253  1.00  0.00     0.074 A 
ATOM     48  C   UNL A   1      38.514  31.164  30.395  1.00  0.00     0.049 A 
ATOM     49  N   UNL A   1      39.689  32.383  32.889  1.00  0.00    -0.248 NA
ATOM     50  C   UNL A   1      38.004  33.997  32.832  1.00  0.00     0.031 C 
ATOM     51  C   UNL A   1      38.007  30.561  29.160  1.00  0.00     0.029 A 
ATOM     52  N   UNL A   1      39.604  30.395  30.715  1.00  0.00    -0.354 N 
ATOM     53  C   UNL A   1      39.875  33.278  33.938  1.00  0.00     0.074 A 
ATOM     54  C   UNL A   1      38.850  34.292  33.808  1.00  0.00     0.031 C 
ATOM     55  C   UNL A   1      38.764  29.497  28.848  1.00  0.00     0.029 A 
ATOM     56  C   UNL A   1      39.831  29.362  29.835  1.00  0.00     0.049 A 
ATOM     57  H   UNL A   1      40.171  30.565  31.502  1.00  0.00     0.167 HD
ATOM     58  C   UNL A   1      40.799  33.243  34.932  1.00  0.00     0.034 A 
ATOM     59  C   UNL A   1      40.787  28.413  29.824  1.00  0.00     0.034 A 
ATOM     60  C   UNL A   1      41.810  32.220  35.050  1.00  0.00     0.049 A 
ATOM     61  C   UNL A   1      41.799  28.391  30.941  1.00  0.00     0.074 A 
ATOM     62  C   UNL A   1      42.768  32.060  36.038  1.00  0.00     0.029 A 
ATOM     63  N   UNL A   1      41.999  31.179  34.149  1.00  0.00    -0.354 N 
ATOM     64  N   UNL A   1      41.928  29.212  31.957  1.00  0.00    -0.248 NA
ATOM     65  C   UNL A   1      42.779  27.298  30.920  1.00  0.00     0.031 C 
ATOM     66  C   UNL A   1      43.573  30.967  35.700  1.00  0.00     0.029 A 
ATOM     67  C   UNL A   1      43.070  30.390  34.545  1.00  0.00     0.049 A 
ATOM     68  H   UNL A   1      41.453  31.023  33.345  1.00  0.00     0.167 HD
ATOM     69  C   UNL A   1      42.982  28.711  32.717  1.00  0.00     0.074 A 
ATOM     70  C   UNL A   1      43.438  27.510  32.049  1.00  0.00     0.031 C 
ATOM     71  C   UNL A   1      43.522  29.198  33.864  1.00  0.00     0.034 A 
BRANCH  58  72
ATOM     72  C   UNL A   1      40.766  34.361  35.951  1.00  0.00     0.023 A 
ATOM     73  C   UNL A   1      40.263  34.163  37.249  1.00  0.00     0.031 A 
ATOM     74  C   UNL A   1      41.216  35.650  35.613  1.00  0.00     0.131 A 
ATOM     75  C   UNL A   1      40.145  35.248  38.131  1.00  0.00     0.055 A 
ATOM     76  C   UNL A   1      41.177  36.707  36.525  1.00  0.00     0.041 A 
ATOM     77  F   UNL A   1      41.688  35.909  34.383  1.00  0.00    -0.206 F 
ATOM     78  C   UNL A   1      40.624  36.514  37.787  1.00  0.00     0.022 A 
BRANCH  75  79
ATOM     79  S   UNL A   1      39.219  35.015  39.673  1.00  0.00     0.124 S 
ATOM     80  O   UNL A   1      38.268  33.973  39.291  1.00  0.00    -0.237 OA
ATOM     81  O   UNL A   1      40.262  34.615  40.611  1.00  0.00    -0.237 OA
ATOM     82  O   UNL A   1      38.627  36.328  39.919  1.00  0.00    -0.744 OA
ENDBRANCH  75  79
ENDBRANCH  58  72
BRANCH  59  83
ATOM     83  C   UNL A   1      40.831  27.397  28.733  1.00  0.00     0.023 A 
ATOM     84  C   UNL A   1      41.804  27.462  27.723  1.00  0.00     0.031 A 
ATOM     85  C   UNL A   1      39.874  26.370  28.661  1.00  0.00     0.131 A 
ATOM     86  C   UNL A   1      41.769  26.549  26.657  1.00  0.00     0.055 A 
ATOM     87  C   UNL A   1      39.876  25.430  27.629  1.00  0.00     0.041 A 
ATOM     88  F   UNL A   1      38.927  26.257  29.606  1.00  0.00    -0.206 F 
ATOM     89  C   UNL A   1      40.820  25.525  26.611  1.00  0.00     0.022 A 
BRANCH  86  90
ATOM     90  S   UNL A   1      42.933  26.770  25.284  1.00  0.00     0.124 S 
ATOM     91  O   UNL A   1      42.809  25.499  24.582  1.00  0.00    -0.237 OA
ATOM     92  O   UNL A   1      42.379  27.937  24.604  1.00  0.00    -0.237 OA
ATOM     93  O   UNL A   1      44.212  26.992  25.955  1.00  0.00    -0.744 OA
ENDBRANCH  86  90
ENDBRANCH  59  83
BRANCH  71  94
ATOM     94  C   UNL A   1      44.634  28.390  34.493  1.00  0.00     0.023 A 
ATOM     95  C   UNL A   1      44.374  27.365  35.419  1.00  0.00     0.031 A 
ATOM     96  C   UNL A   1      45.975  28.678  34.185  1.00  0.00     0.131 A 
ATOM     97  C   UNL A   1      45.441  26.718  36.062  1.00  0.00     0.055 A 
ATOM     98  C   UNL A   1      47.031  27.983  34.776  1.00  0.00     0.041 A 
ATOM     99  F   UNL A   1      46.283  29.648  33.308  1.00  0.00    -0.206 F 
ATOM    100  C   UNL A   1      46.768  27.009  35.734  1.00  0.00     0.022 A 
BRANCH  97 101
ATOM    101  S   UNL A   1      45.072  25.576  37.423  1.00  0.00     0.124 S 
ATOM    102  O   UNL A   1      45.960  24.456  37.130  1.00  0.00    -0.237 OA
ATOM    103  O   UNL A   1      45.416  26.372  38.597  1.00  0.00    -0.237 OA
ATOM    104  O   UNL A   1      43.646  25.297  37.260  1.00  0.00    -0.744 OA
ENDBRANCH  97 101
ENDBRANCH  71  94
ENDBRANCH  45  46
ENDBRANCH  37  40
ENDBRANCH  35  36
ENDBRANCH  34  35
ENDBRANCH  33  34
ENDBRANCH   1  33
TORSDOF 22
ENDMDL
MODEL 3
REMARK VINA RESULT:     -11.6      1.845      7.402
REMARK SMILES CCc1ccc(C[NH+]2CCC(Oc3ccccc3OC)(C(=O)NCCCCCCNC(=O)c3ccc(-c4c5nc(c(-c6cc(S(=O)(=O)[O-])ccc6F)c6ccc([nH]6)c(-c6cc(S(=O)(=O)[O-])ccc6F)c6nc(c(-c7cc(S(=O)(=O)[O-])ccc7F)c7ccc4[nH]7)C=C6)C=C5)cc3)CC2)nc1
REMARK SMILES IDX 26 1 25 2 24 3 23 4 21 5 22 6 11 8 8 9 9 10 97 11 10 13
REMARK SMILES IDX 96 14 7 15 6 16 3 17 4 18 99 19 5 20 98 21 2 22 1 23 12 24
REMARK SMILES IDX 13 25 14 26 18 27 15 28 17 29 16 30 19 31 20 32 27 33 28 34
REMARK SMILES IDX 29 35 30 36 31 37 32 39 33 40 34 41 95 42 35 43 94 44 36 45
REMARK SMILES IDX 37 46 38 47 88 48 39 49 93 50 87 51 89 52 40 53 92 54 86 55
REMARK SMILES IDX 85 56 41 58 73 59 53 60 72 61 54 62 57 63 71 64 90 65 55 66
REMARK SMILES IDX 56 67 70 69 91 70 58 71 42 72 43 73 51 74 44 75 50 76 52 77
REMARK SMILES IDX 49 78 45 79 46 80 47 81 48 82 74 83 75 84 83 85 76 86 82 87
REMARK SMILES IDX 84 88 81 89 77 90 78 91 79 92 80 93 59 94 60 95 68 96 61 97
REMARK SMILES IDX 67 98 69 99 66 100 62 101 63 102 64 103 65 104
REMARK H PARENT 23 7 8 12 30 38 89 57 57 68
REMARK Flexibility Score: inf
ROOT
ATOM      1  C   UNL A   1      31.570  29.871  25.707  1.00  0.00     0.002 C 
ENDROOT
BRANCH   1   2
ATOM      2  C   UNL A   1      31.969  29.294  27.068  1.00  0.00     0.021 C 
BRANCH   2   3
ATOM      3  C   UNL A   1      32.747  27.984  26.987  1.00  0.00     0.116 C 
BRANCH   3   4
ATOM      4  N   UNL A   1      31.881  26.824  27.023  1.00  0.00    -0.353 N 
ATOM      5  C   UNL A   1      32.022  25.589  26.453  1.00  0.00     0.264 C 
ATOM      6  O   UNL A   1      31.226  24.734  26.860  1.00  0.00    -0.270 OA
ATOM      7  H   UNL A   1      31.055  26.944  27.545  1.00  0.00     0.163 HD
BRANCH   5   8
ATOM      8  C   UNL A   1      33.107  25.276  25.361  1.00  0.00     0.197 C 
ATOM      9  N   UNL A   1      32.005  26.225  22.799  1.00  0.00    -0.330 N 
ATOM     10  C   UNL A   1      32.459  27.180  23.816  1.00  0.00     0.267 C 
ATOM     11  C   UNL A   1      31.452  25.012  23.419  1.00  0.00     0.267 C 
ATOM     12  H   UNL A   1      32.821  25.945  22.255  1.00  0.00     0.348 HD
ATOM     13  C   UNL A   1      33.561  26.559  24.657  1.00  0.00     0.120 C 
ATOM     14  C   UNL A   1      32.495  24.318  24.310  1.00  0.00     0.120 C 
BRANCH   9  15
ATOM     15  C   UNL A   1      31.055  26.845  21.842  1.00  0.00     0.319 C 
BRANCH  15  16
ATOM     16  C   UNL A   1      30.277  28.045  22.361  1.00  0.00     0.095 A 
ATOM     17  C   UNL A   1      28.650  30.209  22.901  1.00  0.00    -0.030 A 
ATOM     18  C   UNL A   1      28.299  28.946  23.381  1.00  0.00     0.007 A 
ATOM     19  C   UNL A   1      29.840  30.308  22.189  1.00  0.00     0.115 A 
ATOM     20  C   UNL A   1      29.118  27.852  23.112  1.00  0.00     0.030 A 
ATOM     21  N   UNL A   1      30.665  29.270  21.936  1.00  0.00    -0.255 NA
BRANCH  17  22
ATOM     22  C   UNL A   1      27.728  31.384  23.077  1.00  0.00     0.034 C 
ATOM     23  C   UNL A   1      28.387  32.728  22.795  1.00  0.00     0.009 C 
ENDBRANCH  17  22
ENDBRANCH  15  16
ENDBRANCH   9  15
BRANCH   8  24
ATOM     24  O   UNL A   1      34.185  24.703  26.141  1.00  0.00    -0.473 OA
BRANCH  24  25
ATOM     25  C   UNL A   1      34.909  23.662  25.647  1.00  0.00     0.162 A 
ATOM     26  C   UNL A   1      36.057  24.001  24.923  1.00  0.00     0.050 A 
ATOM     27  C   UNL A   1      34.484  22.329  25.676  1.00  0.00     0.160 A 
ATOM     28  C   UNL A   1      36.807  23.015  24.282  1.00  0.00     0.004 A 
ATOM     29  C   UNL A   1      35.250  21.341  25.053  1.00  0.00     0.050 A 
ATOM     30  C   UNL A   1      36.405  21.682  24.350  1.00  0.00     0.004 A 
BRANCH  27  31
ATOM     31  O   UNL A   1      33.380  21.882  26.349  1.00  0.00    -0.493 OA
ATOM     32  C   UNL A   1      33.699  21.346  27.628  1.00  0.00     0.278 C 
ENDBRANCH  27  31
ENDBRANCH  24  25
ENDBRANCH   8  24
ENDBRANCH   5   8
ENDBRANCH   3   4
ENDBRANCH   2   3
ENDBRANCH   1   2
BRANCH   1  33
ATOM     33  C   UNL A   1      31.028  31.304  25.739  1.00  0.00     0.002 C 
BRANCH  33  34
ATOM     34  C   UNL A   1      31.353  32.103  27.006  1.00  0.00     0.021 C 
BRANCH  34  35
ATOM     35  C   UNL A   1      32.677  32.861  26.965  1.00  0.00     0.116 C 
BRANCH  35  36
ATOM     36  N   UNL A   1      32.592  34.142  27.644  1.00  0.00    -0.352 N 
ATOM     37  C   UNL A   1      33.270  34.598  28.748  1.00  0.00     0.251 C 
ATOM     38  H   UNL A   1      31.950  34.779  27.255  1.00  0.00     0.163 HD
ATOM     39  O   UNL A   1      32.896  35.626  29.302  1.00  0.00    -0.269 OA
BRANCH  37  40
ATOM     40  C   UNL A   1      34.433  33.846  29.274  1.00  0.00     0.039 A 
ATOM     41  C   UNL A   1      35.716  34.228  28.875  1.00  0.00     0.014 A 
ATOM     42  C   UNL A   1      34.263  32.752  30.128  1.00  0.00     0.014 A 
ATOM     43  C   UNL A   1      36.829  33.543  29.369  1.00  0.00     0.010 A 
ATOM     44  C   UNL A   1      35.377  32.116  30.675  1.00  0.00     0.010 A 
ATOM     45  C   UNL A   1      36.671  32.499  30.295  1.00  0.00    -0.014 A 
BRANCH  45  46
ATOM     46  C   UNL A   1      37.856  31.801  30.863  1.00  0.00     0.031 A 
ATOM     47  C   UNL A   1      38.359  32.150  32.237  1.00  0.00     0.074 A 
ATOM     48  C   UNL A   1      38.499  30.878  30.120  1.00  0.00     0.049 A 
ATOM     49  N   UNL A   1      39.381  31.661  32.894  1.00  0.00    -0.248 NA
ATOM     50  C   UNL A   1      37.636  33.209  32.956  1.00  0.00     0.031 C 
ATOM     51  C   UNL A   1      38.137  30.493  28.754  1.00  0.00     0.029 A 
ATOM     52  N   UNL A   1      39.589  30.095  30.405  1.00  0.00    -0.354 N 
ATOM     53  C   UNL A   1      39.428  32.357  34.097  1.00  0.00     0.074 A 
ATOM     54  C   UNL A   1      38.373  33.348  34.047  1.00  0.00     0.031 C 
ATOM     55  C   UNL A   1      38.968  29.525  28.335  1.00  0.00     0.029 A 
ATOM     56  C   UNL A   1      39.944  29.245  29.383  1.00  0.00     0.049 A 
ATOM     57  H   UNL A   1      40.073  30.138  31.262  1.00  0.00     0.167 HD
ATOM     58  C   UNL A   1      40.257  32.171  35.156  1.00  0.00     0.034 A 
ATOM     59  C   UNL A   1      40.940  28.342  29.299  1.00  0.00     0.034 A 
ATOM     60  C   UNL A   1      41.299  31.172  35.191  1.00  0.00     0.049 A 
ATOM     61  C   UNL A   1      41.845  28.148  30.491  1.00  0.00     0.074 A 
ATOM     62  C   UNL A   1      42.168  30.865  36.226  1.00  0.00     0.029 A 
ATOM     63  N   UNL A   1      41.618  30.317  34.144  1.00  0.00    -0.354 N 
ATOM     64  N   UNL A   1      41.841  28.776  31.643  1.00  0.00    -0.248 NA
ATOM     65  C   UNL A   1      42.872  27.106  30.374  1.00  0.00     0.031 C 
ATOM     66  C   UNL A   1      43.050  29.875  35.781  1.00  0.00     0.029 A 
ATOM     67  C   UNL A   1      42.684  29.501  34.498  1.00  0.00     0.049 A 
ATOM     68  H   UNL A   1      41.156  30.293  33.275  1.00  0.00     0.167 HD
ATOM     69  C   UNL A   1      42.843  28.177  32.403  1.00  0.00     0.074 A 
ATOM     70  C   UNL A   1      43.413  27.130  31.582  1.00  0.00     0.031 C 
ATOM     71  C   UNL A   1      43.251  28.465  33.666  1.00  0.00     0.034 A 
BRANCH  58  72
ATOM     72  C   UNL A   1      40.078  33.085  36.348  1.00  0.00     0.023 A 
ATOM     73  C   UNL A   1      39.386  32.671  37.500  1.00  0.00     0.031 A 
ATOM     74  C   UNL A   1      40.580  34.399  36.323  1.00  0.00     0.131 A 
ATOM     75  C   UNL A   1      39.144  33.581  38.541  1.00  0.00     0.055 A 
ATOM     76  C   UNL A   1      40.411  35.273  37.399  1.00  0.00     0.041 A 
ATOM     77  F   UNL A   1      41.232  34.862  35.245  1.00  0.00    -0.206 F 
ATOM     78  C   UNL A   1      39.676  34.872  38.510  1.00  0.00     0.022 A 
BRANCH  75  79
ATOM     79  S   UNL A   1      37.998  33.101  39.862  1.00  0.00     0.124 S 
ATOM     80  O   UNL A   1      36.731  33.023  39.138  1.00  0.00    -0.237 OA
ATOM     81  O   UNL A   1      38.553  31.832  40.317  1.00  0.00    -0.237 OA
ATOM     82  O   UNL A   1      38.094  34.204  40.816  1.00  0.00    -0.744 OA
ENDBRANCH  75  79
ENDBRANCH  58  72
BRANCH  59  83
ATOM     83  C   UNL A   1      41.132  27.541  28.057  1.00  0.00     0.023 A 
ATOM     84  C   UNL A   1      40.804  26.177  28.016  1.00  0.00     0.031 A 
ATOM     85  C   UNL A   1      41.686  28.120  26.901  1.00  0.00     0.131 A 
ATOM     86  C   UNL A   1      41.079  25.424  26.864  1.00  0.00     0.055 A 
ATOM     87  C   UNL A   1      41.907  27.380  25.738  1.00  0.00     0.041 A 
ATOM     88  F   UNL A   1      42.009  29.423  26.883  1.00  0.00    -0.206 F 
ATOM     89  C   UNL A   1      41.616  26.019  25.720  1.00  0.00     0.022 A 
BRANCH  86  90
ATOM     90  S   UNL A   1      40.804  23.632  26.910  1.00  0.00     0.124 S 
ATOM     91  O   UNL A   1      41.370  23.278  28.207  1.00  0.00    -0.237 OA
ATOM     92  O   UNL A   1      39.352  23.546  26.799  1.00  0.00    -0.237 OA
ATOM     93  O   UNL A   1      41.546  23.143  25.750  1.00  0.00    -0.744 OA
ENDBRANCH  86  90
ENDBRANCH  59  83
BRANCH  71  94
ATOM     94  C   UNL A   1      44.336  27.589  34.249  1.00  0.00     0.023 A 
ATOM     95  C   UNL A   1      45.697  27.928  34.150  1.00  0.00     0.031 A 
ATOM     96  C   UNL A   1      44.001  26.378  34.879  1.00  0.00     0.131 A 
ATOM     97  C   UNL A   1      46.675  27.030  34.605  1.00  0.00     0.055 A 
ATOM     98  C   UNL A   1      44.976  25.521  35.392  1.00  0.00     0.041 A 
ATOM     99  F   UNL A   1      42.717  26.002  35.001  1.00  0.00    -0.206 F 
ATOM    100  C   UNL A   1      46.323  25.836  35.240  1.00  0.00     0.022 A 
BRANCH  97 101
ATOM    101  S   UNL A   1      48.417  27.386  34.243  1.00  0.00     0.124 S 
ATOM    102  O   UNL A   1      48.983  26.046  34.121  1.00  0.00    -0.237 OA
ATOM    103  O   UNL A   1      48.327  28.155  33.006  1.00  0.00    -0.237 OA
ATOM    104  O   UNL A   1      48.862  28.143  35.413  1.00  0.00    -0.744 OA
ENDBRANCH  97 101
ENDBRANCH  71  94
ENDBRANCH  45  46
ENDBRANCH  37  40
ENDBRANCH  35  36
ENDBRANCH  34  35
ENDBRANCH  33  34
ENDBRANCH   1  33
TORSDOF 22
ENDMDL
