MODEL 1
REMARK VINA RESULT:     -12.1      0.000      0.000
REMARK SMILES CC(C)(C(=O)NCCCCCCNC(=O)c1ccc(-c2c3nc(c(-c4cc(S(=O)(=O)[O-])ccc4F)c4ccc([nH]4)c(-c4cc(S(=O)(=O)[O-])ccc4F)c4nc(c(-c5cc(S(=O)(=O)[O-])ccc5F)c5ccc2[nH]5)C=C4)C=C3)cc1)N1C(=O)/C(=C/c2ccc(C=O)cc2)SC1=S
REMARK SMILES IDX 9 1 8 2 7 3 6 4 4 5 5 6 2 8 1 9 3 10 79 11 80 12 93 13 81 14
REMARK SMILES IDX 82 15 92 16 94 17 83 18 84 19 85 20 91 21 86 22 90 23 87 24
REMARK SMILES IDX 88 25 89 26 10 27 11 28 12 29 13 30 14 31 15 33 16 34 17 35
REMARK SMILES IDX 78 36 18 37 77 38 19 39 20 40 21 41 71 42 22 43 76 44 70 45
REMARK SMILES IDX 72 46 23 47 75 48 69 49 68 50 24 52 56 53 36 54 55 55 37 56
REMARK SMILES IDX 40 57 54 58 73 59 38 60 39 61 53 63 74 64 41 65 25 66 26 67
REMARK SMILES IDX 34 68 27 69 33 70 35 71 32 72 28 73 29 74 30 75 31 76 57 77
REMARK SMILES IDX 58 78 66 79 59 80 65 81 67 82 64 83 60 84 61 85 62 86 63 87
REMARK SMILES IDX 42 88 43 89 51 90 44 91 50 92 52 93 49 94 45 95 46 96 47 97
REMARK SMILES IDX 48 98
REMARK H PARENT 6 7 13 32 72 51 40 62
REMARK Flexibility Score: inf
ROOT
ATOM      1  C   UNL A   1      33.213  29.722  26.672  1.00  0.00     0.002 C 
ENDROOT
BRANCH   1   2
ATOM      2  C   UNL A   1      33.352  28.289  27.198  1.00  0.00     0.021 C 
BRANCH   2   3
ATOM      3  C   UNL A   1      33.606  27.257  26.102  1.00  0.00     0.116 C 
BRANCH   3   4
ATOM      4  N   UNL A   1      33.708  27.896  24.807  1.00  0.00    -0.354 N 
ATOM      5  C   UNL A   1      32.956  27.784  23.680  1.00  0.00     0.245 C 
ATOM      6  O   UNL A   1      33.390  28.375  22.682  1.00  0.00    -0.272 OA
ATOM      7  H   UNL A   1      34.461  28.526  24.728  1.00  0.00     0.163 HD
BRANCH   5   8
ATOM      8  C   UNL A   1      31.622  26.976  23.634  1.00  0.00     0.122 C 
ATOM      9  C   UNL A   1      30.780  27.158  24.916  1.00  0.00     0.046 C 
ATOM     10  C   UNL A   1      30.733  27.462  22.456  1.00  0.00     0.046 C 
BRANCH   8  11
ATOM     11  N   UNL A   1      32.057  25.532  23.427  1.00  0.00    -0.278 N 
ATOM     12  C   UNL A   1      31.778  24.603  24.429  1.00  0.00     0.267 C 
ATOM     13  C   UNL A   1      32.469  24.954  22.234  1.00  0.00     0.149 C 
ATOM     14  O   UNL A   1      31.156  24.787  25.466  1.00  0.00    -0.268 OA
ATOM     15  C   UNL A   1      32.337  23.272  24.095  1.00  0.00     0.081 C 
ATOM     16  S   UNL A   1      32.936  23.272  22.498  1.00  0.00    -0.054 SA
ATOM     17  S   UNL A   1      32.596  25.575  20.688  1.00  0.00    -0.052 S 
ATOM     18  C   UNL A   1      32.355  22.269  24.984  1.00  0.00     0.029 C 
BRANCH  18  19
ATOM     19  C   UNL A   1      32.980  20.963  24.761  1.00  0.00    -0.024 A 
ATOM     20  C   UNL A   1      34.336  20.776  25.044  1.00  0.00     0.009 A 
ATOM     21  C   UNL A   1      32.221  19.897  24.257  1.00  0.00     0.009 A 
ATOM     22  C   UNL A   1      34.921  19.520  24.858  1.00  0.00     0.012 A 
ATOM     23  C   UNL A   1      32.799  18.641  24.078  1.00  0.00     0.012 A 
ATOM     24  C   UNL A   1      34.147  18.455  24.386  1.00  0.00     0.014 A 
BRANCH  24  25
ATOM     25  C   UNL A   1      34.744  17.116  24.214  1.00  0.00     0.260 C 
ATOM     26  O   UNL A   1      34.187  16.226  23.583  1.00  0.00    -0.298 OA
ENDBRANCH  24  25
ENDBRANCH  18  19
ENDBRANCH   8  11
ENDBRANCH   5   8
ENDBRANCH   3   4
ENDBRANCH   2   3
ENDBRANCH   1   2
BRANCH   1  27
ATOM     27  C   UNL A   1      31.781  30.270  26.667  1.00  0.00     0.002 C 
BRANCH  27  28
ATOM     28  C   UNL A   1      31.671  31.794  26.757  1.00  0.00     0.021 C 
BRANCH  28  29
ATOM     29  C   UNL A   1      32.927  32.486  27.276  1.00  0.00     0.116 C 
BRANCH  29  30
ATOM     30  N   UNL A   1      32.672  33.877  27.616  1.00  0.00    -0.352 N 
ATOM     31  C   UNL A   1      33.193  34.629  28.638  1.00  0.00     0.251 C 
ATOM     32  H   UNL A   1      32.034  34.345  27.029  1.00  0.00     0.163 HD
ATOM     33  O   UNL A   1      32.685  35.711  28.917  1.00  0.00    -0.269 OA
BRANCH  31  34
ATOM     34  C   UNL A   1      34.347  34.120  29.408  1.00  0.00     0.039 A 
ATOM     35  C   UNL A   1      34.115  33.329  30.535  1.00  0.00     0.014 A 
ATOM     36  C   UNL A   1      35.656  34.426  29.021  1.00  0.00     0.014 A 
ATOM     37  C   UNL A   1      35.198  32.795  31.237  1.00  0.00     0.010 A 
ATOM     38  C   UNL A   1      36.730  33.829  29.675  1.00  0.00     0.010 A 
ATOM     39  C   UNL A   1      36.513  33.010  30.793  1.00  0.00    -0.014 A 
BRANCH  39  40
ATOM     40  C   UNL A   1      37.672  32.389  31.487  1.00  0.00     0.031 A 
ATOM     41  C   UNL A   1      38.419  31.254  30.840  1.00  0.00     0.074 A 
ATOM     42  C   UNL A   1      38.016  32.812  32.719  1.00  0.00     0.049 A 
ATOM     43  N   UNL A   1      39.407  30.538  31.312  1.00  0.00    -0.248 NA
ATOM     44  C   UNL A   1      37.977  30.855  29.495  1.00  0.00     0.031 C 
ATOM     45  C   UNL A   1      37.349  33.884  33.461  1.00  0.00     0.029 A 
ATOM     46  N   UNL A   1      39.010  32.393  33.568  1.00  0.00    -0.354 N 
ATOM     47  C   UNL A   1      39.703  29.603  30.327  1.00  0.00     0.074 A 
ATOM     48  C   UNL A   1      38.741  29.800  29.263  1.00  0.00     0.031 C 
ATOM     49  C   UNL A   1      37.971  34.060  34.637  1.00  0.00     0.029 A 
ATOM     50  C   UNL A   1      39.046  33.079  34.760  1.00  0.00     0.049 A 
ATOM     51  H   UNL A   1      39.638  31.669  33.345  1.00  0.00     0.167 HD
ATOM     52  C   UNL A   1      40.700  28.684  30.300  1.00  0.00     0.034 A 
ATOM     53  C   UNL A   1      39.844  32.929  35.836  1.00  0.00     0.034 A 
ATOM     54  C   UNL A   1      41.652  28.503  31.370  1.00  0.00     0.049 A 
ATOM     55  C   UNL A   1      40.912  31.864  35.806  1.00  0.00     0.074 A 
ATOM     56  C   UNL A   1      42.723  27.629  31.432  1.00  0.00     0.029 A 
ATOM     57  N   UNL A   1      41.643  29.202  32.572  1.00  0.00    -0.354 N 
ATOM     58  N   UNL A   1      41.201  31.012  34.850  1.00  0.00    -0.248 NA
ATOM     59  C   UNL A   1      41.765  31.749  36.995  1.00  0.00     0.031 C 
ATOM     60  C   UNL A   1      43.311  27.743  32.695  1.00  0.00     0.029 A 
ATOM     61  C   UNL A   1      42.667  28.754  33.392  1.00  0.00     0.049 A 
ATOM     62  H   UNL A   1      41.003  29.912  32.805  1.00  0.00     0.167 HD
ATOM     63  C   UNL A   1      42.295  30.282  35.311  1.00  0.00     0.074 A 
ATOM     64  C   UNL A   1      42.618  30.806  36.622  1.00  0.00     0.031 C 
ATOM     65  C   UNL A   1      42.974  29.276  34.704  1.00  0.00     0.034 A 
BRANCH  52  66
ATOM     66  C   UNL A   1      40.790  27.790  29.085  1.00  0.00     0.023 A 
ATOM     67  C   UNL A   1      41.735  28.020  28.069  1.00  0.00     0.031 A 
ATOM     68  C   UNL A   1      39.907  26.708  28.925  1.00  0.00     0.131 A 
ATOM     69  C   UNL A   1      41.723  27.233  26.908  1.00  0.00     0.055 A 
ATOM     70  C   UNL A   1      39.958  25.873  27.807  1.00  0.00     0.041 A 
ATOM     71  F   UNL A   1      38.967  26.450  29.849  1.00  0.00    -0.206 F 
ATOM     72  C   UNL A   1      40.860  26.143  26.782  1.00  0.00     0.022 A 
BRANCH  69  73
ATOM     73  S   UNL A   1      42.743  27.752  25.501  1.00  0.00     0.124 S 
ATOM     74  O   UNL A   1      42.950  26.485  24.804  1.00  0.00    -0.237 OA
ATOM     75  O   UNL A   1      41.883  28.719  24.827  1.00  0.00    -0.237 OA
ATOM     76  O   UNL A   1      43.937  28.311  26.131  1.00  0.00    -0.744 OA
ENDBRANCH  69  73
ENDBRANCH  52  66
BRANCH  53  77
ATOM     77  C   UNL A   1      39.664  33.794  37.039  1.00  0.00     0.023 A 
ATOM     78  C   UNL A   1      39.027  33.307  38.190  1.00  0.00     0.031 A 
ATOM     79  C   UNL A   1      40.090  35.134  37.039  1.00  0.00     0.131 A 
ATOM     80  C   UNL A   1      38.788  34.166  39.275  1.00  0.00     0.055 A 
ATOM     81  C   UNL A   1      39.904  35.968  38.143  1.00  0.00     0.041 A 
ATOM     82  F   UNL A   1      40.706  35.653  35.965  1.00  0.00    -0.206 F 
ATOM     83  C   UNL A   1      39.237  35.488  39.266  1.00  0.00     0.022 A 
BRANCH  80  84
ATOM     84  S   UNL A   1      37.797  33.553  40.665  1.00  0.00     0.124 S 
ATOM     85  O   UNL A   1      37.573  34.776  41.428  1.00  0.00    -0.237 OA
ATOM     86  O   UNL A   1      36.633  32.996  39.985  1.00  0.00    -0.237 OA
ATOM     87  O   UNL A   1      38.675  32.572  41.300  1.00  0.00    -0.744 OA
ENDBRANCH  80  84
ENDBRANCH  53  77
BRANCH  65  88
ATOM     88  C   UNL A   1      44.167  28.709  35.436  1.00  0.00     0.023 A 
ATOM     89  C   UNL A   1      44.043  27.654  36.357  1.00  0.00     0.031 A 
ATOM     90  C   UNL A   1      45.450  29.241  35.211  1.00  0.00     0.131 A 
ATOM     91  C   UNL A   1      45.170  27.205  37.062  1.00  0.00     0.055 A 
ATOM     92  C   UNL A   1      46.578  28.743  35.864  1.00  0.00     0.041 A 
ATOM     93  F   UNL A   1      45.629  30.253  34.346  1.00  0.00    -0.206 F 
ATOM     94  C   UNL A   1      46.440  27.729  36.806  1.00  0.00     0.022 A 
BRANCH  91  95
ATOM     95  S   UNL A   1      44.939  25.994  38.392  1.00  0.00     0.124 S 
ATOM     96  O   UNL A   1      44.181  24.944  37.717  1.00  0.00    -0.237 OA
ATOM     97  O   UNL A   1      46.312  25.657  38.750  1.00  0.00    -0.237 OA
ATOM     98  O   UNL A   1      44.198  26.738  39.409  1.00  0.00    -0.744 OA
ENDBRANCH  91  95
ENDBRANCH  65  88
ENDBRANCH  39  40
ENDBRANCH  31  34
ENDBRANCH  29  30
ENDBRANCH  28  29
ENDBRANCH  27  28
ENDBRANCH   1  27
TORSDOF 19
ENDMDL
MODEL 2
REMARK VINA RESULT:     -11.9      1.546      1.937
REMARK SMILES CC(C)(C(=O)NCCCCCCNC(=O)c1ccc(-c2c3nc(c(-c4cc(S(=O)(=O)[O-])ccc4F)c4ccc([nH]4)c(-c4cc(S(=O)(=O)[O-])ccc4F)c4nc(c(-c5cc(S(=O)(=O)[O-])ccc5F)c5ccc2[nH]5)C=C4)C=C3)cc1)N1C(=O)/C(=C/c2ccc(C=O)cc2)SC1=S
REMARK SMILES IDX 9 1 8 2 7 3 6 4 4 5 5 6 2 8 1 9 3 10 79 11 80 12 93 13 81 14
REMARK SMILES IDX 82 15 92 16 94 17 83 18 84 19 85 20 91 21 86 22 90 23 87 24
REMARK SMILES IDX 88 25 89 26 10 27 11 28 12 29 13 30 14 31 15 33 16 34 17 35
REMARK SMILES IDX 78 36 18 37 77 38 19 39 20 40 21 41 71 42 22 43 76 44 70 45
REMARK SMILES IDX 72 46 23 47 75 48 69 49 68 50 24 52 56 53 36 54 55 55 37 56
REMARK SMILES IDX 40 57 54 58 73 59 38 60 39 61 53 63 74 64 41 65 25 66 26 67
REMARK SMILES IDX 34 68 27 69 33 70 35 71 32 72 28 73 29 74 30 75 31 76 57 77
REMARK SMILES IDX 58 78 66 79 59 80 65 81 67 82 64 83 60 84 61 85 62 86 63 87
REMARK SMILES IDX 42 88 43 89 51 90 44 91 50 92 52 93 49 94 45 95 46 96 47 97
REMARK SMILES IDX 48 98
REMARK H PARENT 6 7 13 32 72 51 40 62
REMARK Flexibility Score: inf
ROOT
ATOM      1  C   UNL A   1      32.229  29.924  26.710  1.00  0.00     0.002 C 
ENDROOT
BRANCH   1   2
ATOM      2  C   UNL A   1      31.537  28.799  27.487  1.00  0.00     0.021 C 
BRANCH   2   3
ATOM      3  C   UNL A   1      31.734  27.417  26.869  1.00  0.00     0.116 C 
BRANCH   3   4
ATOM      4  N   UNL A   1      31.057  27.322  25.593  1.00  0.00    -0.354 N 
ATOM      5  C   UNL A   1      31.526  27.146  24.329  1.00  0.00     0.245 C 
ATOM      6  O   UNL A   1      30.685  27.241  23.425  1.00  0.00    -0.272 OA
ATOM      7  H   UNL A   1      30.076  27.400  25.652  1.00  0.00     0.163 HD
BRANCH   5   8
ATOM      8  C   UNL A   1      33.023  26.831  24.022  1.00  0.00     0.122 C 
ATOM      9  C   UNL A   1      33.586  27.705  22.881  1.00  0.00     0.046 C 
ATOM     10  C   UNL A   1      33.904  27.121  25.269  1.00  0.00     0.046 C 
BRANCH   8  11
ATOM     11  N   UNL A   1      33.039  25.348  23.678  1.00  0.00    -0.278 N 
ATOM     12  C   UNL A   1      32.954  24.423  24.719  1.00  0.00     0.267 C 
ATOM     13  C   UNL A   1      32.860  24.787  22.422  1.00  0.00     0.149 C 
ATOM     14  O   UNL A   1      32.803  24.651  25.911  1.00  0.00    -0.268 OA
ATOM     15  C   UNL A   1      33.061  23.036  24.211  1.00  0.00     0.081 C 
ATOM     16  S   UNL A   1      33.027  23.032  22.505  1.00  0.00    -0.054 SA
ATOM     17  S   UNL A   1      32.546  25.480  20.934  1.00  0.00    -0.052 S 
ATOM     18  C   UNL A   1      33.189  21.987  25.037  1.00  0.00     0.029 C 
BRANCH  18  19
ATOM     19  C   UNL A   1      33.401  20.604  24.607  1.00  0.00    -0.024 A 
ATOM     20  C   UNL A   1      34.577  19.932  24.956  1.00  0.00     0.009 A 
ATOM     21  C   UNL A   1      32.429  19.948  23.840  1.00  0.00     0.009 A 
ATOM     22  C   UNL A   1      34.763  18.602  24.570  1.00  0.00     0.012 A 
ATOM     23  C   UNL A   1      32.606  18.618  23.459  1.00  0.00     0.012 A 
ATOM     24  C   UNL A   1      33.771  17.947  23.832  1.00  0.00     0.014 A 
BRANCH  24  25
ATOM     25  C   UNL A   1      33.939  16.533  23.444  1.00  0.00     0.260 C 
ATOM     26  O   UNL A   1      33.585  15.609  24.165  1.00  0.00    -0.298 OA
ENDBRANCH  24  25
ENDBRANCH  18  19
ENDBRANCH   8  11
ENDBRANCH   5   8
ENDBRANCH   3   4
ENDBRANCH   2   3
ENDBRANCH   1   2
BRANCH   1  27
ATOM     27  C   UNL A   1      31.277  30.906  26.017  1.00  0.00     0.002 C 
BRANCH  27  28
ATOM     28  C   UNL A   1      31.356  32.349  26.522  1.00  0.00     0.021 C 
BRANCH  28  29
ATOM     29  C   UNL A   1      32.690  32.721  27.160  1.00  0.00     0.116 C 
BRANCH  29  30
ATOM     30  N   UNL A   1      32.665  34.065  27.714  1.00  0.00    -0.352 N 
ATOM     31  C   UNL A   1      33.399  34.591  28.748  1.00  0.00     0.251 C 
ATOM     32  H   UNL A   1      32.031  34.686  27.287  1.00  0.00     0.163 HD
ATOM     33  O   UNL A   1      33.076  35.670  29.235  1.00  0.00    -0.269 OA
BRANCH  31  34
ATOM     34  C   UNL A   1      34.558  33.843  29.279  1.00  0.00     0.039 A 
ATOM     35  C   UNL A   1      35.846  34.245  28.919  1.00  0.00     0.014 A 
ATOM     36  C   UNL A   1      34.374  32.747  30.127  1.00  0.00     0.014 A 
ATOM     37  C   UNL A   1      36.951  33.583  29.459  1.00  0.00     0.010 A 
ATOM     38  C   UNL A   1      35.476  32.140  30.725  1.00  0.00     0.010 A 
ATOM     39  C   UNL A   1      36.776  32.549  30.394  1.00  0.00    -0.014 A 
BRANCH  39  40
ATOM     40  C   UNL A   1      37.943  31.884  31.033  1.00  0.00     0.031 A 
ATOM     41  C   UNL A   1      38.711  30.827  30.287  1.00  0.00     0.074 A 
ATOM     42  C   UNL A   1      38.277  32.197  32.300  1.00  0.00     0.049 A 
ATOM     43  N   UNL A   1      39.709  30.086  30.694  1.00  0.00    -0.248 NA
ATOM     44  C   UNL A   1      38.279  30.548  28.908  1.00  0.00     0.031 C 
ATOM     45  C   UNL A   1      37.590  33.184  33.136  1.00  0.00     0.029 A 
ATOM     46  N   UNL A   1      39.275  31.717  33.111  1.00  0.00    -0.354 N 
ATOM     47  C   UNL A   1      40.022  29.251  29.628  1.00  0.00     0.074 A 
ATOM     48  C   UNL A   1      39.061  29.530  28.583  1.00  0.00     0.031 C 
ATOM     49  C   UNL A   1      38.206  33.260  34.325  1.00  0.00     0.029 A 
ATOM     50  C   UNL A   1      39.296  32.290  34.362  1.00  0.00     0.049 A 
ATOM     51  H   UNL A   1      39.916  31.027  32.824  1.00  0.00     0.167 HD
ATOM     52  C   UNL A   1      41.035  28.355  29.520  1.00  0.00     0.034 A 
ATOM     53  C   UNL A   1      40.093  32.053  35.423  1.00  0.00     0.034 A 
ATOM     54  C   UNL A   1      41.986  28.091  30.574  1.00  0.00     0.049 A 
ATOM     55  C   UNL A   1      41.179  31.013  35.298  1.00  0.00     0.074 A 
ATOM     56  C   UNL A   1      43.071  27.231  30.558  1.00  0.00     0.029 A 
ATOM     57  N   UNL A   1      41.962  28.674  31.834  1.00  0.00    -0.354 N 
ATOM     58  N   UNL A   1      41.485  30.258  34.269  1.00  0.00    -0.248 NA
ATOM     59  C   UNL A   1      42.031  30.801  36.476  1.00  0.00     0.031 C 
ATOM     60  C   UNL A   1      43.654  27.237  31.830  1.00  0.00     0.029 A 
ATOM     61  C   UNL A   1      42.991  28.168  32.614  1.00  0.00     0.049 A 
ATOM     62  H   UNL A   1      41.310  29.350  32.130  1.00  0.00     0.167 HD
ATOM     63  C   UNL A   1      42.588  29.506  34.665  1.00  0.00     0.074 A 
ATOM     64  C   UNL A   1      42.899  29.911  36.021  1.00  0.00     0.031 C 
ATOM     65  C   UNL A   1      43.286  28.571  33.970  1.00  0.00     0.034 A 
BRANCH  52  66
ATOM     66  C   UNL A   1      41.143  27.579  28.228  1.00  0.00     0.023 A 
ATOM     67  C   UNL A   1      40.791  26.220  28.152  1.00  0.00     0.031 A 
ATOM     68  C   UNL A   1      41.627  28.196  27.061  1.00  0.00     0.131 A 
ATOM     69  C   UNL A   1      41.002  25.505  26.963  1.00  0.00     0.055 A 
ATOM     70  C   UNL A   1      41.751  27.502  25.856  1.00  0.00     0.041 A 
ATOM     71  F   UNL A   1      42.002  29.486  27.074  1.00  0.00    -0.206 F 
ATOM     72  C   UNL A   1      41.452  26.143  25.806  1.00  0.00     0.022 A 
BRANCH  69  73
ATOM     73  S   UNL A   1      40.827  23.701  26.997  1.00  0.00     0.124 S 
ATOM     74  O   UNL A   1      41.245  23.390  28.362  1.00  0.00    -0.237 OA
ATOM     75  O   UNL A   1      39.411  23.514  26.704  1.00  0.00    -0.237 OA
ATOM     76  O   UNL A   1      41.746  23.248  25.955  1.00  0.00    -0.744 OA
ENDBRANCH  69  73
ENDBRANCH  52  66
BRANCH  53  77
ATOM     77  C   UNL A   1      39.896  32.800  36.700  1.00  0.00     0.023 A 
ATOM     78  C   UNL A   1      38.965  32.364  37.655  1.00  0.00     0.031 A 
ATOM     79  C   UNL A   1      40.606  33.984  36.965  1.00  0.00     0.131 A 
ATOM     80  C   UNL A   1      38.731  33.132  38.807  1.00  0.00     0.055 A 
ATOM     81  C   UNL A   1      40.414  34.712  38.140  1.00  0.00     0.041 A 
ATOM     82  F   UNL A   1      41.511  34.446  36.087  1.00  0.00    -0.206 F 
ATOM     83  C   UNL A   1      39.461  34.294  39.064  1.00  0.00     0.022 A 
BRANCH  80  84
ATOM     84  S   UNL A   1      37.389  32.638  39.922  1.00  0.00     0.124 S 
ATOM     85  O   UNL A   1      37.361  33.753  40.861  1.00  0.00    -0.237 OA
ATOM     86  O   UNL A   1      36.257  32.537  39.007  1.00  0.00    -0.237 OA
ATOM     87  O   UNL A   1      37.857  31.368  40.473  1.00  0.00    -0.744 OA
ENDBRANCH  80  84
ENDBRANCH  53  77
BRANCH  65  88
ATOM     88  C   UNL A   1      44.486  27.959  34.652  1.00  0.00     0.023 A 
ATOM     89  C   UNL A   1      44.384  26.796  35.435  1.00  0.00     0.031 A 
ATOM     90  C   UNL A   1      45.754  28.555  34.518  1.00  0.00     0.131 A 
ATOM     91  C   UNL A   1      45.514  26.300  36.103  1.00  0.00     0.055 A 
ATOM     92  C   UNL A   1      46.888  28.017  35.128  1.00  0.00     0.041 A 
ATOM     93  F   UNL A   1      45.911  29.669  33.786  1.00  0.00    -0.206 F 
ATOM     94  C   UNL A   1      46.769  26.892  35.938  1.00  0.00     0.022 A 
BRANCH  91  95
ATOM     95  S   UNL A   1      45.304  24.930  37.272  1.00  0.00     0.124 S 
ATOM     96  O   UNL A   1      46.361  25.196  38.243  1.00  0.00    -0.237 OA
ATOM     97  O   UNL A   1      43.939  25.129  37.746  1.00  0.00    -0.237 OA
ATOM     98  O   UNL A   1      45.506  23.740  36.447  1.00  0.00    -0.744 OA
ENDBRANCH  91  95
ENDBRANCH  65  88
ENDBRANCH  39  40
ENDBRANCH  31  34
ENDBRANCH  29  30
ENDBRANCH  28  29
ENDBRANCH  27  28
ENDBRANCH   1  27
TORSDOF 19
ENDMDL
MODEL 3
REMARK VINA RESULT:     -11.8      0.818      7.607
REMARK SMILES CC(C)(C(=O)NCCCCCCNC(=O)c1ccc(-c2c3nc(c(-c4cc(S(=O)(=O)[O-])ccc4F)c4ccc([nH]4)c(-c4cc(S(=O)(=O)[O-])ccc4F)c4nc(c(-c5cc(S(=O)(=O)[O-])ccc5F)c5ccc2[nH]5)C=C4)C=C3)cc1)N1C(=O)/C(=C/c2ccc(C=O)cc2)SC1=S
REMARK SMILES IDX 9 1 8 2 7 3 6 4 4 5 5 6 2 8 1 9 3 10 79 11 80 12 93 13 81 14
REMARK SMILES IDX 82 15 92 16 94 17 83 18 84 19 85 20 91 21 86 22 90 23 87 24
REMARK SMILES IDX 88 25 89 26 10 27 11 28 12 29 13 30 14 31 15 33 16 34 17 35
REMARK SMILES IDX 78 36 18 37 77 38 19 39 20 40 21 41 71 42 22 43 76 44 70 45
REMARK SMILES IDX 72 46 23 47 75 48 69 49 68 50 24 52 56 53 36 54 55 55 37 56
REMARK SMILES IDX 40 57 54 58 73 59 38 60 39 61 53 63 74 64 41 65 25 66 26 67
REMARK SMILES IDX 34 68 27 69 33 70 35 71 32 72 28 73 29 74 30 75 31 76 57 77
REMARK SMILES IDX 58 78 66 79 59 80 65 81 67 82 64 83 60 84 61 85 62 86 63 87
REMARK SMILES IDX 42 88 43 89 51 90 44 91 50 92 52 93 49 94 45 95 46 96 47 97
REMARK SMILES IDX 48 98
REMARK H PARENT 6 7 13 32 72 51 40 62
REMARK Flexibility Score: inf
ROOT
ATOM      1  C   UNL A   1      32.223  29.902  27.257  1.00  0.00     0.002 C 
ENDROOT
BRANCH   1   2
ATOM      2  C   UNL A   1      31.439  28.627  27.586  1.00  0.00     0.021 C 
BRANCH   2   3
ATOM      3  C   UNL A   1      31.877  27.412  26.774  1.00  0.00     0.116 C 
BRANCH   3   4
ATOM      4  N   UNL A   1      31.181  27.362  25.505  1.00  0.00    -0.354 N 
ATOM      5  C   UNL A   1      31.629  27.202  24.232  1.00  0.00     0.245 C 
ATOM      6  O   UNL A   1      30.780  27.338  23.341  1.00  0.00    -0.272 OA
ATOM      7  H   UNL A   1      30.203  27.462  25.579  1.00  0.00     0.163 HD
BRANCH   5   8
ATOM      8  C   UNL A   1      33.114  26.857  23.899  1.00  0.00     0.122 C 
ATOM      9  C   UNL A   1      33.663  27.695  22.724  1.00  0.00     0.046 C 
ATOM     10  C   UNL A   1      34.028  27.163  25.117  1.00  0.00     0.046 C 
BRANCH   8  11
ATOM     11  N   UNL A   1      33.100  25.366  23.591  1.00  0.00    -0.278 N 
ATOM     12  C   UNL A   1      33.012  24.468  24.654  1.00  0.00     0.267 C 
ATOM     13  C   UNL A   1      32.896  24.778  22.350  1.00  0.00     0.149 C 
ATOM     14  O   UNL A   1      32.879  24.728  25.842  1.00  0.00    -0.268 OA
ATOM     15  C   UNL A   1      33.089  23.067  24.179  1.00  0.00     0.081 C 
ATOM     16  S   UNL A   1      33.034  23.023  22.474  1.00  0.00    -0.054 SA
ATOM     17  S   UNL A   1      32.576  25.441  20.850  1.00  0.00    -0.052 S 
ATOM     18  C   UNL A   1      33.209  22.037  25.028  1.00  0.00     0.029 C 
BRANCH  18  19
ATOM     19  C   UNL A   1      33.391  20.640  24.630  1.00  0.00    -0.024 A 
ATOM     20  C   UNL A   1      32.368  19.960  23.962  1.00  0.00     0.009 A 
ATOM     21  C   UNL A   1      34.591  19.975  24.921  1.00  0.00     0.009 A 
ATOM     22  C   UNL A   1      32.557  18.636  23.556  1.00  0.00     0.012 A 
ATOM     23  C   UNL A   1      34.787  18.657  24.512  1.00  0.00     0.012 A 
ATOM     24  C   UNL A   1      33.771  17.994  23.824  1.00  0.00     0.014 A 
BRANCH  24  25
ATOM     25  C   UNL A   1      33.997  16.606  23.374  1.00  0.00     0.260 C 
ATOM     26  O   UNL A   1      33.933  15.651  24.138  1.00  0.00    -0.298 OA
ENDBRANCH  24  25
ENDBRANCH  18  19
ENDBRANCH   8  11
ENDBRANCH   5   8
ENDBRANCH   3   4
ENDBRANCH   2   3
ENDBRANCH   1   2
BRANCH   1  27
ATOM     27  C   UNL A   1      31.584  30.790  26.183  1.00  0.00     0.002 C 
BRANCH  27  28
ATOM     28  C   UNL A   1      31.506  32.278  26.537  1.00  0.00     0.021 C 
BRANCH  28  29
ATOM     29  C   UNL A   1      32.721  32.812  27.287  1.00  0.00     0.116 C 
BRANCH  29  30
ATOM     30  N   UNL A   1      32.531  34.191  27.705  1.00  0.00    -0.352 N 
ATOM     31  C   UNL A   1      33.111  34.870  28.747  1.00  0.00     0.251 C 
ATOM     32  H   UNL A   1      31.895  34.713  27.162  1.00  0.00     0.163 HD
ATOM     33  O   UNL A   1      32.654  35.955  29.095  1.00  0.00    -0.269 OA
BRANCH  31  34
ATOM     34  C   UNL A   1      34.267  34.279  29.454  1.00  0.00     0.039 A 
ATOM     35  C   UNL A   1      34.039  33.477  30.573  1.00  0.00     0.014 A 
ATOM     36  C   UNL A   1      35.573  34.519  29.014  1.00  0.00     0.014 A 
ATOM     37  C   UNL A   1      35.118  32.867  31.216  1.00  0.00     0.010 A 
ATOM     38  C   UNL A   1      36.638  33.847  29.607  1.00  0.00     0.010 A 
ATOM     39  C   UNL A   1      36.423  33.017  30.717  1.00  0.00    -0.014 A 
BRANCH  39  40
ATOM     40  C   UNL A   1      37.573  32.315  31.346  1.00  0.00     0.031 A 
ATOM     41  C   UNL A   1      38.122  32.795  32.662  1.00  0.00     0.074 A 
ATOM     42  C   UNL A   1      38.152  31.280  30.708  1.00  0.00     0.049 A 
ATOM     43  N   UNL A   1      39.158  32.362  33.335  1.00  0.00    -0.248 NA
ATOM     44  C   UNL A   1      37.431  33.932  33.290  1.00  0.00     0.031 C 
ATOM     45  C   UNL A   1      37.727  30.741  29.413  1.00  0.00     0.029 A 
ATOM     46  N   UNL A   1      39.223  30.494  31.055  1.00  0.00    -0.354 N 
ATOM     47  C   UNL A   1      39.245  33.173  34.460  1.00  0.00     0.074 A 
ATOM     48  C   UNL A   1      38.201  34.167  34.341  1.00  0.00     0.031 C 
ATOM     49  C   UNL A   1      38.506  29.696  29.094  1.00  0.00     0.029 A 
ATOM     50  C   UNL A   1      39.521  29.522  30.129  1.00  0.00     0.049 A 
ATOM     51  H   UNL A   1      39.730  30.616  31.890  1.00  0.00     0.167 HD
ATOM     52  C   UNL A   1      40.101  33.081  35.509  1.00  0.00     0.034 A 
ATOM     53  C   UNL A   1      40.506  28.602  30.107  1.00  0.00     0.034 A 
ATOM     54  C   UNL A   1      41.137  32.081  35.612  1.00  0.00     0.049 A 
ATOM     55  C   UNL A   1      41.479  28.552  31.259  1.00  0.00     0.074 A 
ATOM     56  C   UNL A   1      42.034  31.873  36.645  1.00  0.00     0.029 A 
ATOM     57  N   UNL A   1      41.423  31.126  34.643  1.00  0.00    -0.354 N 
ATOM     58  N   UNL A   1      41.525  29.304  32.334  1.00  0.00    -0.248 NA
ATOM     59  C   UNL A   1      42.526  27.524  31.197  1.00  0.00     0.031 C 
ATOM     60  C   UNL A   1      42.908  30.848  36.269  1.00  0.00     0.029 A 
ATOM     61  C   UNL A   1      42.502  30.352  35.040  1.00  0.00     0.049 A 
ATOM     62  H   UNL A   1      40.929  31.015  33.799  1.00  0.00     0.167 HD
ATOM     63  C   UNL A   1      42.585  28.815  33.094  1.00  0.00     0.074 A 
ATOM     64  C   UNL A   1      43.140  27.696  32.357  1.00  0.00     0.031 C 
ATOM     65  C   UNL A   1      43.055  29.246  34.293  1.00  0.00     0.034 A 
BRANCH  52  66
ATOM     66  C   UNL A   1      39.964  34.106  36.612  1.00  0.00     0.023 A 
ATOM     67  C   UNL A   1      39.542  33.746  37.903  1.00  0.00     0.031 A 
ATOM     68  C   UNL A   1      40.234  35.463  36.364  1.00  0.00     0.131 A 
ATOM     69  C   UNL A   1      39.328  34.737  38.873  1.00  0.00     0.055 A 
ATOM     70  C   UNL A   1      40.105  36.434  37.359  1.00  0.00     0.041 A 
ATOM     71  F   UNL A   1      40.619  35.873  35.145  1.00  0.00    -0.206 F 
ATOM     72  C   UNL A   1      39.633  36.076  38.619  1.00  0.00     0.022 A 
BRANCH  69  73
ATOM     73  S   UNL A   1      38.496  34.271  40.415  1.00  0.00     0.124 S 
ATOM     74  O   UNL A   1      38.031  35.568  40.903  1.00  0.00    -0.237 OA
ATOM     75  O   UNL A   1      37.461  33.354  39.952  1.00  0.00    -0.237 OA
ATOM     76  O   UNL A   1      39.561  33.662  41.209  1.00  0.00    -0.744 OA
ENDBRANCH  69  73
ENDBRANCH  52  66
BRANCH  53  77
ATOM     77  C   UNL A   1      40.637  27.660  28.958  1.00  0.00     0.023 A 
ATOM     78  C   UNL A   1      41.570  27.892  27.936  1.00  0.00     0.031 A 
ATOM     79  C   UNL A   1      39.801  26.534  28.843  1.00  0.00     0.131 A 
ATOM     80  C   UNL A   1      41.612  27.042  26.819  1.00  0.00     0.055 A 
ATOM     81  C   UNL A   1      39.888  25.658  27.761  1.00  0.00     0.041 A 
ATOM     82  F   UNL A   1      38.892  26.263  29.793  1.00  0.00    -0.206 F 
ATOM     83  C   UNL A   1      40.789  25.917  26.733  1.00  0.00     0.022 A 
BRANCH  80  84
ATOM     84  S   UNL A   1      42.697  27.481  25.434  1.00  0.00     0.124 S 
ATOM     85  O   UNL A   1      43.939  27.808  26.125  1.00  0.00    -0.237 OA
ATOM     86  O   UNL A   1      42.701  26.250  24.650  1.00  0.00    -0.237 OA
ATOM     87  O   UNL A   1      42.011  28.611  24.811  1.00  0.00    -0.744 OA
ENDBRANCH  80  84
ENDBRANCH  53  77
BRANCH  65  88
ATOM     88  C   UNL A   1      44.197  28.470  34.905  1.00  0.00     0.023 A 
ATOM     89  C   UNL A   1      43.978  27.391  35.780  1.00  0.00     0.031 A 
ATOM     90  C   UNL A   1      45.527  28.823  34.613  1.00  0.00     0.131 A 
ATOM     91  C   UNL A   1      45.069  26.741  36.377  1.00  0.00     0.055 A 
ATOM     92  C   UNL A   1      46.609  28.129  35.155  1.00  0.00     0.041 A 
ATOM     93  F   UNL A   1      45.796  29.848  33.789  1.00  0.00    -0.206 F 
ATOM     94  C   UNL A   1      46.384  27.091  36.054  1.00  0.00     0.022 A 
BRANCH  91  95
ATOM     95  S   UNL A   1      44.749  25.500  37.659  1.00  0.00     0.124 S 
ATOM     96  O   UNL A   1      43.369  25.119  37.372  1.00  0.00    -0.237 OA
ATOM     97  O   UNL A   1      45.761  24.488  37.374  1.00  0.00    -0.237 OA
ATOM     98  O   UNL A   1      44.943  26.236  38.906  1.00  0.00    -0.744 OA
ENDBRANCH  91  95
ENDBRANCH  65  88
ENDBRANCH  39  40
ENDBRANCH  31  34
ENDBRANCH  29  30
ENDBRANCH  28  29
ENDBRANCH  27  28
ENDBRANCH   1  27
TORSDOF 19
ENDMDL
