MODEL 1
REMARK VINA RESULT:     -11.3      0.000      0.000
REMARK SMILES Cc1ccc(NC(=O)C[C@H]2C(=O)NCCN2C(=O)CCC(=O)NCCCCCCNC(=O)c2ccc(-c3c4nc(c(-c5cc(S(=O)(=O)[O-])ccc5F)c5ccc([nH]5)c(-c5cc(S(=O)(=O)[O-])ccc5F)c5nc(c(-c6cc(S(=O)(=O)[O-])ccc6F)c6ccc3[nH]6)C=C5)C=C4)cc2)c(C)c1
REMARK SMILES IDX 25 1 24 2 23 3 21 4 22 5 20 7 19 8 17 9 18 10 16 11 10 12
REMARK SMILES IDX 11 13 12 14 13 15 15 16 14 17 9 19 7 20 6 21 8 23 5 24 1 25
REMARK SMILES IDX 2 26 3 27 98 28 4 29 96 30 97 31 26 32 27 33 28 34 29 35
REMARK SMILES IDX 30 36 31 37 32 39 33 40 34 41 95 42 35 43 94 44 36 45 37 46
REMARK SMILES IDX 38 47 88 48 39 49 93 50 87 51 89 52 40 53 92 54 86 55 85 56
REMARK SMILES IDX 41 58 73 59 53 60 72 61 54 62 57 63 71 64 90 65 55 66 56 67
REMARK SMILES IDX 70 69 91 70 58 71 42 72 43 73 51 74 44 75 50 76 52 77 49 78
REMARK SMILES IDX 45 79 46 80 47 81 48 82 74 83 75 84 83 85 76 86 82 87 84 88
REMARK SMILES IDX 81 89 77 90 78 91 79 92 80 93 59 94 60 95 68 96 61 97 67 98
REMARK SMILES IDX 69 99 66 100 62 101 63 102 64 103 65 104
REMARK H PARENT 23 6 13 18 6 22 30 38 89 57 57 68
REMARK Flexibility Score: inf
ROOT
ATOM      1  C   UNL A   1      39.647  23.535  27.159  1.00  0.00     0.021 C 
ENDROOT
BRANCH   1   2
ATOM      2  C   UNL A   1      38.277  24.118  26.594  1.00  0.00     0.116 C 
BRANCH   2   3
ATOM      3  N   UNL A   1      37.031  23.341  26.586  1.00  0.00    -0.356 N 
ATOM      4  C   UNL A   1      36.012  23.080  25.720  1.00  0.00     0.220 C 
ATOM      5  O   UNL A   1      35.177  22.214  25.998  1.00  0.00    -0.275 OA
ATOM      6  H   UNL A   1      36.894  22.880  27.445  1.00  0.00     0.163 HD
BRANCH   4   7
ATOM      7  C   UNL A   1      35.770  23.923  24.529  1.00  0.00     0.110 C 
BRANCH   7   8
ATOM      8  C   UNL A   1      35.312  22.987  23.431  1.00  0.00     0.110 C 
BRANCH   8   9
ATOM      9  C   UNL A   1      33.919  23.377  23.069  1.00  0.00     0.223 C 
ATOM     10  O   UNL A   1      33.801  24.081  22.052  1.00  0.00    -0.275 OA
BRANCH   9  11
ATOM     11  N   UNL A   1      32.813  23.059  23.876  1.00  0.00    -0.328 N 
ATOM     12  C   UNL A   1      32.026  23.946  24.885  1.00  0.00     0.183 C 
ATOM     13  C   UNL A   1      31.740  23.158  26.202  1.00  0.00     0.243 C 
ATOM     14  O   UNL A   1      31.429  23.723  27.251  1.00  0.00    -0.273 OA
ATOM     15  N   UNL A   1      31.848  21.797  26.227  1.00  0.00    -0.353 N 
ATOM     16  C   UNL A   1      32.665  21.586  23.897  1.00  0.00     0.141 C 
ATOM     17  C   UNL A   1      32.043  20.927  25.104  1.00  0.00     0.137 C 
ATOM     18  H   UNL A   1      31.785  21.367  27.109  1.00  0.00     0.163 HD
BRANCH  12  19
ATOM     19  C   UNL A   1      30.881  25.220  24.652  1.00  0.00     0.135 C 
BRANCH  19  20
ATOM     20  C   UNL A   1      30.833  26.871  24.391  1.00  0.00     0.227 C 
ATOM     21  N   UNL A   1      31.376  28.018  24.968  1.00  0.00    -0.326 N 
ATOM     22  H   UNL A   1      31.049  28.789  24.449  1.00  0.00     0.169 HD
ATOM     23  O   UNL A   1      30.127  27.202  23.408  1.00  0.00    -0.275 OA
BRANCH  21  24
ATOM     24  C   UNL A   1      32.222  28.538  26.015  1.00  0.00     0.044 A 
ATOM     25  C   UNL A   1      35.005  31.402  27.550  1.00  0.00     0.044 C 
ATOM     26  C   UNL A   1      34.004  30.291  27.361  1.00  0.00    -0.051 A 
ATOM     27  C   UNL A   1      32.634  30.548  27.362  1.00  0.00     0.005 A 
ATOM     28  C   UNL A   1      34.416  29.016  26.960  1.00  0.00     0.009 A 
ATOM     29  C   UNL A   1      31.742  29.645  26.741  1.00  0.00     0.026 A 
ATOM     30  C   UNL A   1      33.520  28.116  26.325  1.00  0.00    -0.027 A 
ATOM     31  C   UNL A   1      33.975  26.709  26.092  1.00  0.00     0.046 C 
ENDBRANCH  21  24
ENDBRANCH  19  20
ENDBRANCH  12  19
ENDBRANCH   9  11
ENDBRANCH   8   9
ENDBRANCH   7   8
ENDBRANCH   4   7
ENDBRANCH   2   3
ENDBRANCH   1   2
BRANCH   1  32
ATOM     32  C   UNL A   1      40.421  22.272  26.713  1.00  0.00     0.002 C 
BRANCH  32  33
ATOM     33  C   UNL A   1      40.965  21.311  27.793  1.00  0.00     0.002 C 
BRANCH  33  34
ATOM     34  C   UNL A   1      41.502  19.987  27.280  1.00  0.00     0.021 C 
BRANCH  34  35
ATOM     35  C   UNL A   1      41.631  19.919  25.770  1.00  0.00     0.116 C 
BRANCH  35  36
ATOM     36  N   UNL A   1      42.973  19.573  25.321  1.00  0.00    -0.352 N 
ATOM     37  C   UNL A   1      44.091  20.386  25.246  1.00  0.00     0.251 C 
ATOM     38  H   UNL A   1      43.103  18.641  25.035  1.00  0.00     0.163 HD
ATOM     39  O   UNL A   1      45.119  19.996  24.744  1.00  0.00    -0.269 OA
BRANCH  37  40
ATOM     40  C   UNL A   1      43.964  21.770  25.760  1.00  0.00     0.039 A 
ATOM     41  C   UNL A   1      44.338  22.041  27.076  1.00  0.00     0.014 A 
ATOM     42  C   UNL A   1      43.606  22.803  24.890  1.00  0.00     0.014 A 
ATOM     43  C   UNL A   1      44.444  23.369  27.493  1.00  0.00     0.010 A 
ATOM     44  C   UNL A   1      43.821  24.119  25.274  1.00  0.00     0.010 A 
ATOM     45  C   UNL A   1      44.239  24.418  26.580  1.00  0.00    -0.014 A 
BRANCH  45  46
ATOM     46  C   UNL A   1      44.436  25.838  26.967  1.00  0.00     0.031 A 
ATOM     47  C   UNL A   1      45.797  26.463  26.813  1.00  0.00     0.074 A 
ATOM     48  C   UNL A   1      43.426  26.532  27.528  1.00  0.00     0.049 A 
ATOM     49  N   UNL A   1      46.212  27.647  27.180  1.00  0.00    -0.248 NA
ATOM     50  C   UNL A   1      46.842  25.621  26.211  1.00  0.00     0.031 C 
ATOM     51  C   UNL A   1      42.081  26.012  27.790  1.00  0.00     0.029 A 
ATOM     52  N   UNL A   1      43.374  27.824  27.987  1.00  0.00    -0.354 N 
ATOM     53  C   UNL A   1      47.569  27.680  26.876  1.00  0.00     0.074 A 
ATOM     54  C   UNL A   1      47.919  26.371  26.371  1.00  0.00     0.031 C 
ATOM     55  C   UNL A   1      41.330  26.985  28.332  1.00  0.00     0.029 A 
ATOM     56  C   UNL A   1      42.145  28.185  28.494  1.00  0.00     0.049 A 
ATOM     57  H   UNL A   1      44.143  28.437  27.959  1.00  0.00     0.167 HD
ATOM     58  C   UNL A   1      48.437  28.717  26.978  1.00  0.00     0.034 A 
ATOM     59  C   UNL A   1      41.727  29.349  29.028  1.00  0.00     0.034 A 
ATOM     60  C   UNL A   1      48.060  30.025  27.451  1.00  0.00     0.049 A 
ATOM     61  C   UNL A   1      42.700  30.499  29.106  1.00  0.00     0.074 A 
ATOM     62  C   UNL A   1      48.833  31.170  27.535  1.00  0.00     0.029 A 
ATOM     63  N   UNL A   1      46.796  30.365  27.918  1.00  0.00    -0.354 N 
ATOM     64  N   UNL A   1      43.967  30.532  28.762  1.00  0.00    -0.248 NA
ATOM     65  C   UNL A   1      42.183  31.768  29.630  1.00  0.00     0.031 C 
ATOM     66  C   UNL A   1      48.053  32.184  28.103  1.00  0.00     0.029 A 
ATOM     67  C   UNL A   1      46.773  31.694  28.311  1.00  0.00     0.049 A 
ATOM     68  H   UNL A   1      46.027  29.751  27.963  1.00  0.00     0.167 HD
ATOM     69  C   UNL A   1      44.389  31.837  28.999  1.00  0.00     0.074 A 
ATOM     70  C   UNL A   1      43.238  32.559  29.502  1.00  0.00     0.031 C 
ATOM     71  C   UNL A   1      45.615  32.391  28.816  1.00  0.00     0.034 A 
BRANCH  58  72
ATOM     72  C   UNL A   1      49.871  28.459  26.580  1.00  0.00     0.023 A 
ATOM     73  C   UNL A   1      50.322  28.677  25.266  1.00  0.00     0.031 A 
ATOM     74  C   UNL A   1      50.788  27.940  27.511  1.00  0.00     0.131 A 
ATOM     75  C   UNL A   1      51.619  28.289  24.896  1.00  0.00     0.055 A 
ATOM     76  C   UNL A   1      52.106  27.643  27.158  1.00  0.00     0.041 A 
ATOM     77  F   UNL A   1      50.412  27.691  28.775  1.00  0.00    -0.206 F 
ATOM     78  C   UNL A   1      52.523  27.798  25.839  1.00  0.00     0.022 A 
BRANCH  75  79
ATOM     79  S   UNL A   1      52.048  28.286  23.134  1.00  0.00     0.124 S 
ATOM     80  O   UNL A   1      53.383  28.880  23.156  1.00  0.00    -0.237 OA
ATOM     81  O   UNL A   1      51.984  26.870  22.795  1.00  0.00    -0.237 OA
ATOM     82  O   UNL A   1      51.014  29.121  22.527  1.00  0.00    -0.744 OA
ENDBRANCH  75  79
ENDBRANCH  58  72
BRANCH  59  83
ATOM     83  C   UNL A   1      40.328  29.499  29.520  1.00  0.00     0.023 A 
ATOM     84  C   UNL A   1      40.041  29.487  30.894  1.00  0.00     0.031 A 
ATOM     85  C   UNL A   1      39.253  29.623  28.622  1.00  0.00     0.131 A 
ATOM     86  C   UNL A   1      38.708  29.551  31.332  1.00  0.00     0.055 A 
ATOM     87  C   UNL A   1      37.933  29.733  29.064  1.00  0.00     0.041 A 
ATOM     88  F   UNL A   1      39.473  29.651  27.298  1.00  0.00    -0.206 F 
ATOM     89  C   UNL A   1      37.654  29.684  30.427  1.00  0.00     0.022 A 
BRANCH  86  90
ATOM     90  S   UNL A   1      38.368  29.379  33.106  1.00  0.00     0.124 S 
ATOM     91  O   UNL A   1      39.641  28.872  33.605  1.00  0.00    -0.237 OA
ATOM     92  O   UNL A   1      38.029  30.747  33.481  1.00  0.00    -0.237 OA
ATOM     93  O   UNL A   1      37.257  28.429  33.147  1.00  0.00    -0.744 OA
ENDBRANCH  86  90
ENDBRANCH  59  83
BRANCH  71  94
ATOM     94  C   UNL A   1      45.751  33.861  29.122  1.00  0.00     0.023 A 
ATOM     95  C   UNL A   1      45.413  34.845  28.178  1.00  0.00     0.031 A 
ATOM     96  C   UNL A   1      46.237  34.280  30.373  1.00  0.00     0.131 A 
ATOM     97  C   UNL A   1      45.619  36.200  28.479  1.00  0.00     0.055 A 
ATOM     98  C   UNL A   1      46.385  35.630  30.687  1.00  0.00     0.041 A 
ATOM     99  F   UNL A   1      46.574  33.379  31.310  1.00  0.00    -0.206 F 
ATOM    100  C   UNL A   1      46.088  36.599  29.733  1.00  0.00     0.022 A 
BRANCH  97 101
ATOM    101  S   UNL A   1      45.348  37.430  27.175  1.00  0.00     0.124 S 
ATOM    102  O   UNL A   1      43.975  37.148  26.772  1.00  0.00    -0.237 OA
ATOM    103  O   UNL A   1      45.558  38.688  27.884  1.00  0.00    -0.237 OA
ATOM    104  O   UNL A   1      46.367  37.104  26.179  1.00  0.00    -0.744 OA
ENDBRANCH  97 101
ENDBRANCH  71  94
ENDBRANCH  45  46
ENDBRANCH  37  40
ENDBRANCH  35  36
ENDBRANCH  34  35
ENDBRANCH  33  34
ENDBRANCH  32  33
ENDBRANCH   1  32
TORSDOF 22
ENDMDL
MODEL 2
REMARK VINA RESULT:     -11.0      1.287      2.140
REMARK SMILES Cc1ccc(NC(=O)C[C@H]2C(=O)NCCN2C(=O)CCC(=O)NCCCCCCNC(=O)c2ccc(-c3c4nc(c(-c5cc(S(=O)(=O)[O-])ccc5F)c5ccc([nH]5)c(-c5cc(S(=O)(=O)[O-])ccc5F)c5nc(c(-c6cc(S(=O)(=O)[O-])ccc6F)c6ccc3[nH]6)C=C5)C=C4)cc2)c(C)c1
REMARK SMILES IDX 25 1 24 2 23 3 21 4 22 5 20 7 19 8 17 9 18 10 16 11 10 12
REMARK SMILES IDX 11 13 12 14 13 15 15 16 14 17 9 19 7 20 6 21 8 23 5 24 1 25
REMARK SMILES IDX 2 26 3 27 98 28 4 29 96 30 97 31 26 32 27 33 28 34 29 35
REMARK SMILES IDX 30 36 31 37 32 39 33 40 34 41 95 42 35 43 94 44 36 45 37 46
REMARK SMILES IDX 38 47 88 48 39 49 93 50 87 51 89 52 40 53 92 54 86 55 85 56
REMARK SMILES IDX 41 58 73 59 53 60 72 61 54 62 57 63 71 64 90 65 55 66 56 67
REMARK SMILES IDX 70 69 91 70 58 71 42 72 43 73 51 74 44 75 50 76 52 77 49 78
REMARK SMILES IDX 45 79 46 80 47 81 48 82 74 83 75 84 83 85 76 86 82 87 84 88
REMARK SMILES IDX 81 89 77 90 78 91 79 92 80 93 59 94 60 95 68 96 61 97 67 98
REMARK SMILES IDX 69 99 66 100 62 101 63 102 64 103 65 104
REMARK H PARENT 23 6 13 18 6 22 30 38 89 57 57 68
REMARK Flexibility Score: inf
ROOT
ATOM      1  C   UNL A   1      40.329  23.027  27.244  1.00  0.00     0.021 C 
ENDROOT
BRANCH   1   2
ATOM      2  C   UNL A   1      39.198  23.920  26.566  1.00  0.00     0.116 C 
BRANCH   2   3
ATOM      3  N   UNL A   1      37.767  23.703  26.813  1.00  0.00    -0.356 N 
ATOM      4  C   UNL A   1      36.648  23.436  26.081  1.00  0.00     0.220 C 
ATOM      5  O   UNL A   1      35.597  23.138  26.656  1.00  0.00    -0.275 OA
ATOM      6  H   UNL A   1      37.557  23.770  27.772  1.00  0.00     0.163 HD
BRANCH   4   7
ATOM      7  C   UNL A   1      36.604  23.658  24.619  1.00  0.00     0.110 C 
BRANCH   7   8
ATOM      8  C   UNL A   1      35.947  22.432  24.022  1.00  0.00     0.110 C 
BRANCH   8   9
ATOM      9  C   UNL A   1      34.644  22.867  23.442  1.00  0.00     0.223 C 
ATOM     10  O   UNL A   1      34.713  23.526  22.391  1.00  0.00    -0.275 OA
BRANCH   9  11
ATOM     11  N   UNL A   1      33.416  22.638  24.088  1.00  0.00    -0.328 N 
ATOM     12  C   UNL A   1      32.651  23.519  25.118  1.00  0.00     0.183 C 
ATOM     13  C   UNL A   1      32.103  22.645  26.289  1.00  0.00     0.243 C 
ATOM     14  O   UNL A   1      31.754  23.131  27.365  1.00  0.00    -0.273 OA
ATOM     15  N   UNL A   1      32.012  21.288  26.151  1.00  0.00    -0.353 N 
ATOM     16  C   UNL A   1      33.058  21.213  23.906  1.00  0.00     0.141 C 
ATOM     17  C   UNL A   1      32.211  20.530  24.951  1.00  0.00     0.137 C 
ATOM     18  H   UNL A   1      31.784  20.779  26.961  1.00  0.00     0.163 HD
BRANCH  12  19
ATOM     19  C   UNL A   1      31.736  24.974  24.937  1.00  0.00     0.135 C 
BRANCH  19  20
ATOM     20  C   UNL A   1      31.944  26.633  24.957  1.00  0.00     0.227 C 
ATOM     21  N   UNL A   1      31.379  27.746  24.334  1.00  0.00    -0.326 N 
ATOM     22  H   UNL A   1      31.850  28.541  24.676  1.00  0.00     0.169 HD
ATOM     23  O   UNL A   1      32.843  27.016  25.742  1.00  0.00    -0.275 OA
BRANCH  21  24
ATOM     24  C   UNL A   1      30.387  28.209  23.395  1.00  0.00     0.044 A 
ATOM     25  C   UNL A   1      27.610  31.136  21.968  1.00  0.00     0.044 C 
ATOM     26  C   UNL A   1      28.528  29.952  22.143  1.00  0.00    -0.051 A 
ATOM     27  C   UNL A   1      29.887  30.045  21.844  1.00  0.00     0.005 A 
ATOM     28  C   UNL A   1      28.098  28.804  22.813  1.00  0.00     0.009 A 
ATOM     29  C   UNL A   1      30.804  29.140  22.424  1.00  0.00     0.026 A 
ATOM     30  C   UNL A   1      29.022  27.903  23.404  1.00  0.00    -0.027 A 
ATOM     31  C   UNL A   1      28.503  26.605  23.942  1.00  0.00     0.046 C 
ENDBRANCH  21  24
ENDBRANCH  19  20
ENDBRANCH  12  19
ENDBRANCH   9  11
ENDBRANCH   8   9
ENDBRANCH   7   8
ENDBRANCH   4   7
ENDBRANCH   2   3
ENDBRANCH   1   2
BRANCH   1  32
ATOM     32  C   UNL A   1      40.461  21.486  27.272  1.00  0.00     0.002 C 
BRANCH  32  33
ATOM     33  C   UNL A   1      41.778  20.860  27.781  1.00  0.00     0.002 C 
BRANCH  33  34
ATOM     34  C   UNL A   1      42.197  19.571  27.097  1.00  0.00     0.021 C 
BRANCH  34  35
ATOM     35  C   UNL A   1      42.143  19.632  25.582  1.00  0.00     0.116 C 
BRANCH  35  36
ATOM     36  N   UNL A   1      43.427  19.363  24.949  1.00  0.00    -0.352 N 
ATOM     37  C   UNL A   1      44.496  20.225  24.770  1.00  0.00     0.251 C 
ATOM     38  H   UNL A   1      43.552  18.450  24.604  1.00  0.00     0.163 HD
ATOM     39  O   UNL A   1      45.464  19.900  24.123  1.00  0.00    -0.269 OA
BRANCH  37  40
ATOM     40  C   UNL A   1      44.387  21.579  25.362  1.00  0.00     0.039 A 
ATOM     41  C   UNL A   1      44.971  21.824  26.604  1.00  0.00     0.014 A 
ATOM     42  C   UNL A   1      43.828  22.619  24.616  1.00  0.00     0.014 A 
ATOM     43  C   UNL A   1      45.077  23.140  27.059  1.00  0.00     0.010 A 
ATOM     44  C   UNL A   1      44.035  23.931  25.018  1.00  0.00     0.010 A 
ATOM     45  C   UNL A   1      44.659  24.206  26.245  1.00  0.00    -0.014 A 
BRANCH  45  46
ATOM     46  C   UNL A   1      44.845  25.621  26.657  1.00  0.00     0.031 A 
ATOM     47  C   UNL A   1      46.198  26.264  26.503  1.00  0.00     0.074 A 
ATOM     48  C   UNL A   1      43.833  26.293  27.240  1.00  0.00     0.049 A 
ATOM     49  N   UNL A   1      46.604  27.445  26.888  1.00  0.00    -0.248 NA
ATOM     50  C   UNL A   1      47.246  25.445  25.875  1.00  0.00     0.031 C 
ATOM     51  C   UNL A   1      42.495  25.754  27.504  1.00  0.00     0.029 A 
ATOM     52  N   UNL A   1      43.770  27.576  27.725  1.00  0.00    -0.354 N 
ATOM     53  C   UNL A   1      47.957  27.499  26.573  1.00  0.00     0.074 A 
ATOM     54  C   UNL A   1      48.316  26.203  26.039  1.00  0.00     0.031 C 
ATOM     55  C   UNL A   1      41.739  26.708  28.071  1.00  0.00     0.029 A 
ATOM     56  C   UNL A   1      42.543  27.913  28.249  1.00  0.00     0.049 A 
ATOM     57  H   UNL A   1      44.533  28.197  27.701  1.00  0.00     0.167 HD
ATOM     58  C   UNL A   1      48.815  28.543  26.687  1.00  0.00     0.034 A 
ATOM     59  C   UNL A   1      42.118  29.062  28.810  1.00  0.00     0.034 A 
ATOM     60  C   UNL A   1      48.428  29.838  27.188  1.00  0.00     0.049 A 
ATOM     61  C   UNL A   1      43.079  30.221  28.901  1.00  0.00     0.074 A 
ATOM     62  C   UNL A   1      49.189  30.989  27.288  1.00  0.00     0.029 A 
ATOM     63  N   UNL A   1      47.165  30.155  27.673  1.00  0.00    -0.354 N 
ATOM     64  N   UNL A   1      44.342  30.275  28.546  1.00  0.00    -0.248 NA
ATOM     65  C   UNL A   1      42.553  31.474  29.454  1.00  0.00     0.031 C 
ATOM     66  C   UNL A   1      48.404  31.983  27.882  1.00  0.00     0.029 A 
ATOM     67  C   UNL A   1      47.131  31.475  28.092  1.00  0.00     0.049 A 
ATOM     68  H   UNL A   1      46.403  29.531  27.713  1.00  0.00     0.167 HD
ATOM     69  C   UNL A   1      44.753  31.579  28.804  1.00  0.00     0.074 A 
ATOM     70  C   UNL A   1      43.598  32.279  29.331  1.00  0.00     0.031 C 
ATOM     71  C   UNL A   1      45.971  32.151  28.621  1.00  0.00     0.034 A 
BRANCH  58  72
ATOM     72  C   UNL A   1      50.248  28.308  26.271  1.00  0.00     0.023 A 
ATOM     73  C   UNL A   1      50.635  28.323  24.919  1.00  0.00     0.031 A 
ATOM     74  C   UNL A   1      51.231  28.016  27.232  1.00  0.00     0.131 A 
ATOM     75  C   UNL A   1      51.941  27.957  24.560  1.00  0.00     0.055 A 
ATOM     76  C   UNL A   1      52.552  27.743  26.873  1.00  0.00     0.041 A 
ATOM     77  F   UNL A   1      50.919  27.967  28.537  1.00  0.00    -0.206 F 
ATOM     78  C   UNL A   1      52.910  27.693  25.528  1.00  0.00     0.022 A 
BRANCH  75  79
ATOM     79  S   UNL A   1      52.305  27.675  22.806  1.00  0.00     0.124 S 
ATOM     80  O   UNL A   1      50.963  27.639  22.229  1.00  0.00    -0.237 OA
ATOM     81  O   UNL A   1      53.118  28.835  22.461  1.00  0.00    -0.237 OA
ATOM     82  O   UNL A   1      53.010  26.396  22.803  1.00  0.00    -0.744 OA
ENDBRANCH  75  79
ENDBRANCH  58  72
BRANCH  59  83
ATOM     83  C   UNL A   1      40.721  29.188  29.316  1.00  0.00     0.023 A 
ATOM     84  C   UNL A   1      40.443  29.114  30.691  1.00  0.00     0.031 A 
ATOM     85  C   UNL A   1      39.640  29.350  28.432  1.00  0.00     0.131 A 
ATOM     86  C   UNL A   1      39.114  29.156  31.139  1.00  0.00     0.055 A 
ATOM     87  C   UNL A   1      38.323  29.437  28.887  1.00  0.00     0.041 A 
ATOM     88  F   UNL A   1      39.852  29.436  27.110  1.00  0.00    -0.206 F 
ATOM     89  C   UNL A   1      38.053  29.327  30.248  1.00  0.00     0.022 A 
BRANCH  86  90
ATOM     90  S   UNL A   1      38.785  28.904  32.906  1.00  0.00     0.124 S 
ATOM     91  O   UNL A   1      37.527  28.166  32.872  1.00  0.00    -0.237 OA
ATOM     92  O   UNL A   1      39.961  28.150  33.326  1.00  0.00    -0.237 OA
ATOM     93  O   UNL A   1      38.698  30.265  33.432  1.00  0.00    -0.744 OA
ENDBRANCH  86  90
ENDBRANCH  59  83
BRANCH  71  94
ATOM     94  C   UNL A   1      46.093  33.615  28.954  1.00  0.00     0.023 A 
ATOM     95  C   UNL A   1      45.870  34.612  27.989  1.00  0.00     0.031 A 
ATOM     96  C   UNL A   1      46.451  34.016  30.253  1.00  0.00     0.131 A 
ATOM     97  C   UNL A   1      46.062  35.961  28.324  1.00  0.00     0.055 A 
ATOM     98  C   UNL A   1      46.584  35.362  30.595  1.00  0.00     0.041 A 
ATOM     99  F   UNL A   1      46.675  33.103  31.212  1.00  0.00    -0.206 F 
ATOM    100  C   UNL A   1      46.401  36.343  29.624  1.00  0.00     0.022 A 
BRANCH  97 101
ATOM    101  S   UNL A   1      45.946  37.206  27.011  1.00  0.00     0.124 S 
ATOM    102  O   UNL A   1      46.683  38.326  27.588  1.00  0.00    -0.237 OA
ATOM    103  O   UNL A   1      46.586  36.535  25.885  1.00  0.00    -0.237 OA
ATOM    104  O   UNL A   1      44.507  37.420  26.867  1.00  0.00    -0.744 OA
ENDBRANCH  97 101
ENDBRANCH  71  94
ENDBRANCH  45  46
ENDBRANCH  37  40
ENDBRANCH  35  36
ENDBRANCH  34  35
ENDBRANCH  33  34
ENDBRANCH  32  33
ENDBRANCH   1  32
TORSDOF 22
ENDMDL
MODEL 3
REMARK VINA RESULT:     -10.9      1.500      7.557
REMARK SMILES Cc1ccc(NC(=O)C[C@H]2C(=O)NCCN2C(=O)CCC(=O)NCCCCCCNC(=O)c2ccc(-c3c4nc(c(-c5cc(S(=O)(=O)[O-])ccc5F)c5ccc([nH]5)c(-c5cc(S(=O)(=O)[O-])ccc5F)c5nc(c(-c6cc(S(=O)(=O)[O-])ccc6F)c6ccc3[nH]6)C=C5)C=C4)cc2)c(C)c1
REMARK SMILES IDX 25 1 24 2 23 3 21 4 22 5 20 7 19 8 17 9 18 10 16 11 10 12
REMARK SMILES IDX 11 13 12 14 13 15 15 16 14 17 9 19 7 20 6 21 8 23 5 24 1 25
REMARK SMILES IDX 2 26 3 27 98 28 4 29 96 30 97 31 26 32 27 33 28 34 29 35
REMARK SMILES IDX 30 36 31 37 32 39 33 40 34 41 95 42 35 43 94 44 36 45 37 46
REMARK SMILES IDX 38 47 88 48 39 49 93 50 87 51 89 52 40 53 92 54 86 55 85 56
REMARK SMILES IDX 41 58 73 59 53 60 72 61 54 62 57 63 71 64 90 65 55 66 56 67
REMARK SMILES IDX 70 69 91 70 58 71 42 72 43 73 51 74 44 75 50 76 52 77 49 78
REMARK SMILES IDX 45 79 46 80 47 81 48 82 74 83 75 84 83 85 76 86 82 87 84 88
REMARK SMILES IDX 81 89 77 90 78 91 79 92 80 93 59 94 60 95 68 96 61 97 67 98
REMARK SMILES IDX 69 99 66 100 62 101 63 102 64 103 65 104
REMARK H PARENT 23 6 13 18 6 22 30 38 89 57 57 68
REMARK Flexibility Score: inf
ROOT
ATOM      1  C   UNL A   1      39.873  23.397  26.865  1.00  0.00     0.021 C 
ENDROOT
BRANCH   1   2
ATOM      2  C   UNL A   1      38.527  24.218  26.640  1.00  0.00     0.116 C 
BRANCH   2   3
ATOM      3  N   UNL A   1      37.198  23.609  26.774  1.00  0.00    -0.356 N 
ATOM      4  C   UNL A   1      36.144  23.301  25.966  1.00  0.00     0.220 C 
ATOM      5  O   UNL A   1      35.216  22.614  26.403  1.00  0.00    -0.275 OA
ATOM      6  H   UNL A   1      37.017  23.352  27.707  1.00  0.00     0.163 HD
BRANCH   4   7
ATOM      7  C   UNL A   1      35.990  23.908  24.625  1.00  0.00     0.110 C 
BRANCH   7   8
ATOM      8  C   UNL A   1      35.387  22.837  23.741  1.00  0.00     0.110 C 
BRANCH   8   9
ATOM      9  C   UNL A   1      34.065  23.343  23.274  1.00  0.00     0.223 C 
ATOM     10  O   UNL A   1      34.093  24.106  22.293  1.00  0.00    -0.275 OA
BRANCH   9  11
ATOM     11  N   UNL A   1      32.866  23.061  23.952  1.00  0.00    -0.328 N 
ATOM     12  C   UNL A   1      31.993  23.979  24.857  1.00  0.00     0.183 C 
ATOM     13  C   UNL A   1      31.540  23.213  26.140  1.00  0.00     0.243 C 
ATOM     14  O   UNL A   1      31.127  23.796  27.142  1.00  0.00    -0.273 OA
ATOM     15  N   UNL A   1      31.609  21.849  26.188  1.00  0.00    -0.353 N 
ATOM     16  C   UNL A   1      32.679  21.593  23.968  1.00  0.00     0.141 C 
ATOM     17  C   UNL A   1      31.907  20.964  25.101  1.00  0.00     0.137 C 
ATOM     18  H   UNL A   1      31.435  21.431  27.061  1.00  0.00     0.163 HD
BRANCH  12  19
ATOM     19  C   UNL A   1      30.917  25.279  24.487  1.00  0.00     0.135 C 
BRANCH  19  20
ATOM     20  C   UNL A   1      30.937  26.933  24.242  1.00  0.00     0.227 C 
ATOM     21  N   UNL A   1      31.500  28.054  24.851  1.00  0.00    -0.326 N 
ATOM     22  H   UNL A   1      31.219  28.841  24.330  1.00  0.00     0.169 HD
ATOM     23  O   UNL A   1      30.279  27.299  23.239  1.00  0.00    -0.275 OA
BRANCH  21  24
ATOM     24  C   UNL A   1      32.326  28.533  25.933  1.00  0.00     0.044 A 
ATOM     25  C   UNL A   1      35.130  31.298  27.607  1.00  0.00     0.044 C 
ATOM     26  C   UNL A   1      34.109  30.215  27.365  1.00  0.00    -0.051 A 
ATOM     27  C   UNL A   1      32.746  30.505  27.331  1.00  0.00     0.005 A 
ATOM     28  C   UNL A   1      34.501  28.939  26.952  1.00  0.00     0.009 A 
ATOM     29  C   UNL A   1      31.851  29.637  26.666  1.00  0.00     0.026 A 
ATOM     30  C   UNL A   1      33.603  28.073  26.273  1.00  0.00    -0.027 A 
ATOM     31  C   UNL A   1      34.032  26.660  26.025  1.00  0.00     0.046 C 
ENDBRANCH  21  24
ENDBRANCH  19  20
ENDBRANCH  12  19
ENDBRANCH   9  11
ENDBRANCH   8   9
ENDBRANCH   7   8
ENDBRANCH   4   7
ENDBRANCH   2   3
ENDBRANCH   1   2
BRANCH   1  32
ATOM     32  C   UNL A   1      40.080  21.864  26.895  1.00  0.00     0.002 C 
BRANCH  32  33
ATOM     33  C   UNL A   1      41.174  21.278  27.816  1.00  0.00     0.002 C 
BRANCH  33  34
ATOM     34  C   UNL A   1      41.812  19.988  27.333  1.00  0.00     0.021 C 
BRANCH  34  35
ATOM     35  C   UNL A   1      41.718  19.778  25.833  1.00  0.00     0.116 C 
BRANCH  35  36
ATOM     36  N   UNL A   1      42.988  19.408  25.222  1.00  0.00    -0.352 N 
ATOM     37  C   UNL A   1      44.122  20.185  25.056  1.00  0.00     0.251 C 
ATOM     38  H   UNL A   1      43.048  18.486  24.885  1.00  0.00     0.163 HD
ATOM     39  O   UNL A   1      45.072  19.783  24.426  1.00  0.00    -0.269 OA
BRANCH  37  40
ATOM     40  C   UNL A   1      44.106  21.547  25.639  1.00  0.00     0.039 A 
ATOM     41  C   UNL A   1      44.662  21.750  26.902  1.00  0.00     0.014 A 
ATOM     42  C   UNL A   1      43.667  22.626  24.868  1.00  0.00     0.014 A 
ATOM     43  C   UNL A   1      44.863  23.055  27.355  1.00  0.00     0.010 A 
ATOM     44  C   UNL A   1      43.971  23.918  25.273  1.00  0.00     0.010 A 
ATOM     45  C   UNL A   1      44.569  24.148  26.522  1.00  0.00    -0.014 A 
BRANCH  45  46
ATOM     46  C   UNL A   1      44.860  25.545  26.936  1.00  0.00     0.031 A 
ATOM     47  C   UNL A   1      43.754  26.392  27.507  1.00  0.00     0.074 A 
ATOM     48  C   UNL A   1      46.082  26.071  26.723  1.00  0.00     0.049 A 
ATOM     49  N   UNL A   1      43.764  27.656  27.836  1.00  0.00    -0.248 NA
ATOM     50  C   UNL A   1      42.449  25.736  27.682  1.00  0.00     0.031 C 
ATOM     51  C   UNL A   1      47.216  25.368  26.114  1.00  0.00     0.029 A 
ATOM     52  N   UNL A   1      46.576  27.324  26.986  1.00  0.00    -0.354 N 
ATOM     53  C   UNL A   1      42.464  27.952  28.231  1.00  0.00     0.074 A 
ATOM     54  C   UNL A   1      41.679  26.754  28.024  1.00  0.00     0.031 C 
ATOM     55  C   UNL A   1      48.278  26.190  26.083  1.00  0.00     0.029 A 
ATOM     56  C   UNL A   1      47.896  27.487  26.630  1.00  0.00     0.049 A 
ATOM     57  H   UNL A   1      46.037  28.040  27.392  1.00  0.00     0.167 HD
ATOM     58  C   UNL A   1      41.976  29.105  28.752  1.00  0.00     0.034 A 
ATOM     59  C   UNL A   1      48.702  28.562  26.732  1.00  0.00     0.034 A 
ATOM     60  C   UNL A   1      42.783  30.276  28.984  1.00  0.00     0.049 A 
ATOM     61  C   UNL A   1      48.148  29.826  27.340  1.00  0.00     0.074 A 
ATOM     62  C   UNL A   1      42.416  31.477  29.566  1.00  0.00     0.029 A 
ATOM     63  N   UNL A   1      44.126  30.392  28.648  1.00  0.00    -0.354 N 
ATOM     64  N   UNL A   1      46.929  30.073  27.763  1.00  0.00    -0.248 NA
ATOM     65  C   UNL A   1      49.080  30.949  27.496  1.00  0.00     0.031 C 
ATOM     66  C   UNL A   1      43.522  32.335  29.531  1.00  0.00     0.029 A 
ATOM     67  C   UNL A   1      44.597  31.649  28.989  1.00  0.00     0.049 A 
ATOM     68  H   UNL A   1      44.666  29.683  28.227  1.00  0.00     0.167 HD
ATOM     69  C   UNL A   1      46.958  31.371  28.265  1.00  0.00     0.074 A 
ATOM     70  C   UNL A   1      48.318  31.846  28.103  1.00  0.00     0.031 C 
ATOM     71  C   UNL A   1      45.956  32.104  28.813  1.00  0.00     0.034 A 
BRANCH  58  72
ATOM     72  C   UNL A   1      40.503  29.143  29.086  1.00  0.00     0.023 A 
ATOM     73  C   UNL A   1      40.046  29.056  30.413  1.00  0.00     0.031 A 
ATOM     74  C   UNL A   1      39.540  29.215  28.064  1.00  0.00     0.131 A 
ATOM     75  C   UNL A   1      38.672  28.947  30.676  1.00  0.00     0.055 A 
ATOM     76  C   UNL A   1      38.172  29.199  28.339  1.00  0.00     0.041 A 
ATOM     77  F   UNL A   1      39.914  29.279  26.776  1.00  0.00    -0.206 F 
ATOM     78  C   UNL A   1      37.730  29.045  29.651  1.00  0.00     0.022 A 
BRANCH  75  79
ATOM     79  S   UNL A   1      38.147  28.514  32.357  1.00  0.00     0.124 S 
ATOM     80  O   UNL A   1      36.835  29.152  32.428  1.00  0.00    -0.237 OA
ATOM     81  O   UNL A   1      38.149  27.057  32.323  1.00  0.00    -0.237 OA
ATOM     82  O   UNL A   1      39.172  29.120  33.203  1.00  0.00    -0.744 OA
ENDBRANCH  75  79
ENDBRANCH  58  72
BRANCH  59  83
ATOM     83  C   UNL A   1      50.117  28.496  26.267  1.00  0.00     0.023 A 
ATOM     84  C   UNL A   1      50.445  28.727  24.921  1.00  0.00     0.031 A 
ATOM     85  C   UNL A   1      51.158  28.169  27.152  1.00  0.00     0.131 A 
ATOM     86  C   UNL A   1      51.772  28.582  24.489  1.00  0.00     0.055 A 
ATOM     87  C   UNL A   1      52.485  28.071  26.727  1.00  0.00     0.041 A 
ATOM     88  F   UNL A   1      50.901  27.948  28.451  1.00  0.00    -0.206 F 
ATOM     89  C   UNL A   1      52.796  28.266  25.384  1.00  0.00     0.022 A 
BRANCH  86  90
ATOM     90  S   UNL A   1      52.131  28.738  22.717  1.00  0.00     0.124 S 
ATOM     91  O   UNL A   1      50.946  29.438  22.234  1.00  0.00    -0.237 OA
ATOM     92  O   UNL A   1      53.370  29.507  22.727  1.00  0.00    -0.237 OA
ATOM     93  O   UNL A   1      52.263  27.352  22.273  1.00  0.00    -0.744 OA
ENDBRANCH  86  90
ENDBRANCH  59  83
BRANCH  71  94
ATOM     94  C   UNL A   1      46.314  33.479  29.315  1.00  0.00     0.023 A 
ATOM     95  C   UNL A   1      46.723  33.696  30.642  1.00  0.00     0.031 A 
ATOM     96  C   UNL A   1      46.231  34.589  28.456  1.00  0.00     0.131 A 
ATOM     97  C   UNL A   1      46.981  35.002  31.087  1.00  0.00     0.055 A 
ATOM     98  C   UNL A   1      46.544  35.877  28.889  1.00  0.00     0.041 A 
ATOM     99  F   UNL A   1      45.844  34.435  27.179  1.00  0.00    -0.206 F 
ATOM    100  C   UNL A   1      46.909  36.090  30.215  1.00  0.00     0.022 A 
BRANCH  97 101
ATOM    101  S   UNL A   1      47.328  35.267  32.847  1.00  0.00     0.124 S 
ATOM    102  O   UNL A   1      48.689  34.757  32.969  1.00  0.00    -0.237 OA
ATOM    103  O   UNL A   1      47.174  36.711  32.982  1.00  0.00    -0.237 OA
ATOM    104  O   UNL A   1      46.304  34.470  33.521  1.00  0.00    -0.744 OA
ENDBRANCH  97 101
ENDBRANCH  71  94
ENDBRANCH  45  46
ENDBRANCH  37  40
ENDBRANCH  35  36
ENDBRANCH  34  35
ENDBRANCH  33  34
ENDBRANCH  32  33
ENDBRANCH   1  32
TORSDOF 22
ENDMDL
