MODEL 1
REMARK VINA RESULT:     -12.5      0.000      0.000
REMARK SMILES O=C(NCCCCCCNC(=O)C1(n2ccnc2)CCN(C(=O)[C@@H]2CC(=O)N(C3CC3)C2)CC1)c1ccc(-c2c3nc(c(-c4cc(S(=O)(=O)[O-])ccc4F)c4ccc([nH]4)c(-c4cc(S(=O)(=O)[O-])ccc4F)c4nc(c(-c5cc(S(=O)(=O)[O-])ccc5F)c5ccc2[nH]5)C=C4)C=C3)cc1
REMARK SMILES IDX 6 1 5 2 4 3 3 4 1 5 2 6 35 8 36 9 97 10 37 11 96 12 38 13
REMARK SMILES IDX 39 14 40 15 90 16 41 17 95 18 89 19 91 20 42 21 94 22 88 23
REMARK SMILES IDX 87 24 43 26 75 27 55 28 74 29 56 30 59 31 73 32 92 33 57 34
REMARK SMILES IDX 58 35 72 37 93 38 60 39 44 40 45 41 53 42 46 43 52 44 54 45
REMARK SMILES IDX 51 46 47 47 48 48 49 49 50 50 76 51 77 52 85 53 78 54 84 55
REMARK SMILES IDX 86 56 83 57 79 58 80 59 81 60 82 61 61 62 62 63 70 64 63 65
REMARK SMILES IDX 69 66 71 67 68 68 64 69 65 70 66 71 67 72 7 73 8 74 9 75
REMARK SMILES IDX 10 76 11 77 12 79 13 80 19 81 34 82 20 83 33 84 21 85 22 86
REMARK SMILES IDX 23 87 14 88 15 89 18 90 16 91 17 92 24 93 25 94 32 95 26 96
REMARK SMILES IDX 28 97 27 98 29 99 30 100 31 101
REMARK H PARENT 3 7 91 25 59 36 10 78
REMARK Flexibility Score: inf
ROOT
ATOM      1  C   UNL A   1      39.693  21.407  26.362  1.00  0.00     0.002 C 
ENDROOT
BRANCH   1   2
ATOM      2  C   UNL A   1      40.522  21.334  27.652  1.00  0.00     0.021 C 
BRANCH   2   3
ATOM      3  C   UNL A   1      42.026  21.161  27.453  1.00  0.00     0.116 C 
BRANCH   3   4
ATOM      4  N   UNL A   1      42.548  21.794  26.259  1.00  0.00    -0.352 N 
ATOM      5  O   UNL A   1      43.304  23.206  24.747  1.00  0.00    -0.269 OA
ATOM      6  C   UNL A   1      42.793  23.081  25.865  1.00  0.00     0.251 C 
ATOM      7  H   UNL A   1      42.783  21.140  25.562  1.00  0.00     0.163 HD
BRANCH   6   8
ATOM      8  C   UNL A   1      42.464  24.312  26.642  1.00  0.00     0.039 A 
ATOM      9  C   UNL A   1      43.112  24.749  27.797  1.00  0.00     0.014 A 
ATOM     10  C   UNL A   1      41.426  25.112  26.120  1.00  0.00     0.014 A 
ATOM     11  C   UNL A   1      42.706  25.929  28.430  1.00  0.00     0.010 A 
ATOM     12  C   UNL A   1      41.024  26.295  26.744  1.00  0.00     0.010 A 
ATOM     13  C   UNL A   1      41.659  26.705  27.911  1.00  0.00    -0.014 A 
BRANCH  13  14
ATOM     14  C   UNL A   1      41.435  28.043  28.476  1.00  0.00     0.031 A 
ATOM     15  C   UNL A   1      42.391  29.073  27.980  1.00  0.00     0.074 A 
ATOM     16  C   UNL A   1      40.405  28.439  29.256  1.00  0.00     0.049 A 
ATOM     17  N   UNL A   1      43.318  29.677  28.646  1.00  0.00    -0.248 NA
ATOM     18  C   UNL A   1      42.400  29.374  26.541  1.00  0.00     0.031 C 
ATOM     19  C   UNL A   1      39.209  27.681  29.620  1.00  0.00     0.029 A 
ATOM     20  N   UNL A   1      40.179  29.664  29.829  1.00  0.00    -0.354 N 
ATOM     21  C   UNL A   1      43.885  30.602  27.773  1.00  0.00     0.074 A 
ATOM     22  C   UNL A   1      43.406  30.246  26.463  1.00  0.00     0.031 C 
ATOM     23  C   UNL A   1      38.301  28.516  30.179  1.00  0.00     0.029 A 
ATOM     24  C   UNL A   1      38.891  29.839  30.333  1.00  0.00     0.049 A 
ATOM     25  H   UNL A   1      40.870  30.363  29.881  1.00  0.00     0.167 HD
ATOM     26  C   UNL A   1      44.534  31.708  28.236  1.00  0.00     0.034 A 
ATOM     27  C   UNL A   1      38.331  30.986  30.810  1.00  0.00     0.034 A 
ATOM     28  C   UNL A   1      44.890  31.555  29.630  1.00  0.00     0.049 A 
ATOM     29  C   UNL A   1      39.435  31.881  31.229  1.00  0.00     0.074 A 
ATOM     30  C   UNL A   1      45.613  30.619  30.349  1.00  0.00     0.029 A 
ATOM     31  N   UNL A   1      44.180  32.262  30.575  1.00  0.00    -0.354 N 
ATOM     32  N   UNL A   1      40.214  31.633  32.244  1.00  0.00    -0.248 NA
ATOM     33  C   UNL A   1      39.957  32.835  30.264  1.00  0.00     0.031 C 
ATOM     34  C   UNL A   1      44.902  30.470  31.576  1.00  0.00     0.029 A 
ATOM     35  C   UNL A   1      43.844  31.379  31.571  1.00  0.00     0.049 A 
ATOM     36  H   UNL A   1      43.955  33.221  30.544  1.00  0.00     0.167 HD
ATOM     37  C   UNL A   1      41.474  32.035  31.831  1.00  0.00     0.074 A 
ATOM     38  C   UNL A   1      41.236  32.862  30.649  1.00  0.00     0.031 C 
ATOM     39  C   UNL A   1      42.602  31.438  32.316  1.00  0.00     0.034 A 
BRANCH  26  40
ATOM     40  C   UNL A   1      44.527  33.068  27.560  1.00  0.00     0.023 A 
ATOM     41  C   UNL A   1      43.852  34.109  28.228  1.00  0.00     0.031 A 
ATOM     42  C   UNL A   1      44.849  33.326  26.208  1.00  0.00     0.131 A 
ATOM     43  C   UNL A   1      43.395  35.243  27.536  1.00  0.00     0.055 A 
ATOM     44  C   UNL A   1      44.461  34.493  25.543  1.00  0.00     0.041 A 
ATOM     45  F   UNL A   1      45.479  32.440  25.429  1.00  0.00    -0.206 F 
ATOM     46  C   UNL A   1      43.691  35.442  26.192  1.00  0.00     0.022 A 
BRANCH  43  47
ATOM     47  S   UNL A   1      42.223  36.339  28.377  1.00  0.00     0.124 S 
ATOM     48  O   UNL A   1      42.877  36.518  29.669  1.00  0.00    -0.237 OA
ATOM     49  O   UNL A   1      42.212  37.500  27.494  1.00  0.00    -0.237 OA
ATOM     50  O   UNL A   1      40.989  35.559  28.401  1.00  0.00    -0.744 OA
ENDBRANCH  43  47
ENDBRANCH  26  40
BRANCH  27  51
ATOM     51  C   UNL A   1      36.919  31.456  30.688  1.00  0.00     0.023 A 
ATOM     52  C   UNL A   1      36.263  32.210  31.690  1.00  0.00     0.031 A 
ATOM     53  C   UNL A   1      36.274  31.383  29.434  1.00  0.00     0.131 A 
ATOM     54  C   UNL A   1      35.027  32.847  31.413  1.00  0.00     0.055 A 
ATOM     55  C   UNL A   1      35.055  32.011  29.168  1.00  0.00     0.041 A 
ATOM     56  F   UNL A   1      36.854  30.772  28.389  1.00  0.00    -0.206 F 
ATOM     57  C   UNL A   1      34.430  32.755  30.154  1.00  0.00     0.022 A 
BRANCH  54  58
ATOM     58  S   UNL A   1      34.216  33.904  32.662  1.00  0.00     0.124 S 
ATOM     59  O   UNL A   1      33.420  32.943  33.416  1.00  0.00    -0.237 OA
ATOM     60  O   UNL A   1      35.350  34.500  33.359  1.00  0.00    -0.237 OA
ATOM     61  O   UNL A   1      33.436  34.846  31.857  1.00  0.00    -0.744 OA
ENDBRANCH  54  58
ENDBRANCH  27  51
BRANCH  39  62
ATOM     62  C   UNL A   1      42.511  30.604  33.578  1.00  0.00     0.023 A 
ATOM     63  C   UNL A   1      42.089  29.257  33.639  1.00  0.00     0.031 A 
ATOM     64  C   UNL A   1      42.973  31.195  34.769  1.00  0.00     0.131 A 
ATOM     65  C   UNL A   1      42.123  28.563  34.865  1.00  0.00     0.055 A 
ATOM     66  C   UNL A   1      43.027  30.498  35.974  1.00  0.00     0.041 A 
ATOM     67  F   UNL A   1      43.409  32.465  34.777  1.00  0.00    -0.206 F 
ATOM     68  C   UNL A   1      42.594  29.180  36.029  1.00  0.00     0.022 A 
BRANCH  65  69
ATOM     69  S   UNL A   1      41.529  26.844  34.981  1.00  0.00     0.124 S 
ATOM     70  O   UNL A   1      40.490  26.768  33.961  1.00  0.00    -0.237 OA
ATOM     71  O   UNL A   1      42.743  26.075  34.718  1.00  0.00    -0.237 OA
ATOM     72  O   UNL A   1      41.038  26.749  36.358  1.00  0.00    -0.744 OA
ENDBRANCH  65  69
ENDBRANCH  39  62
ENDBRANCH  13  14
ENDBRANCH   6   8
ENDBRANCH   3   4
ENDBRANCH   2   3
ENDBRANCH   1   2
BRANCH   1  73
ATOM     73  C   UNL A   1      38.779  22.628  26.203  1.00  0.00     0.002 C 
BRANCH  73  74
ATOM     74  C   UNL A   1      37.675  22.494  25.152  1.00  0.00     0.021 C 
BRANCH  74  75
ATOM     75  C   UNL A   1      36.817  21.228  25.276  1.00  0.00     0.116 C 
BRANCH  75  76
ATOM     76  N   UNL A   1      35.845  21.323  26.350  1.00  0.00    -0.354 N 
ATOM     77  C   UNL A   1      34.510  21.510  26.474  1.00  0.00     0.246 C 
ATOM     78  H   UNL A   1      36.275  21.224  27.231  1.00  0.00     0.163 HD
ATOM     79  O   UNL A   1      34.149  21.524  27.661  1.00  0.00    -0.272 OA
BRANCH  77  80
ATOM     80  C   UNL A   1      33.459  21.767  25.329  1.00  0.00     0.127 C 
ATOM     81  C   UNL A   1      33.993  22.455  24.051  1.00  0.00     0.061 C 
ATOM     82  C   UNL A   1      32.244  22.536  25.869  1.00  0.00     0.061 C 
ATOM     83  C   UNL A   1      33.915  23.977  23.947  1.00  0.00     0.122 C 
ATOM     84  C   UNL A   1      32.416  24.029  25.930  1.00  0.00     0.122 C 
ATOM     85  N   UNL A   1      32.816  24.624  24.669  1.00  0.00    -0.342 N 
ATOM     86  C   UNL A   1      32.529  25.936  24.292  1.00  0.00     0.227 C 
ATOM     87  O   UNL A   1      33.252  26.513  23.470  1.00  0.00    -0.274 OA
BRANCH  80  88
ATOM     88  N   UNL A   1      32.980  20.398  24.887  1.00  0.00    -0.322 N 
ATOM     89  C   UNL A   1      32.534  20.069  23.625  1.00  0.00     0.108 A 
ATOM     90  C   UNL A   1      32.900  19.245  25.630  1.00  0.00     0.200 A 
ATOM     91  C   UNL A   1      32.173  18.744  23.693  1.00  0.00     0.130 A 
ATOM     92  N   UNL A   1      32.381  18.248  24.948  1.00  0.00    -0.245 NA
ENDBRANCH  80  88
BRANCH  86  93
ATOM     93  C   UNL A   1      31.320  26.711  24.823  1.00  0.00     0.107 C 
ATOM     94  C   UNL A   1      30.444  27.384  23.780  1.00  0.00     0.115 C 
ATOM     95  C   UNL A   1      31.646  27.773  25.850  1.00  0.00     0.133 C 
ATOM     96  C   UNL A   1      30.623  28.859  24.027  1.00  0.00     0.223 C 
ATOM     97  N   UNL A   1      31.357  29.033  25.202  1.00  0.00    -0.339 N 
ATOM     98  O   UNL A   1      30.228  29.722  23.249  1.00  0.00    -0.275 OA
BRANCH  97  99
ATOM     99  C   UNL A   1      32.041  30.223  25.623  1.00  0.00     0.085 C 
ATOM    100  C   UNL A   1      31.391  31.354  26.373  1.00  0.00     0.027 C 
ATOM    101  C   UNL A   1      32.401  30.476  27.056  1.00  0.00     0.027 C 
ENDBRANCH  97  99
ENDBRANCH  86  93
ENDBRANCH  77  80
ENDBRANCH  75  76
ENDBRANCH  74  75
ENDBRANCH  73  74
ENDBRANCH   1  73
TORSDOF 19
ENDMDL
MODEL 2
REMARK VINA RESULT:     -11.8      3.079      9.594
REMARK SMILES O=C(NCCCCCCNC(=O)C1(n2ccnc2)CCN(C(=O)[C@@H]2CC(=O)N(C3CC3)C2)CC1)c1ccc(-c2c3nc(c(-c4cc(S(=O)(=O)[O-])ccc4F)c4ccc([nH]4)c(-c4cc(S(=O)(=O)[O-])ccc4F)c4nc(c(-c5cc(S(=O)(=O)[O-])ccc5F)c5ccc2[nH]5)C=C4)C=C3)cc1
REMARK SMILES IDX 6 1 5 2 4 3 3 4 1 5 2 6 35 8 36 9 97 10 37 11 96 12 38 13
REMARK SMILES IDX 39 14 40 15 90 16 41 17 95 18 89 19 91 20 42 21 94 22 88 23
REMARK SMILES IDX 87 24 43 26 75 27 55 28 74 29 56 30 59 31 73 32 92 33 57 34
REMARK SMILES IDX 58 35 72 37 93 38 60 39 44 40 45 41 53 42 46 43 52 44 54 45
REMARK SMILES IDX 51 46 47 47 48 48 49 49 50 50 76 51 77 52 85 53 78 54 84 55
REMARK SMILES IDX 86 56 83 57 79 58 80 59 81 60 82 61 61 62 62 63 70 64 63 65
REMARK SMILES IDX 69 66 71 67 68 68 64 69 65 70 66 71 67 72 7 73 8 74 9 75
REMARK SMILES IDX 10 76 11 77 12 79 13 80 19 81 34 82 20 83 33 84 21 85 22 86
REMARK SMILES IDX 23 87 14 88 15 89 18 90 16 91 17 92 24 93 25 94 32 95 26 96
REMARK SMILES IDX 28 97 27 98 29 99 30 100 31 101
REMARK H PARENT 3 7 91 25 59 36 10 78
REMARK Flexibility Score: inf
ROOT
ATOM      1  C   UNL A   1      34.795  31.564  27.786  1.00  0.00     0.002 C 
ENDROOT
BRANCH   1   2
ATOM      2  C   UNL A   1      35.949  32.539  28.055  1.00  0.00     0.021 C 
BRANCH   2   3
ATOM      3  C   UNL A   1      35.663  33.617  29.098  1.00  0.00     0.116 C 
BRANCH   3   4
ATOM      4  N   UNL A   1      35.342  33.106  30.415  1.00  0.00    -0.352 N 
ATOM      5  O   UNL A   1      35.347  32.107  32.377  1.00  0.00    -0.269 OA
ATOM      6  C   UNL A   1      35.939  32.253  31.302  1.00  0.00     0.251 C 
ATOM      7  H   UNL A   1      34.486  33.458  30.753  1.00  0.00     0.163 HD
BRANCH   6   8
ATOM      8  C   UNL A   1      37.192  31.478  31.064  1.00  0.00     0.039 A 
ATOM      9  C   UNL A   1      38.488  31.992  31.076  1.00  0.00     0.014 A 
ATOM     10  C   UNL A   1      37.029  30.094  30.848  1.00  0.00     0.014 A 
ATOM     11  C   UNL A   1      39.582  31.153  30.841  1.00  0.00     0.010 A 
ATOM     12  C   UNL A   1      38.119  29.251  30.621  1.00  0.00     0.010 A 
ATOM     13  C   UNL A   1      39.404  29.780  30.608  1.00  0.00    -0.014 A 
BRANCH  13  14
ATOM     14  C   UNL A   1      40.591  28.913  30.603  1.00  0.00     0.031 A 
ATOM     15  C   UNL A   1      41.114  28.603  31.963  1.00  0.00     0.074 A 
ATOM     16  C   UNL A   1      41.140  28.286  29.540  1.00  0.00     0.049 A 
ATOM     17  N   UNL A   1      42.225  28.995  32.491  1.00  0.00    -0.248 NA
ATOM     18  C   UNL A   1      40.238  27.876  32.894  1.00  0.00     0.031 C 
ATOM     19  C   UNL A   1      40.624  28.211  28.174  1.00  0.00     0.029 A 
ATOM     20  N   UNL A   1      42.262  27.499  29.489  1.00  0.00    -0.354 N 
ATOM     21  C   UNL A   1      42.302  28.381  33.739  1.00  0.00     0.074 A 
ATOM     22  C   UNL A   1      40.986  27.858  33.997  1.00  0.00     0.031 C 
ATOM     23  C   UNL A   1      41.314  27.271  27.485  1.00  0.00     0.029 A 
ATOM     24  C   UNL A   1      42.402  26.767  28.311  1.00  0.00     0.049 A 
ATOM     25  H   UNL A   1      42.916  27.456  30.224  1.00  0.00     0.167 HD
ATOM     26  C   UNL A   1      43.501  28.177  34.356  1.00  0.00     0.034 A 
ATOM     27  C   UNL A   1      43.317  25.793  28.039  1.00  0.00     0.034 A 
ATOM     28  C   UNL A   1      44.532  29.011  33.775  1.00  0.00     0.049 A 
ATOM     29  C   UNL A   1      44.472  26.002  28.942  1.00  0.00     0.074 A 
ATOM     30  C   UNL A   1      44.675  30.371  33.568  1.00  0.00     0.029 A 
ATOM     31  N   UNL A   1      45.480  28.422  32.968  1.00  0.00    -0.354 N 
ATOM     32  N   UNL A   1      45.276  27.024  28.857  1.00  0.00    -0.248 NA
ATOM     33  C   UNL A   1      44.487  25.307  30.219  1.00  0.00     0.031 C 
ATOM     34  C   UNL A   1      45.303  30.484  32.292  1.00  0.00     0.029 A 
ATOM     35  C   UNL A   1      45.582  29.195  31.838  1.00  0.00     0.049 A 
ATOM     36  H   UNL A   1      45.991  27.603  33.165  1.00  0.00     0.167 HD
ATOM     37  C   UNL A   1      45.553  27.370  30.169  1.00  0.00     0.074 A 
ATOM     38  C   UNL A   1      45.128  26.216  30.959  1.00  0.00     0.031 C 
ATOM     39  C   UNL A   1      45.840  28.659  30.516  1.00  0.00     0.034 A 
BRANCH  26  40
ATOM     40  C   UNL A   1      43.840  26.977  35.223  1.00  0.00     0.023 A 
ATOM     41  C   UNL A   1      44.455  25.882  34.583  1.00  0.00     0.031 A 
ATOM     42  C   UNL A   1      43.334  26.717  36.516  1.00  0.00     0.131 A 
ATOM     43  C   UNL A   1      44.407  24.593  35.141  1.00  0.00     0.055 A 
ATOM     44  C   UNL A   1      43.359  25.447  37.101  1.00  0.00     0.041 A 
ATOM     45  F   UNL A   1      42.713  27.643  37.254  1.00  0.00    -0.206 F 
ATOM     46  C   UNL A   1      43.858  24.365  36.397  1.00  0.00     0.022 A 
BRANCH  43  47
ATOM     47  S   UNL A   1      44.880  23.195  34.092  1.00  0.00     0.124 S 
ATOM     48  O   UNL A   1      43.885  23.286  33.028  1.00  0.00    -0.237 OA
ATOM     49  O   UNL A   1      46.249  23.545  33.726  1.00  0.00    -0.237 OA
ATOM     50  O   UNL A   1      44.746  22.044  34.981  1.00  0.00    -0.744 OA
ENDBRANCH  43  47
ENDBRANCH  26  40
BRANCH  27  51
ATOM     51  C   UNL A   1      43.144  24.550  27.230  1.00  0.00     0.023 A 
ATOM     52  C   UNL A   1      42.159  23.573  27.509  1.00  0.00     0.031 A 
ATOM     53  C   UNL A   1      43.799  24.442  25.983  1.00  0.00     0.131 A 
ATOM     54  C   UNL A   1      41.870  22.556  26.565  1.00  0.00     0.055 A 
ATOM     55  C   UNL A   1      43.511  23.437  25.058  1.00  0.00     0.041 A 
ATOM     56  F   UNL A   1      44.681  25.370  25.581  1.00  0.00    -0.206 F 
ATOM     57  C   UNL A   1      42.537  22.494  25.340  1.00  0.00     0.022 A 
BRANCH  54  58
ATOM     58  S   UNL A   1      40.536  21.347  26.867  1.00  0.00     0.124 S 
ATOM     59  O   UNL A   1      40.644  20.467  25.709  1.00  0.00    -0.237 OA
ATOM     60  O   UNL A   1      40.910  20.776  28.156  1.00  0.00    -0.237 OA
ATOM     61  O   UNL A   1      39.327  22.172  26.897  1.00  0.00    -0.744 OA
ENDBRANCH  54  58
ENDBRANCH  27  51
BRANCH  39  62
ATOM     62  C   UNL A   1      46.234  29.644  29.434  1.00  0.00     0.023 A 
ATOM     63  C   UNL A   1      45.334  30.357  28.611  1.00  0.00     0.031 A 
ATOM     64  C   UNL A   1      47.604  29.937  29.304  1.00  0.00     0.131 A 
ATOM     65  C   UNL A   1      45.821  31.307  27.691  1.00  0.00     0.055 A 
ATOM     66  C   UNL A   1      48.080  30.895  28.411  1.00  0.00     0.041 A 
ATOM     67  F   UNL A   1      48.513  29.312  30.071  1.00  0.00    -0.206 F 
ATOM     68  C   UNL A   1      47.190  31.578  27.594  1.00  0.00     0.022 A 
BRANCH  65  69
ATOM     69  S   UNL A   1      44.685  32.197  26.579  1.00  0.00     0.124 S 
ATOM     70  O   UNL A   1      44.068  33.197  27.441  1.00  0.00    -0.237 OA
ATOM     71  O   UNL A   1      45.590  32.707  25.551  1.00  0.00    -0.237 OA
ATOM     72  O   UNL A   1      43.775  31.147  26.116  1.00  0.00    -0.744 OA
ENDBRANCH  65  69
ENDBRANCH  39  62
ENDBRANCH  13  14
ENDBRANCH   6   8
ENDBRANCH   3   4
ENDBRANCH   2   3
ENDBRANCH   1   2
BRANCH   1  73
ATOM     73  C   UNL A   1      35.147  30.070  27.770  1.00  0.00     0.002 C 
BRANCH  73  74
ATOM     74  C   UNL A   1      34.180  29.172  26.998  1.00  0.00     0.021 C 
BRANCH  74  75
ATOM     75  C   UNL A   1      33.130  29.919  26.165  1.00  0.00     0.116 C 
BRANCH  75  76
ATOM     76  N   UNL A   1      33.286  29.683  24.741  1.00  0.00    -0.354 N 
ATOM     77  C   UNL A   1      32.702  28.921  23.786  1.00  0.00     0.246 C 
ATOM     78  H   UNL A   1      34.017  30.228  24.367  1.00  0.00     0.163 HD
ATOM     79  O   UNL A   1      33.232  29.080  22.675  1.00  0.00    -0.272 OA
BRANCH  77  80
ATOM     80  C   UNL A   1      31.542  27.871  23.962  1.00  0.00     0.127 C 
ATOM     81  C   UNL A   1      31.266  27.390  25.406  1.00  0.00     0.061 C 
ATOM     82  C   UNL A   1      31.759  26.661  23.041  1.00  0.00     0.061 C 
ATOM     83  C   UNL A   1      31.970  26.133  25.911  1.00  0.00     0.122 C 
ATOM     84  C   UNL A   1      32.681  25.607  23.588  1.00  0.00     0.122 C 
ATOM     85  N   UNL A   1      32.305  25.124  24.902  1.00  0.00    -0.342 N 
ATOM     86  C   UNL A   1      32.607  23.853  25.390  1.00  0.00     0.227 C 
ATOM     87  O   UNL A   1      32.681  23.662  26.610  1.00  0.00    -0.274 OA
BRANCH  80  88
ATOM     88  N   UNL A   1      30.273  28.571  23.515  1.00  0.00    -0.322 N 
ATOM     89  C   UNL A   1      29.975  29.902  23.713  1.00  0.00     0.108 A 
ATOM     90  C   UNL A   1      29.202  28.039  22.840  1.00  0.00     0.200 A 
ATOM     91  C   UNL A   1      28.721  30.084  23.181  1.00  0.00     0.130 A 
ATOM     92  N   UNL A   1      28.239  28.916  22.663  1.00  0.00    -0.245 NA
ENDBRANCH  80  88
BRANCH  86  93
ATOM     93  C   UNL A   1      32.823  22.640  24.480  1.00  0.00     0.107 C 
ATOM     94  C   UNL A   1      32.122  21.357  24.894  1.00  0.00     0.115 C 
ATOM     95  C   UNL A   1      34.272  22.273  24.244  1.00  0.00     0.133 C 
ATOM     96  C   UNL A   1      33.238  20.413  25.256  1.00  0.00     0.223 C 
ATOM     97  N   UNL A   1      34.456  20.999  24.905  1.00  0.00    -0.339 N 
ATOM     98  O   UNL A   1      33.053  19.344  25.830  1.00  0.00    -0.275 OA
BRANCH  97  99
ATOM     99  C   UNL A   1      35.761  20.621  25.370  1.00  0.00     0.085 C 
ATOM    100  C   UNL A   1      36.643  19.611  24.687  1.00  0.00     0.027 C 
ATOM    101  C   UNL A   1      37.016  21.067  24.684  1.00  0.00     0.027 C 
ENDBRANCH  97  99
ENDBRANCH  86  93
ENDBRANCH  77  80
ENDBRANCH  75  76
ENDBRANCH  74  75
ENDBRANCH  73  74
ENDBRANCH   1  73
TORSDOF 19
ENDMDL
MODEL 3
REMARK VINA RESULT:     -11.8      1.720      2.248
REMARK SMILES O=C(NCCCCCCNC(=O)C1(n2ccnc2)CCN(C(=O)[C@@H]2CC(=O)N(C3CC3)C2)CC1)c1ccc(-c2c3nc(c(-c4cc(S(=O)(=O)[O-])ccc4F)c4ccc([nH]4)c(-c4cc(S(=O)(=O)[O-])ccc4F)c4nc(c(-c5cc(S(=O)(=O)[O-])ccc5F)c5ccc2[nH]5)C=C4)C=C3)cc1
REMARK SMILES IDX 6 1 5 2 4 3 3 4 1 5 2 6 35 8 36 9 97 10 37 11 96 12 38 13
REMARK SMILES IDX 39 14 40 15 90 16 41 17 95 18 89 19 91 20 42 21 94 22 88 23
REMARK SMILES IDX 87 24 43 26 75 27 55 28 74 29 56 30 59 31 73 32 92 33 57 34
REMARK SMILES IDX 58 35 72 37 93 38 60 39 44 40 45 41 53 42 46 43 52 44 54 45
REMARK SMILES IDX 51 46 47 47 48 48 49 49 50 50 76 51 77 52 85 53 78 54 84 55
REMARK SMILES IDX 86 56 83 57 79 58 80 59 81 60 82 61 61 62 62 63 70 64 63 65
REMARK SMILES IDX 69 66 71 67 68 68 64 69 65 70 66 71 67 72 7 73 8 74 9 75
REMARK SMILES IDX 10 76 11 77 12 79 13 80 19 81 34 82 20 83 33 84 21 85 22 86
REMARK SMILES IDX 23 87 14 88 15 89 18 90 16 91 17 92 24 93 25 94 32 95 26 96
REMARK SMILES IDX 28 97 27 98 29 99 30 100 31 101
REMARK H PARENT 3 7 91 25 59 36 10 78
REMARK Flexibility Score: inf
ROOT
ATOM      1  C   UNL A   1      38.326  21.551  25.668  1.00  0.00     0.002 C 
ENDROOT
BRANCH   1   2
ATOM      2  C   UNL A   1      39.406  22.113  26.603  1.00  0.00     0.021 C 
BRANCH   2   3
ATOM      3  C   UNL A   1      40.685  21.285  26.693  1.00  0.00     0.116 C 
BRANCH   3   4
ATOM      4  N   UNL A   1      41.777  21.778  25.879  1.00  0.00    -0.352 N 
ATOM      5  O   UNL A   1      43.405  22.955  24.977  1.00  0.00    -0.269 OA
ATOM      6  C   UNL A   1      42.489  22.944  25.806  1.00  0.00     0.251 C 
ATOM      7  H   UNL A   1      42.079  21.114  25.217  1.00  0.00     0.163 HD
BRANCH   6   8
ATOM      8  C   UNL A   1      42.227  24.181  26.598  1.00  0.00     0.039 A 
ATOM      9  C   UNL A   1      42.962  24.620  27.699  1.00  0.00     0.014 A 
ATOM     10  C   UNL A   1      41.157  24.985  26.151  1.00  0.00     0.014 A 
ATOM     11  C   UNL A   1      42.612  25.806  28.354  1.00  0.00     0.010 A 
ATOM     12  C   UNL A   1      40.810  26.174  26.796  1.00  0.00     0.010 A 
ATOM     13  C   UNL A   1      41.533  26.586  27.909  1.00  0.00    -0.014 A 
BRANCH  13  14
ATOM     14  C   UNL A   1      41.360  27.929  28.482  1.00  0.00     0.031 A 
ATOM     15  C   UNL A   1      42.287  28.948  27.915  1.00  0.00     0.074 A 
ATOM     16  C   UNL A   1      40.391  28.336  29.331  1.00  0.00     0.049 A 
ATOM     17  N   UNL A   1      43.263  29.548  28.510  1.00  0.00    -0.248 NA
ATOM     18  C   UNL A   1      42.197  29.242  26.476  1.00  0.00     0.031 C 
ATOM     19  C   UNL A   1      39.218  27.589  29.783  1.00  0.00     0.029 A 
ATOM     20  N   UNL A   1      40.216  29.566  29.912  1.00  0.00    -0.354 N 
ATOM     21  C   UNL A   1      43.774  30.464  27.594  1.00  0.00     0.074 A 
ATOM     22  C   UNL A   1      43.201  30.106  26.323  1.00  0.00     0.031 C 
ATOM     23  C   UNL A   1      38.359  28.435  30.400  1.00  0.00     0.029 A 
ATOM     24  C   UNL A   1      38.968  29.753  30.505  1.00  0.00     0.049 A 
ATOM     25  H   UNL A   1      40.915  30.259  29.911  1.00  0.00     0.167 HD
ATOM     26  C   UNL A   1      44.463  31.567  28.004  1.00  0.00     0.034 A 
ATOM     27  C   UNL A   1      38.452  30.908  31.014  1.00  0.00     0.034 A 
ATOM     28  C   UNL A   1      44.915  31.417  29.371  1.00  0.00     0.049 A 
ATOM     29  C   UNL A   1      39.590  31.795  31.349  1.00  0.00     0.074 A 
ATOM     30  C   UNL A   1      45.680  30.479  30.041  1.00  0.00     0.029 A 
ATOM     31  N   UNL A   1      44.279  32.135  30.360  1.00  0.00    -0.354 N 
ATOM     32  N   UNL A   1      40.437  31.546  32.308  1.00  0.00    -0.248 NA
ATOM     33  C   UNL A   1      40.050  32.740  30.345  1.00  0.00     0.031 C 
ATOM     34  C   UNL A   1      45.057  30.341  31.316  1.00  0.00     0.029 A 
ATOM     35  C   UNL A   1      44.008  31.259  31.381  1.00  0.00     0.049 A 
ATOM     36  H   UNL A   1      44.061  33.095  30.339  1.00  0.00     0.167 HD
ATOM     37  C   UNL A   1      41.668  31.936  31.805  1.00  0.00     0.074 A 
ATOM     38  C   UNL A   1      41.353  32.759  30.639  1.00  0.00     0.031 C 
ATOM     39  C   UNL A   1      42.822  31.331  32.212  1.00  0.00     0.034 A 
BRANCH  26  40
ATOM     40  C   UNL A   1      44.418  32.924  27.323  1.00  0.00     0.023 A 
ATOM     41  C   UNL A   1      43.788  33.970  28.026  1.00  0.00     0.031 A 
ATOM     42  C   UNL A   1      44.660  33.174  25.953  1.00  0.00     0.131 A 
ATOM     43  C   UNL A   1      43.293  35.102  27.357  1.00  0.00     0.055 A 
ATOM     44  C   UNL A   1      44.234  34.339  25.307  1.00  0.00     0.041 A 
ATOM     45  F   UNL A   1      45.238  32.283  25.142  1.00  0.00    -0.206 F 
ATOM     46  C   UNL A   1      43.508  35.293  25.997  1.00  0.00     0.022 A 
BRANCH  43  47
ATOM     47  S   UNL A   1      42.178  36.205  28.263  1.00  0.00     0.124 S 
ATOM     48  O   UNL A   1      42.549  35.915  29.644  1.00  0.00    -0.237 OA
ATOM     49  O   UNL A   1      42.571  37.514  27.751  1.00  0.00    -0.237 OA
ATOM     50  O   UNL A   1      40.851  35.748  27.860  1.00  0.00    -0.744 OA
ENDBRANCH  43  47
ENDBRANCH  26  40
BRANCH  27  51
ATOM     51  C   UNL A   1      37.039  31.388  30.990  1.00  0.00     0.023 A 
ATOM     52  C   UNL A   1      36.410  32.007  32.097  1.00  0.00     0.031 A 
ATOM     53  C   UNL A   1      36.362  31.477  29.753  1.00  0.00     0.131 A 
ATOM     54  C   UNL A   1      35.170  32.673  31.936  1.00  0.00     0.055 A 
ATOM     55  C   UNL A   1      35.138  32.133  29.602  1.00  0.00     0.041 A 
ATOM     56  F   UNL A   1      36.914  31.007  28.624  1.00  0.00    -0.206 F 
ATOM     57  C   UNL A   1      34.541  32.744  30.692  1.00  0.00     0.022 A 
BRANCH  54  58
ATOM     58  S   UNL A   1      34.393  33.560  33.331  1.00  0.00     0.124 S 
ATOM     59  O   UNL A   1      33.037  33.024  33.326  1.00  0.00    -0.237 OA
ATOM     60  O   UNL A   1      35.239  33.182  34.458  1.00  0.00    -0.237 OA
ATOM     61  O   UNL A   1      34.496  34.967  32.941  1.00  0.00    -0.744 OA
ENDBRANCH  54  58
ENDBRANCH  27  51
BRANCH  39  62
ATOM     62  C   UNL A   1      42.814  30.504  33.481  1.00  0.00     0.023 A 
ATOM     63  C   UNL A   1      43.184  30.969  34.763  1.00  0.00     0.031 A 
ATOM     64  C   UNL A   1      42.309  29.194  33.388  1.00  0.00     0.131 A 
ATOM     65  C   UNL A   1      43.059  30.125  35.884  1.00  0.00     0.055 A 
ATOM     66  C   UNL A   1      42.163  28.369  34.501  1.00  0.00     0.041 A 
ATOM     67  F   UNL A   1      41.918  28.696  32.203  1.00  0.00    -0.206 F 
ATOM     68  C   UNL A   1      42.547  28.829  35.754  1.00  0.00     0.022 A 
BRANCH  65  69
ATOM     69  S   UNL A   1      43.585  30.682  37.536  1.00  0.00     0.124 S 
ATOM     70  O   UNL A   1      42.352  31.158  38.150  1.00  0.00    -0.237 OA
ATOM     71  O   UNL A   1      44.158  29.466  38.109  1.00  0.00    -0.237 OA
ATOM     72  O   UNL A   1      44.564  31.731  37.243  1.00  0.00    -0.744 OA
ENDBRANCH  65  69
ENDBRANCH  39  62
ENDBRANCH  13  14
ENDBRANCH   6   8
ENDBRANCH   3   4
ENDBRANCH   2   3
ENDBRANCH   1   2
BRANCH   1  73
ATOM     73  C   UNL A   1      37.384  22.573  25.017  1.00  0.00     0.002 C 
BRANCH  73  74
ATOM     74  C   UNL A   1      36.433  22.012  23.957  1.00  0.00     0.021 C 
BRANCH  74  75
ATOM     75  C   UNL A   1      35.634  23.069  23.184  1.00  0.00     0.116 C 
BRANCH  75  76
ATOM     76  N   UNL A   1      34.310  22.599  22.817  1.00  0.00    -0.354 N 
ATOM     77  C   UNL A   1      33.037  22.767  23.248  1.00  0.00     0.246 C 
ATOM     78  H   UNL A   1      34.348  21.992  22.043  1.00  0.00     0.163 HD
ATOM     79  O   UNL A   1      32.227  22.110  22.575  1.00  0.00    -0.272 OA
BRANCH  77  80
ATOM     80  C   UNL A   1      32.537  23.605  24.484  1.00  0.00     0.127 C 
ATOM     81  C   UNL A   1      31.005  23.689  24.680  1.00  0.00     0.061 C 
ATOM     82  C   UNL A   1      33.139  25.017  24.464  1.00  0.00     0.061 C 
ATOM     83  C   UNL A   1      30.246  24.859  24.059  1.00  0.00     0.122 C 
ATOM     84  C   UNL A   1      32.403  26.007  23.603  1.00  0.00     0.122 C 
ATOM     85  N   UNL A   1      30.990  26.112  23.910  1.00  0.00    -0.342 N 
ATOM     86  C   UNL A   1      30.221  27.255  23.690  1.00  0.00     0.227 C 
ATOM     87  O   UNL A   1      28.998  27.153  23.531  1.00  0.00    -0.274 OA
BRANCH  80  88
ATOM     88  N   UNL A   1      33.068  22.893  25.714  1.00  0.00    -0.322 N 
ATOM     89  C   UNL A   1      33.956  23.417  26.627  1.00  0.00     0.108 A 
ATOM     90  C   UNL A   1      32.777  21.625  26.153  1.00  0.00     0.200 A 
ATOM     91  C   UNL A   1      34.180  22.417  27.543  1.00  0.00     0.130 A 
ATOM     92  N   UNL A   1      33.463  21.300  27.226  1.00  0.00    -0.245 NA
ENDBRANCH  80  88
BRANCH  86  93
ATOM     93  C   UNL A   1      30.812  28.667  23.669  1.00  0.00     0.107 C 
ATOM     94  C   UNL A   1      31.899  28.925  22.639  1.00  0.00     0.115 C 
ATOM     95  C   UNL A   1      31.363  29.146  24.994  1.00  0.00     0.133 C 
ATOM     96  C   UNL A   1      33.144  29.164  23.452  1.00  0.00     0.223 C 
ATOM     97  N   UNL A   1      32.793  29.240  24.801  1.00  0.00    -0.339 N 
ATOM     98  O   UNL A   1      34.268  29.206  22.961  1.00  0.00    -0.275 OA
BRANCH  97  99
ATOM     99  C   UNL A   1      33.673  29.114  25.929  1.00  0.00     0.085 C 
ATOM    100  C   UNL A   1      33.652  30.027  27.126  1.00  0.00     0.027 C 
ATOM    101  C   UNL A   1      33.206  28.598  27.256  1.00  0.00     0.027 C 
ENDBRANCH  97  99
ENDBRANCH  86  93
ENDBRANCH  77  80
ENDBRANCH  75  76
ENDBRANCH  74  75
ENDBRANCH  73  74
ENDBRANCH   1  73
TORSDOF 19
ENDMDL
