MODEL 1
REMARK VINA RESULT:     -12.3      0.000      0.000
REMARK SMILES COc1cccc(Cn2c(=O)c(=O)n(CC(=O)NCCCCCCNC(=O)c3ccc(-c4c5nc(c(-c6cc(S(=O)(=O)[O-])ccc6F)c6ccc([nH]6)c(-c6cc(S(=O)(=O)[O-])ccc6F)c6nc(c(-c7cc(S(=O)(=O)[O-])ccc7F)c7ccc4[nH]7)C=C6)C=C5)cc3)c3ccccc32)c1
REMARK SMILES IDX 21 1 20 2 19 3 18 4 16 5 17 6 15 8 14 9 9 10 10 11 96 12
REMARK SMILES IDX 11 13 12 14 91 15 95 16 13 17 92 18 94 19 93 20 8 21 7 22
REMARK SMILES IDX 3 23 4 24 97 25 5 26 6 27 2 28 1 29 22 30 23 31 24 32 25 33
REMARK SMILES IDX 26 34 27 36 28 37 29 38 90 39 30 40 89 41 31 42 32 43 33 44
REMARK SMILES IDX 83 45 34 46 88 47 82 48 84 49 35 50 87 51 81 52 80 53 36 55
REMARK SMILES IDX 68 56 48 57 67 58 49 59 52 60 66 61 85 62 50 63 51 64 65 66
REMARK SMILES IDX 86 67 53 68 37 69 38 70 46 71 39 72 45 73 47 74 44 75 40 76
REMARK SMILES IDX 41 77 42 78 43 79 69 80 70 81 78 82 71 83 77 84 79 85 76 86
REMARK SMILES IDX 72 87 73 88 74 89 75 90 54 91 55 92 63 93 56 94 62 95 64 96
REMARK SMILES IDX 61 97 57 98 58 99 59 100 60 101
REMARK H PARENT 18 7 25 35 84 54 52 65
REMARK Flexibility Score: inf
ROOT
ATOM      1  C   UNL A   1      31.951  29.430  25.182  1.00  0.00     0.002 C 
ENDROOT
BRANCH   1   2
ATOM      2  C   UNL A   1      30.849  29.467  24.113  1.00  0.00     0.021 C 
BRANCH   2   3
ATOM      3  C   UNL A   1      30.741  28.161  23.327  1.00  0.00     0.116 C 
BRANCH   3   4
ATOM      4  N   UNL A   1      31.890  27.993  22.462  1.00  0.00    -0.355 N 
ATOM      5  C   UNL A   1      32.510  26.872  22.018  1.00  0.00     0.240 C 
ATOM      6  O   UNL A   1      33.503  27.045  21.297  1.00  0.00    -0.273 OA
ATOM      7  H   UNL A   1      32.288  28.835  22.142  1.00  0.00     0.163 HD
BRANCH   5   8
ATOM      8  C   UNL A   1      31.932  25.457  22.149  1.00  0.00     0.226 C 
BRANCH   8   9
ATOM      9  N   UNL A   1      32.482  24.364  22.937  1.00  0.00    -0.293 N 
ATOM     10  N   UNL A   1      33.977  22.452  24.368  1.00  0.00    -0.298 N 
ATOM     11  C   UNL A   1      34.510  23.028  23.227  1.00  0.00     0.317 A 
ATOM     12  C   UNL A   1      33.063  23.269  25.080  1.00  0.00     0.068 A 
ATOM     13  O   UNL A   1      35.698  23.122  22.954  1.00  0.00    -0.263 OA
ATOM     14  C   UNL A   1      33.451  23.597  22.295  1.00  0.00     0.317 A 
ATOM     15  C   UNL A   1      32.341  24.272  24.364  1.00  0.00     0.069 A 
ATOM     16  C   UNL A   1      33.004  23.222  26.480  1.00  0.00     0.028 A 
ATOM     17  O   UNL A   1      33.557  23.445  21.086  1.00  0.00    -0.263 OA
ATOM     18  C   UNL A   1      31.535  25.161  25.082  1.00  0.00     0.028 A 
ATOM     19  C   UNL A   1      32.256  24.172  27.175  1.00  0.00     0.002 A 
ATOM     20  C   UNL A   1      31.514  25.126  26.480  1.00  0.00     0.002 A 
BRANCH  10  21
ATOM     21  C   UNL A   1      34.520  21.170  24.818  1.00  0.00     0.162 C 
BRANCH  21  22
ATOM     22  C   UNL A   1      33.484  20.087  24.514  1.00  0.00    -0.024 A 
ATOM     23  C   UNL A   1      32.963  17.726  24.839  1.00  0.00     0.119 A 
ATOM     24  C   UNL A   1      32.282  17.705  23.628  1.00  0.00     0.046 A 
ATOM     25  C   UNL A   1      33.476  18.931  25.310  1.00  0.00     0.052 A 
ATOM     26  C   UNL A   1      32.129  18.892  22.901  1.00  0.00     0.004 A 
ATOM     27  C   UNL A   1      32.753  20.074  23.323  1.00  0.00     0.006 A 
BRANCH  23  28
ATOM     28  O   UNL A   1      33.355  16.647  25.573  1.00  0.00    -0.497 OA
ATOM     29  C   UNL A   1      34.552  15.981  25.219  1.00  0.00     0.278 C 
ENDBRANCH  23  28
ENDBRANCH  21  22
ENDBRANCH  10  21
ENDBRANCH   8   9
ENDBRANCH   5   8
ENDBRANCH   3   4
ENDBRANCH   2   3
ENDBRANCH   1   2
BRANCH   1  30
ATOM     30  C   UNL A   1      31.535  30.018  26.537  1.00  0.00     0.002 C 
BRANCH  30  31
ATOM     31  C   UNL A   1      31.501  31.549  26.594  1.00  0.00     0.021 C 
BRANCH  31  32
ATOM     32  C   UNL A   1      32.830  32.200  26.976  1.00  0.00     0.116 C 
BRANCH  32  33
ATOM     33  N   UNL A   1      32.645  33.585  27.379  1.00  0.00    -0.352 N 
ATOM     34  C   UNL A   1      33.176  34.257  28.451  1.00  0.00     0.251 C 
ATOM     35  H   UNL A   1      32.054  34.117  26.798  1.00  0.00     0.163 HD
ATOM     36  O   UNL A   1      32.667  35.313  28.820  1.00  0.00    -0.269 OA
BRANCH  34  37
ATOM     37  C   UNL A   1      34.358  33.715  29.151  1.00  0.00     0.039 A 
ATOM     38  C   UNL A   1      35.633  34.154  28.783  1.00  0.00     0.014 A 
ATOM     39  C   UNL A   1      34.210  32.731  30.133  1.00  0.00     0.014 A 
ATOM     40  C   UNL A   1      36.759  33.636  29.430  1.00  0.00     0.010 A 
ATOM     41  C   UNL A   1      35.327  32.254  30.813  1.00  0.00     0.010 A 
ATOM     42  C   UNL A   1      36.612  32.696  30.461  1.00  0.00    -0.014 A 
BRANCH  42  43
ATOM     43  C   UNL A   1      37.789  32.132  31.168  1.00  0.00     0.031 A 
ATOM     44  C   UNL A   1      38.564  31.003  30.548  1.00  0.00     0.074 A 
ATOM     45  C   UNL A   1      38.107  32.585  32.397  1.00  0.00     0.049 A 
ATOM     46  N   UNL A   1      39.542  30.295  31.049  1.00  0.00    -0.248 NA
ATOM     47  C   UNL A   1      38.158  30.596  29.194  1.00  0.00     0.031 C 
ATOM     48  C   UNL A   1      37.402  33.649  33.113  1.00  0.00     0.029 A 
ATOM     49  N   UNL A   1      39.091  32.193  33.267  1.00  0.00    -0.354 N 
ATOM     50  C   UNL A   1      39.857  29.345  30.082  1.00  0.00     0.074 A 
ATOM     51  C   UNL A   1      38.930  29.541  28.986  1.00  0.00     0.031 C 
ATOM     52  C   UNL A   1      37.980  33.827  34.313  1.00  0.00     0.029 A 
ATOM     53  C   UNL A   1      39.070  32.869  34.465  1.00  0.00     0.049 A 
ATOM     54  H   UNL A   1      39.751  31.494  33.055  1.00  0.00     0.167 HD
ATOM     55  C   UNL A   1      40.837  28.409  30.102  1.00  0.00     0.034 A 
ATOM     56  C   UNL A   1      39.833  32.720  35.565  1.00  0.00     0.034 A 
ATOM     57  C   UNL A   1      41.764  28.242  31.195  1.00  0.00     0.049 A 
ATOM     58  C   UNL A   1      40.925  31.683  35.560  1.00  0.00     0.074 A 
ATOM     59  C   UNL A   1      42.830  27.365  31.298  1.00  0.00     0.029 A 
ATOM     60  N   UNL A   1      41.735  28.970  32.378  1.00  0.00    -0.354 N 
ATOM     61  N   UNL A   1      41.233  30.816  34.623  1.00  0.00    -0.248 NA
ATOM     62  C   UNL A   1      41.778  31.614  36.753  1.00  0.00     0.031 C 
ATOM     63  C   UNL A   1      43.412  27.527  32.561  1.00  0.00     0.029 A 
ATOM     64  C   UNL A   1      42.749  28.548  33.223  1.00  0.00     0.049 A 
ATOM     65  H   UNL A   1      41.087  29.682  32.585  1.00  0.00     0.167 HD
ATOM     66  C   UNL A   1      42.333  30.113  35.107  1.00  0.00     0.074 A 
ATOM     67  C   UNL A   1      42.639  30.666  36.411  1.00  0.00     0.031 C 
ATOM     68  C   UNL A   1      43.029  29.103  34.526  1.00  0.00     0.034 A 
BRANCH  55  69
ATOM     69  C   UNL A   1      40.932  27.479  28.916  1.00  0.00     0.023 A 
ATOM     70  C   UNL A   1      41.917  27.642  27.926  1.00  0.00     0.031 A 
ATOM     71  C   UNL A   1      40.006  26.433  28.756  1.00  0.00     0.131 A 
ATOM     72  C   UNL A   1      41.906  26.826  26.786  1.00  0.00     0.055 A 
ATOM     73  C   UNL A   1      40.048  25.573  27.657  1.00  0.00     0.041 A 
ATOM     74  F   UNL A   1      39.031  26.239  29.658  1.00  0.00    -0.206 F 
ATOM     75  C   UNL A   1      40.994  25.775  26.656  1.00  0.00     0.022 A 
BRANCH  72  76
ATOM     76  S   UNL A   1      43.018  27.238  25.414  1.00  0.00     0.124 S 
ATOM     77  O   UNL A   1      44.217  27.669  26.128  1.00  0.00    -0.237 OA
ATOM     78  O   UNL A   1      43.119  25.972  24.698  1.00  0.00    -0.237 OA
ATOM     79  O   UNL A   1      42.308  28.301  24.705  1.00  0.00    -0.744 OA
ENDBRANCH  72  76
ENDBRANCH  55  69
BRANCH  56  80
ATOM     80  C   UNL A   1      39.585  33.564  36.767  1.00  0.00     0.023 A 
ATOM     81  C   UNL A   1      38.955  33.035  37.904  1.00  0.00     0.031 A 
ATOM     82  C   UNL A   1      39.956  34.920  36.785  1.00  0.00     0.131 A 
ATOM     83  C   UNL A   1      38.682  33.867  39.000  1.00  0.00     0.055 A 
ATOM     84  C   UNL A   1      39.720  35.732  37.894  1.00  0.00     0.041 A 
ATOM     85  F   UNL A   1      40.572  35.468  35.725  1.00  0.00    -0.206 F 
ATOM     86  C   UNL A   1      39.069  35.208  39.007  1.00  0.00     0.022 A 
BRANCH  83  87
ATOM     87  S   UNL A   1      37.756  33.179  40.400  1.00  0.00     0.124 S 
ATOM     88  O   UNL A   1      38.549  32.001  40.731  1.00  0.00    -0.237 OA
ATOM     89  O   UNL A   1      37.802  34.276  41.361  1.00  0.00    -0.237 OA
ATOM     90  O   UNL A   1      36.437  32.905  39.833  1.00  0.00    -0.744 OA
ENDBRANCH  83  87
ENDBRANCH  56  80
BRANCH  68  91
ATOM     91  C   UNL A   1      44.212  28.567  35.288  1.00  0.00     0.023 A 
ATOM     92  C   UNL A   1      44.070  27.549  36.247  1.00  0.00     0.031 A 
ATOM     93  C   UNL A   1      45.496  29.089  35.058  1.00  0.00     0.131 A 
ATOM     94  C   UNL A   1      45.188  27.118  36.977  1.00  0.00     0.055 A 
ATOM     95  C   UNL A   1      46.613  28.622  35.751  1.00  0.00     0.041 A 
ATOM     96  F   UNL A   1      45.684  30.063  34.153  1.00  0.00    -0.206 F 
ATOM     97  C   UNL A   1      46.460  27.639  36.725  1.00  0.00     0.022 A 
BRANCH  94  98
ATOM     98  S   UNL A   1      44.945  25.919  38.316  1.00  0.00     0.124 S 
ATOM     99  O   UNL A   1      44.388  26.754  39.374  1.00  0.00    -0.237 OA
ATOM    100  O   UNL A   1      44.027  24.959  37.711  1.00  0.00    -0.237 OA
ATOM    101  O   UNL A   1      46.292  25.412  38.570  1.00  0.00    -0.744 OA
ENDBRANCH  94  98
ENDBRANCH  68  91
ENDBRANCH  42  43
ENDBRANCH  34  37
ENDBRANCH  32  33
ENDBRANCH  31  32
ENDBRANCH  30  31
ENDBRANCH   1  30
TORSDOF 20
ENDMDL
MODEL 2
REMARK VINA RESULT:     -11.8      1.880      2.217
REMARK SMILES COc1cccc(Cn2c(=O)c(=O)n(CC(=O)NCCCCCCNC(=O)c3ccc(-c4c5nc(c(-c6cc(S(=O)(=O)[O-])ccc6F)c6ccc([nH]6)c(-c6cc(S(=O)(=O)[O-])ccc6F)c6nc(c(-c7cc(S(=O)(=O)[O-])ccc7F)c7ccc4[nH]7)C=C6)C=C5)cc3)c3ccccc32)c1
REMARK SMILES IDX 21 1 20 2 19 3 18 4 16 5 17 6 15 8 14 9 9 10 10 11 96 12
REMARK SMILES IDX 11 13 12 14 91 15 95 16 13 17 92 18 94 19 93 20 8 21 7 22
REMARK SMILES IDX 3 23 4 24 97 25 5 26 6 27 2 28 1 29 22 30 23 31 24 32 25 33
REMARK SMILES IDX 26 34 27 36 28 37 29 38 90 39 30 40 89 41 31 42 32 43 33 44
REMARK SMILES IDX 83 45 34 46 88 47 82 48 84 49 35 50 87 51 81 52 80 53 36 55
REMARK SMILES IDX 68 56 48 57 67 58 49 59 52 60 66 61 85 62 50 63 51 64 65 66
REMARK SMILES IDX 86 67 53 68 37 69 38 70 46 71 39 72 45 73 47 74 44 75 40 76
REMARK SMILES IDX 41 77 42 78 43 79 69 80 70 81 78 82 71 83 77 84 79 85 76 86
REMARK SMILES IDX 72 87 73 88 74 89 75 90 54 91 55 92 63 93 56 94 62 95 64 96
REMARK SMILES IDX 61 97 57 98 58 99 59 100 60 101
REMARK H PARENT 18 7 25 35 84 54 52 65
REMARK Flexibility Score: inf
ROOT
ATOM      1  C   UNL A   1      31.744  29.763  25.174  1.00  0.00     0.002 C 
ENDROOT
BRANCH   1   2
ATOM      2  C   UNL A   1      31.733  28.237  24.999  1.00  0.00     0.021 C 
BRANCH   2   3
ATOM      3  C   UNL A   1      33.137  27.637  24.928  1.00  0.00     0.116 C 
BRANCH   3   4
ATOM      4  N   UNL A   1      33.592  27.570  23.555  1.00  0.00    -0.355 N 
ATOM      5  C   UNL A   1      33.411  26.619  22.605  1.00  0.00     0.240 C 
ATOM      6  O   UNL A   1      33.951  26.831  21.511  1.00  0.00    -0.273 OA
ATOM      7  H   UNL A   1      34.122  28.346  23.262  1.00  0.00     0.163 HD
BRANCH   5   8
ATOM      8  C   UNL A   1      32.412  25.461  22.725  1.00  0.00     0.226 C 
BRANCH   8   9
ATOM      9  N   UNL A   1      32.595  24.232  23.481  1.00  0.00    -0.293 N 
ATOM     10  N   UNL A   1      33.357  22.059  25.105  1.00  0.00    -0.298 N 
ATOM     11  C   UNL A   1      34.328  22.821  24.478  1.00  0.00     0.317 A 
ATOM     12  C   UNL A   1      32.161  22.752  25.419  1.00  0.00     0.068 A 
ATOM     13  O   UNL A   1      35.493  22.938  24.830  1.00  0.00    -0.263 OA
ATOM     14  C   UNL A   1      33.804  23.574  23.264  1.00  0.00     0.317 A 
ATOM     15  C   UNL A   1      31.799  23.883  24.626  1.00  0.00     0.069 A 
ATOM     16  C   UNL A   1      31.446  22.452  26.586  1.00  0.00     0.028 A 
ATOM     17  O   UNL A   1      34.482  23.642  22.249  1.00  0.00    -0.263 OA
ATOM     18  C   UNL A   1      30.689  24.644  25.007  1.00  0.00     0.028 A 
ATOM     19  C   UNL A   1      30.394  23.275  26.987  1.00  0.00     0.002 A 
ATOM     20  C   UNL A   1      30.008  24.355  26.194  1.00  0.00     0.002 A 
BRANCH  10  21
ATOM     21  C   UNL A   1      33.708  20.705  25.536  1.00  0.00     0.162 C 
BRANCH  21  22
ATOM     22  C   UNL A   1      33.003  19.718  24.605  1.00  0.00    -0.024 A 
ATOM     23  C   UNL A   1      32.985  17.394  23.862  1.00  0.00     0.119 A 
ATOM     24  C   UNL A   1      32.522  17.791  22.614  1.00  0.00     0.046 A 
ATOM     25  C   UNL A   1      33.134  18.345  24.867  1.00  0.00     0.052 A 
ATOM     26  C   UNL A   1      32.218  19.140  22.388  1.00  0.00     0.004 A 
ATOM     27  C   UNL A   1      32.486  20.107  23.367  1.00  0.00     0.006 A 
BRANCH  23  28
ATOM     28  O   UNL A   1      33.494  16.174  24.192  1.00  0.00    -0.497 OA
ATOM     29  C   UNL A   1      34.508  16.101  25.176  1.00  0.00     0.278 C 
ENDBRANCH  23  28
ENDBRANCH  21  22
ENDBRANCH  10  21
ENDBRANCH   8   9
ENDBRANCH   5   8
ENDBRANCH   3   4
ENDBRANCH   2   3
ENDBRANCH   1   2
BRANCH   1  30
ATOM     30  C   UNL A   1      31.706  30.230  26.635  1.00  0.00     0.002 C 
BRANCH  30  31
ATOM     31  C   UNL A   1      31.640  31.750  26.827  1.00  0.00     0.021 C 
BRANCH  31  32
ATOM     32  C   UNL A   1      32.982  32.407  27.151  1.00  0.00     0.116 C 
BRANCH  32  33
ATOM     33  N   UNL A   1      32.804  33.774  27.610  1.00  0.00    -0.352 N 
ATOM     34  C   UNL A   1      33.332  34.397  28.713  1.00  0.00     0.251 C 
ATOM     35  H   UNL A   1      32.221  34.335  27.047  1.00  0.00     0.163 HD
ATOM     36  O   UNL A   1      32.828  35.440  29.122  1.00  0.00    -0.269 OA
BRANCH  34  37
ATOM     37  C   UNL A   1      34.505  33.817  29.398  1.00  0.00     0.039 A 
ATOM     38  C   UNL A   1      34.308  32.883  30.420  1.00  0.00     0.014 A 
ATOM     39  C   UNL A   1      35.796  34.237  29.070  1.00  0.00     0.014 A 
ATOM     40  C   UNL A   1      35.411  32.339  31.084  1.00  0.00     0.010 A 
ATOM     41  C   UNL A   1      36.897  33.656  29.695  1.00  0.00     0.010 A 
ATOM     42  C   UNL A   1      36.713  32.709  30.715  1.00  0.00    -0.014 A 
BRANCH  42  43
ATOM     43  C   UNL A   1      37.902  32.144  31.399  1.00  0.00     0.031 A 
ATOM     44  C   UNL A   1      38.694  31.049  30.738  1.00  0.00     0.074 A 
ATOM     45  C   UNL A   1      38.218  32.561  32.641  1.00  0.00     0.049 A 
ATOM     46  N   UNL A   1      39.687  30.342  31.212  1.00  0.00    -0.248 NA
ATOM     47  C   UNL A   1      38.290  30.681  29.373  1.00  0.00     0.031 C 
ATOM     48  C   UNL A   1      37.497  33.588  33.394  1.00  0.00     0.029 A 
ATOM     49  N   UNL A   1      39.212  32.158  33.494  1.00  0.00    -0.354 N 
ATOM     50  C   UNL A   1      40.014  29.431  30.213  1.00  0.00     0.074 A 
ATOM     51  C   UNL A   1      39.079  29.646  29.128  1.00  0.00     0.031 C 
ATOM     52  C   UNL A   1      38.077  33.737  34.597  1.00  0.00     0.029 A 
ATOM     53  C   UNL A   1      39.184  32.793  34.713  1.00  0.00     0.049 A 
ATOM     54  H   UNL A   1      39.884  31.478  33.256  1.00  0.00     0.167 HD
ATOM     55  C   UNL A   1      41.011  28.512  30.198  1.00  0.00     0.034 A 
ATOM     56  C   UNL A   1      39.954  32.622  35.805  1.00  0.00     0.034 A 
ATOM     57  C   UNL A   1      41.945  28.326  31.282  1.00  0.00     0.049 A 
ATOM     58  C   UNL A   1      41.064  31.605  35.761  1.00  0.00     0.074 A 
ATOM     59  C   UNL A   1      43.027  27.465  31.352  1.00  0.00     0.029 A 
ATOM     60  N   UNL A   1      41.908  29.013  32.488  1.00  0.00    -0.354 N 
ATOM     61  N   UNL A   1      41.384  30.775  34.796  1.00  0.00    -0.248 NA
ATOM     62  C   UNL A   1      41.924  31.512  36.949  1.00  0.00     0.031 C 
ATOM     63  C   UNL A   1      43.611  27.595  32.617  1.00  0.00     0.029 A 
ATOM     64  C   UNL A   1      42.933  28.582  33.316  1.00  0.00     0.049 A 
ATOM     65  H   UNL A   1      41.249  29.707  32.722  1.00  0.00     0.167 HD
ATOM     66  C   UNL A   1      42.497  30.076  35.252  1.00  0.00     0.074 A 
ATOM     67  C   UNL A   1      42.800  30.591  36.572  1.00  0.00     0.031 C 
ATOM     68  C   UNL A   1      43.209  29.098  34.634  1.00  0.00     0.034 A 
BRANCH  55  69
ATOM     69  C   UNL A   1      41.116  27.624  28.982  1.00  0.00     0.023 A 
ATOM     70  C   UNL A   1      42.105  27.826  28.003  1.00  0.00     0.031 A 
ATOM     71  C   UNL A   1      40.198  26.578  28.782  1.00  0.00     0.131 A 
ATOM     72  C   UNL A   1      42.105  27.049  26.836  1.00  0.00     0.055 A 
ATOM     73  C   UNL A   1      40.251  25.757  27.655  1.00  0.00     0.041 A 
ATOM     74  F   UNL A   1      39.219  26.348  29.672  1.00  0.00    -0.206 F 
ATOM     75  C   UNL A   1      41.199  25.998  26.665  1.00  0.00     0.022 A 
BRANCH  72  76
ATOM     76  S   UNL A   1      43.220  27.515  25.484  1.00  0.00     0.124 S 
ATOM     77  O   UNL A   1      43.704  26.210  25.041  1.00  0.00    -0.237 OA
ATOM     78  O   UNL A   1      42.328  28.212  24.565  1.00  0.00    -0.237 OA
ATOM     79  O   UNL A   1      44.221  28.353  26.139  1.00  0.00    -0.744 OA
ENDBRANCH  72  76
ENDBRANCH  55  69
BRANCH  56  80
ATOM     80  C   UNL A   1      39.697  33.421  37.035  1.00  0.00     0.023 A 
ATOM     81  C   UNL A   1      40.427  34.588  37.305  1.00  0.00     0.031 A 
ATOM     82  C   UNL A   1      38.729  33.013  37.970  1.00  0.00     0.131 A 
ATOM     83  C   UNL A   1      40.204  35.290  38.499  1.00  0.00     0.055 A 
ATOM     84  C   UNL A   1      38.481  33.738  39.136  1.00  0.00     0.041 A 
ATOM     85  F   UNL A   1      37.997  31.909  37.749  1.00  0.00    -0.206 F 
ATOM     86  C   UNL A   1      39.229  34.878  39.411  1.00  0.00     0.022 A 
BRANCH  83  87
ATOM     87  S   UNL A   1      41.252  36.722  38.872  1.00  0.00     0.124 S 
ATOM     88  O   UNL A   1      41.939  36.926  37.602  1.00  0.00    -0.237 OA
ATOM     89  O   UNL A   1      40.265  37.732  39.238  1.00  0.00    -0.237 OA
ATOM     90  O   UNL A   1      42.095  36.250  39.970  1.00  0.00    -0.744 OA
ENDBRANCH  83  87
ENDBRANCH  56  80
BRANCH  68  91
ATOM     91  C   UNL A   1      44.405  28.558  35.375  1.00  0.00     0.023 A 
ATOM     92  C   UNL A   1      45.687  29.109  35.203  1.00  0.00     0.031 A 
ATOM     93  C   UNL A   1      44.259  27.472  36.253  1.00  0.00     0.131 A 
ATOM     94  C   UNL A   1      46.784  28.540  35.867  1.00  0.00     0.055 A 
ATOM     95  C   UNL A   1      45.346  26.941  36.949  1.00  0.00     0.041 A 
ATOM     96  F   UNL A   1      43.056  26.910  36.450  1.00  0.00    -0.206 F 
ATOM     97  C   UNL A   1      46.619  27.467  36.749  1.00  0.00     0.022 A 
BRANCH  94  98
ATOM     98  S   UNL A   1      48.445  29.171  35.504  1.00  0.00     0.124 S 
ATOM     99  O   UNL A   1      49.239  27.948  35.498  1.00  0.00    -0.237 OA
ATOM    100  O   UNL A   1      48.258  29.816  34.209  1.00  0.00    -0.237 OA
ATOM    101  O   UNL A   1      48.716  30.081  36.616  1.00  0.00    -0.744 OA
ENDBRANCH  94  98
ENDBRANCH  68  91
ENDBRANCH  42  43
ENDBRANCH  34  37
ENDBRANCH  32  33
ENDBRANCH  31  32
ENDBRANCH  30  31
ENDBRANCH   1  30
TORSDOF 20
ENDMDL
MODEL 3
REMARK VINA RESULT:     -11.7      1.007      7.552
REMARK SMILES COc1cccc(Cn2c(=O)c(=O)n(CC(=O)NCCCCCCNC(=O)c3ccc(-c4c5nc(c(-c6cc(S(=O)(=O)[O-])ccc6F)c6ccc([nH]6)c(-c6cc(S(=O)(=O)[O-])ccc6F)c6nc(c(-c7cc(S(=O)(=O)[O-])ccc7F)c7ccc4[nH]7)C=C6)C=C5)cc3)c3ccccc32)c1
REMARK SMILES IDX 21 1 20 2 19 3 18 4 16 5 17 6 15 8 14 9 9 10 10 11 96 12
REMARK SMILES IDX 11 13 12 14 91 15 95 16 13 17 92 18 94 19 93 20 8 21 7 22
REMARK SMILES IDX 3 23 4 24 97 25 5 26 6 27 2 28 1 29 22 30 23 31 24 32 25 33
REMARK SMILES IDX 26 34 27 36 28 37 29 38 90 39 30 40 89 41 31 42 32 43 33 44
REMARK SMILES IDX 83 45 34 46 88 47 82 48 84 49 35 50 87 51 81 52 80 53 36 55
REMARK SMILES IDX 68 56 48 57 67 58 49 59 52 60 66 61 85 62 50 63 51 64 65 66
REMARK SMILES IDX 86 67 53 68 37 69 38 70 46 71 39 72 45 73 47 74 44 75 40 76
REMARK SMILES IDX 41 77 42 78 43 79 69 80 70 81 78 82 71 83 77 84 79 85 76 86
REMARK SMILES IDX 72 87 73 88 74 89 75 90 54 91 55 92 63 93 56 94 62 95 64 96
REMARK SMILES IDX 61 97 57 98 58 99 59 100 60 101
REMARK H PARENT 18 7 25 35 84 54 52 65
REMARK Flexibility Score: inf
ROOT
ATOM      1  C   UNL A   1      31.604  29.734  25.817  1.00  0.00     0.002 C 
ENDROOT
BRANCH   1   2
ATOM      2  C   UNL A   1      32.905  29.644  25.005  1.00  0.00     0.021 C 
BRANCH   2   3
ATOM      3  C   UNL A   1      32.706  29.000  23.634  1.00  0.00     0.116 C 
BRANCH   3   4
ATOM      4  N   UNL A   1      31.535  29.546  22.981  1.00  0.00    -0.355 N 
ATOM      5  C   UNL A   1      30.440  28.935  22.464  1.00  0.00     0.240 C 
ATOM      6  O   UNL A   1      29.599  29.676  21.936  1.00  0.00    -0.273 OA
ATOM      7  H   UNL A   1      31.534  30.528  22.898  1.00  0.00     0.163 HD
BRANCH   5   8
ATOM      8  C   UNL A   1      30.081  27.464  22.706  1.00  0.00     0.226 C 
BRANCH   8   9
ATOM      9  N   UNL A   1      31.010  26.375  22.964  1.00  0.00    -0.293 N 
ATOM     10  N   UNL A   1      33.152  24.579  23.322  1.00  0.00    -0.298 N 
ATOM     11  C   UNL A   1      33.199  25.508  22.297  1.00  0.00     0.317 A 
ATOM     12  C   UNL A   1      32.406  24.978  24.459  1.00  0.00     0.068 A 
ATOM     13  O   UNL A   1      34.208  25.933  21.753  1.00  0.00    -0.263 OA
ATOM     14  C   UNL A   1      31.824  26.019  21.891  1.00  0.00     0.317 A 
ATOM     15  C   UNL A   1      31.352  25.926  24.286  1.00  0.00     0.069 A 
ATOM     16  C   UNL A   1      32.808  24.598  25.747  1.00  0.00     0.028 A 
ATOM     17  O   UNL A   1      31.557  26.178  20.709  1.00  0.00    -0.263 OA
ATOM     18  C   UNL A   1      30.697  26.416  25.420  1.00  0.00     0.028 A 
ATOM     19  C   UNL A   1      32.191  25.164  26.862  1.00  0.00     0.002 A 
ATOM     20  C   UNL A   1      31.133  26.057  26.700  1.00  0.00     0.002 A 
BRANCH  10  21
ATOM     21  C   UNL A   1      33.995  23.387  23.218  1.00  0.00     0.162 C 
BRANCH  21  22
ATOM     22  C   UNL A   1      33.084  22.161  23.259  1.00  0.00    -0.024 A 
ATOM     23  C   UNL A   1      32.845  19.926  24.207  1.00  0.00     0.119 A 
ATOM     24  C   UNL A   1      32.141  19.517  23.081  1.00  0.00     0.046 A 
ATOM     25  C   UNL A   1      33.228  21.258  24.325  1.00  0.00     0.052 A 
ATOM     26  C   UNL A   1      31.834  20.451  22.082  1.00  0.00     0.004 A 
ATOM     27  C   UNL A   1      32.328  21.761  22.153  1.00  0.00     0.006 A 
BRANCH  23  28
ATOM     28  O   UNL A   1      33.377  19.122  25.171  1.00  0.00    -0.497 OA
ATOM     29  C   UNL A   1      32.983  17.764  25.219  1.00  0.00     0.278 C 
ENDBRANCH  23  28
ENDBRANCH  21  22
ENDBRANCH  10  21
ENDBRANCH   8   9
ENDBRANCH   5   8
ENDBRANCH   3   4
ENDBRANCH   2   3
ENDBRANCH   1   2
BRANCH   1  30
ATOM     30  C   UNL A   1      31.700  30.621  27.064  1.00  0.00     0.002 C 
BRANCH  30  31
ATOM     31  C   UNL A   1      31.677  32.130  26.789  1.00  0.00     0.021 C 
BRANCH  31  32
ATOM     32  C   UNL A   1      32.991  32.850  27.092  1.00  0.00     0.116 C 
BRANCH  32  33
ATOM     33  N   UNL A   1      32.757  34.111  27.776  1.00  0.00    -0.352 N 
ATOM     34  C   UNL A   1      33.213  34.534  29.000  1.00  0.00     0.251 C 
ATOM     35  H   UNL A   1      32.190  34.754  27.291  1.00  0.00     0.163 HD
ATOM     36  O   UNL A   1      32.664  35.479  29.559  1.00  0.00    -0.269 OA
BRANCH  34  37
ATOM     37  C   UNL A   1      34.363  33.857  29.634  1.00  0.00     0.039 A 
ATOM     38  C   UNL A   1      35.661  34.232  29.275  1.00  0.00     0.014 A 
ATOM     39  C   UNL A   1      34.158  32.813  30.541  1.00  0.00     0.014 A 
ATOM     40  C   UNL A   1      36.755  33.587  29.859  1.00  0.00     0.010 A 
ATOM     41  C   UNL A   1      35.248  32.208  31.161  1.00  0.00     0.010 A 
ATOM     42  C   UNL A   1      36.556  32.584  30.818  1.00  0.00    -0.014 A 
BRANCH  42  43
ATOM     43  C   UNL A   1      37.699  31.886  31.458  1.00  0.00     0.031 A 
ATOM     44  C   UNL A   1      38.187  32.335  32.808  1.00  0.00     0.074 A 
ATOM     45  C   UNL A   1      38.341  30.907  30.790  1.00  0.00     0.049 A 
ATOM     46  N   UNL A   1      39.237  31.942  33.482  1.00  0.00    -0.248 NA
ATOM     47  C   UNL A   1      37.407  33.392  33.468  1.00  0.00     0.031 C 
ATOM     48  C   UNL A   1      37.979  30.416  29.460  1.00  0.00     0.029 A 
ATOM     49  N   UNL A   1      39.442  30.165  31.132  1.00  0.00    -0.354 N 
ATOM     50  C   UNL A   1      39.256  32.717  34.638  1.00  0.00     0.074 A 
ATOM     51  C   UNL A   1      38.138  33.634  34.545  1.00  0.00     0.031 C 
ATOM     52  C   UNL A   1      38.842  29.451  29.100  1.00  0.00     0.029 A 
ATOM     53  C   UNL A   1      39.835  29.280  30.155  1.00  0.00     0.049 A 
ATOM     54  H   UNL A   1      39.906  30.256  31.995  1.00  0.00     0.167 HD
ATOM     55  C   UNL A   1      40.115  32.657  35.684  1.00  0.00     0.034 A 
ATOM     56  C   UNL A   1      40.887  28.440  30.111  1.00  0.00     0.034 A 
ATOM     57  C   UNL A   1      41.211  31.721  35.768  1.00  0.00     0.049 A 
ATOM     58  C   UNL A   1      41.822  28.379  31.290  1.00  0.00     0.074 A 
ATOM     59  C   UNL A   1      42.110  31.534  36.804  1.00  0.00     0.029 A 
ATOM     60  N   UNL A   1      41.558  30.815  34.774  1.00  0.00    -0.354 N 
ATOM     61  N   UNL A   1      41.806  29.093  32.391  1.00  0.00    -0.248 NA
ATOM     62  C   UNL A   1      42.907  27.392  31.224  1.00  0.00     0.031 C 
ATOM     63  C   UNL A   1      43.029  30.552  36.416  1.00  0.00     0.029 A 
ATOM     64  C   UNL A   1      42.668  30.082  35.163  1.00  0.00     0.049 A 
ATOM     65  H   UNL A   1      41.083  30.709  33.918  1.00  0.00     0.167 HD
ATOM     66  C   UNL A   1      42.866  28.624  33.161  1.00  0.00     0.074 A 
ATOM     67  C   UNL A   1      43.491  27.559  32.402  1.00  0.00     0.031 C 
ATOM     68  C   UNL A   1      43.284  29.033  34.386  1.00  0.00     0.034 A 
BRANCH  55  69
ATOM     69  C   UNL A   1      39.916  33.650  36.804  1.00  0.00     0.023 A 
ATOM     70  C   UNL A   1      39.376  33.266  38.044  1.00  0.00     0.031 A 
ATOM     71  C   UNL A   1      40.242  35.005  36.619  1.00  0.00     0.131 A 
ATOM     72  C   UNL A   1      39.106  34.236  39.020  1.00  0.00     0.055 A 
ATOM     73  C   UNL A   1      40.044  35.954  37.624  1.00  0.00     0.041 A 
ATOM     74  F   UNL A   1      40.743  35.435  35.450  1.00  0.00    -0.206 F 
ATOM     75  C   UNL A   1      39.459  35.575  38.829  1.00  0.00     0.022 A 
BRANCH  72  76
ATOM     76  S   UNL A   1      38.167  33.747  40.492  1.00  0.00     0.124 S 
ATOM     77  O   UNL A   1      39.074  32.785  41.112  1.00  0.00    -0.237 OA
ATOM     78  O   UNL A   1      37.999  35.013  41.195  1.00  0.00    -0.237 OA
ATOM     79  O   UNL A   1      36.942  33.171  39.942  1.00  0.00    -0.744 OA
ENDBRANCH  72  76
ENDBRANCH  55  69
BRANCH  56  80
ATOM     80  C   UNL A   1      41.121  27.597  28.905  1.00  0.00     0.023 A 
ATOM     81  C   UNL A   1      42.119  27.926  27.976  1.00  0.00     0.031 A 
ATOM     82  C   UNL A   1      40.331  26.460  28.656  1.00  0.00     0.131 A 
ATOM     83  C   UNL A   1      42.279  27.148  26.820  1.00  0.00     0.055 A 
ATOM     84  C   UNL A   1      40.523  25.665  27.526  1.00  0.00     0.041 A 
ATOM     85  F   UNL A   1      39.372  26.099  29.522  1.00  0.00    -0.206 F 
ATOM     86  C   UNL A   1      41.495  26.014  26.594  1.00  0.00     0.022 A 
BRANCH  83  87
ATOM     87  S   UNL A   1      43.495  27.675  25.581  1.00  0.00     0.124 S 
ATOM     88  O   UNL A   1      44.401  26.533  25.548  1.00  0.00    -0.237 OA
ATOM     89  O   UNL A   1      42.660  27.868  24.401  1.00  0.00    -0.237 OA
ATOM     90  O   UNL A   1      44.053  28.900  26.153  1.00  0.00    -0.744 OA
ENDBRANCH  83  87
ENDBRANCH  56  80
BRANCH  68  91
ATOM     91  C   UNL A   1      44.450  28.293  34.988  1.00  0.00     0.023 A 
ATOM     92  C   UNL A   1      44.270  27.104  35.716  1.00  0.00     0.031 A 
ATOM     93  C   UNL A   1      45.755  28.791  34.839  1.00  0.00     0.131 A 
ATOM     94  C   UNL A   1      45.375  26.477  36.310  1.00  0.00     0.055 A 
ATOM     95  C   UNL A   1      46.858  28.136  35.389  1.00  0.00     0.041 A 
ATOM     96  F   UNL A   1      45.979  29.923  34.153  1.00  0.00    -0.206 F 
ATOM     97  C   UNL A   1      46.669  26.978  36.139  1.00  0.00     0.022 A 
BRANCH  94  98
ATOM     98  S   UNL A   1      45.092  25.035  37.373  1.00  0.00     0.124 S 
ATOM     99  O   UNL A   1      46.453  24.580  37.635  1.00  0.00    -0.237 OA
ATOM    100  O   UNL A   1      44.385  25.618  38.508  1.00  0.00    -0.237 OA
ATOM    101  O   UNL A   1      44.290  24.144  36.536  1.00  0.00    -0.744 OA
ENDBRANCH  94  98
ENDBRANCH  68  91
ENDBRANCH  42  43
ENDBRANCH  34  37
ENDBRANCH  32  33
ENDBRANCH  31  32
ENDBRANCH  30  31
ENDBRANCH   1  30
TORSDOF 20
ENDMDL
