MODEL 1
REMARK VINA RESULT:     -14.0      0.000      0.000
REMARK SMILES Cc1ccc(-c2cc(C(=O)NCCCCCCNC(=O)c3ccc(-c4c5nc(c(-c6cc(S(=O)(=O)[O-])ccc6F)c6ccc([nH]6)c(-c6cc(S(=O)(=O)[O-])ccc6F)c6nc(c(-c7cc(S(=O)(=O)[O-])ccc7F)c7ccc4[nH]7)C=C6)C=C5)cc3)c3c(-c4cccc([N+](=O)[O-])c4)[nH]nc3n2)cc1
REMARK SMILES IDX 15 1 14 2 13 3 12 4 11 5 9 6 10 7 8 9 6 10 7 11 98 12 97 13
REMARK SMILES IDX 84 14 96 15 85 16 95 17 5 19 1 20 2 21 3 22 100 23 4 24
REMARK SMILES IDX 99 25 86 26 87 27 94 28 88 29 90 30 89 31 91 32 92 33 93 34
REMARK SMILES IDX 16 35 17 36 18 37 19 38 20 40 21 41 22 42 83 43 23 44 82 45
REMARK SMILES IDX 24 46 25 47 26 48 76 49 27 50 81 51 75 52 77 53 28 54 80 55
REMARK SMILES IDX 74 56 73 57 29 59 61 60 41 61 60 62 42 63 45 64 59 65 78 66
REMARK SMILES IDX 43 67 44 68 58 70 79 71 46 72 30 73 31 74 39 75 32 76 38 77
REMARK SMILES IDX 40 78 37 79 33 80 34 81 35 82 36 83 62 84 63 85 71 86 64 87
REMARK SMILES IDX 70 88 72 89 69 90 65 91 66 92 67 93 68 94 47 95 48 96 56 97
REMARK SMILES IDX 49 98 55 99 57 100 54 101 50 102 51 103 52 104 53 105
REMARK H PARENT 11 8 95 18 18 39 77 58 45 69
REMARK Flexibility Score: inf
ROOT
ATOM      1  C   UNL A   1      32.941  29.321  25.571  1.00  0.00     0.002 C 
ENDROOT
BRANCH   1   2
ATOM      2  C   UNL A   1      34.081  28.287  25.574  1.00  0.00     0.002 C 
BRANCH   2   3
ATOM      3  C   UNL A   1      33.693  26.838  25.906  1.00  0.00     0.021 C 
BRANCH   3   4
ATOM      4  C   UNL A   1      32.559  26.701  26.921  1.00  0.00     0.116 C 
BRANCH   4   5
ATOM      5  N   UNL A   1      31.675  25.601  26.600  1.00  0.00    -0.352 N 
ATOM      6  C   UNL A   1      31.052  25.122  25.483  1.00  0.00     0.252 C 
ATOM      7  O   UNL A   1      30.612  23.983  25.621  1.00  0.00    -0.269 OA
ATOM      8  H   UNL A   1      31.470  25.055  27.394  1.00  0.00     0.163 HD
BRANCH   6   9
ATOM      9  C   UNL A   1      30.956  25.821  24.174  1.00  0.00     0.055 A 
ATOM     10  C   UNL A   1      30.333  27.803  22.804  1.00  0.00     0.074 A 
ATOM     11  C   UNL A   1      30.204  26.982  23.957  1.00  0.00     0.043 A 
ATOM     12  N   UNL A   1      31.073  27.517  21.703  1.00  0.00    -0.226 NA
ATOM     13  C   UNL A   1      31.701  26.319  21.798  1.00  0.00     0.182 A 
ATOM     14  C   UNL A   1      31.647  25.495  22.985  1.00  0.00     0.059 A 
ATOM     15  N   UNL A   1      32.451  25.772  20.842  1.00  0.00    -0.154 NA
ATOM     16  C   UNL A   1      32.372  24.362  22.643  1.00  0.00     0.076 A 
ATOM     17  N   UNL A   1      32.825  24.599  21.367  1.00  0.00    -0.275 N 
ATOM     18  H   UNL A   1      33.382  23.955  20.877  1.00  0.00     0.190 HD
BRANCH  10  19
ATOM     19  C   UNL A   1      29.703  29.133  22.842  1.00  0.00     0.000 A 
ATOM     20  C   UNL A   1      28.317  33.225  22.660  1.00  0.00     0.044 C 
ATOM     21  C   UNL A   1      28.743  31.789  22.735  1.00  0.00    -0.051 A 
ATOM     22  C   UNL A   1      29.316  31.280  23.910  1.00  0.00     0.004 A 
ATOM     23  C   UNL A   1      28.608  30.950  21.628  1.00  0.00     0.004 A 
ATOM     24  C   UNL A   1      29.785  29.963  23.965  1.00  0.00     0.010 A 
ATOM     25  C   UNL A   1      29.078  29.638  21.684  1.00  0.00     0.010 A 
ENDBRANCH  10  19
BRANCH  16  26
ATOM     26  C   UNL A   1      32.641  23.086  23.293  1.00  0.00     0.007 A 
ATOM     27  C   UNL A   1      31.868  21.959  22.979  1.00  0.00     0.011 A 
ATOM     28  C   UNL A   1      33.740  22.956  24.153  1.00  0.00     0.096 A 
ATOM     29  C   UNL A   1      32.221  20.698  23.467  1.00  0.00     0.008 A 
ATOM     30  C   UNL A   1      34.105  21.685  24.613  1.00  0.00     0.270 A 
ATOM     31  C   UNL A   1      33.349  20.554  24.274  1.00  0.00     0.085 A 
BRANCH  30  32
ATOM     32  N   UNL A   1      35.316  21.529  25.428  1.00  0.00     0.062 N 
ATOM     33  O   UNL A   1      35.964  20.479  25.301  1.00  0.00    -0.258 OA
ATOM     34  O   UNL A   1      35.596  22.435  26.224  1.00  0.00    -0.258 OA
ENDBRANCH  30  32
ENDBRANCH  16  26
ENDBRANCH   6   9
ENDBRANCH   4   5
ENDBRANCH   3   4
ENDBRANCH   2   3
ENDBRANCH   1   2
BRANCH   1  35
ATOM     35  C   UNL A   1      33.025  30.424  26.626  1.00  0.00     0.021 C 
BRANCH  35  36
ATOM     36  C   UNL A   1      33.870  30.050  27.838  1.00  0.00     0.116 C 
BRANCH  36  37
ATOM     37  N   UNL A   1      34.607  31.179  28.396  1.00  0.00    -0.352 N 
ATOM     38  C   UNL A   1      35.891  31.204  28.915  1.00  0.00     0.251 C 
ATOM     39  H   UNL A   1      34.127  32.039  28.403  1.00  0.00     0.163 HD
ATOM     40  O   UNL A   1      36.369  32.211  29.404  1.00  0.00    -0.269 OA
BRANCH  38  41
ATOM     41  C   UNL A   1      36.723  29.990  28.752  1.00  0.00     0.039 A 
ATOM     42  C   UNL A   1      36.936  29.204  29.891  1.00  0.00     0.014 A 
ATOM     43  C   UNL A   1      37.472  29.794  27.597  1.00  0.00     0.014 A 
ATOM     44  C   UNL A   1      38.052  28.376  29.945  1.00  0.00     0.010 A 
ATOM     45  C   UNL A   1      38.632  29.052  27.686  1.00  0.00     0.010 A 
ATOM     46  C   UNL A   1      38.952  28.393  28.881  1.00  0.00    -0.014 A 
BRANCH  46  47
ATOM     47  C   UNL A   1      40.309  27.866  28.977  1.00  0.00     0.031 A 
ATOM     48  C   UNL A   1      40.611  26.481  28.566  1.00  0.00     0.074 A 
ATOM     49  C   UNL A   1      41.313  28.678  29.377  1.00  0.00     0.049 A 
ATOM     50  N   UNL A   1      41.649  25.817  28.943  1.00  0.00    -0.248 NA
ATOM     51  C   UNL A   1      39.713  25.705  27.720  1.00  0.00     0.031 C 
ATOM     52  C   UNL A   1      42.748  28.442  29.259  1.00  0.00     0.029 A 
ATOM     53  N   UNL A   1      41.209  29.778  30.223  1.00  0.00    -0.354 N 
ATOM     54  C   UNL A   1      41.718  24.674  28.182  1.00  0.00     0.074 A 
ATOM     55  C   UNL A   1      40.453  24.617  27.488  1.00  0.00     0.031 C 
ATOM     56  C   UNL A   1      43.386  29.181  30.180  1.00  0.00     0.029 A 
ATOM     57  C   UNL A   1      42.372  29.799  31.013  1.00  0.00     0.049 A 
ATOM     58  H   UNL A   1      40.465  30.420  30.261  1.00  0.00     0.167 HD
ATOM     59  C   UNL A   1      42.894  23.985  28.120  1.00  0.00     0.034 A 
ATOM     60  C   UNL A   1      42.302  29.695  32.372  1.00  0.00     0.034 A 
ATOM     61  C   UNL A   1      43.894  24.543  29.032  1.00  0.00     0.049 A 
ATOM     62  C   UNL A   1      43.058  28.510  32.926  1.00  0.00     0.074 A 
ATOM     63  C   UNL A   1      44.990  25.370  28.845  1.00  0.00     0.029 A 
ATOM     64  N   UNL A   1      43.674  24.489  30.405  1.00  0.00    -0.354 N 
ATOM     65  N   UNL A   1      43.423  27.475  32.220  1.00  0.00    -0.248 NA
ATOM     66  C   UNL A   1      43.457  28.400  34.324  1.00  0.00     0.031 C 
ATOM     67  C   UNL A   1      45.400  25.851  30.117  1.00  0.00     0.029 A 
ATOM     68  C   UNL A   1      44.574  25.295  31.078  1.00  0.00     0.049 A 
ATOM     69  H   UNL A   1      42.974  23.951  30.838  1.00  0.00     0.167 HD
ATOM     70  C   UNL A   1      44.081  26.574  33.024  1.00  0.00     0.074 A 
ATOM     71  C   UNL A   1      44.091  27.214  34.329  1.00  0.00     0.031 C 
ATOM     72  C   UNL A   1      44.551  25.384  32.534  1.00  0.00     0.034 A 
BRANCH  59  73
ATOM     73  C   UNL A   1      43.235  23.007  27.012  1.00  0.00     0.023 A 
ATOM     74  C   UNL A   1      42.694  21.704  27.052  1.00  0.00     0.031 A 
ATOM     75  C   UNL A   1      44.113  23.257  25.941  1.00  0.00     0.131 A 
ATOM     76  C   UNL A   1      43.109  20.704  26.152  1.00  0.00     0.055 A 
ATOM     77  C   UNL A   1      44.577  22.249  25.083  1.00  0.00     0.041 A 
ATOM     78  F   UNL A   1      44.520  24.496  25.638  1.00  0.00    -0.206 F 
ATOM     79  C   UNL A   1      44.085  20.958  25.195  1.00  0.00     0.022 A 
BRANCH  76  80
ATOM     80  S   UNL A   1      42.351  19.059  26.246  1.00  0.00     0.124 S 
ATOM     81  O   UNL A   1      43.199  18.274  25.354  1.00  0.00    -0.237 OA
ATOM     82  O   UNL A   1      42.450  18.754  27.669  1.00  0.00    -0.237 OA
ATOM     83  O   UNL A   1      40.990  19.285  25.759  1.00  0.00    -0.744 OA
ENDBRANCH  76  80
ENDBRANCH  59  73
BRANCH  60  84
ATOM     84  C   UNL A   1      41.056  30.286  32.943  1.00  0.00     0.023 A 
ATOM     85  C   UNL A   1      40.981  31.695  32.977  1.00  0.00     0.031 A 
ATOM     86  C   UNL A   1      39.861  29.564  33.043  1.00  0.00     0.131 A 
ATOM     87  C   UNL A   1      39.740  32.338  32.898  1.00  0.00     0.055 A 
ATOM     88  C   UNL A   1      38.619  30.216  33.062  1.00  0.00     0.041 A 
ATOM     89  F   UNL A   1      39.862  28.224  32.991  1.00  0.00    -0.206 F 
ATOM     90  C   UNL A   1      38.553  31.607  32.939  1.00  0.00     0.022 A 
BRANCH  87  91
ATOM     91  S   UNL A   1      39.724  34.092  32.415  1.00  0.00     0.124 S 
ATOM     92  O   UNL A   1      38.905  34.069  31.209  1.00  0.00    -0.237 OA
ATOM     93  O   UNL A   1      39.125  34.736  33.584  1.00  0.00    -0.237 OA
ATOM     94  O   UNL A   1      41.136  34.410  32.214  1.00  0.00    -0.744 OA
ENDBRANCH  87  91
ENDBRANCH  60  84
BRANCH  72  95
ATOM     95  C   UNL A   1      45.111  24.223  33.343  1.00  0.00     0.023 A 
ATOM     96  C   UNL A   1      46.395  24.205  33.907  1.00  0.00     0.031 A 
ATOM     97  C   UNL A   1      44.314  23.083  33.632  1.00  0.00     0.131 A 
ATOM     98  C   UNL A   1      46.865  23.095  34.638  1.00  0.00     0.055 A 
ATOM     99  C   UNL A   1      44.757  22.012  34.418  1.00  0.00     0.041 A 
ATOM    100  F   UNL A   1      43.058  22.960  33.180  1.00  0.00    -0.206 F 
ATOM    101  C   UNL A   1      46.048  22.005  34.915  1.00  0.00     0.022 A 
BRANCH  98 102
ATOM    102  S   UNL A   1      48.596  23.094  35.177  1.00  0.00     0.124 S 
ATOM    103  O   UNL A   1      48.487  22.577  36.538  1.00  0.00    -0.237 OA
ATOM    104  O   UNL A   1      49.223  22.199  34.210  1.00  0.00    -0.237 OA
ATOM    105  O   UNL A   1      48.992  24.495  35.074  1.00  0.00    -0.744 OA
ENDBRANCH  98 102
ENDBRANCH  72  95
ENDBRANCH  46  47
ENDBRANCH  38  41
ENDBRANCH  36  37
ENDBRANCH  35  36
ENDBRANCH   1  35
TORSDOF 19
ENDMDL
MODEL 2
REMARK VINA RESULT:     -13.9      3.987     10.159
REMARK SMILES Cc1ccc(-c2cc(C(=O)NCCCCCCNC(=O)c3ccc(-c4c5nc(c(-c6cc(S(=O)(=O)[O-])ccc6F)c6ccc([nH]6)c(-c6cc(S(=O)(=O)[O-])ccc6F)c6nc(c(-c7cc(S(=O)(=O)[O-])ccc7F)c7ccc4[nH]7)C=C6)C=C5)cc3)c3c(-c4cccc([N+](=O)[O-])c4)[nH]nc3n2)cc1
REMARK SMILES IDX 15 1 14 2 13 3 12 4 11 5 9 6 10 7 8 9 6 10 7 11 98 12 97 13
REMARK SMILES IDX 84 14 96 15 85 16 95 17 5 19 1 20 2 21 3 22 100 23 4 24
REMARK SMILES IDX 99 25 86 26 87 27 94 28 88 29 90 30 89 31 91 32 92 33 93 34
REMARK SMILES IDX 16 35 17 36 18 37 19 38 20 40 21 41 22 42 83 43 23 44 82 45
REMARK SMILES IDX 24 46 25 47 26 48 76 49 27 50 81 51 75 52 77 53 28 54 80 55
REMARK SMILES IDX 74 56 73 57 29 59 61 60 41 61 60 62 42 63 45 64 59 65 78 66
REMARK SMILES IDX 43 67 44 68 58 70 79 71 46 72 30 73 31 74 39 75 32 76 38 77
REMARK SMILES IDX 40 78 37 79 33 80 34 81 35 82 36 83 62 84 63 85 71 86 64 87
REMARK SMILES IDX 70 88 72 89 69 90 65 91 66 92 67 93 68 94 47 95 48 96 56 97
REMARK SMILES IDX 49 98 55 99 57 100 54 101 50 102 51 103 52 104 53 105
REMARK H PARENT 11 8 95 18 18 39 77 58 45 69
REMARK Flexibility Score: inf
ROOT
ATOM      1  C   UNL A   1      36.620  21.839  24.384  1.00  0.00     0.002 C 
ENDROOT
BRANCH   1   2
ATOM      2  C   UNL A   1      36.408  23.363  24.367  1.00  0.00     0.002 C 
BRANCH   2   3
ATOM      3  C   UNL A   1      35.483  23.939  25.452  1.00  0.00     0.021 C 
BRANCH   3   4
ATOM      4  C   UNL A   1      34.955  25.342  25.156  1.00  0.00     0.116 C 
BRANCH   4   5
ATOM      5  N   UNL A   1      34.206  25.387  23.918  1.00  0.00    -0.352 N 
ATOM      6  C   UNL A   1      33.074  24.805  23.421  1.00  0.00     0.252 C 
ATOM      7  O   UNL A   1      32.649  25.354  22.407  1.00  0.00    -0.269 OA
ATOM      8  H   UNL A   1      34.619  25.997  23.265  1.00  0.00     0.163 HD
BRANCH   6   9
ATOM      9  C   UNL A   1      32.335  23.674  24.040  1.00  0.00     0.055 A 
ATOM     10  C   UNL A   1      32.037  21.240  24.471  1.00  0.00     0.074 A 
ATOM     11  C   UNL A   1      32.523  22.329  23.698  1.00  0.00     0.043 A 
ATOM     12  N   UNL A   1      31.216  21.334  25.546  1.00  0.00    -0.226 NA
ATOM     13  C   UNL A   1      30.872  22.615  25.826  1.00  0.00     0.182 A 
ATOM     14  C   UNL A   1      31.406  23.748  25.104  1.00  0.00     0.059 A 
ATOM     15  N   UNL A   1      30.039  22.988  26.797  1.00  0.00    -0.154 NA
ATOM     16  C   UNL A   1      30.769  24.843  25.672  1.00  0.00     0.076 A 
ATOM     17  N   UNL A   1      29.984  24.319  26.671  1.00  0.00    -0.275 N 
ATOM     18  H   UNL A   1      29.424  24.882  27.251  1.00  0.00     0.190 HD
BRANCH  10  19
ATOM     19  C   UNL A   1      32.555  19.899  24.156  1.00  0.00     0.000 A 
ATOM     20  C   UNL A   1      34.526  16.229  22.994  1.00  0.00     0.044 C 
ATOM     21  C   UNL A   1      33.810  17.472  23.435  1.00  0.00    -0.051 A 
ATOM     22  C   UNL A   1      32.732  17.970  22.690  1.00  0.00     0.004 A 
ATOM     23  C   UNL A   1      34.228  18.166  24.571  1.00  0.00     0.004 A 
ATOM     24  C   UNL A   1      32.105  19.169  23.051  1.00  0.00     0.010 A 
ATOM     25  C   UNL A   1      33.604  19.362  24.928  1.00  0.00     0.010 A 
ENDBRANCH  10  19
BRANCH  16  26
ATOM     26  C   UNL A   1      30.733  26.269  25.379  1.00  0.00     0.007 A 
ATOM     27  C   UNL A   1      31.586  27.149  26.062  1.00  0.00     0.011 A 
ATOM     28  C   UNL A   1      29.925  26.752  24.341  1.00  0.00     0.096 A 
ATOM     29  C   UNL A   1      31.681  28.488  25.675  1.00  0.00     0.008 A 
ATOM     30  C   UNL A   1      30.048  28.088  23.940  1.00  0.00     0.270 A 
ATOM     31  C   UNL A   1      30.923  28.960  24.603  1.00  0.00     0.085 A 
BRANCH  30  32
ATOM     32  N   UNL A   1      29.280  28.572  22.787  1.00  0.00     0.062 N 
ATOM     33  O   UNL A   1      29.911  28.873  21.762  1.00  0.00    -0.258 OA
ATOM     34  O   UNL A   1      28.055  28.690  22.917  1.00  0.00    -0.258 OA
ENDBRANCH  30  32
ENDBRANCH  16  26
ENDBRANCH   6   9
ENDBRANCH   4   5
ENDBRANCH   3   4
ENDBRANCH   2   3
ENDBRANCH   1   2
BRANCH   1  35
ATOM     35  C   UNL A   1      37.979  21.351  24.885  1.00  0.00     0.021 C 
BRANCH  35  36
ATOM     36  C   UNL A   1      38.509  22.133  26.080  1.00  0.00     0.116 C 
BRANCH  36  37
ATOM     37  N   UNL A   1      39.965  22.113  26.180  1.00  0.00    -0.352 N 
ATOM     38  C   UNL A   1      40.834  23.172  26.387  1.00  0.00     0.251 C 
ATOM     39  H   UNL A   1      40.386  21.228  26.089  1.00  0.00     0.163 HD
ATOM     40  O   UNL A   1      42.042  23.022  26.393  1.00  0.00    -0.269 OA
BRANCH  38  41
ATOM     41  C   UNL A   1      40.246  24.489  26.723  1.00  0.00     0.039 A 
ATOM     42  C   UNL A   1      40.853  25.620  26.163  1.00  0.00     0.014 A 
ATOM     43  C   UNL A   1      39.317  24.609  27.751  1.00  0.00     0.014 A 
ATOM     44  C   UNL A   1      40.696  26.853  26.789  1.00  0.00     0.010 A 
ATOM     45  C   UNL A   1      39.242  25.809  28.429  1.00  0.00     0.010 A 
ATOM     46  C   UNL A   1      39.980  26.913  27.983  1.00  0.00    -0.014 A 
BRANCH  46  47
ATOM     47  C   UNL A   1      40.056  28.044  28.900  1.00  0.00     0.031 A 
ATOM     48  C   UNL A   1      39.176  29.216  28.727  1.00  0.00     0.074 A 
ATOM     49  C   UNL A   1      40.890  27.986  29.962  1.00  0.00     0.049 A 
ATOM     50  N   UNL A   1      39.405  30.382  29.227  1.00  0.00    -0.248 NA
ATOM     51  C   UNL A   1      37.968  29.172  27.912  1.00  0.00     0.031 C 
ATOM     52  C   UNL A   1      40.900  28.856  31.134  1.00  0.00     0.029 A 
ATOM     53  N   UNL A   1      42.079  27.269  30.051  1.00  0.00    -0.354 N 
ATOM     54  C   UNL A   1      38.270  31.141  29.065  1.00  0.00     0.074 A 
ATOM     55  C   UNL A   1      37.433  30.367  28.179  1.00  0.00     0.031 C 
ATOM     56  C   UNL A   1      42.122  28.825  31.688  1.00  0.00     0.029 A 
ATOM     57  C   UNL A   1      42.973  28.050  30.805  1.00  0.00     0.049 A 
ATOM     58  H   UNL A   1      42.260  26.384  29.662  1.00  0.00     0.167 HD
ATOM     59  C   UNL A   1      38.112  32.272  29.812  1.00  0.00     0.034 A 
ATOM     60  C   UNL A   1      44.152  28.484  30.269  1.00  0.00     0.034 A 
ATOM     61  C   UNL A   1      39.307  32.565  30.605  1.00  0.00     0.049 A 
ATOM     62  C   UNL A   1      44.291  29.988  30.260  1.00  0.00     0.074 A 
ATOM     63  C   UNL A   1      39.629  32.373  31.939  1.00  0.00     0.029 A 
ATOM     64  N   UNL A   1      40.496  32.887  29.959  1.00  0.00    -0.354 N 
ATOM     65  N   UNL A   1      43.293  30.821  30.377  1.00  0.00    -0.248 NA
ATOM     66  C   UNL A   1      45.571  30.671  30.112  1.00  0.00     0.031 C 
ATOM     67  C   UNL A   1      41.033  32.539  32.082  1.00  0.00     0.029 A 
ATOM     68  C   UNL A   1      41.559  32.860  30.842  1.00  0.00     0.049 A 
ATOM     69  H   UNL A   1      40.570  33.106  29.003  1.00  0.00     0.167 HD
ATOM     70  C   UNL A   1      43.758  32.113  30.320  1.00  0.00     0.074 A 
ATOM     71  C   UNL A   1      45.195  31.961  30.173  1.00  0.00     0.031 C 
ATOM     72  C   UNL A   1      42.909  33.186  30.395  1.00  0.00     0.034 A 
BRANCH  59  73
ATOM     73  C   UNL A   1      36.769  32.932  30.060  1.00  0.00     0.023 A 
ATOM     74  C   UNL A   1      36.299  33.064  31.384  1.00  0.00     0.031 A 
ATOM     75  C   UNL A   1      35.887  33.391  29.064  1.00  0.00     0.131 A 
ATOM     76  C   UNL A   1      34.993  33.508  31.663  1.00  0.00     0.055 A 
ATOM     77  C   UNL A   1      34.565  33.773  29.333  1.00  0.00     0.041 A 
ATOM     78  F   UNL A   1      36.279  33.546  27.793  1.00  0.00    -0.206 F 
ATOM     79  C   UNL A   1      34.105  33.819  30.639  1.00  0.00     0.022 A 
BRANCH  76  80
ATOM     80  S   UNL A   1      34.466  33.678  33.390  1.00  0.00     0.124 S 
ATOM     81  O   UNL A   1      34.506  35.124  33.588  1.00  0.00    -0.237 OA
ATOM     82  O   UNL A   1      33.144  33.063  33.372  1.00  0.00    -0.237 OA
ATOM     83  O   UNL A   1      35.483  32.928  34.129  1.00  0.00    -0.744 OA
ENDBRANCH  76  80
ENDBRANCH  59  73
BRANCH  60  84
ATOM     84  C   UNL A   1      44.721  27.544  29.260  1.00  0.00     0.023 A 
ATOM     85  C   UNL A   1      44.841  28.029  27.940  1.00  0.00     0.031 A 
ATOM     86  C   UNL A   1      45.490  26.431  29.621  1.00  0.00     0.131 A 
ATOM     87  C   UNL A   1      45.848  27.542  27.097  1.00  0.00     0.055 A 
ATOM     88  C   UNL A   1      46.432  25.883  28.738  1.00  0.00     0.041 A 
ATOM     89  F   UNL A   1      45.442  25.939  30.868  1.00  0.00    -0.206 F 
ATOM     90  C   UNL A   1      46.649  26.470  27.488  1.00  0.00     0.022 A 
BRANCH  87  91
ATOM     91  S   UNL A   1      46.293  28.543  25.644  1.00  0.00     0.124 S 
ATOM     92  O   UNL A   1      45.702  29.835  25.971  1.00  0.00    -0.237 OA
ATOM     93  O   UNL A   1      47.755  28.485  25.657  1.00  0.00    -0.237 OA
ATOM     94  O   UNL A   1      45.675  27.829  24.529  1.00  0.00    -0.744 OA
ENDBRANCH  87  91
ENDBRANCH  60  84
BRANCH  72  95
ATOM     95  C   UNL A   1      43.260  34.646  30.146  1.00  0.00     0.023 A 
ATOM     96  C   UNL A   1      42.994  35.326  28.949  1.00  0.00     0.031 A 
ATOM     97  C   UNL A   1      43.840  35.442  31.169  1.00  0.00     0.131 A 
ATOM     98  C   UNL A   1      43.353  36.676  28.770  1.00  0.00     0.055 A 
ATOM     99  C   UNL A   1      44.133  36.802  31.015  1.00  0.00     0.041 A 
ATOM    100  F   UNL A   1      44.137  34.942  32.378  1.00  0.00    -0.206 F 
ATOM    101  C   UNL A   1      43.904  37.427  29.803  1.00  0.00     0.022 A 
BRANCH  98 102
ATOM    102  S   UNL A   1      43.127  37.415  27.130  1.00  0.00     0.124 S 
ATOM    103  O   UNL A   1      41.878  38.151  27.302  1.00  0.00    -0.237 OA
ATOM    104  O   UNL A   1      44.327  38.232  26.987  1.00  0.00    -0.237 OA
ATOM    105  O   UNL A   1      43.051  36.261  26.238  1.00  0.00    -0.744 OA
ENDBRANCH  98 102
ENDBRANCH  72  95
ENDBRANCH  46  47
ENDBRANCH  38  41
ENDBRANCH  36  37
ENDBRANCH  35  36
ENDBRANCH   1  35
TORSDOF 19
ENDMDL
MODEL 3
REMARK VINA RESULT:     -13.8      3.872     10.453
REMARK SMILES Cc1ccc(-c2cc(C(=O)NCCCCCCNC(=O)c3ccc(-c4c5nc(c(-c6cc(S(=O)(=O)[O-])ccc6F)c6ccc([nH]6)c(-c6cc(S(=O)(=O)[O-])ccc6F)c6nc(c(-c7cc(S(=O)(=O)[O-])ccc7F)c7ccc4[nH]7)C=C6)C=C5)cc3)c3c(-c4cccc([N+](=O)[O-])c4)[nH]nc3n2)cc1
REMARK SMILES IDX 15 1 14 2 13 3 12 4 11 5 9 6 10 7 8 9 6 10 7 11 98 12 97 13
REMARK SMILES IDX 84 14 96 15 85 16 95 17 5 19 1 20 2 21 3 22 100 23 4 24
REMARK SMILES IDX 99 25 86 26 87 27 94 28 88 29 90 30 89 31 91 32 92 33 93 34
REMARK SMILES IDX 16 35 17 36 18 37 19 38 20 40 21 41 22 42 83 43 23 44 82 45
REMARK SMILES IDX 24 46 25 47 26 48 76 49 27 50 81 51 75 52 77 53 28 54 80 55
REMARK SMILES IDX 74 56 73 57 29 59 61 60 41 61 60 62 42 63 45 64 59 65 78 66
REMARK SMILES IDX 43 67 44 68 58 70 79 71 46 72 30 73 31 74 39 75 32 76 38 77
REMARK SMILES IDX 40 78 37 79 33 80 34 81 35 82 36 83 62 84 63 85 71 86 64 87
REMARK SMILES IDX 70 88 72 89 69 90 65 91 66 92 67 93 68 94 47 95 48 96 56 97
REMARK SMILES IDX 49 98 55 99 57 100 54 101 50 102 51 103 52 104 53 105
REMARK H PARENT 11 8 95 18 18 39 77 58 45 69
REMARK Flexibility Score: inf
ROOT
ATOM      1  C   UNL A   1      37.666  23.302  24.893  1.00  0.00     0.002 C 
ENDROOT
BRANCH   1   2
ATOM      2  C   UNL A   1      36.815  24.073  25.917  1.00  0.00     0.002 C 
BRANCH   2   3
ATOM      3  C   UNL A   1      35.301  24.120  25.654  1.00  0.00     0.021 C 
BRANCH   3   4
ATOM      4  C   UNL A   1      34.771  25.494  25.246  1.00  0.00     0.116 C 
BRANCH   4   5
ATOM      5  N   UNL A   1      34.119  25.460  23.954  1.00  0.00    -0.352 N 
ATOM      6  C   UNL A   1      33.039  24.829  23.404  1.00  0.00     0.252 C 
ATOM      7  O   UNL A   1      32.684  25.316  22.333  1.00  0.00    -0.269 OA
ATOM      8  H   UNL A   1      34.572  26.042  23.302  1.00  0.00     0.163 HD
BRANCH   6   9
ATOM      9  C   UNL A   1      32.273  23.717  24.026  1.00  0.00     0.055 A 
ATOM     10  C   UNL A   1      31.929  21.294  24.478  1.00  0.00     0.074 A 
ATOM     11  C   UNL A   1      32.443  22.366  23.701  1.00  0.00     0.043 A 
ATOM     12  N   UNL A   1      31.093  21.413  25.541  1.00  0.00    -0.226 NA
ATOM     13  C   UNL A   1      30.767  22.703  25.801  1.00  0.00     0.182 A 
ATOM     14  C   UNL A   1      31.330  23.819  25.074  1.00  0.00     0.059 A 
ATOM     15  N   UNL A   1      29.927  23.100  26.757  1.00  0.00    -0.154 NA
ATOM     16  C   UNL A   1      30.703  24.930  25.621  1.00  0.00     0.076 A 
ATOM     17  N   UNL A   1      29.895  24.431  26.615  1.00  0.00    -0.275 N 
ATOM     18  H   UNL A   1      29.336  25.009  27.181  1.00  0.00     0.190 HD
BRANCH  10  19
ATOM     19  C   UNL A   1      32.428  19.941  24.186  1.00  0.00     0.000 A 
ATOM     20  C   UNL A   1      34.384  16.224  23.158  1.00  0.00     0.044 C 
ATOM     21  C   UNL A   1      33.667  17.483  23.547  1.00  0.00    -0.051 A 
ATOM     22  C   UNL A   1      32.714  18.049  22.689  1.00  0.00     0.004 A 
ATOM     23  C   UNL A   1      33.964  18.125  24.750  1.00  0.00     0.004 A 
ATOM     24  C   UNL A   1      32.095  19.264  23.009  1.00  0.00     0.010 A 
ATOM     25  C   UNL A   1      33.348  19.336  25.066  1.00  0.00     0.010 A 
ENDBRANCH  10  19
BRANCH  16  26
ATOM     26  C   UNL A   1      30.695  26.354  25.313  1.00  0.00     0.007 A 
ATOM     27  C   UNL A   1      31.578  27.221  25.973  1.00  0.00     0.011 A 
ATOM     28  C   UNL A   1      29.882  26.843  24.281  1.00  0.00     0.096 A 
ATOM     29  C   UNL A   1      31.696  28.554  25.569  1.00  0.00     0.008 A 
ATOM     30  C   UNL A   1      30.029  28.171  23.863  1.00  0.00     0.270 A 
ATOM     31  C   UNL A   1      30.933  29.030  24.503  1.00  0.00     0.085 A 
BRANCH  30  32
ATOM     32  N   UNL A   1      29.255  28.659  22.715  1.00  0.00     0.062 N 
ATOM     33  O   UNL A   1      28.021  28.547  22.763  1.00  0.00    -0.258 OA
ATOM     34  O   UNL A   1      29.881  29.115  21.749  1.00  0.00    -0.258 OA
ENDBRANCH  30  32
ENDBRANCH  16  26
ENDBRANCH   6   9
ENDBRANCH   4   5
ENDBRANCH   3   4
ENDBRANCH   2   3
ENDBRANCH   1   2
BRANCH   1  35
ATOM     35  C   UNL A   1      38.306  22.004  25.386  1.00  0.00     0.021 C 
BRANCH  35  36
ATOM     36  C   UNL A   1      39.207  22.187  26.601  1.00  0.00     0.116 C 
BRANCH  36  37
ATOM     37  N   UNL A   1      40.600  22.444  26.250  1.00  0.00    -0.352 N 
ATOM     38  C   UNL A   1      41.265  23.657  26.172  1.00  0.00     0.251 C 
ATOM     39  H   UNL A   1      41.140  21.648  26.042  1.00  0.00     0.163 HD
ATOM     40  O   UNL A   1      42.423  23.734  25.808  1.00  0.00    -0.269 OA
BRANCH  38  41
ATOM     41  C   UNL A   1      40.556  24.862  26.660  1.00  0.00     0.039 A 
ATOM     42  C   UNL A   1      40.770  26.056  25.959  1.00  0.00     0.014 A 
ATOM     43  C   UNL A   1      39.933  24.863  27.903  1.00  0.00     0.014 A 
ATOM     44  C   UNL A   1      40.562  27.269  26.608  1.00  0.00     0.010 A 
ATOM     45  C   UNL A   1      39.824  26.061  28.580  1.00  0.00     0.010 A 
ATOM     46  C   UNL A   1      40.196  27.257  27.953  1.00  0.00    -0.014 A 
BRANCH  46  47
ATOM     47  C   UNL A   1      40.307  28.426  28.818  1.00  0.00     0.031 A 
ATOM     48  C   UNL A   1      39.239  29.444  28.851  1.00  0.00     0.074 A 
ATOM     49  C   UNL A   1      41.364  28.540  29.652  1.00  0.00     0.049 A 
ATOM     50  N   UNL A   1      39.393  30.651  29.274  1.00  0.00    -0.248 NA
ATOM     51  C   UNL A   1      37.896  29.183  28.346  1.00  0.00     0.031 C 
ATOM     52  C   UNL A   1      41.511  29.452  30.782  1.00  0.00     0.029 A 
ATOM     53  N   UNL A   1      42.638  28.014  29.462  1.00  0.00    -0.354 N 
ATOM     54  C   UNL A   1      38.148  31.224  29.381  1.00  0.00     0.074 A 
ATOM     55  C   UNL A   1      37.258  30.295  28.724  1.00  0.00     0.031 C 
ATOM     56  C   UNL A   1      42.818  29.628  31.030  1.00  0.00     0.029 A 
ATOM     57  C   UNL A   1      43.550  28.953  29.976  1.00  0.00     0.049 A 
ATOM     58  H   UNL A   1      42.859  27.150  29.047  1.00  0.00     0.167 HD
ATOM     59  C   UNL A   1      37.994  32.349  30.136  1.00  0.00     0.034 A 
ATOM     60  C   UNL A   1      44.489  29.535  29.173  1.00  0.00     0.034 A 
ATOM     61  C   UNL A   1      39.280  32.853  30.621  1.00  0.00     0.049 A 
ATOM     62  C   UNL A   1      44.386  31.041  29.121  1.00  0.00     0.074 A 
ATOM     63  C   UNL A   1      39.930  32.770  31.842  1.00  0.00     0.029 A 
ATOM     64  N   UNL A   1      40.219  33.322  29.708  1.00  0.00    -0.354 N 
ATOM     65  N   UNL A   1      43.325  31.719  29.466  1.00  0.00    -0.248 NA
ATOM     66  C   UNL A   1      45.473  31.901  28.669  1.00  0.00     0.031 C 
ATOM     67  C   UNL A   1      41.284  33.151  31.646  1.00  0.00     0.029 A 
ATOM     68  C   UNL A   1      41.450  33.492  30.315  1.00  0.00     0.049 A 
ATOM     69  H   UNL A   1      40.033  33.507  28.761  1.00  0.00     0.167 HD
ATOM     70  C   UNL A   1      43.556  33.063  29.291  1.00  0.00     0.074 A 
ATOM     71  C   UNL A   1      44.925  33.121  28.807  1.00  0.00     0.031 C 
ATOM     72  C   UNL A   1      42.591  33.998  29.558  1.00  0.00     0.034 A 
BRANCH  59  73
ATOM     73  C   UNL A   1      36.660  32.811  30.691  1.00  0.00     0.023 A 
ATOM     74  C   UNL A   1      35.839  33.649  29.906  1.00  0.00     0.031 A 
ATOM     75  C   UNL A   1      36.165  32.525  31.977  1.00  0.00     0.131 A 
ATOM     76  C   UNL A   1      34.677  34.246  30.430  1.00  0.00     0.055 A 
ATOM     77  C   UNL A   1      35.044  33.166  32.524  1.00  0.00     0.041 A 
ATOM     78  F   UNL A   1      36.707  31.570  32.744  1.00  0.00    -0.206 F 
ATOM     79  C   UNL A   1      34.300  34.046  31.754  1.00  0.00     0.022 A 
BRANCH  76  80
ATOM     80  S   UNL A   1      33.657  35.292  29.355  1.00  0.00     0.124 S 
ATOM     81  O   UNL A   1      34.599  35.670  28.306  1.00  0.00    -0.237 OA
ATOM     82  O   UNL A   1      32.586  34.382  28.966  1.00  0.00    -0.237 OA
ATOM     83  O   UNL A   1      33.246  36.385  30.236  1.00  0.00    -0.744 OA
ENDBRANCH  76  80
ENDBRANCH  59  73
BRANCH  60  84
ATOM     84  C   UNL A   1      44.947  28.647  28.064  1.00  0.00     0.023 A 
ATOM     85  C   UNL A   1      45.861  27.628  28.406  1.00  0.00     0.031 A 
ATOM     86  C   UNL A   1      44.233  28.513  26.867  1.00  0.00     0.131 A 
ATOM     87  C   UNL A   1      45.890  26.432  27.678  1.00  0.00     0.055 A 
ATOM     88  C   UNL A   1      44.337  27.351  26.088  1.00  0.00     0.041 A 
ATOM     89  F   UNL A   1      43.330  29.434  26.500  1.00  0.00    -0.206 F 
ATOM     90  C   UNL A   1      45.130  26.284  26.518  1.00  0.00     0.022 A 
BRANCH  87  91
ATOM     91  S   UNL A   1      46.673  24.985  28.456  1.00  0.00     0.124 S 
ATOM     92  O   UNL A   1      45.529  24.120  28.713  1.00  0.00    -0.237 OA
ATOM     93  O   UNL A   1      47.600  24.532  27.418  1.00  0.00    -0.237 OA
ATOM     94  O   UNL A   1      47.325  25.539  29.641  1.00  0.00    -0.744 OA
ENDBRANCH  87  91
ENDBRANCH  60  84
BRANCH  72  95
ATOM     95  C   UNL A   1      42.642  35.482  29.222  1.00  0.00     0.023 A 
ATOM     96  C   UNL A   1      43.436  36.415  29.904  1.00  0.00     0.031 A 
ATOM     97  C   UNL A   1      41.910  36.007  28.124  1.00  0.00     0.131 A 
ATOM     98  C   UNL A   1      43.435  37.781  29.556  1.00  0.00     0.055 A 
ATOM     99  C   UNL A   1      41.963  37.351  27.735  1.00  0.00     0.041 A 
ATOM    100  F   UNL A   1      41.119  35.238  27.362  1.00  0.00    -0.206 F 
ATOM    101  C   UNL A   1      42.718  38.254  28.463  1.00  0.00     0.022 A 
BRANCH  98 102
ATOM    102  S   UNL A   1      44.358  38.935  30.606  1.00  0.00     0.124 S 
ATOM    103  O   UNL A   1      43.841  40.225  30.161  1.00  0.00    -0.237 OA
ATOM    104  O   UNL A   1      43.959  38.523  31.948  1.00  0.00    -0.237 OA
ATOM    105  O   UNL A   1      45.753  38.673  30.265  1.00  0.00    -0.744 OA
ENDBRANCH  98 102
ENDBRANCH  72  95
ENDBRANCH  46  47
ENDBRANCH  38  41
ENDBRANCH  36  37
ENDBRANCH  35  36
ENDBRANCH   1  35
TORSDOF 19
ENDMDL
