MODEL 1
REMARK VINA RESULT:     -12.3      0.000      0.000
REMARK SMILES CS(=O)(=O)c1ccc(/C=C(/C(=O)NCCCCCCNC(=O)c2ccc(-c3c4nc(c(-c5cc(S(=O)(=O)[O-])ccc5F)c5ccc([nH]5)c(-c5cc(S(=O)(=O)[O-])ccc5F)c5nc(c(-c6cc(S(=O)(=O)[O-])ccc6F)c6ccc3[nH]6)C=C5)C=C4)cc2)c2ccccc2)cc1
REMARK SMILES IDX 17 1 16 2 15 3 14 4 13 5 11 6 12 7 10 9 9 10 8 11 5 12 6 13
REMARK SMILES IDX 93 14 7 15 92 16 2 17 1 18 3 19 4 20 86 21 87 22 91 23 88 24
REMARK SMILES IDX 90 25 89 26 18 27 19 28 20 29 21 30 22 32 23 33 24 34 85 35
REMARK SMILES IDX 25 36 84 37 26 38 27 39 28 40 78 41 29 42 83 43 77 44 79 45
REMARK SMILES IDX 30 46 82 47 76 48 75 49 31 51 63 52 43 53 62 54 44 55 47 56
REMARK SMILES IDX 61 57 80 58 45 59 46 60 60 62 81 63 48 64 32 65 33 66 41 67
REMARK SMILES IDX 34 68 40 69 42 70 39 71 35 72 36 73 37 74 38 75 64 76 65 77
REMARK SMILES IDX 73 78 66 79 72 80 74 81 71 82 67 83 68 84 69 85 70 86 49 87
REMARK SMILES IDX 50 88 58 89 51 90 57 91 59 92 56 93 52 94 53 95 54 96 55 97
REMARK H PARENT 13 8 20 31 79 50 47 61
REMARK Flexibility Score: inf
ROOT
ATOM      1  C   UNL A   1      31.542  28.020  26.390  1.00  0.00     0.002 C 
ENDROOT
BRANCH   1   2
ATOM      2  C   UNL A   1      31.600  26.768  25.507  1.00  0.00     0.002 C 
BRANCH   2   3
ATOM      3  C   UNL A   1      30.503  26.681  24.433  1.00  0.00     0.021 C 
BRANCH   3   4
ATOM      4  C   UNL A   1      30.516  25.362  23.654  1.00  0.00     0.116 C 
BRANCH   4   5
ATOM      5  N   UNL A   1      31.462  25.460  22.561  1.00  0.00    -0.352 N 
ATOM      6  C   UNL A   1      32.589  24.785  22.218  1.00  0.00     0.251 C 
ATOM      7  O   UNL A   1      33.214  25.237  21.255  1.00  0.00    -0.269 OA
ATOM      8  H   UNL A   1      31.238  26.176  21.924  1.00  0.00     0.163 HD
BRANCH   6   9
ATOM      9  C   UNL A   1      33.022  23.494  22.877  1.00  0.00     0.047 C 
ATOM     10  C   UNL A   1      32.220  22.405  22.932  1.00  0.00     0.022 C 
BRANCH  10  11
ATOM     11  C   UNL A   1      32.547  21.034  23.387  1.00  0.00    -0.025 A 
ATOM     12  C   UNL A   1      33.300  18.393  23.985  1.00  0.00     0.067 A 
ATOM     13  C   UNL A   1      33.647  19.434  24.850  1.00  0.00     0.021 A 
ATOM     14  C   UNL A   1      32.528  18.648  22.853  1.00  0.00     0.021 A 
ATOM     15  C   UNL A   1      33.251  20.744  24.560  1.00  0.00     0.009 A 
ATOM     16  C   UNL A   1      32.154  19.966  22.561  1.00  0.00     0.009 A 
BRANCH  12  17
ATOM     17  S   UNL A   1      33.892  16.756  24.348  1.00  0.00     0.175 S 
ATOM     18  C   UNL A   1      32.684  16.001  25.400  1.00  0.00     0.163 C 
ATOM     19  O   UNL A   1      35.102  16.912  25.140  1.00  0.00    -0.224 OA
ATOM     20  O   UNL A   1      33.914  16.037  23.092  1.00  0.00    -0.224 OA
ENDBRANCH  12  17
ENDBRANCH  10  11
BRANCH   9  21
ATOM     21  C   UNL A   1      34.314  23.534  23.610  1.00  0.00    -0.013 A 
ATOM     22  C   UNL A   1      34.335  24.092  24.900  1.00  0.00     0.009 A 
ATOM     23  C   UNL A   1      35.492  22.978  23.096  1.00  0.00     0.009 A 
ATOM     24  C   UNL A   1      35.497  24.078  25.669  1.00  0.00     0.001 A 
ATOM     25  C   UNL A   1      36.652  22.948  23.877  1.00  0.00     0.001 A 
ATOM     26  C   UNL A   1      36.653  23.494  25.161  1.00  0.00     0.000 A 
ENDBRANCH   9  21
ENDBRANCH   6   9
ENDBRANCH   4   5
ENDBRANCH   3   4
ENDBRANCH   2   3
ENDBRANCH   1   2
BRANCH   1  27
ATOM     27  C   UNL A   1      32.850  28.358  27.111  1.00  0.00     0.021 C 
BRANCH  27  28
ATOM     28  C   UNL A   1      33.762  29.311  26.345  1.00  0.00     0.116 C 
BRANCH  28  29
ATOM     29  N   UNL A   1      33.599  30.682  26.792  1.00  0.00    -0.352 N 
ATOM     30  C   UNL A   1      34.302  31.375  27.746  1.00  0.00     0.251 C 
ATOM     31  H   UNL A   1      32.881  31.188  26.347  1.00  0.00     0.163 HD
ATOM     32  O   UNL A   1      33.861  32.442  28.166  1.00  0.00    -0.269 OA
BRANCH  30  33
ATOM     33  C   UNL A   1      35.573  30.832  28.274  1.00  0.00     0.039 A 
ATOM     34  C   UNL A   1      35.525  29.787  29.201  1.00  0.00     0.014 A 
ATOM     35  C   UNL A   1      36.805  31.370  27.888  1.00  0.00     0.014 A 
ATOM     36  C   UNL A   1      36.714  29.259  29.709  1.00  0.00     0.010 A 
ATOM     37  C   UNL A   1      37.990  30.792  28.339  1.00  0.00     0.010 A 
ATOM     38  C   UNL A   1      37.957  29.742  29.268  1.00  0.00    -0.014 A 
BRANCH  38  39
ATOM     39  C   UNL A   1      39.225  29.174  29.796  1.00  0.00     0.031 A 
ATOM     40  C   UNL A   1      39.867  29.771  31.020  1.00  0.00     0.074 A 
ATOM     41  C   UNL A   1      39.812  28.144  29.157  1.00  0.00     0.049 A 
ATOM     42  N   UNL A   1      40.979  29.432  31.622  1.00  0.00    -0.248 NA
ATOM     43  C   UNL A   1      39.182  30.920  31.631  1.00  0.00     0.031 C 
ATOM     44  C   UNL A   1      39.307  27.510  27.937  1.00  0.00     0.029 A 
ATOM     45  N   UNL A   1      40.958  27.445  29.442  1.00  0.00    -0.354 N 
ATOM     46  C   UNL A   1      41.130  30.329  32.675  1.00  0.00     0.074 A 
ATOM     47  C   UNL A   1      40.032  31.268  32.583  1.00  0.00     0.031 C 
ATOM     48  C   UNL A   1      40.122  26.498  27.598  1.00  0.00     0.029 A 
ATOM     49  C   UNL A   1      41.225  26.433  28.550  1.00  0.00     0.049 A 
ATOM     50  H   UNL A   1      41.535  27.651  30.213  1.00  0.00     0.167 HD
ATOM     51  C   UNL A   1      42.081  30.351  33.644  1.00  0.00     0.034 A 
ATOM     52  C   UNL A   1      42.246  25.553  28.504  1.00  0.00     0.034 A 
ATOM     53  C   UNL A   1      43.162  29.399  33.725  1.00  0.00     0.049 A 
ATOM     54  C   UNL A   1      43.296  25.603  29.586  1.00  0.00     0.074 A 
ATOM     55  C   UNL A   1      44.151  29.297  34.688  1.00  0.00     0.029 A 
ATOM     56  N   UNL A   1      43.400  28.385  32.805  1.00  0.00    -0.354 N 
ATOM     57  N   UNL A   1      43.395  26.424  30.606  1.00  0.00    -0.248 NA
ATOM     58  C   UNL A   1      44.360  24.594  29.518  1.00  0.00     0.031 C 
ATOM     59  C   UNL A   1      45.025  28.269  34.314  1.00  0.00     0.029 A 
ATOM     60  C   UNL A   1      44.537  27.674  33.161  1.00  0.00     0.049 A 
ATOM     61  H   UNL A   1      42.844  28.199  32.015  1.00  0.00     0.167 HD
ATOM     62  C   UNL A   1      44.516  26.008  31.318  1.00  0.00     0.074 A 
ATOM     63  C   UNL A   1      45.044  24.853  30.622  1.00  0.00     0.031 C 
ATOM     64  C   UNL A   1      45.061  26.531  32.448  1.00  0.00     0.034 A 
BRANCH  51  65
ATOM     65  C   UNL A   1      41.997  31.455  34.673  1.00  0.00     0.023 A 
ATOM     66  C   UNL A   1      40.995  31.472  35.660  1.00  0.00     0.031 A 
ATOM     67  C   UNL A   1      42.910  32.524  34.649  1.00  0.00     0.131 A 
ATOM     68  C   UNL A   1      40.879  32.570  36.524  1.00  0.00     0.055 A 
ATOM     69  C   UNL A   1      42.843  33.572  35.570  1.00  0.00     0.041 A 
ATOM     70  F   UNL A   1      43.877  32.577  33.719  1.00  0.00    -0.206 F 
ATOM     71  C   UNL A   1      41.812  33.609  36.505  1.00  0.00     0.022 A 
BRANCH  68  72
ATOM     72  S   UNL A   1      39.401  32.698  37.570  1.00  0.00     0.124 S 
ATOM     73  O   UNL A   1      39.979  32.598  38.908  1.00  0.00    -0.237 OA
ATOM     74  O   UNL A   1      38.865  34.002  37.200  1.00  0.00    -0.237 OA
ATOM     75  O   UNL A   1      38.593  31.551  37.162  1.00  0.00    -0.744 OA
ENDBRANCH  68  72
ENDBRANCH  51  65
BRANCH  52  76
ATOM     76  C   UNL A   1      42.330  24.549  27.405  1.00  0.00     0.023 A 
ATOM     77  C   UNL A   1      41.528  23.397  27.413  1.00  0.00     0.031 A 
ATOM     78  C   UNL A   1      43.248  24.706  26.351  1.00  0.00     0.131 A 
ATOM     79  C   UNL A   1      41.693  22.421  26.419  1.00  0.00     0.055 A 
ATOM     80  C   UNL A   1      43.370  23.758  25.333  1.00  0.00     0.041 A 
ATOM     81  F   UNL A   1      44.034  25.791  26.290  1.00  0.00    -0.206 F 
ATOM     82  C   UNL A   1      42.600  22.600  25.371  1.00  0.00     0.022 A 
BRANCH  79  83
ATOM     83  S   UNL A   1      40.767  20.868  26.562  1.00  0.00     0.124 S 
ATOM     84  O   UNL A   1      41.585  19.962  25.765  1.00  0.00    -0.237 OA
ATOM     85  O   UNL A   1      40.776  20.644  28.003  1.00  0.00    -0.237 OA
ATOM     86  O   UNL A   1      39.462  21.197  25.992  1.00  0.00    -0.744 OA
ENDBRANCH  79  83
ENDBRANCH  52  76
BRANCH  64  87
ATOM     87  C   UNL A   1      46.267  25.823  33.015  1.00  0.00     0.023 A 
ATOM     88  C   UNL A   1      47.567  26.081  32.545  1.00  0.00     0.031 A 
ATOM     89  C   UNL A   1      46.111  24.851  34.020  1.00  0.00     0.131 A 
ATOM     90  C   UNL A   1      48.648  25.329  33.028  1.00  0.00     0.055 A 
ATOM     91  C   UNL A   1      47.199  24.154  34.546  1.00  0.00     0.041 A 
ATOM     92  F   UNL A   1      44.893  24.560  34.506  1.00  0.00    -0.206 F 
ATOM     93  C   UNL A   1      48.475  24.378  34.037  1.00  0.00     0.022 A 
BRANCH  90  94
ATOM     94  S   UNL A   1      50.268  25.527  32.234  1.00  0.00     0.124 S 
ATOM     95  O   UNL A   1      50.542  24.172  31.763  1.00  0.00    -0.237 OA
ATOM     96  O   UNL A   1      49.988  26.516  31.198  1.00  0.00    -0.237 OA
ATOM     97  O   UNL A   1      51.128  25.992  33.320  1.00  0.00    -0.744 OA
ENDBRANCH  90  94
ENDBRANCH  64  87
ENDBRANCH  38  39
ENDBRANCH  30  33
ENDBRANCH  28  29
ENDBRANCH  27  28
ENDBRANCH   1  27
TORSDOF 19
ENDMDL
MODEL 2
REMARK VINA RESULT:     -12.2      1.318      1.643
REMARK SMILES CS(=O)(=O)c1ccc(/C=C(/C(=O)NCCCCCCNC(=O)c2ccc(-c3c4nc(c(-c5cc(S(=O)(=O)[O-])ccc5F)c5ccc([nH]5)c(-c5cc(S(=O)(=O)[O-])ccc5F)c5nc(c(-c6cc(S(=O)(=O)[O-])ccc6F)c6ccc3[nH]6)C=C5)C=C4)cc2)c2ccccc2)cc1
REMARK SMILES IDX 17 1 16 2 15 3 14 4 13 5 11 6 12 7 10 9 9 10 8 11 5 12 6 13
REMARK SMILES IDX 93 14 7 15 92 16 2 17 1 18 3 19 4 20 86 21 87 22 91 23 88 24
REMARK SMILES IDX 90 25 89 26 18 27 19 28 20 29 21 30 22 32 23 33 24 34 85 35
REMARK SMILES IDX 25 36 84 37 26 38 27 39 28 40 78 41 29 42 83 43 77 44 79 45
REMARK SMILES IDX 30 46 82 47 76 48 75 49 31 51 63 52 43 53 62 54 44 55 47 56
REMARK SMILES IDX 61 57 80 58 45 59 46 60 60 62 81 63 48 64 32 65 33 66 41 67
REMARK SMILES IDX 34 68 40 69 42 70 39 71 35 72 36 73 37 74 38 75 64 76 65 77
REMARK SMILES IDX 73 78 66 79 72 80 74 81 71 82 67 83 68 84 69 85 70 86 49 87
REMARK SMILES IDX 50 88 58 89 51 90 57 91 59 92 56 93 52 94 53 95 54 96 55 97
REMARK H PARENT 13 8 20 31 79 50 47 61
REMARK Flexibility Score: inf
ROOT
ATOM      1  C   UNL A   1      32.583  26.943  26.283  1.00  0.00     0.002 C 
ENDROOT
BRANCH   1   2
ATOM      2  C   UNL A   1      31.233  26.251  26.063  1.00  0.00     0.002 C 
BRANCH   2   3
ATOM      3  C   UNL A   1      30.568  26.542  24.706  1.00  0.00     0.021 C 
BRANCH   3   4
ATOM      4  C   UNL A   1      30.539  25.330  23.770  1.00  0.00     0.116 C 
BRANCH   4   5
ATOM      5  N   UNL A   1      31.519  25.514  22.719  1.00  0.00    -0.352 N 
ATOM      6  C   UNL A   1      32.676  24.888  22.380  1.00  0.00     0.251 C 
ATOM      7  O   UNL A   1      33.321  25.409  21.466  1.00  0.00    -0.269 OA
ATOM      8  H   UNL A   1      31.297  26.258  22.113  1.00  0.00     0.163 HD
BRANCH   6   9
ATOM      9  C   UNL A   1      33.122  23.575  22.983  1.00  0.00     0.047 C 
ATOM     10  C   UNL A   1      32.307  22.496  23.051  1.00  0.00     0.022 C 
BRANCH  10  11
ATOM     11  C   UNL A   1      32.636  21.109  23.453  1.00  0.00    -0.025 A 
ATOM     12  C   UNL A   1      33.379  18.443  23.945  1.00  0.00     0.067 A 
ATOM     13  C   UNL A   1      33.784  19.456  24.817  1.00  0.00     0.021 A 
ATOM     14  C   UNL A   1      32.555  18.738  22.860  1.00  0.00     0.021 A 
ATOM     15  C   UNL A   1      33.394  20.778  24.581  1.00  0.00     0.009 A 
ATOM     16  C   UNL A   1      32.187  20.068  22.621  1.00  0.00     0.009 A 
BRANCH  12  17
ATOM     17  S   UNL A   1      33.963  16.789  24.235  1.00  0.00     0.175 S 
ATOM     18  C   UNL A   1      32.780  16.012  25.298  1.00  0.00     0.163 C 
ATOM     19  O   UNL A   1      35.198  16.906  24.995  1.00  0.00    -0.224 OA
ATOM     20  O   UNL A   1      33.940  16.112  22.956  1.00  0.00    -0.224 OA
ENDBRANCH  12  17
ENDBRANCH  10  11
BRANCH   9  21
ATOM     21  C   UNL A   1      34.450  23.577  23.650  1.00  0.00    -0.013 A 
ATOM     22  C   UNL A   1      34.538  24.065  24.965  1.00  0.00     0.009 A 
ATOM     23  C   UNL A   1      35.600  23.052  23.047  1.00  0.00     0.009 A 
ATOM     24  C   UNL A   1      35.738  24.012  25.672  1.00  0.00     0.001 A 
ATOM     25  C   UNL A   1      36.798  22.982  23.765  1.00  0.00     0.001 A 
ATOM     26  C   UNL A   1      36.865  23.458  25.075  1.00  0.00     0.000 A 
ENDBRANCH   9  21
ENDBRANCH   6   9
ENDBRANCH   4   5
ENDBRANCH   3   4
ENDBRANCH   2   3
ENDBRANCH   1   2
BRANCH   1  27
ATOM     27  C   UNL A   1      32.493  28.430  26.636  1.00  0.00     0.021 C 
BRANCH  27  28
ATOM     28  C   UNL A   1      33.770  29.220  26.364  1.00  0.00     0.116 C 
BRANCH  28  29
ATOM     29  N   UNL A   1      33.661  30.590  26.829  1.00  0.00    -0.352 N 
ATOM     30  C   UNL A   1      34.393  31.243  27.789  1.00  0.00     0.251 C 
ATOM     31  H   UNL A   1      32.961  31.129  26.395  1.00  0.00     0.163 HD
ATOM     32  O   UNL A   1      33.995  32.320  28.225  1.00  0.00    -0.269 OA
BRANCH  30  33
ATOM     33  C   UNL A   1      35.645  30.645  28.304  1.00  0.00     0.039 A 
ATOM     34  C   UNL A   1      36.848  30.939  27.659  1.00  0.00     0.014 A 
ATOM     35  C   UNL A   1      35.631  29.769  29.396  1.00  0.00     0.014 A 
ATOM     36  C   UNL A   1      38.040  30.386  28.131  1.00  0.00     0.010 A 
ATOM     37  C   UNL A   1      36.830  29.279  29.910  1.00  0.00     0.010 A 
ATOM     38  C   UNL A   1      38.045  29.568  29.273  1.00  0.00    -0.014 A 
BRANCH  38  39
ATOM     39  C   UNL A   1      39.313  28.987  29.787  1.00  0.00     0.031 A 
ATOM     40  C   UNL A   1      39.976  29.579  31.002  1.00  0.00     0.074 A 
ATOM     41  C   UNL A   1      39.882  27.949  29.143  1.00  0.00     0.049 A 
ATOM     42  N   UNL A   1      41.092  29.229  31.590  1.00  0.00    -0.248 NA
ATOM     43  C   UNL A   1      39.311  30.736  31.619  1.00  0.00     0.031 C 
ATOM     44  C   UNL A   1      39.355  27.319  27.930  1.00  0.00     0.029 A 
ATOM     45  N   UNL A   1      41.023  27.239  29.415  1.00  0.00    -0.354 N 
ATOM     46  C   UNL A   1      41.266  30.126  32.641  1.00  0.00     0.074 A 
ATOM     47  C   UNL A   1      40.177  31.077  32.561  1.00  0.00     0.031 C 
ATOM     48  C   UNL A   1      40.154  26.297  27.583  1.00  0.00     0.029 A 
ATOM     49  C   UNL A   1      41.268  26.222  28.521  1.00  0.00     0.049 A 
ATOM     50  H   UNL A   1      41.612  27.439  30.179  1.00  0.00     0.167 HD
ATOM     51  C   UNL A   1      42.228  30.139  33.598  1.00  0.00     0.034 A 
ATOM     52  C   UNL A   1      42.279  25.332  28.464  1.00  0.00     0.034 A 
ATOM     53  C   UNL A   1      43.300  29.175  33.667  1.00  0.00     0.049 A 
ATOM     54  C   UNL A   1      43.343  25.371  29.533  1.00  0.00     0.074 A 
ATOM     55  C   UNL A   1      44.300  29.064  34.618  1.00  0.00     0.029 A 
ATOM     56  N   UNL A   1      43.516  28.157  32.746  1.00  0.00    -0.354 N 
ATOM     57  N   UNL A   1      43.463  26.194  30.551  1.00  0.00    -0.248 NA
ATOM     58  C   UNL A   1      44.395  24.351  29.454  1.00  0.00     0.031 C 
ATOM     59  C   UNL A   1      45.158  28.026  34.235  1.00  0.00     0.029 A 
ATOM     60  C   UNL A   1      44.649  27.435  33.090  1.00  0.00     0.049 A 
ATOM     61  H   UNL A   1      42.948  27.976  31.963  1.00  0.00     0.167 HD
ATOM     62  C   UNL A   1      44.588  25.767  31.250  1.00  0.00     0.074 A 
ATOM     63  C   UNL A   1      45.095  24.605  30.549  1.00  0.00     0.031 C 
ATOM     64  C   UNL A   1      45.152  26.286  32.372  1.00  0.00     0.034 A 
BRANCH  51  65
ATOM     65  C   UNL A   1      42.169  31.246  34.626  1.00  0.00     0.023 A 
ATOM     66  C   UNL A   1      41.139  31.313  35.581  1.00  0.00     0.031 A 
ATOM     67  C   UNL A   1      43.136  32.267  34.632  1.00  0.00     0.131 A 
ATOM     68  C   UNL A   1      41.053  32.416  36.444  1.00  0.00     0.055 A 
ATOM     69  C   UNL A   1      43.094  33.317  35.552  1.00  0.00     0.041 A 
ATOM     70  F   UNL A   1      44.132  32.271  33.732  1.00  0.00    -0.206 F 
ATOM     71  C   UNL A   1      42.038  33.406  36.455  1.00  0.00     0.022 A 
BRANCH  68  72
ATOM     72  S   UNL A   1      39.551  32.618  37.444  1.00  0.00     0.124 S 
ATOM     73  O   UNL A   1      38.942  33.792  36.824  1.00  0.00    -0.237 OA
ATOM     74  O   UNL A   1      38.860  31.351  37.233  1.00  0.00    -0.237 OA
ATOM     75  O   UNL A   1      40.066  32.832  38.794  1.00  0.00    -0.744 OA
ENDBRANCH  68  72
ENDBRANCH  51  65
BRANCH  52  76
ATOM     76  C   UNL A   1      42.339  24.325  27.366  1.00  0.00     0.023 A 
ATOM     77  C   UNL A   1      41.679  23.091  27.478  1.00  0.00     0.031 A 
ATOM     78  C   UNL A   1      43.096  24.565  26.206  1.00  0.00     0.131 A 
ATOM     79  C   UNL A   1      41.829  22.123  26.473  1.00  0.00     0.055 A 
ATOM     80  C   UNL A   1      43.197  23.620  25.182  1.00  0.00     0.041 A 
ATOM     81  F   UNL A   1      43.742  25.731  26.044  1.00  0.00    -0.206 F 
ATOM     82  C   UNL A   1      42.572  22.384  25.320  1.00  0.00     0.022 A 
BRANCH  79  83
ATOM     83  S   UNL A   1      41.108  20.479  26.735  1.00  0.00     0.124 S 
ATOM     84  O   UNL A   1      42.169  19.609  26.241  1.00  0.00    -0.237 OA
ATOM     85  O   UNL A   1      40.890  20.472  28.177  1.00  0.00    -0.237 OA
ATOM     86  O   UNL A   1      39.893  20.507  25.923  1.00  0.00    -0.744 OA
ENDBRANCH  79  83
ENDBRANCH  52  76
BRANCH  64  87
ATOM     87  C   UNL A   1      46.358  25.565  32.926  1.00  0.00     0.023 A 
ATOM     88  C   UNL A   1      46.238  24.581  33.923  1.00  0.00     0.031 A 
ATOM     89  C   UNL A   1      47.648  25.889  32.472  1.00  0.00     0.131 A 
ATOM     90  C   UNL A   1      47.390  24.007  34.482  1.00  0.00     0.055 A 
ATOM     91  C   UNL A   1      48.788  25.265  32.983  1.00  0.00     0.041 A 
ATOM     92  F   UNL A   1      47.824  26.823  31.522  1.00  0.00    -0.206 F 
ATOM     93  C   UNL A   1      48.663  24.332  34.007  1.00  0.00     0.022 A 
BRANCH  90  94
ATOM     94  S   UNL A   1      47.208  22.918  35.922  1.00  0.00     0.124 S 
ATOM     95  O   UNL A   1      47.312  23.861  37.031  1.00  0.00    -0.237 OA
ATOM     96  O   UNL A   1      45.888  22.334  35.705  1.00  0.00    -0.237 OA
ATOM     97  O   UNL A   1      48.327  21.987  35.792  1.00  0.00    -0.744 OA
ENDBRANCH  90  94
ENDBRANCH  64  87
ENDBRANCH  38  39
ENDBRANCH  30  33
ENDBRANCH  28  29
ENDBRANCH  27  28
ENDBRANCH   1  27
TORSDOF 19
ENDMDL
MODEL 3
REMARK VINA RESULT:     -11.8      2.238      2.844
REMARK SMILES CS(=O)(=O)c1ccc(/C=C(/C(=O)NCCCCCCNC(=O)c2ccc(-c3c4nc(c(-c5cc(S(=O)(=O)[O-])ccc5F)c5ccc([nH]5)c(-c5cc(S(=O)(=O)[O-])ccc5F)c5nc(c(-c6cc(S(=O)(=O)[O-])ccc6F)c6ccc3[nH]6)C=C5)C=C4)cc2)c2ccccc2)cc1
REMARK SMILES IDX 17 1 16 2 15 3 14 4 13 5 11 6 12 7 10 9 9 10 8 11 5 12 6 13
REMARK SMILES IDX 93 14 7 15 92 16 2 17 1 18 3 19 4 20 86 21 87 22 91 23 88 24
REMARK SMILES IDX 90 25 89 26 18 27 19 28 20 29 21 30 22 32 23 33 24 34 85 35
REMARK SMILES IDX 25 36 84 37 26 38 27 39 28 40 78 41 29 42 83 43 77 44 79 45
REMARK SMILES IDX 30 46 82 47 76 48 75 49 31 51 63 52 43 53 62 54 44 55 47 56
REMARK SMILES IDX 61 57 80 58 45 59 46 60 60 62 81 63 48 64 32 65 33 66 41 67
REMARK SMILES IDX 34 68 40 69 42 70 39 71 35 72 36 73 37 74 38 75 64 76 65 77
REMARK SMILES IDX 73 78 66 79 72 80 74 81 71 82 67 83 68 84 69 85 70 86 49 87
REMARK SMILES IDX 50 88 58 89 51 90 57 91 59 92 56 93 52 94 53 95 54 96 55 97
REMARK H PARENT 13 8 20 31 79 50 47 61
REMARK Flexibility Score: inf
ROOT
ATOM      1  C   UNL A   1      32.179  26.965  25.408  1.00  0.00     0.002 C 
ENDROOT
BRANCH   1   2
ATOM      2  C   UNL A   1      30.651  27.029  25.293  1.00  0.00     0.002 C 
BRANCH   2   3
ATOM      3  C   UNL A   1      30.087  26.615  23.923  1.00  0.00     0.021 C 
BRANCH   3   4
ATOM      4  C   UNL A   1      30.482  25.195  23.506  1.00  0.00     0.116 C 
BRANCH   4   5
ATOM      5  N   UNL A   1      31.429  25.265  22.411  1.00  0.00    -0.352 N 
ATOM      6  C   UNL A   1      32.560  24.584  22.089  1.00  0.00     0.251 C 
ATOM      7  O   UNL A   1      33.184  25.009  21.114  1.00  0.00    -0.269 OA
ATOM      8  H   UNL A   1      31.203  25.960  21.752  1.00  0.00     0.163 HD
BRANCH   6   9
ATOM      9  C   UNL A   1      32.997  23.316  22.788  1.00  0.00     0.047 C 
ATOM     10  C   UNL A   1      32.221  22.207  22.829  1.00  0.00     0.022 C 
BRANCH  10  11
ATOM     11  C   UNL A   1      32.564  20.853  23.320  1.00  0.00    -0.025 A 
ATOM     12  C   UNL A   1      33.348  18.238  23.989  1.00  0.00     0.067 A 
ATOM     13  C   UNL A   1      33.680  19.305  24.827  1.00  0.00     0.021 A 
ATOM     14  C   UNL A   1      32.575  18.453  22.849  1.00  0.00     0.021 A 
ATOM     15  C   UNL A   1      33.269  20.602  24.502  1.00  0.00     0.009 A 
ATOM     16  C   UNL A   1      32.186  19.758  22.522  1.00  0.00     0.009 A 
BRANCH  12  17
ATOM     17  S   UNL A   1      33.958  16.618  24.396  1.00  0.00     0.175 S 
ATOM     18  C   UNL A   1      32.748  15.870  25.451  1.00  0.00     0.163 C 
ATOM     19  O   UNL A   1      35.156  16.809  25.199  1.00  0.00    -0.224 OA
ATOM     20  O   UNL A   1      34.006  15.872  23.157  1.00  0.00    -0.224 OA
ENDBRANCH  12  17
ENDBRANCH  10  11
BRANCH   9  21
ATOM     21  C   UNL A   1      34.257  23.401  23.571  1.00  0.00    -0.013 A 
ATOM     22  C   UNL A   1      35.443  22.922  22.987  1.00  0.00     0.009 A 
ATOM     23  C   UNL A   1      34.322  23.997  24.836  1.00  0.00     0.009 A 
ATOM     24  C   UNL A   1      36.668  23.054  23.637  1.00  0.00     0.001 A 
ATOM     25  C   UNL A   1      35.555  24.146  25.479  1.00  0.00     0.001 A 
ATOM     26  C   UNL A   1      36.725  23.679  24.879  1.00  0.00     0.000 A 
ENDBRANCH   9  21
ENDBRANCH   6   9
ENDBRANCH   4   5
ENDBRANCH   3   4
ENDBRANCH   2   3
ENDBRANCH   1   2
BRANCH   1  27
ATOM     27  C   UNL A   1      32.802  28.042  26.300  1.00  0.00     0.021 C 
BRANCH  27  28
ATOM     28  C   UNL A   1      33.536  29.142  25.539  1.00  0.00     0.116 C 
BRANCH  28  29
ATOM     29  N   UNL A   1      33.094  30.462  25.948  1.00  0.00    -0.352 N 
ATOM     30  C   UNL A   1      33.501  31.223  27.016  1.00  0.00     0.251 C 
ATOM     31  H   UNL A   1      32.402  30.871  25.380  1.00  0.00     0.163 HD
ATOM     32  O   UNL A   1      32.839  32.203  27.348  1.00  0.00    -0.269 OA
BRANCH  30  33
ATOM     33  C   UNL A   1      34.721  30.855  27.768  1.00  0.00     0.039 A 
ATOM     34  C   UNL A   1      35.713  31.821  27.958  1.00  0.00     0.014 A 
ATOM     35  C   UNL A   1      34.906  29.556  28.255  1.00  0.00     0.014 A 
ATOM     36  C   UNL A   1      36.870  31.493  28.668  1.00  0.00     0.010 A 
ATOM     37  C   UNL A   1      36.026  29.254  29.025  1.00  0.00     0.010 A 
ATOM     38  C   UNL A   1      37.029  30.214  29.225  1.00  0.00    -0.014 A 
BRANCH  38  39
ATOM     39  C   UNL A   1      38.253  29.864  29.992  1.00  0.00     0.031 A 
ATOM     40  C   UNL A   1      38.479  30.450  31.361  1.00  0.00     0.074 A 
ATOM     41  C   UNL A   1      39.173  29.047  29.444  1.00  0.00     0.049 A 
ATOM     42  N   UNL A   1      39.490  30.285  32.176  1.00  0.00    -0.248 NA
ATOM     43  C   UNL A   1      37.446  31.366  31.866  1.00  0.00     0.031 C 
ATOM     44  C   UNL A   1      39.085  28.453  28.108  1.00  0.00     0.029 A 
ATOM     45  N   UNL A   1      40.361  28.571  29.939  1.00  0.00    -0.354 N 
ATOM     46  C   UNL A   1      39.218  31.080  33.286  1.00  0.00     0.074 A 
ATOM     47  C   UNL A   1      37.982  31.780  33.003  1.00  0.00     0.031 C 
ATOM     48  C   UNL A   1      40.156  27.669  27.905  1.00  0.00     0.029 A 
ATOM     49  C   UNL A   1      41.024  27.732  29.074  1.00  0.00     0.049 A 
ATOM     50  H   UNL A   1      40.706  28.809  30.831  1.00  0.00     0.167 HD
ATOM     51  C   UNL A   1      39.918  31.195  34.443  1.00  0.00     0.034 A 
ATOM     52  C   UNL A   1      42.201  27.089  29.209  1.00  0.00     0.034 A 
ATOM     53  C   UNL A   1      41.143  30.480  34.711  1.00  0.00     0.049 A 
ATOM     54  C   UNL A   1      42.967  27.239  30.500  1.00  0.00     0.074 A 
ATOM     55  C   UNL A   1      41.909  30.483  35.863  1.00  0.00     0.029 A 
ATOM     56  N   UNL A   1      41.784  29.636  33.812  1.00  0.00    -0.354 N 
ATOM     57  N   UNL A   1      42.669  27.954  31.561  1.00  0.00    -0.248 NA
ATOM     58  C   UNL A   1      44.219  26.481  30.616  1.00  0.00     0.031 C 
ATOM     59  C   UNL A   1      43.046  29.698  35.638  1.00  0.00     0.029 A 
ATOM     60  C   UNL A   1      42.951  29.139  34.373  1.00  0.00     0.049 A 
ATOM     61  H   UNL A   1      41.459  29.423  32.908  1.00  0.00     0.167 HD
ATOM     62  C   UNL A   1      43.681  27.703  32.482  1.00  0.00     0.074 A 
ATOM     63  C   UNL A   1      44.585  26.759  31.858  1.00  0.00     0.031 C 
ATOM     64  C   UNL A   1      43.851  28.207  33.733  1.00  0.00     0.034 A 
BRANCH  51  65
ATOM     65  C   UNL A   1      39.381  32.147  35.487  1.00  0.00     0.023 A 
ATOM     66  C   UNL A   1      39.824  33.478  35.571  1.00  0.00     0.031 A 
ATOM     67  C   UNL A   1      38.437  31.710  36.434  1.00  0.00     0.131 A 
ATOM     68  C   UNL A   1      39.391  34.298  36.623  1.00  0.00     0.055 A 
ATOM     69  C   UNL A   1      37.942  32.559  37.426  1.00  0.00     0.041 A 
ATOM     70  F   UNL A   1      37.990  30.444  36.420  1.00  0.00    -0.206 F 
ATOM     71  C   UNL A   1      38.432  33.857  37.537  1.00  0.00     0.022 A 
BRANCH  68  72
ATOM     72  S   UNL A   1      40.214  35.897  36.872  1.00  0.00     0.124 S 
ATOM     73  O   UNL A   1      39.730  36.273  38.198  1.00  0.00    -0.237 OA
ATOM     74  O   UNL A   1      41.626  35.541  36.784  1.00  0.00    -0.237 OA
ATOM     75  O   UNL A   1      39.706  36.718  35.776  1.00  0.00    -0.744 OA
ENDBRANCH  68  72
ENDBRANCH  51  65
BRANCH  52  76
ATOM     76  C   UNL A   1      42.731  26.242  28.102  1.00  0.00     0.023 A 
ATOM     77  C   UNL A   1      42.280  24.925  27.918  1.00  0.00     0.031 A 
ATOM     78  C   UNL A   1      43.731  26.723  27.239  1.00  0.00     0.131 A 
ATOM     79  C   UNL A   1      42.863  24.117  26.930  1.00  0.00     0.055 A 
ATOM     80  C   UNL A   1      44.269  25.933  26.220  1.00  0.00     0.041 A 
ATOM     81  F   UNL A   1      44.194  27.976  27.366  1.00  0.00    -0.206 F 
ATOM     82  C   UNL A   1      43.845  24.616  26.071  1.00  0.00     0.022 A 
BRANCH  79  83
ATOM     83  S   UNL A   1      42.380  22.370  26.838  1.00  0.00     0.124 S 
ATOM     84  O   UNL A   1      42.673  21.912  28.191  1.00  0.00    -0.237 OA
ATOM     85  O   UNL A   1      40.969  22.467  26.482  1.00  0.00    -0.237 OA
ATOM     86  O   UNL A   1      43.249  21.832  25.794  1.00  0.00    -0.744 OA
ENDBRANCH  79  83
ENDBRANCH  52  76
BRANCH  64  87
ATOM     87  C   UNL A   1      45.040  27.704  34.516  1.00  0.00     0.023 A 
ATOM     88  C   UNL A   1      44.959  26.564  35.334  1.00  0.00     0.031 A 
ATOM     89  C   UNL A   1      46.265  28.394  34.466  1.00  0.00     0.131 A 
ATOM     90  C   UNL A   1      46.057  26.189  36.123  1.00  0.00     0.055 A 
ATOM     91  C   UNL A   1      47.376  27.976  35.200  1.00  0.00     0.041 A 
ATOM     92  F   UNL A   1      46.401  29.491  33.703  1.00  0.00    -0.206 F 
ATOM     93  C   UNL A   1      47.270  26.878  36.049  1.00  0.00     0.022 A 
BRANCH  90  94
ATOM     94  S   UNL A   1      45.841  24.858  37.337  1.00  0.00     0.124 S 
ATOM     95  O   UNL A   1      47.010  25.036  38.193  1.00  0.00    -0.237 OA
ATOM     96  O   UNL A   1      44.554  25.192  37.939  1.00  0.00    -0.237 OA
ATOM     97  O   UNL A   1      45.848  23.645  36.522  1.00  0.00    -0.744 OA
ENDBRANCH  90  94
ENDBRANCH  64  87
ENDBRANCH  38  39
ENDBRANCH  30  33
ENDBRANCH  28  29
ENDBRANCH  27  28
ENDBRANCH   1  27
TORSDOF 19
ENDMDL
