MODEL 1
REMARK VINA RESULT:     -13.1      0.000      0.000
REMARK SMILES O=C(NCCCCCCNC(=O)c1ccc(-c2c3nc(c(-c4cc(S(=O)(=O)[O-])ccc4F)c4ccc([nH]4)c(-c4cc(S(=O)(=O)[O-])ccc4F)c4nc(c(-c5cc(S(=O)(=O)[O-])ccc5F)c5ccc2[nH]5)C=C4)C=C3)cc1)C1=Cc2cc(Cl)cc(-c3ccc(Cl)cc3)c2O[C@@H]1C(F)(F)F
REMARK SMILES IDX 7 1 6 2 5 3 4 4 3 5 1 6 2 7 76 9 77 10 93 11 78 12 92 13
REMARK SMILES IDX 79 14 91 15 80 16 83 17 81 18 82 19 94 20 95 21 96 22 97 23
REMARK SMILES IDX 84 24 85 25 90 26 86 27 89 28 87 29 88 30 8 31 9 32 10 33
REMARK SMILES IDX 11 34 12 36 13 37 14 38 75 39 15 40 74 41 16 42 17 43 18 44
REMARK SMILES IDX 68 45 19 46 73 47 67 48 69 49 20 50 72 51 66 52 65 53 21 55
REMARK SMILES IDX 53 56 33 57 52 58 34 59 37 60 51 61 70 62 35 63 36 64 50 66
REMARK SMILES IDX 71 67 38 68 22 69 23 70 31 71 24 72 30 73 32 74 29 75 25 76
REMARK SMILES IDX 26 77 27 78 28 79 54 80 55 81 63 82 56 83 62 84 64 85 61 86
REMARK SMILES IDX 57 87 58 88 59 89 60 90 39 91 40 92 48 93 41 94 47 95 49 96
REMARK SMILES IDX 46 97 42 98 43 99 44 100 45 101
REMARK H PARENT 3 8 10 35 69 54 37 65
REMARK Flexibility Score: inf
ROOT
ATOM      1  C   UNL A   1      30.973  28.319  23.841  1.00  0.00     0.002 C 
ENDROOT
BRANCH   1   2
ATOM      2  C   UNL A   1      30.267  26.968  23.671  1.00  0.00     0.002 C 
BRANCH   2   3
ATOM      3  C   UNL A   1      29.978  26.173  24.947  1.00  0.00     0.021 C 
BRANCH   3   4
ATOM      4  C   UNL A   1      30.939  26.381  26.122  1.00  0.00     0.116 C 
BRANCH   4   5
ATOM      5  N   UNL A   1      31.183  25.192  26.935  1.00  0.00    -0.352 N 
ATOM      6  O   UNL A   1      32.117  23.235  27.544  1.00  0.00    -0.270 OA
ATOM      7  C   UNL A   1      31.911  24.059  26.656  1.00  0.00     0.251 C 
ATOM      8  H   UNL A   1      30.760  25.205  27.825  1.00  0.00     0.163 HD
BRANCH   7   9
ATOM      9  C   UNL A   1      32.618  23.920  25.350  1.00  0.00     0.067 C 
ATOM     10  C   UNL A   1      33.897  24.249  25.128  1.00  0.00     0.025 C 
ATOM     11  C   UNL A   1      32.028  22.892  24.433  1.00  0.00     0.314 C 
ATOM     12  C   UNL A   1      34.758  23.083  24.867  1.00  0.00     0.019 A 
ATOM     13  O   UNL A   1      32.802  21.673  24.471  1.00  0.00    -0.475 OA
ATOM     14  C   UNL A   1      36.127  23.183  25.140  1.00  0.00     0.032 A 
ATOM     15  C   UNL A   1      34.160  21.814  24.681  1.00  0.00     0.135 A 
ATOM     16  C   UNL A   1      36.884  22.023  25.269  1.00  0.00     0.042 A 
ATOM     17  C   UNL A   1      34.910  20.636  24.869  1.00  0.00     0.026 A 
ATOM     18  Cl  UNL A   1      38.531  22.132  25.751  1.00  0.00    -0.084 Cl
ATOM     19  C   UNL A   1      36.287  20.769  25.138  1.00  0.00     0.033 A 
BRANCH  11  20
ATOM     20  C   UNL A   1      31.878  23.467  23.003  1.00  0.00     0.429 C 
ATOM     21  F   UNL A   1      32.372  22.615  22.072  1.00  0.00    -0.167 F 
ATOM     22  F   UNL A   1      30.576  23.679  22.683  1.00  0.00    -0.167 F 
ATOM     23  F   UNL A   1      32.517  24.650  22.833  1.00  0.00    -0.167 F 
ENDBRANCH  11  20
BRANCH  17  24
ATOM     24  C   UNL A   1      34.284  19.304  24.999  1.00  0.00    -0.015 A 
ATOM     25  C   UNL A   1      34.929  18.189  24.433  1.00  0.00     0.010 A 
ATOM     26  C   UNL A   1      33.076  19.082  25.669  1.00  0.00     0.010 A 
ATOM     27  C   UNL A   1      34.398  16.902  24.509  1.00  0.00     0.021 A 
ATOM     28  C   UNL A   1      32.528  17.792  25.745  1.00  0.00     0.021 A 
ATOM     29  C   UNL A   1      33.189  16.711  25.162  1.00  0.00     0.041 A 
ATOM     30  Cl  UNL A   1      32.510  15.133  25.247  1.00  0.00    -0.084 Cl
ENDBRANCH  17  24
ENDBRANCH   7   9
ENDBRANCH   4   5
ENDBRANCH   3   4
ENDBRANCH   2   3
ENDBRANCH   1   2
BRANCH   1  31
ATOM     31  C   UNL A   1      32.490  28.331  23.630  1.00  0.00     0.021 C 
BRANCH  31  32
ATOM     32  C   UNL A   1      33.318  28.965  24.739  1.00  0.00     0.116 C 
BRANCH  32  33
ATOM     33  N   UNL A   1      32.642  30.114  25.320  1.00  0.00    -0.352 N 
ATOM     34  C   UNL A   1      32.849  30.779  26.506  1.00  0.00     0.251 C 
ATOM     35  H   UNL A   1      31.910  30.477  24.771  1.00  0.00     0.163 HD
ATOM     36  O   UNL A   1      31.974  31.543  26.905  1.00  0.00    -0.269 OA
BRANCH  34  37
ATOM     37  C   UNL A   1      34.086  30.590  27.307  1.00  0.00     0.039 A 
ATOM     38  C   UNL A   1      34.857  31.714  27.631  1.00  0.00     0.014 A 
ATOM     39  C   UNL A   1      34.541  29.323  27.678  1.00  0.00     0.014 A 
ATOM     40  C   UNL A   1      36.048  31.569  28.353  1.00  0.00     0.010 A 
ATOM     41  C   UNL A   1      35.674  29.188  28.481  1.00  0.00     0.010 A 
ATOM     42  C   UNL A   1      36.455  30.306  28.809  1.00  0.00    -0.014 A 
BRANCH  42  43
ATOM     43  C   UNL A   1      37.715  30.121  29.580  1.00  0.00     0.031 A 
ATOM     44  C   UNL A   1      38.820  29.260  29.020  1.00  0.00     0.074 A 
ATOM     45  C   UNL A   1      37.844  30.666  30.806  1.00  0.00     0.049 A 
ATOM     46  N   UNL A   1      39.941  28.876  29.577  1.00  0.00    -0.248 NA
ATOM     47  C   UNL A   1      38.613  28.729  27.664  1.00  0.00     0.031 C 
ATOM     48  C   UNL A   1      36.831  31.484  31.476  1.00  0.00     0.029 A 
ATOM     49  N   UNL A   1      38.873  30.605  31.712  1.00  0.00    -0.354 N 
ATOM     50  C   UNL A   1      40.559  28.043  28.649  1.00  0.00     0.074 A 
ATOM     51  C   UNL A   1      39.651  27.921  27.528  1.00  0.00     0.031 C 
ATOM     52  C   UNL A   1      37.295  31.861  32.678  1.00  0.00     0.029 A 
ATOM     53  C   UNL A   1      38.616  31.276  32.886  1.00  0.00     0.049 A 
ATOM     54  H   UNL A   1      39.715  30.126  31.539  1.00  0.00     0.167 HD
ATOM     55  C   UNL A   1      41.783  27.459  28.710  1.00  0.00     0.034 A 
ATOM     56  C   UNL A   1      39.352  31.393  34.009  1.00  0.00     0.034 A 
ATOM     57  C   UNL A   1      42.683  27.607  29.828  1.00  0.00     0.049 A 
ATOM     58  C   UNL A   1      40.705  30.730  34.065  1.00  0.00     0.074 A 
ATOM     59  C   UNL A   1      43.962  27.100  29.983  1.00  0.00     0.029 A 
ATOM     60  N   UNL A   1      42.396  28.314  30.990  1.00  0.00    -0.354 N 
ATOM     61  N   UNL A   1      41.293  29.977  33.163  1.00  0.00    -0.248 NA
ATOM     62  C   UNL A   1      41.498  30.944  35.280  1.00  0.00     0.031 C 
ATOM     63  C   UNL A   1      44.422  27.447  31.258  1.00  0.00     0.029 A 
ATOM     64  C   UNL A   1      43.463  28.237  31.873  1.00  0.00     0.049 A 
ATOM     65  H   UNL A   1      41.558  28.800  31.161  1.00  0.00     0.167 HD
ATOM     66  C   UNL A   1      42.536  29.649  33.695  1.00  0.00     0.074 A 
ATOM     67  C   UNL A   1      42.618  30.301  34.987  1.00  0.00     0.031 C 
ATOM     68  C   UNL A   1      43.523  28.881  33.164  1.00  0.00     0.034 A 
BRANCH  55  69
ATOM     69  C   UNL A   1      42.198  26.596  27.538  1.00  0.00     0.023 A 
ATOM     70  C   UNL A   1      41.956  25.209  27.522  1.00  0.00     0.031 A 
ATOM     71  C   UNL A   1      42.889  27.149  26.446  1.00  0.00     0.131 A 
ATOM     72  C   UNL A   1      42.485  24.414  26.494  1.00  0.00     0.055 A 
ATOM     73  C   UNL A   1      43.331  26.365  25.378  1.00  0.00     0.041 A 
ATOM     74  F   UNL A   1      43.170  28.461  26.408  1.00  0.00    -0.206 F 
ATOM     75  C   UNL A   1      43.148  24.986  25.408  1.00  0.00     0.022 A 
BRANCH  72  76
ATOM     76  S   UNL A   1      42.444  22.612  26.694  1.00  0.00     0.124 S 
ATOM     77  O   UNL A   1      41.993  22.179  25.376  1.00  0.00    -0.237 OA
ATOM     78  O   UNL A   1      43.824  22.299  27.037  1.00  0.00    -0.237 OA
ATOM     79  O   UNL A   1      41.471  22.411  27.773  1.00  0.00    -0.744 OA
ENDBRANCH  72  76
ENDBRANCH  55  69
BRANCH  56  80
ATOM     80  C   UNL A   1      38.823  32.155  35.175  1.00  0.00     0.023 A 
ATOM     81  C   UNL A   1      38.331  31.495  36.312  1.00  0.00     0.031 A 
ATOM     82  C   UNL A   1      38.784  33.561  35.161  1.00  0.00     0.131 A 
ATOM     83  C   UNL A   1      37.786  32.238  37.373  1.00  0.00     0.055 A 
ATOM     84  C   UNL A   1      38.287  34.297  36.238  1.00  0.00     0.041 A 
ATOM     85  F   UNL A   1      39.249  34.241  34.102  1.00  0.00    -0.206 F 
ATOM     86  C   UNL A   1      37.775  33.635  37.349  1.00  0.00     0.022 A 
BRANCH  83  87
ATOM     87  S   UNL A   1      37.027  31.348  38.758  1.00  0.00     0.124 S 
ATOM     88  O   UNL A   1      35.740  32.023  38.877  1.00  0.00    -0.237 OA
ATOM     89  O   UNL A   1      36.991  29.979  38.256  1.00  0.00    -0.237 OA
ATOM     90  O   UNL A   1      37.958  31.580  39.861  1.00  0.00    -0.744 OA
ENDBRANCH  83  87
ENDBRANCH  56  80
BRANCH  68  91
ATOM     91  C   UNL A   1      44.792  28.743  33.971  1.00  0.00     0.023 A 
ATOM     92  C   UNL A   1      44.974  27.696  34.890  1.00  0.00     0.031 A 
ATOM     93  C   UNL A   1      45.828  29.681  33.822  1.00  0.00     0.131 A 
ATOM     94  C   UNL A   1      46.142  27.644  35.666  1.00  0.00     0.055 A 
ATOM     95  C   UNL A   1      47.013  29.590  34.552  1.00  0.00     0.041 A 
ATOM     96  F   UNL A   1      45.705  30.704  32.960  1.00  0.00    -0.206 F 
ATOM     97  C   UNL A   1      47.170  28.573  35.490  1.00  0.00     0.022 A 
BRANCH  94  98
ATOM     98  S   UNL A   1      46.264  26.393  36.974  1.00  0.00     0.124 S 
ATOM     99  O   UNL A   1      46.440  27.218  38.165  1.00  0.00    -0.237 OA
ATOM    100  O   UNL A   1      44.985  25.699  36.864  1.00  0.00    -0.237 OA
ATOM    101  O   UNL A   1      47.432  25.605  36.588  1.00  0.00    -0.744 OA
ENDBRANCH  94  98
ENDBRANCH  68  91
ENDBRANCH  42  43
ENDBRANCH  34  37
ENDBRANCH  32  33
ENDBRANCH  31  32
ENDBRANCH   1  31
TORSDOF 18
ENDMDL
MODEL 2
REMARK VINA RESULT:     -13.1      1.950      7.492
REMARK SMILES O=C(NCCCCCCNC(=O)c1ccc(-c2c3nc(c(-c4cc(S(=O)(=O)[O-])ccc4F)c4ccc([nH]4)c(-c4cc(S(=O)(=O)[O-])ccc4F)c4nc(c(-c5cc(S(=O)(=O)[O-])ccc5F)c5ccc2[nH]5)C=C4)C=C3)cc1)C1=Cc2cc(Cl)cc(-c3ccc(Cl)cc3)c2O[C@@H]1C(F)(F)F
REMARK SMILES IDX 7 1 6 2 5 3 4 4 3 5 1 6 2 7 76 9 77 10 93 11 78 12 92 13
REMARK SMILES IDX 79 14 91 15 80 16 83 17 81 18 82 19 94 20 95 21 96 22 97 23
REMARK SMILES IDX 84 24 85 25 90 26 86 27 89 28 87 29 88 30 8 31 9 32 10 33
REMARK SMILES IDX 11 34 12 36 13 37 14 38 75 39 15 40 74 41 16 42 17 43 18 44
REMARK SMILES IDX 68 45 19 46 73 47 67 48 69 49 20 50 72 51 66 52 65 53 21 55
REMARK SMILES IDX 53 56 33 57 52 58 34 59 37 60 51 61 70 62 35 63 36 64 50 66
REMARK SMILES IDX 71 67 38 68 22 69 23 70 31 71 24 72 30 73 32 74 29 75 25 76
REMARK SMILES IDX 26 77 27 78 28 79 54 80 55 81 63 82 56 83 62 84 64 85 61 86
REMARK SMILES IDX 57 87 58 88 59 89 60 90 39 91 40 92 48 93 41 94 47 95 49 96
REMARK SMILES IDX 46 97 42 98 43 99 44 100 45 101
REMARK H PARENT 3 8 10 35 69 54 37 65
REMARK Flexibility Score: inf
ROOT
ATOM      1  C   UNL A   1      31.563  29.045  24.229  1.00  0.00     0.002 C 
ENDROOT
BRANCH   1   2
ATOM      2  C   UNL A   1      30.752  27.848  23.718  1.00  0.00     0.002 C 
BRANCH   2   3
ATOM      3  C   UNL A   1      30.270  26.840  24.765  1.00  0.00     0.021 C 
BRANCH   3   4
ATOM      4  C   UNL A   1      30.921  26.920  26.149  1.00  0.00     0.116 C 
BRANCH   4   5
ATOM      5  N   UNL A   1      31.078  25.636  26.830  1.00  0.00    -0.352 N 
ATOM      6  O   UNL A   1      31.977  23.631  27.322  1.00  0.00    -0.270 OA
ATOM      7  C   UNL A   1      31.883  24.563  26.527  1.00  0.00     0.251 C 
ATOM      8  H   UNL A   1      30.518  25.523  27.633  1.00  0.00     0.163 HD
BRANCH   7   9
ATOM      9  C   UNL A   1      32.794  24.613  25.348  1.00  0.00     0.067 C 
ATOM     10  C   UNL A   1      34.071  25.014  25.376  1.00  0.00     0.025 C 
ATOM     11  C   UNL A   1      32.414  23.685  24.234  1.00  0.00     0.314 C 
ATOM     12  C   UNL A   1      35.027  23.922  25.126  1.00  0.00     0.019 A 
ATOM     13  O   UNL A   1      33.241  22.500  24.256  1.00  0.00    -0.475 OA
ATOM     14  C   UNL A   1      36.328  24.039  25.627  1.00  0.00     0.032 A 
ATOM     15  C   UNL A   1      34.539  22.665  24.699  1.00  0.00     0.135 A 
ATOM     16  C   UNL A   1      37.120  22.901  25.743  1.00  0.00     0.042 A 
ATOM     17  C   UNL A   1      35.315  21.501  24.870  1.00  0.00     0.026 A 
ATOM     18  Cl  UNL A   1      38.662  23.012  26.497  1.00  0.00    -0.084 Cl
ATOM     19  C   UNL A   1      36.623  21.652  25.373  1.00  0.00     0.033 A 
BRANCH  11  20
ATOM     20  C   UNL A   1      32.459  24.425  22.874  1.00  0.00     0.429 C 
ATOM     21  F   UNL A   1      31.214  24.647  22.389  1.00  0.00    -0.167 F 
ATOM     22  F   UNL A   1      33.055  25.640  22.986  1.00  0.00    -0.167 F 
ATOM     23  F   UNL A   1      33.141  23.746  21.919  1.00  0.00    -0.167 F 
ENDBRANCH  11  20
BRANCH  17  24
ATOM     24  C   UNL A   1      34.753  20.141  24.741  1.00  0.00    -0.015 A 
ATOM     25  C   UNL A   1      35.628  19.038  24.746  1.00  0.00     0.010 A 
ATOM     26  C   UNL A   1      33.384  19.881  24.623  1.00  0.00     0.010 A 
ATOM     27  C   UNL A   1      35.173  17.726  24.622  1.00  0.00     0.021 A 
ATOM     28  C   UNL A   1      32.916  18.564  24.491  1.00  0.00     0.021 A 
ATOM     29  C   UNL A   1      33.812  17.495  24.487  1.00  0.00     0.041 A 
ATOM     30  Cl  UNL A   1      33.236  15.884  24.314  1.00  0.00    -0.084 Cl
ENDBRANCH  17  24
ENDBRANCH   7   9
ENDBRANCH   4   5
ENDBRANCH   3   4
ENDBRANCH   2   3
ENDBRANCH   1   2
BRANCH   1  31
ATOM     31  C   UNL A   1      33.086  28.887  24.241  1.00  0.00     0.021 C 
BRANCH  31  32
ATOM     32  C   UNL A   1      33.758  28.948  25.605  1.00  0.00     0.116 C 
BRANCH  32  33
ATOM     33  N   UNL A   1      33.641  30.270  26.199  1.00  0.00    -0.352 N 
ATOM     34  C   UNL A   1      34.296  30.843  27.264  1.00  0.00     0.251 C 
ATOM     35  H   UNL A   1      32.980  30.855  25.764  1.00  0.00     0.163 HD
ATOM     36  O   UNL A   1      33.829  31.871  27.750  1.00  0.00    -0.269 OA
BRANCH  34  37
ATOM     37  C   UNL A   1      35.531  30.250  27.838  1.00  0.00     0.039 A 
ATOM     38  C   UNL A   1      35.448  29.573  29.062  1.00  0.00     0.014 A 
ATOM     39  C   UNL A   1      36.780  30.413  27.235  1.00  0.00     0.014 A 
ATOM     40  C   UNL A   1      36.598  29.033  29.650  1.00  0.00     0.010 A 
ATOM     41  C   UNL A   1      37.908  29.790  27.770  1.00  0.00     0.010 A 
ATOM     42  C   UNL A   1      37.837  29.114  28.996  1.00  0.00    -0.014 A 
BRANCH  42  43
ATOM     43  C   UNL A   1      39.077  28.547  29.596  1.00  0.00     0.031 A 
ATOM     44  C   UNL A   1      39.638  29.142  30.864  1.00  0.00     0.074 A 
ATOM     45  C   UNL A   1      39.734  27.548  28.973  1.00  0.00     0.049 A 
ATOM     46  N   UNL A   1      40.762  28.878  31.481  1.00  0.00    -0.248 NA
ATOM     47  C   UNL A   1      38.844  30.206  31.495  1.00  0.00     0.031 C 
ATOM     48  C   UNL A   1      39.316  26.917  27.721  1.00  0.00     0.029 A 
ATOM     49  N   UNL A   1      40.898  26.899  29.301  1.00  0.00    -0.354 N 
ATOM     50  C   UNL A   1      40.817  29.757  32.559  1.00  0.00     0.074 A 
ATOM     51  C   UNL A   1      39.652  30.609  32.463  1.00  0.00     0.031 C 
ATOM     52  C   UNL A   1      40.201  25.961  27.394  1.00  0.00     0.029 A 
ATOM     53  C   UNL A   1      41.272  25.941  28.386  1.00  0.00     0.049 A 
ATOM     54  H   UNL A   1      41.416  27.100  30.112  1.00  0.00     0.167 HD
ATOM     55  C   UNL A   1      41.737  29.827  33.555  1.00  0.00     0.034 A 
ATOM     56  C   UNL A   1      42.361  25.150  28.340  1.00  0.00     0.034 A 
ATOM     57  C   UNL A   1      42.885  28.956  33.645  1.00  0.00     0.049 A 
ATOM     58  C   UNL A   1      43.379  25.247  29.449  1.00  0.00     0.074 A 
ATOM     59  C   UNL A   1      43.858  28.906  34.628  1.00  0.00     0.029 A 
ATOM     60  N   UNL A   1      43.217  27.982  32.711  1.00  0.00    -0.354 N 
ATOM     61  N   UNL A   1      43.398  26.057  30.482  1.00  0.00    -0.248 NA
ATOM     62  C   UNL A   1      44.512  24.316  29.392  1.00  0.00     0.031 C 
ATOM     63  C   UNL A   1      44.808  27.947  34.259  1.00  0.00     0.029 A 
ATOM     64  C   UNL A   1      44.391  27.343  33.083  1.00  0.00     0.049 A 
ATOM     65  H   UNL A   1      42.695  27.776  31.903  1.00  0.00     0.167 HD
ATOM     66  C   UNL A   1      44.532  25.714  31.213  1.00  0.00     0.074 A 
ATOM     67  C   UNL A   1      45.159  24.613  30.508  1.00  0.00     0.031 C 
ATOM     68  C   UNL A   1      45.011  26.257  32.362  1.00  0.00     0.034 A 
BRANCH  55  69
ATOM     69  C   UNL A   1      41.538  30.896  34.607  1.00  0.00     0.023 A 
ATOM     70  C   UNL A   1      40.443  30.866  35.492  1.00  0.00     0.031 A 
ATOM     71  C   UNL A   1      42.420  31.988  34.699  1.00  0.00     0.131 A 
ATOM     72  C   UNL A   1      40.204  31.947  36.352  1.00  0.00     0.055 A 
ATOM     73  C   UNL A   1      42.228  33.016  35.625  1.00  0.00     0.041 A 
ATOM     74  F   UNL A   1      43.473  32.087  33.873  1.00  0.00    -0.206 F 
ATOM     75  C   UNL A   1      41.103  33.010  36.445  1.00  0.00     0.022 A 
BRANCH  72  76
ATOM     76  S   UNL A   1      38.610  32.022  37.215  1.00  0.00     0.124 S 
ATOM     77  O   UNL A   1      37.942  33.108  36.507  1.00  0.00    -0.237 OA
ATOM     78  O   UNL A   1      38.071  30.687  37.002  1.00  0.00    -0.237 OA
ATOM     79  O   UNL A   1      38.986  32.330  38.599  1.00  0.00    -0.744 OA
ENDBRANCH  72  76
ENDBRANCH  55  69
BRANCH  56  80
ATOM     80  C   UNL A   1      42.555  24.207  27.202  1.00  0.00     0.023 A 
ATOM     81  C   UNL A   1      42.081  22.887  27.262  1.00  0.00     0.031 A 
ATOM     82  C   UNL A   1      43.239  24.610  26.040  1.00  0.00     0.131 A 
ATOM     83  C   UNL A   1      42.329  22.005  26.197  1.00  0.00     0.055 A 
ATOM     84  C   UNL A   1      43.438  23.744  24.963  1.00  0.00     0.041 A 
ATOM     85  F   UNL A   1      43.706  25.863  25.928  1.00  0.00    -0.206 F 
ATOM     86  C   UNL A   1      42.991  22.429  25.043  1.00  0.00     0.022 A 
BRANCH  83  87
ATOM     87  S   UNL A   1      41.830  20.270  26.372  1.00  0.00     0.124 S 
ATOM     88  O   UNL A   1      42.652  19.620  25.357  1.00  0.00    -0.237 OA
ATOM     89  O   UNL A   1      42.184  19.991  27.759  1.00  0.00    -0.237 OA
ATOM     90  O   UNL A   1      40.397  20.298  26.090  1.00  0.00    -0.744 OA
ENDBRANCH  83  87
ENDBRANCH  56  80
BRANCH  68  91
ATOM     91  C   UNL A   1      46.256  25.633  32.946  1.00  0.00     0.023 A 
ATOM     92  C   UNL A   1      46.193  24.529  33.813  1.00  0.00     0.031 A 
ATOM     93  C   UNL A   1      47.521  26.160  32.637  1.00  0.00     0.131 A 
ATOM     94  C   UNL A   1      47.369  24.022  34.384  1.00  0.00     0.055 A 
ATOM     95  C   UNL A   1      48.694  25.614  33.160  1.00  0.00     0.041 A 
ATOM     96  F   UNL A   1      47.640  27.217  31.816  1.00  0.00    -0.206 F 
ATOM     97  C   UNL A   1      48.620  24.546  34.050  1.00  0.00     0.022 A 
BRANCH  94  98
ATOM     98  S   UNL A   1      47.237  22.722  35.643  1.00  0.00     0.124 S 
ATOM     99  O   UNL A   1      45.793  22.536  35.736  1.00  0.00    -0.237 OA
ATOM    100  O   UNL A   1      47.984  21.624  35.038  1.00  0.00    -0.237 OA
ATOM    101  O   UNL A   1      47.861  23.321  36.821  1.00  0.00    -0.744 OA
ENDBRANCH  94  98
ENDBRANCH  68  91
ENDBRANCH  42  43
ENDBRANCH  34  37
ENDBRANCH  32  33
ENDBRANCH  31  32
ENDBRANCH   1  31
TORSDOF 18
ENDMDL
MODEL 3
REMARK VINA RESULT:     -12.8      2.860      7.701
REMARK SMILES O=C(NCCCCCCNC(=O)c1ccc(-c2c3nc(c(-c4cc(S(=O)(=O)[O-])ccc4F)c4ccc([nH]4)c(-c4cc(S(=O)(=O)[O-])ccc4F)c4nc(c(-c5cc(S(=O)(=O)[O-])ccc5F)c5ccc2[nH]5)C=C4)C=C3)cc1)C1=Cc2cc(Cl)cc(-c3ccc(Cl)cc3)c2O[C@@H]1C(F)(F)F
REMARK SMILES IDX 7 1 6 2 5 3 4 4 3 5 1 6 2 7 76 9 77 10 93 11 78 12 92 13
REMARK SMILES IDX 79 14 91 15 80 16 83 17 81 18 82 19 94 20 95 21 96 22 97 23
REMARK SMILES IDX 84 24 85 25 90 26 86 27 89 28 87 29 88 30 8 31 9 32 10 33
REMARK SMILES IDX 11 34 12 36 13 37 14 38 75 39 15 40 74 41 16 42 17 43 18 44
REMARK SMILES IDX 68 45 19 46 73 47 67 48 69 49 20 50 72 51 66 52 65 53 21 55
REMARK SMILES IDX 53 56 33 57 52 58 34 59 37 60 51 61 70 62 35 63 36 64 50 66
REMARK SMILES IDX 71 67 38 68 22 69 23 70 31 71 24 72 30 73 32 74 29 75 25 76
REMARK SMILES IDX 26 77 27 78 28 79 54 80 55 81 63 82 56 83 62 84 64 85 61 86
REMARK SMILES IDX 57 87 58 88 59 89 60 90 39 91 40 92 48 93 41 94 47 95 49 96
REMARK SMILES IDX 46 97 42 98 43 99 44 100 45 101
REMARK H PARENT 3 8 10 35 69 54 37 65
REMARK Flexibility Score: inf
ROOT
ATOM      1  C   UNL A   1      31.738  29.309  24.551  1.00  0.00     0.002 C 
ENDROOT
BRANCH   1   2
ATOM      2  C   UNL A   1      30.745  28.274  24.008  1.00  0.00     0.002 C 
BRANCH   2   3
ATOM      3  C   UNL A   1      30.530  27.012  24.849  1.00  0.00     0.021 C 
BRANCH   3   4
ATOM      4  C   UNL A   1      31.113  27.021  26.266  1.00  0.00     0.116 C 
BRANCH   4   5
ATOM      5  N   UNL A   1      31.167  25.713  26.916  1.00  0.00    -0.352 N 
ATOM      6  O   UNL A   1      31.887  23.622  27.343  1.00  0.00    -0.270 OA
ATOM      7  C   UNL A   1      31.860  24.577  26.570  1.00  0.00     0.251 C 
ATOM      8  H   UNL A   1      30.621  25.635  27.733  1.00  0.00     0.163 HD
BRANCH   7   9
ATOM      9  C   UNL A   1      32.739  24.568  25.365  1.00  0.00     0.067 C 
ATOM     10  C   UNL A   1      34.019  24.960  25.342  1.00  0.00     0.025 C 
ATOM     11  C   UNL A   1      32.324  23.594  24.304  1.00  0.00     0.314 C 
ATOM     12  C   UNL A   1      34.961  23.851  25.116  1.00  0.00     0.019 A 
ATOM     13  O   UNL A   1      33.143  22.405  24.357  1.00  0.00    -0.475 OA
ATOM     14  C   UNL A   1      36.275  23.979  25.578  1.00  0.00     0.032 A 
ATOM     15  C   UNL A   1      34.454  22.579  24.758  1.00  0.00     0.135 A 
ATOM     16  C   UNL A   1      37.063  22.842  25.722  1.00  0.00     0.042 A 
ATOM     17  C   UNL A   1      35.226  21.418  24.959  1.00  0.00     0.026 A 
ATOM     18  Cl  UNL A   1      38.625  22.973  26.430  1.00  0.00    -0.084 Cl
ATOM     19  C   UNL A   1      36.548  21.581  25.421  1.00  0.00     0.033 A 
BRANCH  11  20
ATOM     20  C   UNL A   1      32.338  24.274  22.913  1.00  0.00     0.429 C 
ATOM     21  F   UNL A   1      32.964  25.475  22.953  1.00  0.00    -0.167 F 
ATOM     22  F   UNL A   1      33.000  23.521  21.995  1.00  0.00    -0.167 F 
ATOM     23  F   UNL A   1      31.097  24.491  22.412  1.00  0.00    -0.167 F 
ENDBRANCH  11  20
BRANCH  17  24
ATOM     24  C   UNL A   1      34.652  20.058  24.906  1.00  0.00    -0.015 A 
ATOM     25  C   UNL A   1      35.489  18.977  24.572  1.00  0.00     0.010 A 
ATOM     26  C   UNL A   1      33.310  19.777  25.181  1.00  0.00     0.010 A 
ATOM     27  C   UNL A   1      35.019  17.666  24.495  1.00  0.00     0.021 A 
ATOM     28  C   UNL A   1      32.824  18.463  25.099  1.00  0.00     0.021 A 
ATOM     29  C   UNL A   1      33.679  17.416  24.753  1.00  0.00     0.041 A 
ATOM     30  Cl  UNL A   1      33.079  15.808  24.643  1.00  0.00    -0.084 Cl
ENDBRANCH  17  24
ENDBRANCH   7   9
ENDBRANCH   4   5
ENDBRANCH   3   4
ENDBRANCH   2   3
ENDBRANCH   1   2
BRANCH   1  31
ATOM     31  C   UNL A   1      33.225  28.971  24.414  1.00  0.00     0.021 C 
BRANCH  31  32
ATOM     32  C   UNL A   1      34.046  29.018  25.694  1.00  0.00     0.116 C 
BRANCH  32  33
ATOM     33  N   UNL A   1      33.890  30.289  26.383  1.00  0.00    -0.352 N 
ATOM     34  C   UNL A   1      34.531  30.804  27.485  1.00  0.00     0.251 C 
ATOM     35  H   UNL A   1      33.208  30.882  25.993  1.00  0.00     0.163 HD
ATOM     36  O   UNL A   1      34.034  31.779  28.045  1.00  0.00    -0.269 OA
BRANCH  34  37
ATOM     37  C   UNL A   1      35.787  30.212  28.011  1.00  0.00     0.039 A 
ATOM     38  C   UNL A   1      35.771  29.614  29.278  1.00  0.00     0.014 A 
ATOM     39  C   UNL A   1      36.996  30.300  27.317  1.00  0.00     0.014 A 
ATOM     40  C   UNL A   1      36.945  29.077  29.821  1.00  0.00     0.010 A 
ATOM     41  C   UNL A   1      38.142  29.679  27.814  1.00  0.00     0.010 A 
ATOM     42  C   UNL A   1      38.138  29.081  29.082  1.00  0.00    -0.014 A 
BRANCH  42  43
ATOM     43  C   UNL A   1      39.402  28.517  29.632  1.00  0.00     0.031 A 
ATOM     44  C   UNL A   1      40.032  29.136  30.854  1.00  0.00     0.074 A 
ATOM     45  C   UNL A   1      40.016  27.495  29.003  1.00  0.00     0.049 A 
ATOM     46  N   UNL A   1      41.183  28.876  31.420  1.00  0.00    -0.248 NA
ATOM     47  C   UNL A   1      39.281  30.225  31.498  1.00  0.00     0.031 C 
ATOM     48  C   UNL A   1      39.529  26.837  27.789  1.00  0.00     0.029 A 
ATOM     49  N   UNL A   1      41.189  26.842  29.287  1.00  0.00    -0.354 N 
ATOM     50  C   UNL A   1      41.303  29.781  32.472  1.00  0.00     0.074 A 
ATOM     51  C   UNL A   1      40.142  30.642  32.413  1.00  0.00     0.031 C 
ATOM     52  C   UNL A   1      40.386  25.864  27.443  1.00  0.00     0.029 A 
ATOM     53  C   UNL A   1      41.507  25.857  28.379  1.00  0.00     0.049 A 
ATOM     54  H   UNL A   1      41.750  27.057  30.066  1.00  0.00     0.167 HD
ATOM     55  C   UNL A   1      42.273  29.865  33.417  1.00  0.00     0.034 A 
ATOM     56  C   UNL A   1      42.585  25.053  28.298  1.00  0.00     0.034 A 
ATOM     57  C   UNL A   1      43.415  28.985  33.471  1.00  0.00     0.049 A 
ATOM     58  C   UNL A   1      43.658  25.167  29.350  1.00  0.00     0.074 A 
ATOM     59  C   UNL A   1      44.437  28.948  34.404  1.00  0.00     0.029 A 
ATOM     60  N   UNL A   1      43.689  27.984  32.546  1.00  0.00    -0.354 N 
ATOM     61  N   UNL A   1      43.738  26.002  30.361  1.00  0.00    -0.248 NA
ATOM     62  C   UNL A   1      44.778  24.223  29.260  1.00  0.00     0.031 C 
ATOM     63  C   UNL A   1      45.357  27.971  34.011  1.00  0.00     0.029 A 
ATOM     64  C   UNL A   1      44.874  27.342  32.874  1.00  0.00     0.049 A 
ATOM     65  H   UNL A   1      43.125  27.763  31.771  1.00  0.00     0.167 HD
ATOM     66  C   UNL A   1      44.905  25.665  31.041  1.00  0.00     0.074 A 
ATOM     67  C   UNL A   1      45.484  24.540  30.334  1.00  0.00     0.031 C 
ATOM     68  C   UNL A   1      45.447  26.231  32.150  1.00  0.00     0.034 A 
BRANCH  55  69
ATOM     69  C   UNL A   1      42.138  30.963  34.451  1.00  0.00     0.023 A 
ATOM     70  C   UNL A   1      42.699  32.238  34.249  1.00  0.00     0.031 A 
ATOM     71  C   UNL A   1      41.488  30.723  35.674  1.00  0.00     0.131 A 
ATOM     72  C   UNL A   1      42.688  33.183  35.285  1.00  0.00     0.055 A 
ATOM     73  C   UNL A   1      41.398  31.702  36.667  1.00  0.00     0.041 A 
ATOM     74  F   UNL A   1      40.948  29.522  35.938  1.00  0.00    -0.206 F 
ATOM     75  C   UNL A   1      42.018  32.934  36.484  1.00  0.00     0.022 A 
BRANCH  72  76
ATOM     76  S   UNL A   1      43.713  34.668  35.105  1.00  0.00     0.124 S 
ATOM     77  O   UNL A   1      43.365  35.416  36.308  1.00  0.00    -0.237 OA
ATOM     78  O   UNL A   1      45.061  34.120  35.057  1.00  0.00    -0.237 OA
ATOM     79  O   UNL A   1      43.235  35.263  33.852  1.00  0.00    -0.744 OA
ENDBRANCH  72  76
ENDBRANCH  55  69
BRANCH  56  80
ATOM     80  C   UNL A   1      42.711  24.080  27.176  1.00  0.00     0.023 A 
ATOM     81  C   UNL A   1      42.139  22.801  27.254  1.00  0.00     0.031 A 
ATOM     82  C   UNL A   1      43.427  24.412  26.011  1.00  0.00     0.131 A 
ATOM     83  C   UNL A   1      42.323  21.886  26.205  1.00  0.00     0.055 A 
ATOM     84  C   UNL A   1      43.565  23.516  24.949  1.00  0.00     0.041 A 
ATOM     85  F   UNL A   1      43.988  25.624  25.881  1.00  0.00    -0.206 F 
ATOM     86  C   UNL A   1      43.019  22.240  25.047  1.00  0.00     0.022 A 
BRANCH  83  87
ATOM     87  S   UNL A   1      41.694  20.196  26.404  1.00  0.00     0.124 S 
ATOM     88  O   UNL A   1      40.257  20.394  26.253  1.00  0.00    -0.237 OA
ATOM     89  O   UNL A   1      42.364  19.493  25.316  1.00  0.00    -0.237 OA
ATOM     90  O   UNL A   1      42.135  19.826  27.747  1.00  0.00    -0.744 OA
ENDBRANCH  83  87
ENDBRANCH  56  80
BRANCH  68  91
ATOM     91  C   UNL A   1      46.714  25.609  32.686  1.00  0.00     0.023 A 
ATOM     92  C   UNL A   1      47.978  25.940  32.169  1.00  0.00     0.031 A 
ATOM     93  C   UNL A   1      46.651  24.663  33.723  1.00  0.00     0.131 A 
ATOM     94  C   UNL A   1      49.123  25.290  32.651  1.00  0.00     0.055 A 
ATOM     95  C   UNL A   1      47.798  24.063  34.242  1.00  0.00     0.041 A 
ATOM     96  F   UNL A   1      45.469  24.306  34.253  1.00  0.00    -0.206 F 
ATOM     97  C   UNL A   1      49.043  24.366  33.697  1.00  0.00     0.022 A 
BRANCH  94  98
ATOM     98  S   UNL A   1      50.712  25.599  31.834  1.00  0.00     0.124 S 
ATOM     99  O   UNL A   1      51.314  26.598  32.711  1.00  0.00    -0.237 OA
ATOM    100  O   UNL A   1      51.334  24.280  31.849  1.00  0.00    -0.237 OA
ATOM    101  O   UNL A   1      50.328  26.087  30.511  1.00  0.00    -0.744 OA
ENDBRANCH  94  98
ENDBRANCH  68  91
ENDBRANCH  42  43
ENDBRANCH  34  37
ENDBRANCH  32  33
ENDBRANCH  31  32
ENDBRANCH   1  31
TORSDOF 18
ENDMDL
