MODEL 1
REMARK VINA RESULT:     -12.3      0.000      0.000
REMARK SMILES O=C(C[C@H]1C(=O)N[NH+]=C2c3ccc(F)cc3N=CN21)NCCCCCCNC(=O)c1ccc(-c2c3nc(c(-c4cc(S(=O)(=O)[O-])ccc4F)c4ccc([nH]4)c(-c4cc(S(=O)(=O)[O-])ccc4F)c4nc(c(-c5cc(S(=O)(=O)[O-])ccc5F)c5ccc2[nH]5)C=C4)C=C3)cc1
REMARK SMILES IDX 24 1 23 2 22 3 21 4 20 5 1 6 2 7 3 9 4 10 5 11 19 12 6 13
REMARK SMILES IDX 7 14 9 15 18 16 8 17 10 19 17 20 11 22 16 23 12 24 15 25
REMARK SMILES IDX 13 26 14 27 25 28 26 29 27 30 28 31 29 33 30 34 31 35 92 36
REMARK SMILES IDX 32 37 91 38 33 39 34 40 35 41 85 42 36 43 90 44 84 45 86 46
REMARK SMILES IDX 37 47 89 48 83 49 82 50 38 52 70 53 50 54 69 55 51 56 54 57
REMARK SMILES IDX 68 58 87 59 52 60 53 61 67 63 88 64 55 65 39 66 40 67 48 68
REMARK SMILES IDX 41 69 47 70 49 71 46 72 42 73 43 74 44 75 45 76 71 77 72 78
REMARK SMILES IDX 80 79 73 80 79 81 81 82 78 83 74 84 75 85 76 86 77 87 56 88
REMARK SMILES IDX 57 89 65 90 58 91 64 92 66 93 63 94 59 95 60 96 61 97 62 98
REMARK H PARENT 20 8 7 18 8 21 27 32 86 51 54 62
REMARK Flexibility Score: inf
ROOT
ATOM      1  C   UNL A   1      31.594  30.733  26.203  1.00  0.00     0.002 C 
ENDROOT
BRANCH   1   2
ATOM      2  C   UNL A   1      32.910  29.983  26.428  1.00  0.00     0.002 C 
BRANCH   2   3
ATOM      3  C   UNL A   1      32.841  28.779  27.376  1.00  0.00     0.021 C 
BRANCH   3   4
ATOM      4  C   UNL A   1      31.454  28.150  27.529  1.00  0.00     0.116 C 
BRANCH   4   5
ATOM      5  N   UNL A   1      31.364  26.836  26.926  1.00  0.00    -0.356 N 
ATOM      6  O   UNL A   1      30.452  27.586  24.967  1.00  0.00    -0.275 OA
ATOM      7  C   UNL A   1      30.858  26.663  25.662  1.00  0.00     0.224 C 
ATOM      8  H   UNL A   1      31.672  26.051  27.435  1.00  0.00     0.163 HD
BRANCH   7   9
ATOM      9  C   UNL A   1      30.791  25.223  25.209  1.00  0.00     0.160 C 
BRANCH   9  10
ATOM     10  C   UNL A   1      31.538  24.270  26.141  1.00  0.00     0.284 C 
ATOM     11  C   UNL A   1      30.599  23.188  26.654  1.00  0.00     0.300 C 
ATOM     12  N   UNL A   1      32.781  23.735  25.561  1.00  0.00    -0.203 N 
ATOM     13  O   UNL A   1      29.666  23.449  27.414  1.00  0.00    -0.267 OA
ATOM     14  N   UNL A   1      30.824  21.914  26.204  1.00  0.00    -0.193 N 
ATOM     15  C   UNL A   1      32.906  22.360  25.420  1.00  0.00     0.309 C 
ATOM     16  C   UNL A   1      33.852  24.575  25.346  1.00  0.00     0.317 C 
ATOM     17  N   UNL A   1      31.984  21.476  25.653  1.00  0.00    -0.169 N 
ATOM     18  H   UNL A   1      30.087  21.267  26.287  1.00  0.00     0.216 HD
ATOM     19  C   UNL A   1      34.275  21.867  25.073  1.00  0.00     0.092 A 
ATOM     20  N   UNL A   1      35.064  24.219  25.072  1.00  0.00    -0.216 NA
ATOM     21  H   UNL A   1      32.121  20.525  25.440  1.00  0.00     0.340 HD
ATOM     22  C   UNL A   1      34.559  20.496  25.015  1.00  0.00     0.022 A 
ATOM     23  C   UNL A   1      35.303  22.828  25.006  1.00  0.00     0.085 A 
ATOM     24  C   UNL A   1      35.885  20.074  24.954  1.00  0.00     0.040 A 
ATOM     25  C   UNL A   1      36.626  22.385  24.942  1.00  0.00     0.068 A 
ATOM     26  C   UNL A   1      36.904  21.021  24.940  1.00  0.00     0.125 A 
ATOM     27  F   UNL A   1      38.180  20.611  24.955  1.00  0.00    -0.207 F 
ENDBRANCH   9  10
ENDBRANCH   7   9
ENDBRANCH   4   5
ENDBRANCH   3   4
ENDBRANCH   2   3
ENDBRANCH   1   2
BRANCH   1  28
ATOM     28  C   UNL A   1      31.458  32.062  26.946  1.00  0.00     0.021 C 
BRANCH  28  29
ATOM     29  C   UNL A   1      32.665  32.988  26.850  1.00  0.00     0.116 C 
BRANCH  29  30
ATOM     30  N   UNL A   1      32.562  34.149  27.721  1.00  0.00    -0.352 N 
ATOM     31  C   UNL A   1      33.345  34.501  28.797  1.00  0.00     0.251 C 
ATOM     32  H   UNL A   1      31.828  34.771  27.511  1.00  0.00     0.163 HD
ATOM     33  O   UNL A   1      33.025  35.452  29.505  1.00  0.00    -0.269 OA
BRANCH  31  34
ATOM     34  C   UNL A   1      34.547  33.698  29.120  1.00  0.00     0.039 A 
ATOM     35  C   UNL A   1      34.422  32.433  29.698  1.00  0.00     0.014 A 
ATOM     36  C   UNL A   1      35.814  34.241  28.886  1.00  0.00     0.014 A 
ATOM     37  C   UNL A   1      35.548  31.796  30.209  1.00  0.00     0.010 A 
ATOM     38  C   UNL A   1      36.952  33.558  29.326  1.00  0.00     0.010 A 
ATOM     39  C   UNL A   1      36.825  32.358  30.044  1.00  0.00    -0.014 A 
BRANCH  39  40
ATOM     40  C   UNL A   1      38.008  31.681  30.640  1.00  0.00     0.031 A 
ATOM     41  C   UNL A   1      38.457  32.006  32.041  1.00  0.00     0.074 A 
ATOM     42  C   UNL A   1      38.650  30.731  29.933  1.00  0.00     0.049 A 
ATOM     43  N   UNL A   1      39.448  31.495  32.725  1.00  0.00    -0.248 NA
ATOM     44  C   UNL A   1      37.698  33.035  32.768  1.00  0.00     0.031 C 
ATOM     45  C   UNL A   1      38.296  30.326  28.571  1.00  0.00     0.029 A 
ATOM     46  N   UNL A   1      39.711  29.922  30.256  1.00  0.00    -0.354 N 
ATOM     47  C   UNL A   1      39.442  32.146  33.955  1.00  0.00     0.074 A 
ATOM     48  C   UNL A   1      38.370  33.116  33.909  1.00  0.00     0.031 C 
ATOM     49  C   UNL A   1      39.090  29.314  28.196  1.00  0.00     0.029 A 
ATOM     50  C   UNL A   1      40.057  29.043  29.256  1.00  0.00     0.049 A 
ATOM     51  H   UNL A   1      40.179  29.967  31.122  1.00  0.00     0.167 HD
ATOM     52  C   UNL A   1      40.243  31.940  35.026  1.00  0.00     0.034 A 
ATOM     53  C   UNL A   1      41.049  28.130  29.189  1.00  0.00     0.034 A 
ATOM     54  C   UNL A   1      41.296  30.955  35.065  1.00  0.00     0.049 A 
ATOM     55  C   UNL A   1      41.955  27.949  30.379  1.00  0.00     0.074 A 
ATOM     56  C   UNL A   1      42.142  30.653  36.118  1.00  0.00     0.029 A 
ATOM     57  N   UNL A   1      41.645  30.115  34.018  1.00  0.00    -0.354 N 
ATOM     58  N   UNL A   1      41.907  28.544  31.548  1.00  0.00    -0.248 NA
ATOM     59  C   UNL A   1      43.050  26.979  30.247  1.00  0.00     0.031 C 
ATOM     60  C   UNL A   1      43.039  29.673  35.690  1.00  0.00     0.029 A 
ATOM     61  C   UNL A   1      42.713  29.314  34.391  1.00  0.00     0.049 A 
ATOM     62  H   UNL A   1      41.200  30.090  33.141  1.00  0.00     0.167 HD
ATOM     63  C   UNL A   1      42.955  28.014  32.293  1.00  0.00     0.074 A 
ATOM     64  C   UNL A   1      43.601  27.026  31.453  1.00  0.00     0.031 C 
ATOM     65  C   UNL A   1      43.349  28.324  33.554  1.00  0.00     0.034 A 
BRANCH  52  66
ATOM     66  C   UNL A   1      40.025  32.771  36.267  1.00  0.00     0.023 A 
ATOM     67  C   UNL A   1      39.127  32.335  37.260  1.00  0.00     0.031 A 
ATOM     68  C   UNL A   1      40.598  34.048  36.402  1.00  0.00     0.131 A 
ATOM     69  C   UNL A   1      38.804  33.183  38.327  1.00  0.00     0.055 A 
ATOM     70  C   UNL A   1      40.301  34.875  37.487  1.00  0.00     0.041 A 
ATOM     71  F   UNL A   1      41.461  34.509  35.482  1.00  0.00    -0.206 F 
ATOM     72  C   UNL A   1      39.390  34.447  38.449  1.00  0.00     0.022 A 
BRANCH  69  73
ATOM     73  S   UNL A   1      37.566  32.708  39.566  1.00  0.00     0.124 S 
ATOM     74  O   UNL A   1      37.530  33.891  40.421  1.00  0.00    -0.237 OA
ATOM     75  O   UNL A   1      36.379  32.495  38.744  1.00  0.00    -0.237 OA
ATOM     76  O   UNL A   1      38.130  31.512  40.184  1.00  0.00    -0.744 OA
ENDBRANCH  69  73
ENDBRANCH  52  66
BRANCH  53  77
ATOM     77  C   UNL A   1      41.187  27.305  27.954  1.00  0.00     0.023 A 
ATOM     78  C   UNL A   1      40.843  25.940  27.956  1.00  0.00     0.031 A 
ATOM     79  C   UNL A   1      41.779  27.834  26.796  1.00  0.00     0.131 A 
ATOM     80  C   UNL A   1      41.171  25.135  26.858  1.00  0.00     0.055 A 
ATOM     81  C   UNL A   1      42.035  27.045  25.673  1.00  0.00     0.041 A 
ATOM     82  F   UNL A   1      42.135  29.128  26.750  1.00  0.00    -0.206 F 
ATOM     83  C   UNL A   1      41.750  25.682  25.709  1.00  0.00     0.022 A 
BRANCH  80  84
ATOM     84  S   UNL A   1      40.999  23.331  26.945  1.00  0.00     0.124 S 
ATOM     85  O   UNL A   1      41.495  23.042  28.286  1.00  0.00    -0.237 OA
ATOM     86  O   UNL A   1      39.562  23.159  26.752  1.00  0.00    -0.237 OA
ATOM     87  O   UNL A   1      41.833  22.853  25.845  1.00  0.00    -0.744 OA
ENDBRANCH  80  84
ENDBRANCH  53  77
BRANCH  65  88
ATOM     88  C   UNL A   1      44.544  27.609  34.135  1.00  0.00     0.023 A 
ATOM     89  C   UNL A   1      44.362  26.463  34.931  1.00  0.00     0.031 A 
ATOM     90  C   UNL A   1      45.836  28.152  34.033  1.00  0.00     0.131 A 
ATOM     91  C   UNL A   1      45.447  25.924  35.634  1.00  0.00     0.055 A 
ATOM     92  C   UNL A   1      46.924  27.584  34.698  1.00  0.00     0.041 A 
ATOM     93  F   UNL A   1      46.058  29.250  33.292  1.00  0.00    -0.206 F 
ATOM     94  C   UNL A   1      46.728  26.474  35.516  1.00  0.00     0.022 A 
BRANCH  91  95
ATOM     95  S   UNL A   1      45.221  24.548  36.795  1.00  0.00     0.124 S 
ATOM     96  O   UNL A   1      46.434  24.636  37.607  1.00  0.00    -0.237 OA
ATOM     97  O   UNL A   1      43.986  24.922  37.478  1.00  0.00    -0.237 OA
ATOM     98  O   UNL A   1      45.132  23.373  35.936  1.00  0.00    -0.744 OA
ENDBRANCH  91  95
ENDBRANCH  65  88
ENDBRANCH  39  40
ENDBRANCH  31  34
ENDBRANCH  29  30
ENDBRANCH  28  29
ENDBRANCH   1  28
TORSDOF 17
ENDMDL
MODEL 2
REMARK VINA RESULT:     -12.1      0.255      7.382
REMARK SMILES O=C(C[C@H]1C(=O)N[NH+]=C2c3ccc(F)cc3N=CN21)NCCCCCCNC(=O)c1ccc(-c2c3nc(c(-c4cc(S(=O)(=O)[O-])ccc4F)c4ccc([nH]4)c(-c4cc(S(=O)(=O)[O-])ccc4F)c4nc(c(-c5cc(S(=O)(=O)[O-])ccc5F)c5ccc2[nH]5)C=C4)C=C3)cc1
REMARK SMILES IDX 24 1 23 2 22 3 21 4 20 5 1 6 2 7 3 9 4 10 5 11 19 12 6 13
REMARK SMILES IDX 7 14 9 15 18 16 8 17 10 19 17 20 11 22 16 23 12 24 15 25
REMARK SMILES IDX 13 26 14 27 25 28 26 29 27 30 28 31 29 33 30 34 31 35 92 36
REMARK SMILES IDX 32 37 91 38 33 39 34 40 35 41 85 42 36 43 90 44 84 45 86 46
REMARK SMILES IDX 37 47 89 48 83 49 82 50 38 52 70 53 50 54 69 55 51 56 54 57
REMARK SMILES IDX 68 58 87 59 52 60 53 61 67 63 88 64 55 65 39 66 40 67 48 68
REMARK SMILES IDX 41 69 47 70 49 71 46 72 42 73 43 74 44 75 45 76 71 77 72 78
REMARK SMILES IDX 80 79 73 80 79 81 81 82 78 83 74 84 75 85 76 86 77 87 56 88
REMARK SMILES IDX 57 89 65 90 58 91 64 92 66 93 63 94 59 95 60 96 61 97 62 98
REMARK H PARENT 20 8 7 18 8 21 27 32 86 51 54 62
REMARK Flexibility Score: inf
ROOT
ATOM      1  C   UNL A   1      31.780  30.900  26.502  1.00  0.00     0.002 C 
ENDROOT
BRANCH   1   2
ATOM      2  C   UNL A   1      32.973  30.225  27.185  1.00  0.00     0.002 C 
BRANCH   2   3
ATOM      3  C   UNL A   1      32.870  28.705  27.365  1.00  0.00     0.021 C 
BRANCH   3   4
ATOM      4  C   UNL A   1      31.450  28.167  27.555  1.00  0.00     0.116 C 
BRANCH   4   5
ATOM      5  N   UNL A   1      31.275  26.837  27.007  1.00  0.00    -0.356 N 
ATOM      6  O   UNL A   1      30.695  27.566  24.917  1.00  0.00    -0.275 OA
ATOM      7  C   UNL A   1      30.904  26.646  25.699  1.00  0.00     0.224 C 
ATOM      8  H   UNL A   1      31.427  26.055  27.586  1.00  0.00     0.163 HD
BRANCH   7   9
ATOM      9  C   UNL A   1      30.720  25.198  25.309  1.00  0.00     0.160 C 
BRANCH   9  10
ATOM     10  C   UNL A   1      31.482  24.234  26.219  1.00  0.00     0.284 C 
ATOM     11  C   UNL A   1      30.559  23.125  26.703  1.00  0.00     0.300 C 
ATOM     12  N   UNL A   1      32.735  23.735  25.629  1.00  0.00    -0.203 N 
ATOM     13  O   UNL A   1      29.622  23.352  27.468  1.00  0.00    -0.267 OA
ATOM     14  N   UNL A   1      30.806  21.866  26.222  1.00  0.00    -0.193 N 
ATOM     15  C   UNL A   1      32.882  22.366  25.453  1.00  0.00     0.309 C 
ATOM     16  C   UNL A   1      33.791  24.597  25.436  1.00  0.00     0.317 C 
ATOM     17  N   UNL A   1      31.974  21.461  25.662  1.00  0.00    -0.169 N 
ATOM     18  H   UNL A   1      30.080  21.205  26.287  1.00  0.00     0.216 HD
ATOM     19  C   UNL A   1      34.259  21.904  25.097  1.00  0.00     0.092 A 
ATOM     20  N   UNL A   1      35.010  24.269  25.155  1.00  0.00    -0.216 NA
ATOM     21  H   UNL A   1      32.127  20.518  25.426  1.00  0.00     0.340 HD
ATOM     22  C   UNL A   1      34.566  20.540  25.005  1.00  0.00     0.022 A 
ATOM     23  C   UNL A   1      35.272  22.884  25.056  1.00  0.00     0.085 A 
ATOM     24  C   UNL A   1      35.899  20.142  24.937  1.00  0.00     0.040 A 
ATOM     25  C   UNL A   1      36.601  22.464  24.983  1.00  0.00     0.068 A 
ATOM     26  C   UNL A   1      36.903  21.106  24.948  1.00  0.00     0.125 A 
ATOM     27  F   UNL A   1      38.184  20.716  24.955  1.00  0.00    -0.207 F 
ENDBRANCH   9  10
ENDBRANCH   7   9
ENDBRANCH   4   5
ENDBRANCH   3   4
ENDBRANCH   2   3
ENDBRANCH   1   2
BRANCH   1  28
ATOM     28  C   UNL A   1      31.517  32.348  26.913  1.00  0.00     0.021 C 
BRANCH  28  29
ATOM     29  C   UNL A   1      32.736  33.264  26.881  1.00  0.00     0.116 C 
BRANCH  29  30
ATOM     30  N   UNL A   1      32.625  34.389  27.797  1.00  0.00    -0.352 N 
ATOM     31  C   UNL A   1      33.352  34.658  28.935  1.00  0.00     0.251 C 
ATOM     32  H   UNL A   1      31.932  35.051  27.572  1.00  0.00     0.163 HD
ATOM     33  O   UNL A   1      33.026  35.590  29.666  1.00  0.00    -0.269 OA
BRANCH  31  34
ATOM     34  C   UNL A   1      34.496  33.790  29.295  1.00  0.00     0.039 A 
ATOM     35  C   UNL A   1      34.290  32.588  29.976  1.00  0.00     0.014 A 
ATOM     36  C   UNL A   1      35.794  34.209  28.988  1.00  0.00     0.014 A 
ATOM     37  C   UNL A   1      35.377  31.905  30.511  1.00  0.00     0.010 A 
ATOM     38  C   UNL A   1      36.887  33.473  29.456  1.00  0.00     0.010 A 
ATOM     39  C   UNL A   1      36.689  32.348  30.271  1.00  0.00    -0.014 A 
BRANCH  39  40
ATOM     40  C   UNL A   1      37.833  31.628  30.892  1.00  0.00     0.031 A 
ATOM     41  C   UNL A   1      38.601  30.588  30.118  1.00  0.00     0.074 A 
ATOM     42  C   UNL A   1      38.213  31.950  32.143  1.00  0.00     0.049 A 
ATOM     43  N   UNL A   1      39.637  29.884  30.493  1.00  0.00    -0.248 NA
ATOM     44  C   UNL A   1      38.149  30.301  28.747  1.00  0.00     0.031 C 
ATOM     45  C   UNL A   1      37.550  32.949  32.983  1.00  0.00     0.029 A 
ATOM     46  N   UNL A   1      39.249  31.496  32.920  1.00  0.00    -0.354 N 
ATOM     47  C   UNL A   1      39.955  29.063  29.416  1.00  0.00     0.074 A 
ATOM     48  C   UNL A   1      38.977  29.330  28.384  1.00  0.00     0.031 C 
ATOM     49  C   UNL A   1      38.224  33.068  34.135  1.00  0.00     0.029 A 
ATOM     50  C   UNL A   1      39.323  32.107  34.150  1.00  0.00     0.049 A 
ATOM     51  H   UNL A   1      39.881  30.800  32.624  1.00  0.00     0.167 HD
ATOM     52  C   UNL A   1      40.976  28.183  29.294  1.00  0.00     0.034 A 
ATOM     53  C   UNL A   1      40.168  31.909  35.184  1.00  0.00     0.034 A 
ATOM     54  C   UNL A   1      41.956  27.941  30.324  1.00  0.00     0.049 A 
ATOM     55  C   UNL A   1      41.271  30.893  35.040  1.00  0.00     0.074 A 
ATOM     56  C   UNL A   1      43.046  27.089  30.280  1.00  0.00     0.029 A 
ATOM     57  N   UNL A   1      41.971  28.545  31.572  1.00  0.00    -0.354 N 
ATOM     58  N   UNL A   1      41.581  30.157  33.998  1.00  0.00    -0.248 NA
ATOM     59  C   UNL A   1      42.139  30.675  36.205  1.00  0.00     0.031 C 
ATOM     60  C   UNL A   1      43.685  27.134  31.520  1.00  0.00     0.029 A 
ATOM     61  C   UNL A   1      43.036  28.063  32.318  1.00  0.00     0.049 A 
ATOM     62  H   UNL A   1      41.323  29.217  31.883  1.00  0.00     0.167 HD
ATOM     63  C   UNL A   1      42.683  29.399  34.377  1.00  0.00     0.074 A 
ATOM     64  C   UNL A   1      43.007  29.788  35.735  1.00  0.00     0.031 C 
ATOM     65  C   UNL A   1      43.359  28.461  33.667  1.00  0.00     0.034 A 
BRANCH  52  66
ATOM     66  C   UNL A   1      41.122  27.414  28.003  1.00  0.00     0.023 A 
ATOM     67  C   UNL A   1      40.879  26.028  27.975  1.00  0.00     0.031 A 
ATOM     68  C   UNL A   1      41.628  28.024  26.841  1.00  0.00     0.131 A 
ATOM     69  C   UNL A   1      41.173  25.292  26.820  1.00  0.00     0.055 A 
ATOM     70  C   UNL A   1      41.885  27.293  25.681  1.00  0.00     0.041 A 
ATOM     71  F   UNL A   1      41.876  29.344  26.817  1.00  0.00    -0.206 F 
ATOM     72  C   UNL A   1      41.668  25.918  25.671  1.00  0.00     0.022 A 
BRANCH  69  73
ATOM     73  S   UNL A   1      40.983  23.489  26.779  1.00  0.00     0.124 S 
ATOM     74  O   UNL A   1      39.558  23.345  26.491  1.00  0.00    -0.237 OA
ATOM     75  O   UNL A   1      41.881  23.112  25.691  1.00  0.00    -0.237 OA
ATOM     76  O   UNL A   1      41.393  23.062  28.112  1.00  0.00    -0.744 OA
ENDBRANCH  69  73
ENDBRANCH  52  66
BRANCH  53  77
ATOM     77  C   UNL A   1      40.004  32.731  36.418  1.00  0.00     0.023 A 
ATOM     78  C   UNL A   1      39.159  32.306  37.461  1.00  0.00     0.031 A 
ATOM     79  C   UNL A   1      40.588  34.005  36.519  1.00  0.00     0.131 A 
ATOM     80  C   UNL A   1      38.856  33.179  38.513  1.00  0.00     0.055 A 
ATOM     81  C   UNL A   1      40.343  34.842  37.608  1.00  0.00     0.041 A 
ATOM     82  F   UNL A   1      41.392  34.458  35.545  1.00  0.00    -0.206 F 
ATOM     83  C   UNL A   1      39.455  34.438  38.603  1.00  0.00     0.022 A 
BRANCH  80  84
ATOM     84  S   UNL A   1      37.558  32.769  39.714  1.00  0.00     0.124 S 
ATOM     85  O   UNL A   1      36.371  32.699  38.868  1.00  0.00    -0.237 OA
ATOM     86  O   UNL A   1      38.033  31.493  40.242  1.00  0.00    -0.237 OA
ATOM     87  O   UNL A   1      37.599  33.883  40.657  1.00  0.00    -0.744 OA
ENDBRANCH  80  84
ENDBRANCH  53  77
BRANCH  65  88
ATOM     88  C   UNL A   1      44.524  27.759  34.322  1.00  0.00     0.023 A 
ATOM     89  C   UNL A   1      44.345  26.493  34.910  1.00  0.00     0.031 A 
ATOM     90  C   UNL A   1      45.756  28.410  34.503  1.00  0.00     0.131 A 
ATOM     91  C   UNL A   1      45.365  25.937  35.692  1.00  0.00     0.055 A 
ATOM     92  C   UNL A   1      46.788  27.832  35.245  1.00  0.00     0.041 A 
ATOM     93  F   UNL A   1      45.972  29.622  33.969  1.00  0.00    -0.206 F 
ATOM     94  C   UNL A   1      46.588  26.597  35.856  1.00  0.00     0.022 A 
BRANCH  91  95
ATOM     95  S   UNL A   1      45.113  24.385  36.596  1.00  0.00     0.124 S 
ATOM     96  O   UNL A   1      46.436  24.154  37.174  1.00  0.00    -0.237 OA
ATOM     97  O   UNL A   1      44.072  24.752  37.552  1.00  0.00    -0.237 OA
ATOM     98  O   UNL A   1      44.712  23.436  35.564  1.00  0.00    -0.744 OA
ENDBRANCH  91  95
ENDBRANCH  65  88
ENDBRANCH  39  40
ENDBRANCH  31  34
ENDBRANCH  29  30
ENDBRANCH  28  29
ENDBRANCH   1  28
TORSDOF 17
ENDMDL
MODEL 3
REMARK VINA RESULT:     -12.0      1.990      2.312
REMARK SMILES O=C(C[C@H]1C(=O)N[NH+]=C2c3ccc(F)cc3N=CN21)NCCCCCCNC(=O)c1ccc(-c2c3nc(c(-c4cc(S(=O)(=O)[O-])ccc4F)c4ccc([nH]4)c(-c4cc(S(=O)(=O)[O-])ccc4F)c4nc(c(-c5cc(S(=O)(=O)[O-])ccc5F)c5ccc2[nH]5)C=C4)C=C3)cc1
REMARK SMILES IDX 24 1 23 2 22 3 21 4 20 5 1 6 2 7 3 9 4 10 5 11 19 12 6 13
REMARK SMILES IDX 7 14 9 15 18 16 8 17 10 19 17 20 11 22 16 23 12 24 15 25
REMARK SMILES IDX 13 26 14 27 25 28 26 29 27 30 28 31 29 33 30 34 31 35 92 36
REMARK SMILES IDX 32 37 91 38 33 39 34 40 35 41 85 42 36 43 90 44 84 45 86 46
REMARK SMILES IDX 37 47 89 48 83 49 82 50 38 52 70 53 50 54 69 55 51 56 54 57
REMARK SMILES IDX 68 58 87 59 52 60 53 61 67 63 88 64 55 65 39 66 40 67 48 68
REMARK SMILES IDX 41 69 47 70 49 71 46 72 42 73 43 74 44 75 45 76 71 77 72 78
REMARK SMILES IDX 80 79 73 80 79 81 81 82 78 83 74 84 75 85 76 86 77 87 56 88
REMARK SMILES IDX 57 89 65 90 58 91 64 92 66 93 63 94 59 95 60 96 61 97 62 98
REMARK H PARENT 20 8 7 18 8 21 27 32 86 51 54 62
REMARK Flexibility Score: inf
ROOT
ATOM      1  C   UNL A   1      31.768  30.833  26.492  1.00  0.00     0.002 C 
ENDROOT
BRANCH   1   2
ATOM      2  C   UNL A   1      33.058  30.183  27.000  1.00  0.00     0.002 C 
BRANCH   2   3
ATOM      3  C   UNL A   1      32.945  28.714  27.429  1.00  0.00     0.021 C 
BRANCH   3   4
ATOM      4  C   UNL A   1      31.515  28.191  27.585  1.00  0.00     0.116 C 
BRANCH   4   5
ATOM      5  N   UNL A   1      31.333  26.875  27.007  1.00  0.00    -0.356 N 
ATOM      6  O   UNL A   1      30.661  27.656  24.964  1.00  0.00    -0.275 OA
ATOM      7  C   UNL A   1      30.911  26.717  25.710  1.00  0.00     0.224 C 
ATOM      8  H   UNL A   1      31.515  26.079  27.556  1.00  0.00     0.163 HD
BRANCH   7   9
ATOM      9  C   UNL A   1      30.727  25.278  25.286  1.00  0.00     0.160 C 
BRANCH   9  10
ATOM     10  C   UNL A   1      31.456  24.291  26.196  1.00  0.00     0.284 C 
ATOM     11  C   UNL A   1      30.496  23.216  26.685  1.00  0.00     0.300 C 
ATOM     12  N   UNL A   1      32.689  23.745  25.604  1.00  0.00    -0.203 N 
ATOM     13  O   UNL A   1      29.570  23.478  27.453  1.00  0.00    -0.267 OA
ATOM     14  N   UNL A   1      30.697  21.948  26.207  1.00  0.00    -0.193 N 
ATOM     15  C   UNL A   1      32.787  22.371  25.431  1.00  0.00     0.309 C 
ATOM     16  C   UNL A   1      33.775  24.569  25.406  1.00  0.00     0.317 C 
ATOM     17  N   UNL A   1      31.848  21.500  25.646  1.00  0.00    -0.169 N 
ATOM     18  H   UNL A   1      29.948  21.314  26.276  1.00  0.00     0.216 HD
ATOM     19  C   UNL A   1      34.145  21.861  25.072  1.00  0.00     0.092 A 
ATOM     20  N   UNL A   1      34.980  24.197  25.123  1.00  0.00    -0.216 NA
ATOM     21  H   UNL A   1      31.967  20.552  25.411  1.00  0.00     0.340 HD
ATOM     22  C   UNL A   1      34.403  20.486  24.984  1.00  0.00     0.022 A 
ATOM     23  C   UNL A   1      35.192  22.803  25.026  1.00  0.00     0.085 A 
ATOM     24  C   UNL A   1      35.721  20.040  24.913  1.00  0.00     0.040 A 
ATOM     25  C   UNL A   1      36.506  22.337  24.951  1.00  0.00     0.068 A 
ATOM     26  C   UNL A   1      36.758  20.968  24.918  1.00  0.00     0.125 A 
ATOM     27  F   UNL A   1      38.026  20.533  24.923  1.00  0.00    -0.207 F 
ENDBRANCH   9  10
ENDBRANCH   7   9
ENDBRANCH   4   5
ENDBRANCH   3   4
ENDBRANCH   2   3
ENDBRANCH   1   2
BRANCH   1  28
ATOM     28  C   UNL A   1      31.549  32.285  26.915  1.00  0.00     0.021 C 
BRANCH  28  29
ATOM     29  C   UNL A   1      32.821  33.101  27.118  1.00  0.00     0.116 C 
BRANCH  29  30
ATOM     30  N   UNL A   1      32.617  34.270  27.962  1.00  0.00    -0.352 N 
ATOM     31  C   UNL A   1      33.298  34.652  29.096  1.00  0.00     0.251 C 
ATOM     32  H   UNL A   1      31.890  34.871  27.682  1.00  0.00     0.163 HD
ATOM     33  O   UNL A   1      32.896  35.603  29.762  1.00  0.00    -0.269 OA
BRANCH  31  34
ATOM     34  C   UNL A   1      34.485  33.882  29.531  1.00  0.00     0.039 A 
ATOM     35  C   UNL A   1      34.339  32.729  30.306  1.00  0.00     0.014 A 
ATOM     36  C   UNL A   1      35.761  34.347  29.200  1.00  0.00     0.014 A 
ATOM     37  C   UNL A   1      35.457  32.154  30.902  1.00  0.00     0.010 A 
ATOM     38  C   UNL A   1      36.888  33.715  29.732  1.00  0.00     0.010 A 
ATOM     39  C   UNL A   1      36.745  32.650  30.634  1.00  0.00    -0.014 A 
BRANCH  39  40
ATOM     40  C   UNL A   1      37.920  32.048  31.319  1.00  0.00     0.031 A 
ATOM     41  C   UNL A   1      38.300  32.471  32.714  1.00  0.00     0.074 A 
ATOM     42  C   UNL A   1      38.618  31.077  30.699  1.00  0.00     0.049 A 
ATOM     43  N   UNL A   1      39.275  32.034  33.469  1.00  0.00    -0.248 NA
ATOM     44  C   UNL A   1      37.481  33.518  33.345  1.00  0.00     0.031 C 
ATOM     45  C   UNL A   1      38.335  30.580  29.352  1.00  0.00     0.029 A 
ATOM     46  N   UNL A   1      39.688  30.324  31.115  1.00  0.00    -0.354 N 
ATOM     47  C   UNL A   1      39.197  32.758  34.655  1.00  0.00     0.074 A 
ATOM     48  C   UNL A   1      38.101  33.689  34.505  1.00  0.00     0.031 C 
ATOM     49  C   UNL A   1      39.173  29.573  29.072  1.00  0.00     0.029 A 
ATOM     50  C   UNL A   1      40.102  29.397  30.186  1.00  0.00     0.049 A 
ATOM     51  H   UNL A   1      40.117  30.435  31.994  1.00  0.00     0.167 HD
ATOM     52  C   UNL A   1      39.958  32.642  35.769  1.00  0.00     0.034 A 
ATOM     53  C   UNL A   1      41.121  28.513  30.216  1.00  0.00     0.034 A 
ATOM     54  C   UNL A   1      41.036  31.695  35.911  1.00  0.00     0.049 A 
ATOM     55  C   UNL A   1      41.981  28.433  31.450  1.00  0.00     0.074 A 
ATOM     56  C   UNL A   1      41.845  31.483  37.014  1.00  0.00     0.029 A 
ATOM     57  N   UNL A   1      41.454  30.804  34.933  1.00  0.00    -0.354 N 
ATOM     58  N   UNL A   1      41.866  29.096  32.577  1.00  0.00    -0.248 NA
ATOM     59  C   UNL A   1      43.108  27.492  31.423  1.00  0.00     0.031 C 
ATOM     60  C   UNL A   1      42.787  30.508  36.685  1.00  0.00     0.029 A 
ATOM     61  C   UNL A   1      42.527  30.061  35.398  1.00  0.00     0.049 A 
ATOM     62  H   UNL A   1      41.048  30.712  34.041  1.00  0.00     0.167 HD
ATOM     63  C   UNL A   1      42.896  28.645  33.396  1.00  0.00     0.074 A 
ATOM     64  C   UNL A   1      43.606  27.629  32.646  1.00  0.00     0.031 C 
ATOM     65  C   UNL A   1      43.226  29.043  34.650  1.00  0.00     0.034 A 
BRANCH  52  66
ATOM     66  C   UNL A   1      39.663  33.539  36.946  1.00  0.00     0.023 A 
ATOM     67  C   UNL A   1      40.479  34.657  37.204  1.00  0.00     0.031 A 
ATOM     68  C   UNL A   1      38.664  33.214  37.881  1.00  0.00     0.131 A 
ATOM     69  C   UNL A   1      40.303  35.389  38.385  1.00  0.00     0.055 A 
ATOM     70  C   UNL A   1      38.468  33.969  39.038  1.00  0.00     0.041 A 
ATOM     71  F   UNL A   1      37.859  32.158  37.679  1.00  0.00    -0.206 F 
ATOM     72  C   UNL A   1      39.299  35.056  39.300  1.00  0.00     0.022 A 
BRANCH  69  73
ATOM     73  S   UNL A   1      41.406  36.764  38.813  1.00  0.00     0.124 S 
ATOM     74  O   UNL A   1      40.453  37.811  39.175  1.00  0.00    -0.237 OA
ATOM     75  O   UNL A   1      42.172  36.207  39.924  1.00  0.00    -0.237 OA
ATOM     76  O   UNL A   1      42.157  37.006  37.586  1.00  0.00    -0.744 OA
ENDBRANCH  69  73
ENDBRANCH  52  66
BRANCH  53  77
ATOM     77  C   UNL A   1      41.336  27.619  29.041  1.00  0.00     0.023 A 
ATOM     78  C   UNL A   1      42.363  27.882  28.113  1.00  0.00     0.031 A 
ATOM     79  C   UNL A   1      40.448  26.568  28.761  1.00  0.00     0.131 A 
ATOM     80  C   UNL A   1      42.421  27.161  26.914  1.00  0.00     0.055 A 
ATOM     81  C   UNL A   1      40.556  25.801  27.601  1.00  0.00     0.041 A 
ATOM     82  F   UNL A   1      39.447  26.286  29.611  1.00  0.00    -0.206 F 
ATOM     83  C   UNL A   1      41.535  26.111  26.659  1.00  0.00     0.022 A 
BRANCH  80  84
ATOM     84  S   UNL A   1      43.548  27.662  25.584  1.00  0.00     0.124 S 
ATOM     85  O   UNL A   1      42.661  27.686  24.426  1.00  0.00    -0.237 OA
ATOM     86  O   UNL A   1      44.005  28.967  26.056  1.00  0.00    -0.237 OA
ATOM     87  O   UNL A   1      44.564  26.615  25.581  1.00  0.00    -0.744 OA
ENDBRANCH  80  84
ENDBRANCH  53  77
BRANCH  65  88
ATOM     88  C   UNL A   1      44.416  28.402  35.322  1.00  0.00     0.023 A 
ATOM     89  C   UNL A   1      44.223  27.456  36.346  1.00  0.00     0.031 A 
ATOM     90  C   UNL A   1      45.724  28.846  35.062  1.00  0.00     0.131 A 
ATOM     91  C   UNL A   1      45.316  27.018  37.105  1.00  0.00     0.055 A 
ATOM     92  C   UNL A   1      46.816  28.372  35.790  1.00  0.00     0.041 A 
ATOM     93  F   UNL A   1      45.957  29.754  34.102  1.00  0.00    -0.206 F 
ATOM     94  C   UNL A   1      46.612  27.466  36.827  1.00  0.00     0.022 A 
BRANCH  91  95
ATOM     95  S   UNL A   1      45.086  25.924  38.534  1.00  0.00     0.124 S 
ATOM     96  O   UNL A   1      43.794  26.371  39.052  1.00  0.00    -0.237 OA
ATOM     97  O   UNL A   1      45.085  24.603  37.912  1.00  0.00    -0.237 OA
ATOM     98  O   UNL A   1      46.232  26.215  39.388  1.00  0.00    -0.744 OA
ENDBRANCH  91  95
ENDBRANCH  65  88
ENDBRANCH  39  40
ENDBRANCH  31  34
ENDBRANCH  29  30
ENDBRANCH  28  29
ENDBRANCH   1  28
TORSDOF 17
ENDMDL
