MODEL 1
REMARK VINA RESULT:     -11.8      0.000      0.000
REMARK SMILES Cc1cc(C(=O)Nc2ccn(C)n2)sc1/C=C/C(=O)NCCCCCCNC(=O)c1ccc(-c2c3nc(c(-c4cc(S(=O)(=O)[O-])ccc4F)c4ccc([nH]4)c(-c4cc(S(=O)(=O)[O-])ccc4F)c4nc(c(-c5cc(S(=O)(=O)[O-])ccc5F)c5ccc2[nH]5)C=C4)C=C3)cc1
REMARK SMILES IDX 23 1 22 2 21 3 20 4 18 5 19 6 17 8 16 9 15 10 1 11 2 12 3 13
REMARK SMILES IDX 4 14 14 15 5 16 6 17 7 18 8 20 9 21 13 22 10 23 11 24 12 25
REMARK SMILES IDX 24 26 25 27 26 28 27 29 28 30 29 32 30 33 31 34 92 35 32 36
REMARK SMILES IDX 91 37 33 38 34 39 35 40 85 41 36 42 90 43 84 44 86 45 37 46
REMARK SMILES IDX 89 47 83 48 82 49 38 51 70 52 50 53 69 54 51 55 54 56 68 57
REMARK SMILES IDX 87 58 52 59 53 60 67 62 88 63 55 64 39 65 40 66 48 67 41 68
REMARK SMILES IDX 47 69 49 70 46 71 42 72 43 73 44 74 45 75 71 76 72 77 80 78
REMARK SMILES IDX 73 79 79 80 81 81 78 82 74 83 75 84 76 85 77 86 56 87 57 88
REMARK SMILES IDX 65 89 58 90 64 91 66 92 63 93 59 94 60 95 61 96 62 97
REMARK H PARENT 20 7 7 19 27 31 86 50 54 61
REMARK Flexibility Score: inf
ROOT
ATOM      1  C   UNL A   1      32.821  29.940  26.017  1.00  0.00     0.002 C 
ENDROOT
BRANCH   1   2
ATOM      2  C   UNL A   1      33.191  29.066  24.814  1.00  0.00     0.021 C 
BRANCH   2   3
ATOM      3  C   UNL A   1      31.972  28.419  24.160  1.00  0.00     0.116 C 
BRANCH   3   4
ATOM      4  N   UNL A   1      32.306  27.986  22.815  1.00  0.00    -0.353 N 
ATOM      5  C   UNL A   1      32.972  26.887  22.377  1.00  0.00     0.244 C 
ATOM      6  O   UNL A   1      33.111  26.694  21.171  1.00  0.00    -0.270 OA
ATOM      7  H   UNL A   1      31.997  28.590  22.101  1.00  0.00     0.163 HD
BRANCH   5   8
ATOM      8  C   UNL A   1      33.441  25.864  23.332  1.00  0.00     0.072 C 
ATOM      9  C   UNL A   1      34.098  24.747  22.985  1.00  0.00     0.025 C 
BRANCH   9  10
ATOM     10  C   UNL A   1      34.533  23.755  23.913  1.00  0.00     0.031 A 
ATOM     11  C   UNL A   1      36.739  22.946  22.857  1.00  0.00     0.046 C 
ATOM     12  C   UNL A   1      35.595  22.861  23.817  1.00  0.00    -0.032 A 
ATOM     13  C   UNL A   1      35.420  21.770  24.742  1.00  0.00     0.029 A 
ATOM     14  C   UNL A   1      34.314  21.926  25.560  1.00  0.00     0.093 A 
ATOM     15  S   UNL A   1      33.807  23.554  25.455  1.00  0.00    -0.130 S 
BRANCH  14  16
ATOM     16  C   UNL A   1      33.793  20.983  26.548  1.00  0.00     0.266 C 
ATOM     17  O   UNL A   1      33.898  21.205  27.758  1.00  0.00    -0.268 OA
ATOM     18  N   UNL A   1      33.089  19.856  26.180  1.00  0.00    -0.304 N 
ATOM     19  H   UNL A   1      32.513  19.477  26.884  1.00  0.00     0.171 HD
BRANCH  18  20
ATOM     20  C   UNL A   1      33.065  19.180  24.988  1.00  0.00     0.154 A 
ATOM     21  C   UNL A   1      32.131  19.250  23.927  1.00  0.00     0.068 A 
ATOM     22  N   UNL A   1      34.033  18.302  24.716  1.00  0.00    -0.155 NA
ATOM     23  C   UNL A   1      32.471  18.218  23.082  1.00  0.00     0.110 A 
ATOM     24  N   UNL A   1      33.560  17.631  23.650  1.00  0.00    -0.274 N 
ATOM     25  C   UNL A   1      34.145  16.360  23.297  1.00  0.00     0.173 C 
ENDBRANCH  18  20
ENDBRANCH  14  16
ENDBRANCH   9  10
ENDBRANCH   5   8
ENDBRANCH   3   4
ENDBRANCH   2   3
ENDBRANCH   1   2
BRANCH   1  26
ATOM     26  C   UNL A   1      31.480  30.672  25.877  1.00  0.00     0.002 C 
BRANCH  26  27
ATOM     27  C   UNL A   1      31.423  32.040  26.563  1.00  0.00     0.021 C 
BRANCH  27  28
ATOM     28  C   UNL A   1      32.748  32.482  27.174  1.00  0.00     0.116 C 
BRANCH  28  29
ATOM     29  N   UNL A   1      32.713  33.886  27.549  1.00  0.00    -0.352 N 
ATOM     30  C   UNL A   1      33.381  34.529  28.561  1.00  0.00     0.251 C 
ATOM     31  H   UNL A   1      32.129  34.457  26.997  1.00  0.00     0.163 HD
ATOM     32  O   UNL A   1      33.026  35.651  28.907  1.00  0.00    -0.269 OA
BRANCH  30  33
ATOM     33  C   UNL A   1      34.514  33.857  29.232  1.00  0.00     0.039 A 
ATOM     34  C   UNL A   1      35.817  34.171  28.842  1.00  0.00     0.014 A 
ATOM     35  C   UNL A   1      34.287  32.911  30.236  1.00  0.00     0.014 A 
ATOM     36  C   UNL A   1      36.895  33.573  29.496  1.00  0.00     0.010 A 
ATOM     37  C   UNL A   1      35.361  32.374  30.937  1.00  0.00     0.010 A 
ATOM     38  C   UNL A   1      36.678  32.694  30.570  1.00  0.00    -0.014 A 
BRANCH  38  39
ATOM     39  C   UNL A   1      37.814  32.093  31.315  1.00  0.00     0.031 A 
ATOM     40  C   UNL A   1      38.632  30.997  30.688  1.00  0.00     0.074 A 
ATOM     41  C   UNL A   1      38.070  32.496  32.575  1.00  0.00     0.049 A 
ATOM     42  N   UNL A   1      39.616  30.303  31.198  1.00  0.00    -0.248 NA
ATOM     43  C   UNL A   1      38.273  30.611  29.315  1.00  0.00     0.031 C 
ATOM     44  C   UNL A   1      37.321  33.524  33.300  1.00  0.00     0.029 A 
ATOM     45  N   UNL A   1      39.025  32.088  33.471  1.00  0.00    -0.354 N 
ATOM     46  C   UNL A   1      39.989  29.393  30.215  1.00  0.00     0.074 A 
ATOM     47  C   UNL A   1      39.076  29.579  29.107  1.00  0.00     0.031 C 
ATOM     48  C   UNL A   1      37.864  33.687  34.518  1.00  0.00     0.029 A 
ATOM     49  C   UNL A   1      38.964  32.742  34.681  1.00  0.00     0.049 A 
ATOM     50  H   UNL A   1      39.692  31.393  33.269  1.00  0.00     0.167 HD
ATOM     51  C   UNL A   1      41.012  28.502  30.226  1.00  0.00     0.034 A 
ATOM     52  C   UNL A   1      39.702  32.588  35.798  1.00  0.00     0.034 A 
ATOM     53  C   UNL A   1      41.914  28.336  31.340  1.00  0.00     0.049 A 
ATOM     54  C   UNL A   1      40.809  31.565  35.802  1.00  0.00     0.074 A 
ATOM     55  C   UNL A   1      43.015  27.503  31.441  1.00  0.00     0.029 A 
ATOM     56  N   UNL A   1      41.814  29.006  32.554  1.00  0.00    -0.354 N 
ATOM     57  N   UNL A   1      41.182  30.747  34.845  1.00  0.00    -0.248 NA
ATOM     58  C   UNL A   1      41.599  31.452  37.034  1.00  0.00     0.031 C 
ATOM     59  C   UNL A   1      43.531  27.611  32.737  1.00  0.00     0.029 A 
ATOM     60  C   UNL A   1      42.808  28.576  33.420  1.00  0.00     0.049 A 
ATOM     61  H   UNL A   1      41.136  29.687  32.767  1.00  0.00     0.167 HD
ATOM     62  C   UNL A   1      42.272  30.044  35.350  1.00  0.00     0.074 A 
ATOM     63  C   UNL A   1      42.503  30.548  36.690  1.00  0.00     0.031 C 
ATOM     64  C   UNL A   1      43.018  29.075  34.760  1.00  0.00     0.034 A 
BRANCH  51  65
ATOM     65  C   UNL A   1      41.183  27.626  29.006  1.00  0.00     0.023 A 
ATOM     66  C   UNL A   1      42.205  27.854  28.067  1.00  0.00     0.031 A 
ATOM     67  C   UNL A   1      40.292  26.566  28.758  1.00  0.00     0.131 A 
ATOM     68  C   UNL A   1      42.257  27.096  26.887  1.00  0.00     0.055 A 
ATOM     69  C   UNL A   1      40.405  25.756  27.626  1.00  0.00     0.041 A 
ATOM     70  F   UNL A   1      39.281  26.310  29.604  1.00  0.00    -0.206 F 
ATOM     71  C   UNL A   1      41.382  26.030  26.673  1.00  0.00     0.022 A 
BRANCH  68  72
ATOM     72  S   UNL A   1      43.379  27.632  25.565  1.00  0.00     0.124 S 
ATOM     73  O   UNL A   1      42.450  28.255  24.626  1.00  0.00    -0.237 OA
ATOM     74  O   UNL A   1      44.282  28.536  26.266  1.00  0.00    -0.237 OA
ATOM     75  O   UNL A   1      43.980  26.384  25.100  1.00  0.00    -0.744 OA
ENDBRANCH  68  72
ENDBRANCH  51  65
BRANCH  52  76
ATOM     76  C   UNL A   1      39.417  33.413  37.009  1.00  0.00     0.023 A 
ATOM     77  C   UNL A   1      40.102  34.615  37.243  1.00  0.00     0.031 A 
ATOM     78  C   UNL A   1      38.479  32.991  37.968  1.00  0.00     0.131 A 
ATOM     79  C   UNL A   1      39.874  35.332  38.427  1.00  0.00     0.055 A 
ATOM     80  C   UNL A   1      38.214  33.736  39.118  1.00  0.00     0.041 A 
ATOM     81  F   UNL A   1      37.792  31.851  37.792  1.00  0.00    -0.206 F 
ATOM     82  C   UNL A   1      38.924  34.908  39.360  1.00  0.00     0.022 A 
BRANCH  79  83
ATOM     83  S   UNL A   1      40.902  36.784  38.775  1.00  0.00     0.124 S 
ATOM     84  O   UNL A   1      41.686  36.894  37.551  1.00  0.00    -0.237 OA
ATOM     85  O   UNL A   1      39.898  37.821  38.990  1.00  0.00    -0.237 OA
ATOM     86  O   UNL A   1      41.653  36.392  39.965  1.00  0.00    -0.744 OA
ENDBRANCH  79  83
ENDBRANCH  52  76
BRANCH  64  87
ATOM     87  C   UNL A   1      44.184  28.529  35.551  1.00  0.00     0.023 A 
ATOM     88  C   UNL A   1      44.028  27.479  36.474  1.00  0.00     0.031 A 
ATOM     89  C   UNL A   1      45.469  29.076  35.384  1.00  0.00     0.131 A 
ATOM     90  C   UNL A   1      45.125  27.052  37.236  1.00  0.00     0.055 A 
ATOM     91  C   UNL A   1      46.569  28.601  36.098  1.00  0.00     0.041 A 
ATOM     92  F   UNL A   1      45.676  30.083  34.522  1.00  0.00    -0.206 F 
ATOM     93  C   UNL A   1      46.399  27.592  37.040  1.00  0.00     0.022 A 
BRANCH  90  94
ATOM     94  S   UNL A   1      44.845  25.847  38.563  1.00  0.00     0.124 S 
ATOM     95  O   UNL A   1      46.187  25.689  39.115  1.00  0.00    -0.237 OA
ATOM     96  O   UNL A   1      43.883  26.539  39.416  1.00  0.00    -0.237 OA
ATOM     97  O   UNL A   1      44.322  24.677  37.860  1.00  0.00    -0.744 OA
ENDBRANCH  90  94
ENDBRANCH  64  87
ENDBRANCH  38  39
ENDBRANCH  30  33
ENDBRANCH  28  29
ENDBRANCH  27  28
ENDBRANCH  26  27
ENDBRANCH   1  26
TORSDOF 19
ENDMDL
MODEL 2
REMARK VINA RESULT:     -11.6      3.393      8.644
REMARK SMILES Cc1cc(C(=O)Nc2ccn(C)n2)sc1/C=C/C(=O)NCCCCCCNC(=O)c1ccc(-c2c3nc(c(-c4cc(S(=O)(=O)[O-])ccc4F)c4ccc([nH]4)c(-c4cc(S(=O)(=O)[O-])ccc4F)c4nc(c(-c5cc(S(=O)(=O)[O-])ccc5F)c5ccc2[nH]5)C=C4)C=C3)cc1
REMARK SMILES IDX 23 1 22 2 21 3 20 4 18 5 19 6 17 8 16 9 15 10 1 11 2 12 3 13
REMARK SMILES IDX 4 14 14 15 5 16 6 17 7 18 8 20 9 21 13 22 10 23 11 24 12 25
REMARK SMILES IDX 24 26 25 27 26 28 27 29 28 30 29 32 30 33 31 34 92 35 32 36
REMARK SMILES IDX 91 37 33 38 34 39 35 40 85 41 36 42 90 43 84 44 86 45 37 46
REMARK SMILES IDX 89 47 83 48 82 49 38 51 70 52 50 53 69 54 51 55 54 56 68 57
REMARK SMILES IDX 87 58 52 59 53 60 67 62 88 63 55 64 39 65 40 66 48 67 41 68
REMARK SMILES IDX 47 69 49 70 46 71 42 72 43 73 44 74 45 75 71 76 72 77 80 78
REMARK SMILES IDX 73 79 79 80 81 81 78 82 74 83 75 84 76 85 77 86 56 87 57 88
REMARK SMILES IDX 65 89 58 90 64 91 66 92 63 93 59 94 60 95 61 96 62 97
REMARK H PARENT 20 7 7 19 27 31 86 50 54 61
REMARK Flexibility Score: inf
ROOT
ATOM      1  C   UNL A   1      31.704  28.820  24.640  1.00  0.00     0.002 C 
ENDROOT
BRANCH   1   2
ATOM      2  C   UNL A   1      32.030  28.532  23.170  1.00  0.00     0.021 C 
BRANCH   2   3
ATOM      3  C   UNL A   1      33.083  27.439  23.004  1.00  0.00     0.116 C 
BRANCH   3   4
ATOM      4  N   UNL A   1      33.063  26.938  21.642  1.00  0.00    -0.353 N 
ATOM      5  C   UNL A   1      33.017  25.667  21.165  1.00  0.00     0.244 C 
ATOM      6  O   UNL A   1      32.968  25.469  19.952  1.00  0.00    -0.270 OA
ATOM      7  H   UNL A   1      33.087  27.636  20.947  1.00  0.00     0.163 HD
BRANCH   5   8
ATOM      8  C   UNL A   1      32.918  24.521  22.090  1.00  0.00     0.072 C 
ATOM      9  C   UNL A   1      31.854  24.262  22.865  1.00  0.00     0.025 C 
BRANCH   9  10
ATOM     10  C   UNL A   1      31.772  23.162  23.769  1.00  0.00     0.031 A 
ATOM     11  C   UNL A   1      30.607  24.215  25.811  1.00  0.00     0.046 C 
ATOM     12  C   UNL A   1      31.368  23.141  25.100  1.00  0.00    -0.032 A 
ATOM     13  C   UNL A   1      31.842  21.946  25.751  1.00  0.00     0.029 A 
ATOM     14  C   UNL A   1      32.484  21.076  24.886  1.00  0.00     0.093 A 
ATOM     15  S   UNL A   1      32.105  21.548  23.288  1.00  0.00    -0.130 S 
BRANCH  14  16
ATOM     16  C   UNL A   1      33.155  19.820  25.216  1.00  0.00     0.266 C 
ATOM     17  O   UNL A   1      32.512  18.825  25.562  1.00  0.00    -0.268 OA
ATOM     18  N   UNL A   1      34.518  19.664  25.075  1.00  0.00    -0.304 N 
ATOM     19  H   UNL A   1      34.823  18.730  25.000  1.00  0.00     0.171 HD
BRANCH  18  20
ATOM     20  C   UNL A   1      35.514  20.603  25.023  1.00  0.00     0.154 A 
ATOM     21  C   UNL A   1      36.898  20.442  24.774  1.00  0.00     0.068 A 
ATOM     22  N   UNL A   1      35.212  21.887  25.231  1.00  0.00    -0.155 NA
ATOM     23  C   UNL A   1      37.456  21.672  25.045  1.00  0.00     0.110 A 
ATOM     24  N   UNL A   1      36.413  22.471  25.400  1.00  0.00    -0.274 N 
ATOM     25  C   UNL A   1      36.486  23.774  26.016  1.00  0.00     0.173 C 
ENDBRANCH  18  20
ENDBRANCH  14  16
ENDBRANCH   9  10
ENDBRANCH   5   8
ENDBRANCH   3   4
ENDBRANCH   2   3
ENDBRANCH   1   2
BRANCH   1  26
ATOM     26  C   UNL A   1      31.884  27.616  25.574  1.00  0.00     0.002 C 
BRANCH  26  27
ATOM     27  C   UNL A   1      32.840  27.853  26.746  1.00  0.00     0.021 C 
BRANCH  27  28
ATOM     28  C   UNL A   1      34.079  28.663  26.381  1.00  0.00     0.116 C 
BRANCH  28  29
ATOM     29  N   UNL A   1      33.896  30.073  26.684  1.00  0.00    -0.352 N 
ATOM     30  C   UNL A   1      34.577  30.863  27.576  1.00  0.00     0.251 C 
ATOM     31  H   UNL A   1      33.182  30.525  26.177  1.00  0.00     0.163 HD
ATOM     32  O   UNL A   1      34.114  31.950  27.903  1.00  0.00    -0.269 OA
BRANCH  30  33
ATOM     33  C   UNL A   1      35.858  30.389  28.141  1.00  0.00     0.039 A 
ATOM     34  C   UNL A   1      35.853  29.725  29.369  1.00  0.00     0.014 A 
ATOM     35  C   UNL A   1      37.061  30.610  27.463  1.00  0.00     0.014 A 
ATOM     36  C   UNL A   1      37.051  29.236  29.892  1.00  0.00     0.010 A 
ATOM     37  C   UNL A   1      38.241  30.056  27.949  1.00  0.00     0.010 A 
ATOM     38  C   UNL A   1      38.250  29.369  29.173  1.00  0.00    -0.014 A 
BRANCH  38  39
ATOM     39  C   UNL A   1      39.524  28.806  29.688  1.00  0.00     0.031 A 
ATOM     40  C   UNL A   1      40.232  29.468  30.838  1.00  0.00     0.074 A 
ATOM     41  C   UNL A   1      40.069  27.731  29.082  1.00  0.00     0.049 A 
ATOM     42  N   UNL A   1      41.382  29.168  31.386  1.00  0.00    -0.248 NA
ATOM     43  C   UNL A   1      39.573  30.642  31.429  1.00  0.00     0.031 C 
ATOM     44  C   UNL A   1      39.491  27.027  27.935  1.00  0.00     0.029 A 
ATOM     45  N   UNL A   1      41.229  27.047  29.341  1.00  0.00    -0.354 N 
ATOM     46  C   UNL A   1      41.589  30.120  32.378  1.00  0.00     0.074 A 
ATOM     47  C   UNL A   1      40.478  31.046  32.306  1.00  0.00     0.031 C 
ATOM     48  C   UNL A   1      40.285  25.994  27.609  1.00  0.00     0.029 A 
ATOM     49  C   UNL A   1      41.450  25.991  28.487  1.00  0.00     0.049 A 
ATOM     50  H   UNL A   1      41.846  27.289  30.069  1.00  0.00     0.167 HD
ATOM     51  C   UNL A   1      42.599  30.200  33.281  1.00  0.00     0.034 A 
ATOM     52  C   UNL A   1      42.482  25.127  28.412  1.00  0.00     0.034 A 
ATOM     53  C   UNL A   1      43.695  29.263  33.338  1.00  0.00     0.049 A 
ATOM     54  C   UNL A   1      43.613  25.258  29.400  1.00  0.00     0.074 A 
ATOM     55  C   UNL A   1      44.743  29.216  34.241  1.00  0.00     0.029 A 
ATOM     56  N   UNL A   1      43.893  28.213  32.449  1.00  0.00    -0.354 N 
ATOM     57  N   UNL A   1      43.769  26.133  30.367  1.00  0.00    -0.248 NA
ATOM     58  C   UNL A   1      44.701  24.279  29.292  1.00  0.00     0.031 C 
ATOM     59  C   UNL A   1      45.614  28.193  33.852  1.00  0.00     0.029 A 
ATOM     60  C   UNL A   1      45.066  27.540  32.759  1.00  0.00     0.049 A 
ATOM     61  H   UNL A   1      43.290  27.982  31.707  1.00  0.00     0.167 HD
ATOM     62  C   UNL A   1      44.959  25.789  31.002  1.00  0.00     0.074 A 
ATOM     63  C   UNL A   1      45.469  24.617  30.317  1.00  0.00     0.031 C 
ATOM     64  C   UNL A   1      45.572  26.382  32.058  1.00  0.00     0.034 A 
BRANCH  51  65
ATOM     65  C   UNL A   1      42.571  31.357  34.253  1.00  0.00     0.023 A 
ATOM     66  C   UNL A   1      41.716  31.366  35.370  1.00  0.00     0.031 A 
ATOM     67  C   UNL A   1      43.385  32.485  34.044  1.00  0.00     0.131 A 
ATOM     68  C   UNL A   1      41.631  32.509  36.180  1.00  0.00     0.055 A 
ATOM     69  C   UNL A   1      43.362  33.583  34.908  1.00  0.00     0.041 A 
ATOM     70  F   UNL A   1      44.207  32.549  32.984  1.00  0.00    -0.206 F 
ATOM     71  C   UNL A   1      42.468  33.606  35.974  1.00  0.00     0.022 A 
BRANCH  68  72
ATOM     72  S   UNL A   1      40.294  32.602  37.404  1.00  0.00     0.124 S 
ATOM     73  O   UNL A   1      39.821  33.972  37.219  1.00  0.00    -0.237 OA
ATOM     74  O   UNL A   1      39.389  31.548  36.962  1.00  0.00    -0.237 OA
ATOM     75  O   UNL A   1      40.973  32.352  38.673  1.00  0.00    -0.744 OA
ENDBRANCH  68  72
ENDBRANCH  51  65
BRANCH  52  76
ATOM     76  C   UNL A   1      42.503  24.068  27.361  1.00  0.00     0.023 A 
ATOM     77  C   UNL A   1      41.951  22.800  27.601  1.00  0.00     0.031 A 
ATOM     78  C   UNL A   1      43.107  24.298  26.112  1.00  0.00     0.131 A 
ATOM     79  C   UNL A   1      42.054  21.796  26.627  1.00  0.00     0.055 A 
ATOM     80  C   UNL A   1      43.157  23.313  25.124  1.00  0.00     0.041 A 
ATOM     81  F   UNL A   1      43.646  25.494  25.828  1.00  0.00    -0.206 F 
ATOM     82  C   UNL A   1      42.640  22.048  25.384  1.00  0.00     0.022 A 
BRANCH  79  83
ATOM     83  S   UNL A   1      41.485  20.124  27.039  1.00  0.00     0.124 S 
ATOM     84  O   UNL A   1      42.741  19.450  27.347  1.00  0.00    -0.237 OA
ATOM     85  O   UNL A   1      40.598  20.376  28.170  1.00  0.00    -0.237 OA
ATOM     86  O   UNL A   1      40.821  19.679  25.816  1.00  0.00    -0.744 OA
ENDBRANCH  79  83
ENDBRANCH  52  76
BRANCH  64  87
ATOM     87  C   UNL A   1      46.844  25.741  32.562  1.00  0.00     0.023 A 
ATOM     88  C   UNL A   1      46.834  24.773  33.582  1.00  0.00     0.031 A 
ATOM     89  C   UNL A   1      48.086  26.115  32.018  1.00  0.00     0.131 A 
ATOM     90  C   UNL A   1      48.045  24.256  34.066  1.00  0.00     0.055 A 
ATOM     91  C   UNL A   1      49.282  25.547  32.458  1.00  0.00     0.041 A 
ATOM     92  F   UNL A   1      48.157  27.037  31.046  1.00  0.00    -0.206 F 
ATOM     93  C   UNL A   1      49.267  24.622  33.497  1.00  0.00     0.022 A 
BRANCH  90  94
ATOM     94  S   UNL A   1      48.009  23.173  35.520  1.00  0.00     0.124 S 
ATOM     95  O   UNL A   1      49.297  23.460  36.142  1.00  0.00    -0.237 OA
ATOM     96  O   UNL A   1      46.833  23.653  36.239  1.00  0.00    -0.237 OA
ATOM     97  O   UNL A   1      47.881  21.834  34.948  1.00  0.00    -0.744 OA
ENDBRANCH  90  94
ENDBRANCH  64  87
ENDBRANCH  38  39
ENDBRANCH  30  33
ENDBRANCH  28  29
ENDBRANCH  27  28
ENDBRANCH  26  27
ENDBRANCH   1  26
TORSDOF 19
ENDMDL
MODEL 3
REMARK VINA RESULT:     -11.6      1.908      2.206
REMARK SMILES Cc1cc(C(=O)Nc2ccn(C)n2)sc1/C=C/C(=O)NCCCCCCNC(=O)c1ccc(-c2c3nc(c(-c4cc(S(=O)(=O)[O-])ccc4F)c4ccc([nH]4)c(-c4cc(S(=O)(=O)[O-])ccc4F)c4nc(c(-c5cc(S(=O)(=O)[O-])ccc5F)c5ccc2[nH]5)C=C4)C=C3)cc1
REMARK SMILES IDX 23 1 22 2 21 3 20 4 18 5 19 6 17 8 16 9 15 10 1 11 2 12 3 13
REMARK SMILES IDX 4 14 14 15 5 16 6 17 7 18 8 20 9 21 13 22 10 23 11 24 12 25
REMARK SMILES IDX 24 26 25 27 26 28 27 29 28 30 29 32 30 33 31 34 92 35 32 36
REMARK SMILES IDX 91 37 33 38 34 39 35 40 85 41 36 42 90 43 84 44 86 45 37 46
REMARK SMILES IDX 89 47 83 48 82 49 38 51 70 52 50 53 69 54 51 55 54 56 68 57
REMARK SMILES IDX 87 58 52 59 53 60 67 62 88 63 55 64 39 65 40 66 48 67 41 68
REMARK SMILES IDX 47 69 49 70 46 71 42 72 43 73 44 74 45 75 71 76 72 77 80 78
REMARK SMILES IDX 73 79 79 80 81 81 78 82 74 83 75 84 76 85 77 86 56 87 57 88
REMARK SMILES IDX 65 89 58 90 64 91 66 92 63 93 59 94 60 95 61 96 62 97
REMARK H PARENT 20 7 7 19 27 31 86 50 54 61
REMARK Flexibility Score: inf
ROOT
ATOM      1  C   UNL A   1      32.847  29.783  26.023  1.00  0.00     0.002 C 
ENDROOT
BRANCH   1   2
ATOM      2  C   UNL A   1      33.131  28.673  25.004  1.00  0.00     0.021 C 
BRANCH   2   3
ATOM      3  C   UNL A   1      31.946  28.409  24.077  1.00  0.00     0.116 C 
BRANCH   3   4
ATOM      4  N   UNL A   1      32.426  28.010  22.767  1.00  0.00    -0.353 N 
ATOM      5  C   UNL A   1      33.181  26.948  22.385  1.00  0.00     0.244 C 
ATOM      6  O   UNL A   1      33.443  26.777  21.195  1.00  0.00    -0.270 OA
ATOM      7  H   UNL A   1      32.158  28.608  22.032  1.00  0.00     0.163 HD
BRANCH   5   8
ATOM      8  C   UNL A   1      33.604  25.934  23.372  1.00  0.00     0.072 C 
ATOM      9  C   UNL A   1      34.205  24.776  23.059  1.00  0.00     0.025 C 
BRANCH   9  10
ATOM     10  C   UNL A   1      34.596  23.795  24.017  1.00  0.00     0.031 A 
ATOM     11  C   UNL A   1      36.759  22.850  22.984  1.00  0.00     0.046 C 
ATOM     12  C   UNL A   1      35.614  22.849  23.948  1.00  0.00    -0.032 A 
ATOM     13  C   UNL A   1      35.391  21.798  24.908  1.00  0.00     0.029 A 
ATOM     14  C   UNL A   1      34.296  22.031  25.722  1.00  0.00     0.093 A 
ATOM     15  S   UNL A   1      33.865  23.677  25.566  1.00  0.00    -0.130 S 
BRANCH  14  16
ATOM     16  C   UNL A   1      33.734  21.146  26.741  1.00  0.00     0.266 C 
ATOM     17  O   UNL A   1      33.812  21.424  27.941  1.00  0.00    -0.268 OA
ATOM     18  N   UNL A   1      33.021  20.013  26.408  1.00  0.00    -0.304 N 
ATOM     19  H   UNL A   1      32.421  19.678  27.114  1.00  0.00     0.171 HD
BRANCH  18  20
ATOM     20  C   UNL A   1      33.016  19.281  25.250  1.00  0.00     0.154 A 
ATOM     21  C   UNL A   1      32.401  19.559  24.006  1.00  0.00     0.068 A 
ATOM     22  N   UNL A   1      33.664  18.113  25.213  1.00  0.00    -0.155 NA
ATOM     23  C   UNL A   1      32.538  18.402  23.272  1.00  0.00     0.110 A 
ATOM     24  N   UNL A   1      33.222  17.543  24.077  1.00  0.00    -0.274 N 
ATOM     25  C   UNL A   1      33.402  16.125  23.880  1.00  0.00     0.173 C 
ENDBRANCH  18  20
ENDBRANCH  14  16
ENDBRANCH   9  10
ENDBRANCH   5   8
ENDBRANCH   3   4
ENDBRANCH   2   3
ENDBRANCH   1   2
BRANCH   1  26
ATOM     26  C   UNL A   1      31.464  30.433  25.880  1.00  0.00     0.002 C 
BRANCH  26  27
ATOM     27  C   UNL A   1      31.329  31.803  26.550  1.00  0.00     0.021 C 
BRANCH  27  28
ATOM     28  C   UNL A   1      32.629  32.334  27.142  1.00  0.00     0.116 C 
BRANCH  28  29
ATOM     29  N   UNL A   1      32.533  33.754  27.439  1.00  0.00    -0.352 N 
ATOM     30  C   UNL A   1      33.172  34.481  28.413  1.00  0.00     0.251 C 
ATOM     31  H   UNL A   1      31.924  34.267  26.859  1.00  0.00     0.163 HD
ATOM     32  O   UNL A   1      32.768  35.603  28.698  1.00  0.00    -0.269 OA
BRANCH  30  33
ATOM     33  C   UNL A   1      34.334  33.897  29.116  1.00  0.00     0.039 A 
ATOM     34  C   UNL A   1      34.114  32.959  30.127  1.00  0.00     0.014 A 
ATOM     35  C   UNL A   1      35.635  34.284  28.783  1.00  0.00     0.014 A 
ATOM     36  C   UNL A   1      35.205  32.371  30.769  1.00  0.00     0.010 A 
ATOM     37  C   UNL A   1      36.720  33.641  29.369  1.00  0.00     0.010 A 
ATOM     38  C   UNL A   1      36.517  32.682  30.375  1.00  0.00    -0.014 A 
BRANCH  38  39
ATOM     39  C   UNL A   1      37.688  32.024  31.008  1.00  0.00     0.031 A 
ATOM     40  C   UNL A   1      38.466  30.980  30.254  1.00  0.00     0.074 A 
ATOM     41  C   UNL A   1      38.014  32.327  32.280  1.00  0.00     0.049 A 
ATOM     42  N   UNL A   1      39.473  30.247  30.655  1.00  0.00    -0.248 NA
ATOM     43  C   UNL A   1      38.032  30.703  28.877  1.00  0.00     0.031 C 
ATOM     44  C   UNL A   1      37.310  33.296  33.123  1.00  0.00     0.029 A 
ATOM     45  N   UNL A   1      39.014  31.850  33.089  1.00  0.00    -0.354 N 
ATOM     46  C   UNL A   1      39.787  29.416  29.585  1.00  0.00     0.074 A 
ATOM     47  C   UNL A   1      38.817  29.689  28.546  1.00  0.00     0.031 C 
ATOM     48  C   UNL A   1      37.919  33.363  34.318  1.00  0.00     0.029 A 
ATOM     49  C   UNL A   1      39.022  32.408  34.347  1.00  0.00     0.049 A 
ATOM     50  H   UNL A   1      39.666  31.172  32.797  1.00  0.00     0.167 HD
ATOM     51  C   UNL A   1      40.805  28.526  29.471  1.00  0.00     0.034 A 
ATOM     52  C   UNL A   1      39.818  32.167  35.407  1.00  0.00     0.034 A 
ATOM     53  C   UNL A   1      41.765  28.273  30.519  1.00  0.00     0.049 A 
ATOM     54  C   UNL A   1      40.919  31.146  35.272  1.00  0.00     0.074 A 
ATOM     55  C   UNL A   1      42.866  27.434  30.495  1.00  0.00     0.029 A 
ATOM     56  N   UNL A   1      41.734  28.847  31.784  1.00  0.00    -0.354 N 
ATOM     57  N   UNL A   1      41.236  30.404  34.235  1.00  0.00    -0.248 NA
ATOM     58  C   UNL A   1      41.773  30.936  36.446  1.00  0.00     0.031 C 
ATOM     59  C   UNL A   1      43.451  27.439  31.765  1.00  0.00     0.029 A 
ATOM     60  C   UNL A   1      42.771  28.349  32.560  1.00  0.00     0.049 A 
ATOM     61  H   UNL A   1      41.072  29.509  32.086  1.00  0.00     0.167 HD
ATOM     62  C   UNL A   1      42.348  29.663  34.624  1.00  0.00     0.074 A 
ATOM     63  C   UNL A   1      42.653  30.060  35.984  1.00  0.00     0.031 C 
ATOM     64  C   UNL A   1      43.056  28.742  33.921  1.00  0.00     0.034 A 
BRANCH  51  65
ATOM     65  C   UNL A   1      40.906  27.747  28.180  1.00  0.00     0.023 A 
ATOM     66  C   UNL A   1      40.481  26.410  28.087  1.00  0.00     0.031 A 
ATOM     67  C   UNL A   1      41.467  28.337  27.033  1.00  0.00     0.131 A 
ATOM     68  C   UNL A   1      40.702  25.683  26.907  1.00  0.00     0.055 A 
ATOM     69  C   UNL A   1      41.600  27.635  25.832  1.00  0.00     0.041 A 
ATOM     70  F   UNL A   1      41.913  29.602  27.062  1.00  0.00    -0.206 F 
ATOM     71  C   UNL A   1      41.234  26.294  25.770  1.00  0.00     0.022 A 
BRANCH  68  72
ATOM     72  S   UNL A   1      40.439  23.888  26.936  1.00  0.00     0.124 S 
ATOM     73  O   UNL A   1      40.673  23.579  28.344  1.00  0.00    -0.237 OA
ATOM     74  O   UNL A   1      39.062  23.764  26.474  1.00  0.00    -0.237 OA
ATOM     75  O   UNL A   1      41.455  23.378  26.018  1.00  0.00    -0.744 OA
ENDBRANCH  68  72
ENDBRANCH  51  65
BRANCH  52  76
ATOM     76  C   UNL A   1      39.603  32.894  36.692  1.00  0.00     0.023 A 
ATOM     77  C   UNL A   1      38.707  32.408  37.657  1.00  0.00     0.031 A 
ATOM     78  C   UNL A   1      40.265  34.106  36.958  1.00  0.00     0.131 A 
ATOM     79  C   UNL A   1      38.462  33.151  38.822  1.00  0.00     0.055 A 
ATOM     80  C   UNL A   1      40.060  34.814  38.144  1.00  0.00     0.041 A 
ATOM     81  F   UNL A   1      41.135  34.614  36.071  1.00  0.00    -0.206 F 
ATOM     82  C   UNL A   1      39.144  34.344  39.078  1.00  0.00     0.022 A 
BRANCH  79  83
ATOM     83  S   UNL A   1      37.172  32.580  39.961  1.00  0.00     0.124 S 
ATOM     84  O   UNL A   1      37.145  33.658  40.943  1.00  0.00    -0.237 OA
ATOM     85  O   UNL A   1      36.012  32.484  39.081  1.00  0.00    -0.237 OA
ATOM     86  O   UNL A   1      37.689  31.304  40.448  1.00  0.00    -0.744 OA
ENDBRANCH  79  83
ENDBRANCH  52  76
BRANCH  64  87
ATOM     87  C   UNL A   1      44.260  28.135  34.603  1.00  0.00     0.023 A 
ATOM     88  C   UNL A   1      44.159  26.980  35.397  1.00  0.00     0.031 A 
ATOM     89  C   UNL A   1      45.526  28.730  34.461  1.00  0.00     0.131 A 
ATOM     90  C   UNL A   1      45.290  26.492  36.068  1.00  0.00     0.055 A 
ATOM     91  C   UNL A   1      46.661  28.201  35.076  1.00  0.00     0.041 A 
ATOM     92  F   UNL A   1      45.682  29.838  33.719  1.00  0.00    -0.206 F 
ATOM     93  C   UNL A   1      46.545  27.083  35.896  1.00  0.00     0.022 A 
BRANCH  90  94
ATOM     94  S   UNL A   1      45.082  25.132  37.249  1.00  0.00     0.124 S 
ATOM     95  O   UNL A   1      46.113  25.431  38.238  1.00  0.00    -0.237 OA
ATOM     96  O   UNL A   1      43.703  25.309  37.692  1.00  0.00    -0.237 OA
ATOM     97  O   UNL A   1      45.325  23.936  36.443  1.00  0.00    -0.744 OA
ENDBRANCH  90  94
ENDBRANCH  64  87
ENDBRANCH  38  39
ENDBRANCH  30  33
ENDBRANCH  28  29
ENDBRANCH  27  28
ENDBRANCH  26  27
ENDBRANCH   1  26
TORSDOF 19
ENDMDL
