MODEL 1
REMARK VINA RESULT:     -10.4      0.000      0.000
REMARK SMILES CC[NH2+][C@@]1(C(=O)NCCCCCCNC(=O)c2ccc(-c3c4nc(c(-c5cc(S(=O)(=O)[O-])ccc5F)c5ccc([nH]5)c(-c5cc(S(=O)(=O)[O-])ccc5F)c5nc(c(-c6cc(S(=O)(=O)[O-])ccc6F)c6ccc3[nH]6)C=C5)C=C4)cc2)CC[C@@H]([N@@H+](C)Cc2nccn2C)C1
REMARK SMILES IDX 10 1 9 2 8 3 7 4 5 5 6 6 4 8 80 9 92 10 81 11 82 12 3 13
REMARK SMILES IDX 2 16 1 17 83 18 84 19 85 21 86 22 87 23 90 24 88 25 89 26
REMARK SMILES IDX 91 27 11 28 12 29 13 30 14 31 15 32 16 34 17 35 18 36 79 37
REMARK SMILES IDX 19 38 78 39 20 40 21 41 22 42 72 43 23 44 77 45 71 46 73 47
REMARK SMILES IDX 24 48 76 49 70 50 69 51 25 53 57 54 37 55 56 56 38 57 41 58
REMARK SMILES IDX 55 59 74 60 39 61 40 62 54 64 75 65 42 66 26 67 27 68 35 69
REMARK SMILES IDX 28 70 34 71 36 72 33 73 29 74 30 75 31 76 32 77 58 78 59 79
REMARK SMILES IDX 67 80 60 81 66 82 68 83 65 84 61 85 62 86 63 87 64 88 43 89
REMARK SMILES IDX 44 90 52 91 45 92 51 93 53 94 50 95 46 96 47 97 48 98 49 99
REMARK H PARENT 7 7 3 14 3 15 83 20 14 33 73 52 41 63
REMARK Flexibility Score: inf
ROOT
ATOM      1  C   UNL A   1      37.023  21.713  24.397  1.00  0.00     0.002 C 
ENDROOT
BRANCH   1   2
ATOM      2  C   UNL A   1      37.229  22.857  25.376  1.00  0.00     0.021 C 
BRANCH   2   3
ATOM      3  C   UNL A   1      35.969  23.309  26.075  1.00  0.00     0.116 C 
BRANCH   3   4
ATOM      4  N   UNL A   1      35.323  22.344  26.905  1.00  0.00    -0.351 N 
ATOM      5  C   UNL A   1      34.034  21.921  26.839  1.00  0.00     0.281 C 
ATOM      6  O   UNL A   1      33.865  20.777  27.291  1.00  0.00    -0.268 OA
ATOM      7  H   UNL A   1      35.877  21.937  27.608  1.00  0.00     0.163 HD
BRANCH   5   8
ATOM      8  C   UNL A   1      32.821  22.710  26.148  1.00  0.00     0.181 C 
ATOM      9  C   UNL A   1      32.405  21.918  24.895  1.00  0.00     0.085 C 
ATOM     10  C   UNL A   1      32.941  24.165  25.612  1.00  0.00     0.144 C 
ATOM     11  C   UNL A   1      33.011  22.629  23.689  1.00  0.00     0.072 C 
ATOM     12  C   UNL A   1      33.205  24.103  24.083  1.00  0.00     0.191 C 
BRANCH   8  13
ATOM     13  N   UNL A   1      31.660  22.691  27.124  1.00  0.00    -0.334 N 
ATOM     14  H   UNL A   1      31.525  21.731  27.443  1.00  0.00     0.347 HD
ATOM     15  H   UNL A   1      31.902  23.324  27.885  1.00  0.00     0.347 HD
BRANCH  13  16
ATOM     16  C   UNL A   1      30.392  23.173  26.546  1.00  0.00     0.257 C 
ATOM     17  C   UNL A   1      29.205  22.714  27.382  1.00  0.00     0.071 C 
ENDBRANCH  13  16
ENDBRANCH   8  13
BRANCH  12  18
ATOM     18  N   UNL A   1      32.712  25.176  23.204  1.00  0.00    -0.328 N 
ATOM     19  C   UNL A   1      31.306  25.501  23.512  1.00  0.00     0.333 C 
ATOM     20  H   UNL A   1      32.806  24.754  22.280  1.00  0.00     0.348 HD
BRANCH  18  21
ATOM     21  C   UNL A   1      33.515  26.404  23.063  1.00  0.00     0.338 C 
BRANCH  21  22
ATOM     22  C   UNL A   1      33.254  27.482  24.075  1.00  0.00     0.164 A 
ATOM     23  N   UNL A   1      33.758  27.525  25.300  1.00  0.00    -0.236 NA
ATOM     24  N   UNL A   1      32.525  28.623  23.830  1.00  0.00    -0.333 N 
ATOM     25  C   UNL A   1      33.467  28.769  25.790  1.00  0.00     0.131 A 
ATOM     26  C   UNL A   1      32.715  29.476  24.886  1.00  0.00     0.107 A 
ATOM     27  C   UNL A   1      31.752  28.942  22.655  1.00  0.00     0.151 C 
ENDBRANCH  21  22
ENDBRANCH  18  21
ENDBRANCH  12  18
ENDBRANCH   5   8
ENDBRANCH   3   4
ENDBRANCH   2   3
ENDBRANCH   1   2
BRANCH   1  28
ATOM     28  C   UNL A   1      37.090  20.308  25.007  1.00  0.00     0.002 C 
BRANCH  28  29
ATOM     29  C   UNL A   1      38.461  19.622  24.976  1.00  0.00     0.021 C 
BRANCH  29  30
ATOM     30  C   UNL A   1      39.421  20.038  26.086  1.00  0.00     0.116 C 
BRANCH  30  31
ATOM     31  N   UNL A   1      40.622  19.221  26.100  1.00  0.00    -0.352 N 
ATOM     32  C   UNL A   1      41.937  19.601  26.143  1.00  0.00     0.251 C 
ATOM     33  H   UNL A   1      40.466  18.249  26.076  1.00  0.00     0.163 HD
ATOM     34  O   UNL A   1      42.818  18.780  25.928  1.00  0.00    -0.269 OA
BRANCH  32  35
ATOM     35  C   UNL A   1      42.272  21.010  26.429  1.00  0.00     0.039 A 
ATOM     36  C   UNL A   1      42.501  21.391  27.752  1.00  0.00     0.014 A 
ATOM     37  C   UNL A   1      42.372  21.944  25.393  1.00  0.00     0.014 A 
ATOM     38  C   UNL A   1      42.888  22.702  28.031  1.00  0.00     0.010 A 
ATOM     39  C   UNL A   1      42.831  23.227  25.665  1.00  0.00     0.010 A 
ATOM     40  C   UNL A   1      43.093  23.619  26.985  1.00  0.00    -0.014 A 
BRANCH  40  41
ATOM     41  C   UNL A   1      43.588  24.991  27.261  1.00  0.00     0.031 A 
ATOM     42  C   UNL A   1      42.649  26.038  27.791  1.00  0.00     0.074 A 
ATOM     43  C   UNL A   1      44.869  25.301  26.980  1.00  0.00     0.049 A 
ATOM     44  N   UNL A   1      42.873  27.304  28.031  1.00  0.00    -0.248 NA
ATOM     45  C   UNL A   1      41.268  25.610  28.062  1.00  0.00     0.031 C 
ATOM     46  C   UNL A   1      45.860  24.372  26.431  1.00  0.00     0.029 A 
ATOM     47  N   UNL A   1      45.558  26.480  27.111  1.00  0.00    -0.354 N 
ATOM     48  C   UNL A   1      41.662  27.826  28.474  1.00  0.00     0.074 A 
ATOM     49  C   UNL A   1      40.694  26.752  28.406  1.00  0.00     0.031 C 
ATOM     50  C   UNL A   1      47.034  25.009  26.299  1.00  0.00     0.029 A 
ATOM     51  C   UNL A   1      46.868  26.403  26.699  1.00  0.00     0.049 A 
ATOM     52  H   UNL A   1      45.152  27.304  27.465  1.00  0.00     0.167 HD
ATOM     53  C   UNL A   1      41.393  29.079  28.917  1.00  0.00     0.034 A 
ATOM     54  C   UNL A   1      47.823  27.352  26.633  1.00  0.00     0.034 A 
ATOM     55  C   UNL A   1      42.375  30.134  28.975  1.00  0.00     0.049 A 
ATOM     56  C   UNL A   1      47.483  28.752  27.083  1.00  0.00     0.074 A 
ATOM     57  C   UNL A   1      42.224  31.425  29.452  1.00  0.00     0.029 A 
ATOM     58  N   UNL A   1      43.688  30.026  28.531  1.00  0.00    -0.354 N 
ATOM     59  N   UNL A   1      46.347  29.217  27.550  1.00  0.00    -0.248 NA
ATOM     60  C   UNL A   1      48.556  29.750  27.003  1.00  0.00     0.031 C 
ATOM     61  C   UNL A   1      43.417  32.119  29.220  1.00  0.00     0.029 A 
ATOM     62  C   UNL A   1      44.343  31.239  28.684  1.00  0.00     0.049 A 
ATOM     63  H   UNL A   1      44.094  29.209  28.162  1.00  0.00     0.167 HD
ATOM     64  C   UNL A   1      46.580  30.556  27.848  1.00  0.00     0.074 A 
ATOM     65  C   UNL A   1      47.968  30.816  27.527  1.00  0.00     0.031 C 
ATOM     66  C   UNL A   1      45.725  31.488  28.344  1.00  0.00     0.034 A 
BRANCH  53  67
ATOM     67  C   UNL A   1      39.974  29.376  29.340  1.00  0.00     0.023 A 
ATOM     68  C   UNL A   1      39.596  29.413  30.694  1.00  0.00     0.031 A 
ATOM     69  C   UNL A   1      38.976  29.607  28.376  1.00  0.00     0.131 A 
ATOM     70  C   UNL A   1      38.250  29.596  31.043  1.00  0.00     0.055 A 
ATOM     71  C   UNL A   1      37.653  29.876  28.733  1.00  0.00     0.041 A 
ATOM     72  F   UNL A   1      39.268  29.562  27.066  1.00  0.00    -0.206 F 
ATOM     73  C   UNL A   1      37.280  29.856  30.073  1.00  0.00     0.022 A 
BRANCH  70  74
ATOM     74  S   UNL A   1      37.761  29.339  32.771  1.00  0.00     0.124 S 
ATOM     75  O   UNL A   1      37.710  27.881  32.850  1.00  0.00    -0.237 OA
ATOM     76  O   UNL A   1      38.845  29.982  33.505  1.00  0.00    -0.237 OA
ATOM     77  O   UNL A   1      36.464  30.006  32.863  1.00  0.00    -0.744 OA
ENDBRANCH  70  74
ENDBRANCH  53  67
BRANCH  54  78
ATOM     78  C   UNL A   1      49.180  27.028  26.105  1.00  0.00     0.023 A 
ATOM     79  C   UNL A   1      49.571  27.429  24.819  1.00  0.00     0.031 A 
ATOM     80  C   UNL A   1      50.091  26.270  26.863  1.00  0.00     0.131 A 
ATOM     81  C   UNL A   1      50.815  27.028  24.307  1.00  0.00     0.055 A 
ATOM     82  C   UNL A   1      51.352  25.925  26.374  1.00  0.00     0.041 A 
ATOM     83  F   UNL A   1      49.771  25.861  28.102  1.00  0.00    -0.206 F 
ATOM     84  C   UNL A   1      51.714  26.292  25.082  1.00  0.00     0.022 A 
BRANCH  81  85
ATOM     85  S   UNL A   1      51.201  27.396  22.574  1.00  0.00     0.124 S 
ATOM     86  O   UNL A   1      51.164  28.854  22.566  1.00  0.00    -0.237 OA
ATOM     87  O   UNL A   1      52.517  26.786  22.421  1.00  0.00    -0.237 OA
ATOM     88  O   UNL A   1      50.122  26.740  21.838  1.00  0.00    -0.744 OA
ENDBRANCH  81  85
ENDBRANCH  54  78
BRANCH  66  89
ATOM     89  C   UNL A   1      46.289  32.865  28.607  1.00  0.00     0.023 A 
ATOM     90  C   UNL A   1      46.858  33.210  29.845  1.00  0.00     0.031 A 
ATOM     91  C   UNL A   1      46.246  33.849  27.602  1.00  0.00     0.131 A 
ATOM     92  C   UNL A   1      47.303  34.522  30.068  1.00  0.00     0.055 A 
ATOM     93  C   UNL A   1      46.755  35.132  27.807  1.00  0.00     0.041 A 
ATOM     94  F   UNL A   1      45.710  33.579  26.401  1.00  0.00    -0.206 F 
ATOM     95  C   UNL A   1      47.275  35.479  29.050  1.00  0.00     0.022 A 
BRANCH  92  96
ATOM     96  S   UNL A   1      47.825  34.991  31.740  1.00  0.00     0.124 S 
ATOM     97  O   UNL A   1      46.872  36.046  32.070  1.00  0.00    -0.237 OA
ATOM     98  O   UNL A   1      47.673  33.741  32.478  1.00  0.00    -0.237 OA
ATOM     99  O   UNL A   1      49.206  35.437  31.557  1.00  0.00    -0.744 OA
ENDBRANCH  92  96
ENDBRANCH  66  89
ENDBRANCH  40  41
ENDBRANCH  32  35
ENDBRANCH  30  31
ENDBRANCH  29  30
ENDBRANCH  28  29
ENDBRANCH   1  28
TORSDOF 21
ENDMDL
MODEL 2
REMARK VINA RESULT:     -10.3      2.491      4.088
REMARK SMILES CC[NH2+][C@@]1(C(=O)NCCCCCCNC(=O)c2ccc(-c3c4nc(c(-c5cc(S(=O)(=O)[O-])ccc5F)c5ccc([nH]5)c(-c5cc(S(=O)(=O)[O-])ccc5F)c5nc(c(-c6cc(S(=O)(=O)[O-])ccc6F)c6ccc3[nH]6)C=C5)C=C4)cc2)CC[C@@H]([N@@H+](C)Cc2nccn2C)C1
REMARK SMILES IDX 10 1 9 2 8 3 7 4 5 5 6 6 4 8 80 9 92 10 81 11 82 12 3 13
REMARK SMILES IDX 2 16 1 17 83 18 84 19 85 21 86 22 87 23 90 24 88 25 89 26
REMARK SMILES IDX 91 27 11 28 12 29 13 30 14 31 15 32 16 34 17 35 18 36 79 37
REMARK SMILES IDX 19 38 78 39 20 40 21 41 22 42 72 43 23 44 77 45 71 46 73 47
REMARK SMILES IDX 24 48 76 49 70 50 69 51 25 53 57 54 37 55 56 56 38 57 41 58
REMARK SMILES IDX 55 59 74 60 39 61 40 62 54 64 75 65 42 66 26 67 27 68 35 69
REMARK SMILES IDX 28 70 34 71 36 72 33 73 29 74 30 75 31 76 32 77 58 78 59 79
REMARK SMILES IDX 67 80 60 81 66 82 68 83 65 84 61 85 62 86 63 87 64 88 43 89
REMARK SMILES IDX 44 90 52 91 45 92 51 93 53 94 50 95 46 96 47 97 48 98 49 99
REMARK H PARENT 7 7 3 14 3 15 83 20 14 33 73 52 41 63
REMARK Flexibility Score: inf
ROOT
ATOM      1  C   UNL A   1      37.669  22.709  25.048  1.00  0.00     0.002 C 
ENDROOT
BRANCH   1   2
ATOM      2  C   UNL A   1      36.669  23.827  24.809  1.00  0.00     0.021 C 
BRANCH   2   3
ATOM      3  C   UNL A   1      35.515  23.847  25.784  1.00  0.00     0.116 C 
BRANCH   3   4
ATOM      4  N   UNL A   1      34.653  24.982  25.724  1.00  0.00    -0.351 N 
ATOM      5  C   UNL A   1      33.386  25.039  25.239  1.00  0.00     0.281 C 
ATOM      6  O   UNL A   1      32.704  25.946  25.743  1.00  0.00    -0.268 OA
ATOM      7  H   UNL A   1      35.020  25.825  26.075  1.00  0.00     0.163 HD
BRANCH   5   8
ATOM      8  C   UNL A   1      32.725  23.998  24.213  1.00  0.00     0.181 C 
ATOM      9  C   UNL A   1      31.358  23.585  24.786  1.00  0.00     0.085 C 
ATOM     10  C   UNL A   1      33.371  22.632  23.846  1.00  0.00     0.144 C 
ATOM     11  C   UNL A   1      31.532  22.211  25.426  1.00  0.00     0.072 C 
ATOM     12  C   UNL A   1      32.714  21.529  24.719  1.00  0.00     0.191 C 
BRANCH   8  13
ATOM     13  N   UNL A   1      32.486  24.740  22.913  1.00  0.00    -0.334 N 
ATOM     14  H   UNL A   1      33.180  25.484  22.836  1.00  0.00     0.347 HD
ATOM     15  H   UNL A   1      32.564  24.056  22.162  1.00  0.00     0.347 HD
BRANCH  13  16
ATOM     16  C   UNL A   1      31.144  25.343  22.812  1.00  0.00     0.257 C 
ATOM     17  C   UNL A   1      31.238  26.849  22.610  1.00  0.00     0.071 C 
ENDBRANCH  13  16
ENDBRANCH   8  13
BRANCH  12  18
ATOM     18  N   UNL A   1      32.575  20.159  24.197  1.00  0.00    -0.328 N 
ATOM     19  C   UNL A   1      32.142  20.176  22.788  1.00  0.00     0.333 C 
ATOM     20  H   UNL A   1      31.855  19.772  24.807  1.00  0.00     0.348 HD
BRANCH  18  21
ATOM     21  C   UNL A   1      33.686  19.209  24.393  1.00  0.00     0.338 C 
BRANCH  21  22
ATOM     22  C   UNL A   1      33.306  17.843  24.886  1.00  0.00     0.164 A 
ATOM     23  N   UNL A   1      32.573  17.590  25.960  1.00  0.00    -0.236 NA
ATOM     24  N   UNL A   1      33.593  16.668  24.229  1.00  0.00    -0.333 N 
ATOM     25  C   UNL A   1      32.269  16.257  25.911  1.00  0.00     0.131 A 
ATOM     26  C   UNL A   1      32.879  15.666  24.833  1.00  0.00     0.107 A 
ATOM     27  C   UNL A   1      34.425  16.488  23.065  1.00  0.00     0.151 C 
ENDBRANCH  21  22
ENDBRANCH  18  21
ENDBRANCH  12  18
ENDBRANCH   5   8
ENDBRANCH   3   4
ENDBRANCH   2   3
ENDBRANCH   1   2
BRANCH   1  28
ATOM     28  C   UNL A   1      37.153  21.294  24.763  1.00  0.00     0.002 C 
BRANCH  28  29
ATOM     29  C   UNL A   1      38.116  20.145  25.084  1.00  0.00     0.021 C 
BRANCH  29  30
ATOM     30  C   UNL A   1      39.295  20.517  25.977  1.00  0.00     0.116 C 
BRANCH  30  31
ATOM     31  N   UNL A   1      40.295  19.465  26.022  1.00  0.00    -0.352 N 
ATOM     32  C   UNL A   1      41.660  19.559  26.089  1.00  0.00     0.251 C 
ATOM     33  H   UNL A   1      39.938  18.547  26.003  1.00  0.00     0.163 HD
ATOM     34  O   UNL A   1      42.351  18.567  25.898  1.00  0.00    -0.269 OA
BRANCH  32  35
ATOM     35  C   UNL A   1      42.281  20.868  26.371  1.00  0.00     0.039 A 
ATOM     36  C   UNL A   1      42.568  21.718  25.303  1.00  0.00     0.014 A 
ATOM     37  C   UNL A   1      42.565  21.255  27.684  1.00  0.00     0.014 A 
ATOM     38  C   UNL A   1      43.089  22.987  25.558  1.00  0.00     0.010 A 
ATOM     39  C   UNL A   1      43.012  22.546  27.940  1.00  0.00     0.010 A 
ATOM     40  C   UNL A   1      43.279  23.424  26.880  1.00  0.00    -0.014 A 
BRANCH  40  41
ATOM     41  C   UNL A   1      43.751  24.802  27.168  1.00  0.00     0.031 A 
ATOM     42  C   UNL A   1      42.794  25.829  27.706  1.00  0.00     0.074 A 
ATOM     43  C   UNL A   1      45.026  25.135  26.892  1.00  0.00     0.049 A 
ATOM     44  N   UNL A   1      42.996  27.096  27.957  1.00  0.00    -0.248 NA
ATOM     45  C   UNL A   1      41.420  25.375  27.971  1.00  0.00     0.031 C 
ATOM     46  C   UNL A   1      46.034  24.228  26.337  1.00  0.00     0.029 A 
ATOM     47  N   UNL A   1      45.695  26.324  27.033  1.00  0.00    -0.354 N 
ATOM     48  C   UNL A   1      41.776  27.594  28.402  1.00  0.00     0.074 A 
ATOM     49  C   UNL A   1      40.826  26.505  28.323  1.00  0.00     0.031 C 
ATOM     50  C   UNL A   1      47.197  24.885  26.212  1.00  0.00     0.029 A 
ATOM     51  C   UNL A   1      47.007  26.272  26.623  1.00  0.00     0.049 A 
ATOM     52  H   UNL A   1      45.276  27.139  27.394  1.00  0.00     0.167 HD
ATOM     53  C   UNL A   1      41.485  28.838  28.855  1.00  0.00     0.034 A 
ATOM     54  C   UNL A   1      47.946  27.238  26.567  1.00  0.00     0.034 A 
ATOM     55  C   UNL A   1      42.450  29.909  28.924  1.00  0.00     0.049 A 
ATOM     56  C   UNL A   1      47.582  28.628  27.028  1.00  0.00     0.074 A 
ATOM     57  C   UNL A   1      42.277  31.193  29.411  1.00  0.00     0.029 A 
ATOM     58  N   UNL A   1      43.765  29.827  28.481  1.00  0.00    -0.354 N 
ATOM     59  N   UNL A   1      46.438  29.070  27.497  1.00  0.00    -0.248 NA
ATOM     60  C   UNL A   1      48.639  29.645  26.958  1.00  0.00     0.031 C 
ATOM     61  C   UNL A   1      43.458  31.909  29.186  1.00  0.00     0.029 A 
ATOM     62  C   UNL A   1      44.400  31.050  28.645  1.00  0.00     0.049 A 
ATOM     63  H   UNL A   1      44.184  29.020  28.106  1.00  0.00     0.167 HD
ATOM     64  C   UNL A   1      46.648  30.411  27.807  1.00  0.00     0.074 A 
ATOM     65  C   UNL A   1      48.033  30.696  27.490  1.00  0.00     0.031 C 
ATOM     66  C   UNL A   1      45.778  31.324  28.309  1.00  0.00     0.034 A 
BRANCH  53  67
ATOM     67  C   UNL A   1      40.061  29.109  29.279  1.00  0.00     0.023 A 
ATOM     68  C   UNL A   1      39.690  29.175  30.633  1.00  0.00     0.031 A 
ATOM     69  C   UNL A   1      39.052  29.283  28.315  1.00  0.00     0.131 A 
ATOM     70  C   UNL A   1      38.341  29.331  30.986  1.00  0.00     0.055 A 
ATOM     71  C   UNL A   1      37.724  29.525  28.672  1.00  0.00     0.041 A 
ATOM     72  F   UNL A   1      39.337  29.207  27.005  1.00  0.00    -0.206 F 
ATOM     73  C   UNL A   1      37.359  29.535  30.015  1.00  0.00     0.022 A 
BRANCH  70  74
ATOM     74  S   UNL A   1      37.869  29.111  32.723  1.00  0.00     0.124 S 
ATOM     75  O   UNL A   1      37.746  27.658  32.815  1.00  0.00    -0.237 OA
ATOM     76  O   UNL A   1      38.998  29.703  33.434  1.00  0.00    -0.237 OA
ATOM     77  O   UNL A   1      36.610  29.844  32.832  1.00  0.00    -0.744 OA
ENDBRANCH  70  74
ENDBRANCH  53  67
BRANCH  54  78
ATOM     78  C   UNL A   1      49.310  26.941  26.038  1.00  0.00     0.023 A 
ATOM     79  C   UNL A   1      50.383  26.690  26.905  1.00  0.00     0.031 A 
ATOM     80  C   UNL A   1      49.569  26.951  24.655  1.00  0.00     0.131 A 
ATOM     81  C   UNL A   1      51.675  26.511  26.387  1.00  0.00     0.055 A 
ATOM     82  C   UNL A   1      50.844  26.711  24.141  1.00  0.00     0.041 A 
ATOM     83  F   UNL A   1      48.578  27.184  23.779  1.00  0.00    -0.206 F 
ATOM     84  C   UNL A   1      51.910  26.504  25.010  1.00  0.00     0.022 A 
BRANCH  81  85
ATOM     85  S   UNL A   1      53.066  26.386  27.545  1.00  0.00     0.124 S 
ATOM     86  O   UNL A   1      53.781  27.630  27.282  1.00  0.00    -0.237 OA
ATOM     87  O   UNL A   1      52.382  26.299  28.831  1.00  0.00    -0.237 OA
ATOM     88  O   UNL A   1      53.752  25.168  27.123  1.00  0.00    -0.744 OA
ENDBRANCH  81  85
ENDBRANCH  54  78
BRANCH  66  89
ATOM     89  C   UNL A   1      46.318  32.708  28.584  1.00  0.00     0.023 A 
ATOM     90  C   UNL A   1      46.360  33.699  27.589  1.00  0.00     0.031 A 
ATOM     91  C   UNL A   1      46.808  33.034  29.862  1.00  0.00     0.131 A 
ATOM     92  C   UNL A   1      46.937  34.947  27.869  1.00  0.00     0.055 A 
ATOM     93  C   UNL A   1      47.316  34.300  30.154  1.00  0.00     0.041 A 
ATOM     94  F   UNL A   1      46.799  32.127  30.851  1.00  0.00    -0.206 F 
ATOM     95  C   UNL A   1      47.395  35.261  29.151  1.00  0.00     0.022 A 
BRANCH  92  96
ATOM     96  S   UNL A   1      47.175  36.121  26.507  1.00  0.00     0.124 S 
ATOM     97  O   UNL A   1      46.219  35.634  25.517  1.00  0.00    -0.237 OA
ATOM     98  O   UNL A   1      46.850  37.398  27.133  1.00  0.00    -0.237 OA
ATOM     99  O   UNL A   1      48.582  35.948  26.147  1.00  0.00    -0.744 OA
ENDBRANCH  92  96
ENDBRANCH  66  89
ENDBRANCH  40  41
ENDBRANCH  32  35
ENDBRANCH  30  31
ENDBRANCH  29  30
ENDBRANCH  28  29
ENDBRANCH   1  28
TORSDOF 21
ENDMDL
MODEL 3
REMARK VINA RESULT:      -9.9      2.332      3.899
REMARK SMILES CC[NH2+][C@@]1(C(=O)NCCCCCCNC(=O)c2ccc(-c3c4nc(c(-c5cc(S(=O)(=O)[O-])ccc5F)c5ccc([nH]5)c(-c5cc(S(=O)(=O)[O-])ccc5F)c5nc(c(-c6cc(S(=O)(=O)[O-])ccc6F)c6ccc3[nH]6)C=C5)C=C4)cc2)CC[C@@H]([N@@H+](C)Cc2nccn2C)C1
REMARK SMILES IDX 10 1 9 2 8 3 7 4 5 5 6 6 4 8 80 9 92 10 81 11 82 12 3 13
REMARK SMILES IDX 2 16 1 17 83 18 84 19 85 21 86 22 87 23 90 24 88 25 89 26
REMARK SMILES IDX 91 27 11 28 12 29 13 30 14 31 15 32 16 34 17 35 18 36 79 37
REMARK SMILES IDX 19 38 78 39 20 40 21 41 22 42 72 43 23 44 77 45 71 46 73 47
REMARK SMILES IDX 24 48 76 49 70 50 69 51 25 53 57 54 37 55 56 56 38 57 41 58
REMARK SMILES IDX 55 59 74 60 39 61 40 62 54 64 75 65 42 66 26 67 27 68 35 69
REMARK SMILES IDX 28 70 34 71 36 72 33 73 29 74 30 75 31 76 32 77 58 78 59 79
REMARK SMILES IDX 67 80 60 81 66 82 68 83 65 84 61 85 62 86 63 87 64 88 43 89
REMARK SMILES IDX 44 90 52 91 45 92 51 93 53 94 50 95 46 96 47 97 48 98 49 99
REMARK H PARENT 7 7 3 14 3 15 83 20 14 33 73 52 41 63
REMARK Flexibility Score: inf
ROOT
ATOM      1  C   UNL A   1      37.458  22.610  25.441  1.00  0.00     0.002 C 
ENDROOT
BRANCH   1   2
ATOM      2  C   UNL A   1      36.573  23.791  25.080  1.00  0.00     0.021 C 
BRANCH   2   3
ATOM      3  C   UNL A   1      35.293  23.874  25.876  1.00  0.00     0.116 C 
BRANCH   3   4
ATOM      4  N   UNL A   1      34.599  25.120  25.834  1.00  0.00    -0.351 N 
ATOM      5  C   UNL A   1      33.302  25.338  25.495  1.00  0.00     0.281 C 
ATOM      6  O   UNL A   1      32.823  26.363  26.007  1.00  0.00    -0.268 OA
ATOM      7  H   UNL A   1      35.122  25.916  26.080  1.00  0.00     0.163 HD
BRANCH   5   8
ATOM      8  C   UNL A   1      32.379  24.354  24.628  1.00  0.00     0.181 C 
ATOM      9  C   UNL A   1      31.373  23.695  25.588  1.00  0.00     0.085 C 
ATOM     10  C   UNL A   1      32.937  23.142  23.828  1.00  0.00     0.144 C 
ATOM     11  C   UNL A   1      31.884  22.288  25.882  1.00  0.00     0.072 C 
ATOM     12  C   UNL A   1      32.752  21.861  24.687  1.00  0.00     0.191 C 
BRANCH   8  13
ATOM     13  N   UNL A   1      31.603  25.213  23.650  1.00  0.00    -0.334 N 
ATOM     14  H   UNL A   1      31.943  26.172  23.725  1.00  0.00     0.347 HD
ATOM     15  H   UNL A   1      31.755  24.817  22.722  1.00  0.00     0.347 HD
BRANCH  13  16
ATOM     16  C   UNL A   1      30.147  25.214  23.885  1.00  0.00     0.257 C 
ATOM     17  C   UNL A   1      29.601  26.635  23.909  1.00  0.00     0.071 C 
ENDBRANCH  13  16
ENDBRANCH   8  13
BRANCH  12  18
ATOM     18  N   UNL A   1      32.528  20.561  24.035  1.00  0.00    -0.328 N 
ATOM     19  C   UNL A   1      32.031  20.743  22.659  1.00  0.00     0.333 C 
ATOM     20  H   UNL A   1      31.820  20.141  24.638  1.00  0.00     0.348 HD
BRANCH  18  21
ATOM     21  C   UNL A   1      33.602  19.552  24.076  1.00  0.00     0.338 C 
BRANCH  21  22
ATOM     22  C   UNL A   1      33.252  18.241  24.718  1.00  0.00     0.164 A 
ATOM     23  N   UNL A   1      32.531  18.093  25.820  1.00  0.00    -0.236 NA
ATOM     24  N   UNL A   1      33.556  17.007  24.189  1.00  0.00    -0.333 N 
ATOM     25  C   UNL A   1      32.252  16.757  25.918  1.00  0.00     0.131 A 
ATOM     26  C   UNL A   1      32.866  16.063  24.905  1.00  0.00     0.107 A 
ATOM     27  C   UNL A   1      34.383  16.716  23.044  1.00  0.00     0.151 C 
ENDBRANCH  21  22
ENDBRANCH  18  21
ENDBRANCH  12  18
ENDBRANCH   5   8
ENDBRANCH   3   4
ENDBRANCH   2   3
ENDBRANCH   1   2
BRANCH   1  28
ATOM     28  C   UNL A   1      37.175  21.316  24.668  1.00  0.00     0.002 C 
BRANCH  28  29
ATOM     29  C   UNL A   1      38.139  20.153  24.922  1.00  0.00     0.021 C 
BRANCH  29  30
ATOM     30  C   UNL A   1      39.141  20.373  26.051  1.00  0.00     0.116 C 
BRANCH  30  31
ATOM     31  N   UNL A   1      40.169  19.348  26.073  1.00  0.00    -0.352 N 
ATOM     32  C   UNL A   1      41.532  19.478  26.111  1.00  0.00     0.251 C 
ATOM     33  H   UNL A   1      39.837  18.421  26.059  1.00  0.00     0.163 HD
ATOM     34  O   UNL A   1      42.246  18.505  25.904  1.00  0.00    -0.269 OA
BRANCH  32  35
ATOM     35  C   UNL A   1      42.124  20.803  26.382  1.00  0.00     0.039 A 
ATOM     36  C   UNL A   1      42.301  21.689  25.319  1.00  0.00     0.014 A 
ATOM     37  C   UNL A   1      42.489  21.169  27.681  1.00  0.00     0.014 A 
ATOM     38  C   UNL A   1      42.793  22.971  25.569  1.00  0.00     0.010 A 
ATOM     39  C   UNL A   1      42.905  22.470  27.939  1.00  0.00     0.010 A 
ATOM     40  C   UNL A   1      43.062  23.383  26.886  1.00  0.00    -0.014 A 
BRANCH  40  41
ATOM     41  C   UNL A   1      43.503  24.771  27.175  1.00  0.00     0.031 A 
ATOM     42  C   UNL A   1      42.555  25.743  27.818  1.00  0.00     0.074 A 
ATOM     43  C   UNL A   1      44.739  25.162  26.808  1.00  0.00     0.049 A 
ATOM     44  N   UNL A   1      42.729  27.010  28.089  1.00  0.00    -0.248 NA
ATOM     45  C   UNL A   1      41.225  25.228  28.178  1.00  0.00     0.031 C 
ATOM     46  C   UNL A   1      45.731  24.311  26.147  1.00  0.00     0.029 A 
ATOM     47  N   UNL A   1      45.371  26.373  26.930  1.00  0.00    -0.354 N 
ATOM     48  C   UNL A   1      41.530  27.447  28.645  1.00  0.00     0.074 A 
ATOM     49  C   UNL A   1      40.619  26.323  28.610  1.00  0.00     0.031 C 
ATOM     50  C   UNL A   1      46.855  25.018  25.949  1.00  0.00     0.029 A 
ATOM     51  C   UNL A   1      46.647  26.385  26.414  1.00  0.00     0.049 A 
ATOM     52  H   UNL A   1      44.952  27.160  27.347  1.00  0.00     0.167 HD
ATOM     53  C   UNL A   1      41.230  28.667  29.156  1.00  0.00     0.034 A 
ATOM     54  C   UNL A   1      47.540  27.389  26.312  1.00  0.00     0.034 A 
ATOM     55  C   UNL A   1      42.156  29.773  29.179  1.00  0.00     0.049 A 
ATOM     56  C   UNL A   1      47.163  28.750  26.841  1.00  0.00     0.074 A 
ATOM     57  C   UNL A   1      41.974  31.036  29.716  1.00  0.00     0.029 A 
ATOM     58  N   UNL A   1      43.433  29.756  28.630  1.00  0.00    -0.354 N 
ATOM     59  N   UNL A   1      46.044  29.133  27.414  1.00  0.00    -0.248 NA
ATOM     60  C   UNL A   1      48.171  29.810  26.717  1.00  0.00     0.031 C 
ATOM     61  C   UNL A   1      43.105  31.804  29.419  1.00  0.00     0.029 A 
ATOM     62  C   UNL A   1      44.032  30.998  28.779  1.00  0.00     0.049 A 
ATOM     63  H   UNL A   1      43.851  28.976  28.199  1.00  0.00     0.167 HD
ATOM     64  C   UNL A   1      46.228  30.473  27.744  1.00  0.00     0.074 A 
ATOM     65  C   UNL A   1      47.570  30.822  27.327  1.00  0.00     0.031 C 
ATOM     66  C   UNL A   1      45.367  31.336  28.342  1.00  0.00     0.034 A 
BRANCH  53  67
ATOM     67  C   UNL A   1      39.836  28.868  29.700  1.00  0.00     0.023 A 
ATOM     68  C   UNL A   1      38.822  29.473  28.936  1.00  0.00     0.031 A 
ATOM     69  C   UNL A   1      39.518  28.470  31.011  1.00  0.00     0.131 A 
ATOM     70  C   UNL A   1      37.569  29.731  29.510  1.00  0.00     0.055 A 
ATOM     71  C   UNL A   1      38.242  28.650  31.548  1.00  0.00     0.041 A 
ATOM     72  F   UNL A   1      40.448  27.909  31.800  1.00  0.00    -0.206 F 
ATOM     73  C   UNL A   1      37.262  29.298  30.802  1.00  0.00     0.022 A 
BRANCH  70  74
ATOM     74  S   UNL A   1      36.396  30.773  28.599  1.00  0.00     0.124 S 
ATOM     75  O   UNL A   1      36.222  30.012  27.364  1.00  0.00    -0.237 OA
ATOM     76  O   UNL A   1      35.245  30.810  29.495  1.00  0.00    -0.237 OA
ATOM     77  O   UNL A   1      37.110  32.039  28.447  1.00  0.00    -0.744 OA
ENDBRANCH  70  74
ENDBRANCH  53  67
BRANCH  54  78
ATOM     78  C   UNL A   1      48.867  27.161  25.667  1.00  0.00     0.023 A 
ATOM     79  C   UNL A   1      49.970  26.725  26.416  1.00  0.00     0.031 A 
ATOM     80  C   UNL A   1      49.061  27.420  24.298  1.00  0.00     0.131 A 
ATOM     81  C   UNL A   1      51.230  26.613  25.807  1.00  0.00     0.055 A 
ATOM     82  C   UNL A   1      50.303  27.248  23.683  1.00  0.00     0.041 A 
ATOM     83  F   UNL A   1      48.040  27.837  23.533  1.00  0.00    -0.206 F 
ATOM     84  C   UNL A   1      51.400  26.856  24.442  1.00  0.00     0.022 A 
BRANCH  81  85
ATOM     85  S   UNL A   1      52.667  26.240  26.848  1.00  0.00     0.124 S 
ATOM     86  O   UNL A   1      52.184  26.628  28.169  1.00  0.00    -0.237 OA
ATOM     87  O   UNL A   1      52.842  24.810  26.623  1.00  0.00    -0.237 OA
ATOM     88  O   UNL A   1      53.719  27.090  26.293  1.00  0.00    -0.744 OA
ENDBRANCH  81  85
ENDBRANCH  54  78
BRANCH  66  89
ATOM     89  C   UNL A   1      45.875  32.733  28.613  1.00  0.00     0.023 A 
ATOM     90  C   UNL A   1      46.537  33.063  29.808  1.00  0.00     0.031 A 
ATOM     91  C   UNL A   1      45.682  33.752  27.662  1.00  0.00     0.131 A 
ATOM     92  C   UNL A   1      46.927  34.389  30.048  1.00  0.00     0.055 A 
ATOM     93  C   UNL A   1      46.135  35.054  27.877  1.00  0.00     0.041 A 
ATOM     94  F   UNL A   1      45.051  33.498  26.505  1.00  0.00    -0.206 F 
ATOM     95  C   UNL A   1      46.750  35.382  29.082  1.00  0.00     0.022 A 
BRANCH  92  96
ATOM     96  S   UNL A   1      47.577  34.822  31.685  1.00  0.00     0.124 S 
ATOM     97  O   UNL A   1      46.940  36.111  31.933  1.00  0.00    -0.237 OA
ATOM     98  O   UNL A   1      47.113  33.711  32.510  1.00  0.00    -0.237 OA
ATOM     99  O   UNL A   1      49.024  34.875  31.477  1.00  0.00    -0.744 OA
ENDBRANCH  92  96
ENDBRANCH  66  89
ENDBRANCH  40  41
ENDBRANCH  32  35
ENDBRANCH  30  31
ENDBRANCH  29  30
ENDBRANCH  28  29
ENDBRANCH   1  28
TORSDOF 21
ENDMDL
