MODEL 1
REMARK VINA RESULT:     -12.5      0.000      0.000
REMARK SMILES C[C@@H]1CN(C(=O)Nc2ccc(O)c(C(=O)NCCCCCCNC(=O)c3ccc(-c4c5nc(c(-c6cc(S(=O)(=O)[O-])ccc6F)c6ccc([nH]6)c(-c6cc(S(=O)(=O)[O-])ccc6F)c6nc(c(-c7cc(S(=O)(=O)[O-])ccc7F)c7ccc4[nH]7)C=C6)C=C5)cc3)c2)C[C@H]1C
REMARK SMILES IDX 20 1 19 2 18 3 17 4 16 5 14 6 15 7 13 9 8 10 9 11 89 12
REMARK SMILES IDX 10 13 11 14 7 15 1 16 2 17 3 18 91 19 4 20 90 21 92 22 5 23
REMARK SMILES IDX 6 24 12 26 21 28 22 29 23 30 24 31 25 33 26 34 27 35 88 36
REMARK SMILES IDX 28 37 87 38 29 39 30 40 31 41 81 42 32 43 86 44 80 45 82 46
REMARK SMILES IDX 33 47 85 48 79 49 78 50 34 52 66 53 46 54 65 55 47 56 50 57
REMARK SMILES IDX 64 58 83 59 48 60 49 61 63 63 84 64 51 65 35 66 36 67 44 68
REMARK SMILES IDX 37 69 43 70 45 71 42 72 38 73 39 74 40 75 41 76 67 77 68 78
REMARK SMILES IDX 76 79 69 80 75 81 77 82 74 83 70 84 71 85 72 86 73 87 52 88
REMARK SMILES IDX 53 89 61 90 54 91 60 92 62 93 59 94 55 95 56 96 57 97 58 98
REMARK H PARENT 16 8 7 25 12 27 23 32 82 51 50 62
REMARK Flexibility Score: inf
ROOT
ATOM      1  C   UNL A   1      31.335  30.596  25.867  1.00  0.00     0.002 C 
ENDROOT
BRANCH   1   2
ATOM      2  C   UNL A   1      32.401  29.659  26.443  1.00  0.00     0.002 C 
BRANCH   2   3
ATOM      3  C   UNL A   1      31.858  28.390  27.106  1.00  0.00     0.021 C 
BRANCH   3   4
ATOM      4  C   UNL A   1      32.151  27.100  26.336  1.00  0.00     0.116 C 
BRANCH   4   5
ATOM      5  N   UNL A   1      31.403  25.998  26.905  1.00  0.00    -0.352 N 
ATOM      6  C   UNL A   1      31.102  24.750  26.432  1.00  0.00     0.255 C 
ATOM      7  O   UNL A   1      30.390  24.042  27.153  1.00  0.00    -0.269 OA
ATOM      8  H   UNL A   1      31.043  26.182  27.804  1.00  0.00     0.163 HD
BRANCH   6   9
ATOM      9  C   UNL A   1      31.645  24.146  25.181  1.00  0.00     0.083 A 
ATOM     10  C   UNL A   1      33.519  22.853  24.294  1.00  0.00     0.043 A 
ATOM     11  C   UNL A   1      32.914  22.814  23.043  1.00  0.00     0.030 A 
ATOM     12  C   UNL A   1      32.855  23.446  25.366  1.00  0.00     0.044 A 
ATOM     13  C   UNL A   1      31.711  23.484  22.838  1.00  0.00     0.049 A 
ATOM     14  C   UNL A   1      31.093  24.164  23.894  1.00  0.00     0.128 A 
BRANCH  10  15
ATOM     15  N   UNL A   1      34.785  22.312  24.520  1.00  0.00    -0.308 N 
ATOM     16  C   UNL A   1      32.186  18.069  22.410  1.00  0.00     0.010 C 
ATOM     17  C   UNL A   1      32.892  18.391  23.717  1.00  0.00     0.010 C 
ATOM     18  C   UNL A   1      33.194  19.882  23.849  1.00  0.00     0.125 C 
ATOM     19  C   UNL A   1      34.275  17.757  23.881  1.00  0.00     0.010 C 
ATOM     20  N   UNL A   1      34.388  19.977  24.685  1.00  0.00    -0.324 N 
ATOM     21  C   UNL A   1      34.911  18.646  24.955  1.00  0.00     0.125 C 
ATOM     22  C   UNL A   1      34.223  16.293  24.284  1.00  0.00     0.010 C 
ATOM     23  C   UNL A   1      35.163  21.079  24.958  1.00  0.00     0.321 C 
ATOM     24  O   UNL A   1      36.282  20.974  25.470  1.00  0.00    -0.248 OA
ATOM     25  H   UNL A   1      35.532  22.925  24.329  1.00  0.00     0.171 HD
ENDBRANCH  10  15
BRANCH  14  26
ATOM     26  O   UNL A   1      29.922  24.797  23.606  1.00  0.00    -0.507 OA
ATOM     27  H   UNL A   1      29.874  25.385  22.878  1.00  0.00     0.293 HD
ENDBRANCH  14  26
ENDBRANCH   6   9
ENDBRANCH   4   5
ENDBRANCH   3   4
ENDBRANCH   2   3
ENDBRANCH   1   2
BRANCH   1  28
ATOM     28  C   UNL A   1      31.304  32.002  26.476  1.00  0.00     0.021 C 
BRANCH  28  29
ATOM     29  C   UNL A   1      32.575  32.406  27.221  1.00  0.00     0.116 C 
BRANCH  29  30
ATOM     30  N   UNL A   1      32.536  33.800  27.634  1.00  0.00    -0.352 N 
ATOM     31  C   UNL A   1      33.251  34.439  28.617  1.00  0.00     0.251 C 
ATOM     32  H   UNL A   1      31.904  34.367  27.137  1.00  0.00     0.163 HD
ATOM     33  O   UNL A   1      32.903  35.553  28.994  1.00  0.00    -0.269 OA
BRANCH  31  34
ATOM     34  C   UNL A   1      34.430  33.781  29.224  1.00  0.00     0.039 A 
ATOM     35  C   UNL A   1      35.708  34.229  28.881  1.00  0.00     0.014 A 
ATOM     36  C   UNL A   1      34.277  32.709  30.110  1.00  0.00     0.014 A 
ATOM     37  C   UNL A   1      36.830  33.644  29.473  1.00  0.00     0.010 A 
ATOM     38  C   UNL A   1      35.394  32.170  30.746  1.00  0.00     0.010 A 
ATOM     39  C   UNL A   1      36.681  32.633  30.437  1.00  0.00    -0.014 A 
BRANCH  39  40
ATOM     40  C   UNL A   1      37.860  32.064  31.143  1.00  0.00     0.031 A 
ATOM     41  C   UNL A   1      38.654  30.949  30.516  1.00  0.00     0.074 A 
ATOM     42  C   UNL A   1      38.164  32.501  32.381  1.00  0.00     0.049 A 
ATOM     43  N   UNL A   1      39.658  30.271  31.010  1.00  0.00    -0.248 NA
ATOM     44  C   UNL A   1      38.247  30.524  29.169  1.00  0.00     0.031 C 
ATOM     45  C   UNL A   1      37.436  33.544  33.109  1.00  0.00     0.029 A 
ATOM     46  N   UNL A   1      39.151  32.118  33.255  1.00  0.00    -0.354 N 
ATOM     47  C   UNL A   1      39.992  29.327  30.044  1.00  0.00     0.074 A 
ATOM     48  C   UNL A   1      39.051  29.493  28.955  1.00  0.00     0.031 C 
ATOM     49  C   UNL A   1      38.007  33.721  34.311  1.00  0.00     0.029 A 
ATOM     50  C   UNL A   1      39.112  32.780  34.460  1.00  0.00     0.049 A 
ATOM     51  H   UNL A   1      39.825  31.433  33.037  1.00  0.00     0.167 HD
ATOM     52  C   UNL A   1      40.998  28.419  30.059  1.00  0.00     0.034 A 
ATOM     53  C   UNL A   1      39.865  32.632  35.569  1.00  0.00     0.034 A 
ATOM     54  C   UNL A   1      41.941  28.284  31.145  1.00  0.00     0.049 A 
ATOM     55  C   UNL A   1      40.975  31.613  35.561  1.00  0.00     0.074 A 
ATOM     56  C   UNL A   1      43.050  27.459  31.224  1.00  0.00     0.029 A 
ATOM     57  N   UNL A   1      41.879  28.981  32.344  1.00  0.00    -0.354 N 
ATOM     58  N   UNL A   1      41.325  30.778  34.607  1.00  0.00    -0.248 NA
ATOM     59  C   UNL A   1      41.801  31.521  36.772  1.00  0.00     0.031 C 
ATOM     60  C   UNL A   1      43.614  27.604  32.496  1.00  0.00     0.029 A 
ATOM     61  C   UNL A   1      42.905  28.574  33.185  1.00  0.00     0.049 A 
ATOM     62  H   UNL A   1      41.205  29.663  32.566  1.00  0.00     0.167 HD
ATOM     63  C   UNL A   1      42.425  30.082  35.098  1.00  0.00     0.074 A 
ATOM     64  C   UNL A   1      42.694  30.608  36.420  1.00  0.00     0.031 C 
ATOM     65  C   UNL A   1      43.150  29.096  34.509  1.00  0.00     0.034 A 
BRANCH  52  66
ATOM     66  C   UNL A   1      41.117  27.481  28.883  1.00  0.00     0.023 A 
ATOM     67  C   UNL A   1      42.111  27.642  27.900  1.00  0.00     0.031 A 
ATOM     68  C   UNL A   1      40.222  26.405  28.741  1.00  0.00     0.131 A 
ATOM     69  C   UNL A   1      42.145  26.784  26.791  1.00  0.00     0.055 A 
ATOM     70  C   UNL A   1      40.309  25.508  27.674  1.00  0.00     0.041 A 
ATOM     71  F   UNL A   1      39.242  26.210  29.637  1.00  0.00    -0.206 F 
ATOM     72  C   UNL A   1      41.268  25.703  26.684  1.00  0.00     0.022 A 
BRANCH  69  73
ATOM     73  S   UNL A   1      43.277  27.172  25.427  1.00  0.00     0.124 S 
ATOM     74  O   UNL A   1      44.353  27.870  26.127  1.00  0.00    -0.237 OA
ATOM     75  O   UNL A   1      43.607  25.849  24.906  1.00  0.00    -0.237 OA
ATOM     76  O   UNL A   1      42.472  28.009  24.541  1.00  0.00    -0.744 OA
ENDBRANCH  69  73
ENDBRANCH  52  66
BRANCH  53  77
ATOM     77  C   UNL A   1      39.584  33.442  36.788  1.00  0.00     0.023 A 
ATOM     78  C   UNL A   1      38.880  32.901  37.875  1.00  0.00     0.031 A 
ATOM     79  C   UNL A   1      39.973  34.792  36.863  1.00  0.00     0.131 A 
ATOM     80  C   UNL A   1      38.541  33.716  38.967  1.00  0.00     0.055 A 
ATOM     81  C   UNL A   1      39.684  35.584  37.975  1.00  0.00     0.041 A 
ATOM     82  F   UNL A   1      40.653  35.361  35.854  1.00  0.00    -0.206 F 
ATOM     83  C   UNL A   1      38.949  35.050  39.030  1.00  0.00     0.022 A 
BRANCH  80  84
ATOM     84  S   UNL A   1      37.473  33.032  40.263  1.00  0.00     0.124 S 
ATOM     85  O   UNL A   1      38.220  31.848  40.670  1.00  0.00    -0.237 OA
ATOM     86  O   UNL A   1      37.430  34.127  41.227  1.00  0.00    -0.237 OA
ATOM     87  O   UNL A   1      36.217  32.770  39.564  1.00  0.00    -0.744 OA
ENDBRANCH  80  84
ENDBRANCH  53  77
BRANCH  65  88
ATOM     88  C   UNL A   1      44.320  28.551  35.289  1.00  0.00     0.023 A 
ATOM     89  C   UNL A   1      44.165  27.505  36.216  1.00  0.00     0.031 A 
ATOM     90  C   UNL A   1      45.605  29.093  35.112  1.00  0.00     0.131 A 
ATOM     91  C   UNL A   1      45.264  27.075  36.973  1.00  0.00     0.055 A 
ATOM     92  C   UNL A   1      46.707  28.619  35.824  1.00  0.00     0.041 A 
ATOM     93  F   UNL A   1      45.810  30.095  34.241  1.00  0.00    -0.206 F 
ATOM     94  C   UNL A   1      46.538  27.612  36.771  1.00  0.00     0.022 A 
BRANCH  91  95
ATOM     95  S   UNL A   1      44.990  25.862  38.293  1.00  0.00     0.124 S 
ATOM     96  O   UNL A   1      46.345  25.387  38.555  1.00  0.00    -0.237 OA
ATOM     97  O   UNL A   1      44.385  26.674  39.344  1.00  0.00    -0.237 OA
ATOM     98  O   UNL A   1      44.097  24.881  37.678  1.00  0.00    -0.744 OA
ENDBRANCH  91  95
ENDBRANCH  65  88
ENDBRANCH  39  40
ENDBRANCH  31  34
ENDBRANCH  29  30
ENDBRANCH  28  29
ENDBRANCH   1  28
TORSDOF 18
ENDMDL
MODEL 2
REMARK VINA RESULT:     -12.5      1.453      2.534
REMARK SMILES C[C@@H]1CN(C(=O)Nc2ccc(O)c(C(=O)NCCCCCCNC(=O)c3ccc(-c4c5nc(c(-c6cc(S(=O)(=O)[O-])ccc6F)c6ccc([nH]6)c(-c6cc(S(=O)(=O)[O-])ccc6F)c6nc(c(-c7cc(S(=O)(=O)[O-])ccc7F)c7ccc4[nH]7)C=C6)C=C5)cc3)c2)C[C@H]1C
REMARK SMILES IDX 20 1 19 2 18 3 17 4 16 5 14 6 15 7 13 9 8 10 9 11 89 12
REMARK SMILES IDX 10 13 11 14 7 15 1 16 2 17 3 18 91 19 4 20 90 21 92 22 5 23
REMARK SMILES IDX 6 24 12 26 21 28 22 29 23 30 24 31 25 33 26 34 27 35 88 36
REMARK SMILES IDX 28 37 87 38 29 39 30 40 31 41 81 42 32 43 86 44 80 45 82 46
REMARK SMILES IDX 33 47 85 48 79 49 78 50 34 52 66 53 46 54 65 55 47 56 50 57
REMARK SMILES IDX 64 58 83 59 48 60 49 61 63 63 84 64 51 65 35 66 36 67 44 68
REMARK SMILES IDX 37 69 43 70 45 71 42 72 38 73 39 74 40 75 41 76 67 77 68 78
REMARK SMILES IDX 76 79 69 80 75 81 77 82 74 83 70 84 71 85 72 86 73 87 52 88
REMARK SMILES IDX 53 89 61 90 54 91 60 92 62 93 59 94 55 95 56 96 57 97 58 98
REMARK H PARENT 16 8 7 25 12 27 23 32 82 51 50 62
REMARK Flexibility Score: inf
ROOT
ATOM      1  C   UNL A   1      31.839  30.430  26.976  1.00  0.00     0.002 C 
ENDROOT
BRANCH   1   2
ATOM      2  C   UNL A   1      33.282  29.919  26.933  1.00  0.00     0.002 C 
BRANCH   2   3
ATOM      3  C   UNL A   1      33.441  28.410  27.148  1.00  0.00     0.021 C 
BRANCH   3   4
ATOM      4  C   UNL A   1      34.031  27.661  25.949  1.00  0.00     0.116 C 
BRANCH   4   5
ATOM      5  N   UNL A   1      33.823  28.422  24.735  1.00  0.00    -0.352 N 
ATOM      6  C   UNL A   1      32.798  28.442  23.828  1.00  0.00     0.255 C 
ATOM      7  O   UNL A   1      32.940  29.184  22.849  1.00  0.00    -0.269 OA
ATOM      8  H   UNL A   1      34.557  29.042  24.521  1.00  0.00     0.163 HD
BRANCH   6   9
ATOM      9  C   UNL A   1      31.495  27.731  23.980  1.00  0.00     0.083 A 
ATOM     10  C   UNL A   1      30.294  26.146  25.400  1.00  0.00     0.043 A 
ATOM     11  C   UNL A   1      29.152  26.299  24.622  1.00  0.00     0.030 A 
ATOM     12  C   UNL A   1      31.426  26.912  25.126  1.00  0.00     0.044 A 
ATOM     13  C   UNL A   1      29.189  27.114  23.495  1.00  0.00     0.049 A 
ATOM     14  C   UNL A   1      30.361  27.808  23.164  1.00  0.00     0.128 A 
BRANCH  10  15
ATOM     15  N   UNL A   1      30.351  25.242  26.461  1.00  0.00    -0.308 N 
ATOM     16  C   UNL A   1      33.871  23.032  23.008  1.00  0.00     0.010 C 
ATOM     17  C   UNL A   1      32.571  22.613  23.676  1.00  0.00     0.010 C 
ATOM     18  C   UNL A   1      31.870  23.792  24.346  1.00  0.00     0.125 C 
ATOM     19  C   UNL A   1      32.726  21.620  24.831  1.00  0.00     0.010 C 
ATOM     20  N   UNL A   1      31.111  23.229  25.458  1.00  0.00    -0.324 N 
ATOM     21  C   UNL A   1      31.412  21.811  25.597  1.00  0.00     0.125 C 
ATOM     22  C   UNL A   1      32.935  20.188  24.371  1.00  0.00     0.010 C 
ATOM     23  C   UNL A   1      30.453  23.883  26.472  1.00  0.00     0.321 C 
ATOM     24  O   UNL A   1      30.068  23.292  27.485  1.00  0.00    -0.248 OA
ATOM     25  H   UNL A   1      30.311  25.656  27.354  1.00  0.00     0.171 HD
ENDBRANCH  10  15
BRANCH  14  26
ATOM     26  O   UNL A   1      30.313  28.579  22.042  1.00  0.00    -0.507 OA
ATOM     27  H   UNL A   1      31.060  29.084  21.789  1.00  0.00     0.293 HD
ENDBRANCH  14  26
ENDBRANCH   6   9
ENDBRANCH   4   5
ENDBRANCH   3   4
ENDBRANCH   2   3
ENDBRANCH   1   2
BRANCH   1  28
ATOM     28  C   UNL A   1      31.684  31.954  26.921  1.00  0.00     0.021 C 
BRANCH  28  29
ATOM     29  C   UNL A   1      32.953  32.739  27.245  1.00  0.00     0.116 C 
BRANCH  29  30
ATOM     30  N   UNL A   1      32.650  34.085  27.706  1.00  0.00    -0.352 N 
ATOM     31  C   UNL A   1      33.130  34.762  28.800  1.00  0.00     0.251 C 
ATOM     32  H   UNL A   1      32.007  34.582  27.152  1.00  0.00     0.163 HD
ATOM     33  O   UNL A   1      32.571  35.788  29.172  1.00  0.00    -0.269 OA
BRANCH  31  34
ATOM     34  C   UNL A   1      34.309  34.247  29.533  1.00  0.00     0.039 A 
ATOM     35  C   UNL A   1      34.108  33.462  30.672  1.00  0.00     0.014 A 
ATOM     36  C   UNL A   1      35.606  34.557  29.114  1.00  0.00     0.014 A 
ATOM     37  C   UNL A   1      35.209  32.937  31.355  1.00  0.00     0.010 A 
ATOM     38  C   UNL A   1      36.700  33.981  29.759  1.00  0.00     0.010 A 
ATOM     39  C   UNL A   1      36.512  33.163  30.884  1.00  0.00    -0.014 A 
BRANCH  39  40
ATOM     40  C   UNL A   1      37.688  32.537  31.545  1.00  0.00     0.031 A 
ATOM     41  C   UNL A   1      38.423  31.408  30.875  1.00  0.00     0.074 A 
ATOM     42  C   UNL A   1      38.041  32.938  32.783  1.00  0.00     0.049 A 
ATOM     43  N   UNL A   1      39.415  30.684  31.327  1.00  0.00    -0.248 NA
ATOM     44  C   UNL A   1      37.965  31.026  29.531  1.00  0.00     0.031 C 
ATOM     45  C   UNL A   1      37.372  33.991  33.552  1.00  0.00     0.029 A 
ATOM     46  N   UNL A   1      39.037  32.501  33.621  1.00  0.00    -0.354 N 
ATOM     47  C   UNL A   1      39.688  29.749  30.334  1.00  0.00     0.074 A 
ATOM     48  C   UNL A   1      38.725  29.971  29.275  1.00  0.00     0.031 C 
ATOM     49  C   UNL A   1      37.982  34.123  34.741  1.00  0.00     0.029 A 
ATOM     50  C   UNL A   1      39.055  33.139  34.840  1.00  0.00     0.049 A 
ATOM     51  H   UNL A   1      39.680  31.797  33.372  1.00  0.00     0.167 HD
ATOM     52  C   UNL A   1      40.661  28.805  30.303  1.00  0.00     0.034 A 
ATOM     53  C   UNL A   1      39.831  32.941  35.924  1.00  0.00     0.034 A 
ATOM     54  C   UNL A   1      41.627  28.614  31.359  1.00  0.00     0.049 A 
ATOM     55  C   UNL A   1      40.903  31.883  35.865  1.00  0.00     0.074 A 
ATOM     56  C   UNL A   1      42.707  27.748  31.392  1.00  0.00     0.029 A 
ATOM     57  N   UNL A   1      41.623  29.288  32.574  1.00  0.00    -0.354 N 
ATOM     58  N   UNL A   1      41.196  31.057  34.886  1.00  0.00    -0.248 NA
ATOM     59  C   UNL A   1      41.758  31.737  37.051  1.00  0.00     0.031 C 
ATOM     60  C   UNL A   1      43.310  27.846  32.650  1.00  0.00     0.029 A 
ATOM     61  C   UNL A   1      42.656  28.827  33.377  1.00  0.00     0.049 A 
ATOM     62  H   UNL A   1      40.981  29.989  32.828  1.00  0.00     0.167 HD
ATOM     63  C   UNL A   1      42.283  30.311  35.332  1.00  0.00     0.074 A 
ATOM     64  C   UNL A   1      42.607  30.800  36.656  1.00  0.00     0.031 C 
ATOM     65  C   UNL A   1      42.955  29.312  34.704  1.00  0.00     0.034 A 
BRANCH  52  66
ATOM     66  C   UNL A   1      40.713  27.888  29.106  1.00  0.00     0.023 A 
ATOM     67  C   UNL A   1      41.646  28.071  28.069  1.00  0.00     0.031 A 
ATOM     68  C   UNL A   1      39.816  26.810  28.998  1.00  0.00     0.131 A 
ATOM     69  C   UNL A   1      41.619  27.232  26.945  1.00  0.00     0.055 A 
ATOM     70  C   UNL A   1      39.842  25.933  27.913  1.00  0.00     0.041 A 
ATOM     71  F   UNL A   1      38.891  26.596  29.947  1.00  0.00    -0.206 F 
ATOM     72  C   UNL A   1      40.741  26.148  26.871  1.00  0.00     0.022 A 
BRANCH  69  73
ATOM     73  S   UNL A   1      42.666  27.648  25.524  1.00  0.00     0.124 S 
ATOM     74  O   UNL A   1      42.396  26.531  24.621  1.00  0.00    -0.237 OA
ATOM     75  O   UNL A   1      42.138  28.945  25.113  1.00  0.00    -0.237 OA
ATOM     76  O   UNL A   1      44.014  27.674  26.087  1.00  0.00    -0.744 OA
ENDBRANCH  69  73
ENDBRANCH  52  66
BRANCH  53  77
ATOM     77  C   UNL A   1      39.613  33.736  37.167  1.00  0.00     0.023 A 
ATOM     78  C   UNL A   1      38.848  33.230  38.229  1.00  0.00     0.031 A 
ATOM     79  C   UNL A   1      40.128  35.040  37.289  1.00  0.00     0.131 A 
ATOM     80  C   UNL A   1      38.574  34.039  39.344  1.00  0.00     0.055 A 
ATOM     81  C   UNL A   1      39.901  35.820  38.424  1.00  0.00     0.041 A 
ATOM     82  F   UNL A   1      40.871  35.572  36.306  1.00  0.00    -0.206 F 
ATOM     83  C   UNL A   1      39.106  35.326  39.453  1.00  0.00     0.022 A 
BRANCH  80  84
ATOM     84  S   UNL A   1      37.430  33.419  40.606  1.00  0.00     0.124 S 
ATOM     85  O   UNL A   1      36.257  33.086  39.807  1.00  0.00    -0.237 OA
ATOM     86  O   UNL A   1      38.173  32.291  41.159  1.00  0.00    -0.237 OA
ATOM     87  O   UNL A   1      37.269  34.558  41.507  1.00  0.00    -0.744 OA
ENDBRANCH  80  84
ENDBRANCH  53  77
BRANCH  65  88
ATOM     88  C   UNL A   1      44.126  28.709  35.440  1.00  0.00     0.023 A 
ATOM     89  C   UNL A   1      43.970  27.595  36.284  1.00  0.00     0.031 A 
ATOM     90  C   UNL A   1      45.410  29.265  35.307  1.00  0.00     0.131 A 
ATOM     91  C   UNL A   1      45.070  27.108  37.006  1.00  0.00     0.055 A 
ATOM     92  C   UNL A   1      46.512  28.737  35.980  1.00  0.00     0.041 A 
ATOM     93  F   UNL A   1      45.615  30.331  34.516  1.00  0.00    -0.206 F 
ATOM     94  C   UNL A   1      46.343  27.660  36.847  1.00  0.00     0.022 A 
BRANCH  91  95
ATOM     95  S   UNL A   1      44.795  25.796  38.228  1.00  0.00     0.124 S 
ATOM     96  O   UNL A   1      43.721  26.358  39.040  1.00  0.00    -0.237 OA
ATOM     97  O   UNL A   1      44.432  24.658  37.390  1.00  0.00    -0.237 OA
ATOM     98  O   UNL A   1      46.087  25.680  38.903  1.00  0.00    -0.744 OA
ENDBRANCH  91  95
ENDBRANCH  65  88
ENDBRANCH  39  40
ENDBRANCH  31  34
ENDBRANCH  29  30
ENDBRANCH  28  29
ENDBRANCH   1  28
TORSDOF 18
ENDMDL
MODEL 3
REMARK VINA RESULT:     -12.3      5.417     11.527
REMARK SMILES C[C@@H]1CN(C(=O)Nc2ccc(O)c(C(=O)NCCCCCCNC(=O)c3ccc(-c4c5nc(c(-c6cc(S(=O)(=O)[O-])ccc6F)c6ccc([nH]6)c(-c6cc(S(=O)(=O)[O-])ccc6F)c6nc(c(-c7cc(S(=O)(=O)[O-])ccc7F)c7ccc4[nH]7)C=C6)C=C5)cc3)c2)C[C@H]1C
REMARK SMILES IDX 20 1 19 2 18 3 17 4 16 5 14 6 15 7 13 9 8 10 9 11 89 12
REMARK SMILES IDX 10 13 11 14 7 15 1 16 2 17 3 18 91 19 4 20 90 21 92 22 5 23
REMARK SMILES IDX 6 24 12 26 21 28 22 29 23 30 24 31 25 33 26 34 27 35 88 36
REMARK SMILES IDX 28 37 87 38 29 39 30 40 31 41 81 42 32 43 86 44 80 45 82 46
REMARK SMILES IDX 33 47 85 48 79 49 78 50 34 52 66 53 46 54 65 55 47 56 50 57
REMARK SMILES IDX 64 58 83 59 48 60 49 61 63 63 84 64 51 65 35 66 36 67 44 68
REMARK SMILES IDX 37 69 43 70 45 71 42 72 38 73 39 74 40 75 41 76 67 77 68 78
REMARK SMILES IDX 76 79 69 80 75 81 77 82 74 83 70 84 71 85 72 86 73 87 52 88
REMARK SMILES IDX 53 89 61 90 54 91 60 92 62 93 59 94 55 95 56 96 57 97 58 98
REMARK H PARENT 16 8 7 25 12 27 23 32 82 51 50 62
REMARK Flexibility Score: inf
ROOT
ATOM      1  C   UNL A   1      37.178  21.441  24.253  1.00  0.00     0.002 C 
ENDROOT
BRANCH   1   2
ATOM      2  C   UNL A   1      35.689  21.665  24.531  1.00  0.00     0.002 C 
BRANCH   2   3
ATOM      3  C   UNL A   1      35.097  20.785  25.636  1.00  0.00     0.021 C 
BRANCH   3   4
ATOM      4  C   UNL A   1      33.799  20.072  25.248  1.00  0.00     0.116 C 
BRANCH   4   5
ATOM      5  N   UNL A   1      32.657  20.809  25.747  1.00  0.00    -0.352 N 
ATOM      6  C   UNL A   1      32.118  22.018  25.396  1.00  0.00     0.255 C 
ATOM      7  O   UNL A   1      31.148  22.403  26.057  1.00  0.00    -0.269 OA
ATOM      8  H   UNL A   1      32.176  20.355  26.477  1.00  0.00     0.163 HD
BRANCH   6   9
ATOM      9  C   UNL A   1      32.540  22.844  24.228  1.00  0.00     0.083 A 
ATOM     10  C   UNL A   1      33.469  25.018  23.612  1.00  0.00     0.043 A 
ATOM     11  C   UNL A   1      33.506  24.636  22.276  1.00  0.00     0.030 A 
ATOM     12  C   UNL A   1      33.064  24.104  24.583  1.00  0.00     0.044 A 
ATOM     13  C   UNL A   1      33.010  23.391  21.901  1.00  0.00     0.049 A 
ATOM     14  C   UNL A   1      32.509  22.510  22.869  1.00  0.00     0.128 A 
BRANCH  10  15
ATOM     15  N   UNL A   1      33.831  26.301  24.024  1.00  0.00    -0.308 N 
ATOM     16  C   UNL A   1      28.448  26.738  23.820  1.00  0.00     0.010 C 
ATOM     17  C   UNL A   1      29.635  27.410  23.149  1.00  0.00     0.010 C 
ATOM     18  C   UNL A   1      30.936  26.654  23.404  1.00  0.00     0.125 C 
ATOM     19  C   UNL A   1      29.961  28.815  23.662  1.00  0.00     0.010 C 
ATOM     20  N   UNL A   1      31.998  27.655  23.355  1.00  0.00    -0.324 N 
ATOM     21  C   UNL A   1      31.421  28.985  23.227  1.00  0.00     0.125 C 
ATOM     22  C   UNL A   1      29.049  29.890  23.098  1.00  0.00     0.010 C 
ATOM     23  C   UNL A   1      33.325  27.522  23.691  1.00  0.00     0.321 C 
ATOM     24  O   UNL A   1      34.057  28.504  23.846  1.00  0.00    -0.248 OA
ATOM     25  H   UNL A   1      34.578  26.330  24.665  1.00  0.00     0.171 HD
ENDBRANCH  10  15
BRANCH  14  26
ATOM     26  O   UNL A   1      32.038  21.315  22.416  1.00  0.00    -0.507 OA
ATOM     27  H   UNL A   1      31.927  20.599  23.011  1.00  0.00     0.293 HD
ENDBRANCH  14  26
ENDBRANCH   6   9
ENDBRANCH   4   5
ENDBRANCH   3   4
ENDBRANCH   2   3
ENDBRANCH   1   2
BRANCH   1  28
ATOM     28  C   UNL A   1      37.805  20.247  24.982  1.00  0.00     0.021 C 
BRANCH  28  29
ATOM     29  C   UNL A   1      38.937  20.606  25.943  1.00  0.00     0.116 C 
BRANCH  29  30
ATOM     30  N   UNL A   1      39.945  19.560  26.002  1.00  0.00    -0.352 N 
ATOM     31  C   UNL A   1      41.312  19.668  26.069  1.00  0.00     0.251 C 
ATOM     32  H   UNL A   1      39.595  18.640  25.993  1.00  0.00     0.163 HD
ATOM     33  O   UNL A   1      42.010  18.682  25.854  1.00  0.00    -0.269 OA
BRANCH  31  34
ATOM     34  C   UNL A   1      41.939  20.970  26.388  1.00  0.00     0.039 A 
ATOM     35  C   UNL A   1      42.209  21.865  25.348  1.00  0.00     0.014 A 
ATOM     36  C   UNL A   1      42.283  21.299  27.702  1.00  0.00     0.014 A 
ATOM     37  C   UNL A   1      42.766  23.113  25.634  1.00  0.00     0.010 A 
ATOM     38  C   UNL A   1      42.780  22.569  27.992  1.00  0.00     0.010 A 
ATOM     39  C   UNL A   1      43.024  23.490  26.963  1.00  0.00    -0.014 A 
BRANCH  39  40
ATOM     40  C   UNL A   1      43.531  24.849  27.292  1.00  0.00     0.031 A 
ATOM     41  C   UNL A   1      42.597  25.896  27.835  1.00  0.00     0.074 A 
ATOM     42  C   UNL A   1      44.816  25.156  27.027  1.00  0.00     0.049 A 
ATOM     43  N   UNL A   1      42.834  27.154  28.104  1.00  0.00    -0.248 NA
ATOM     44  C   UNL A   1      41.209  25.480  28.084  1.00  0.00     0.031 C 
ATOM     45  C   UNL A   1      45.803  24.237  26.455  1.00  0.00     0.029 A 
ATOM     46  N   UNL A   1      45.514  26.329  27.187  1.00  0.00    -0.354 N 
ATOM     47  C   UNL A   1      41.622  27.686  28.534  1.00  0.00     0.074 A 
ATOM     48  C   UNL A   1      40.644  26.622  28.446  1.00  0.00     0.031 C 
ATOM     49  C   UNL A   1      46.976  24.877  26.321  1.00  0.00     0.029 A 
ATOM     50  C   UNL A   1      46.819  26.260  26.755  1.00  0.00     0.049 A 
ATOM     51  H   UNL A   1      45.116  27.142  27.575  1.00  0.00     0.167 HD
ATOM     52  C   UNL A   1      41.357  28.940  28.976  1.00  0.00     0.034 A 
ATOM     53  C   UNL A   1      47.774  27.209  26.694  1.00  0.00     0.034 A 
ATOM     54  C   UNL A   1      42.351  29.983  29.078  1.00  0.00     0.049 A 
ATOM     55  C   UNL A   1      47.452  28.596  27.188  1.00  0.00     0.074 A 
ATOM     56  C   UNL A   1      42.210  31.259  29.594  1.00  0.00     0.029 A 
ATOM     57  N   UNL A   1      43.666  29.874  28.645  1.00  0.00    -0.354 N 
ATOM     58  N   UNL A   1      46.319  29.062  27.663  1.00  0.00    -0.248 NA
ATOM     59  C   UNL A   1      48.538  29.584  27.149  1.00  0.00     0.031 C 
ATOM     60  C   UNL A   1      43.415  31.944  29.406  1.00  0.00     0.029 A 
ATOM     61  C   UNL A   1      44.334  31.073  28.844  1.00  0.00     0.049 A 
ATOM     62  H   UNL A   1      44.066  29.064  28.253  1.00  0.00     0.167 HD
ATOM     63  C   UNL A   1      46.566  30.389  28.001  1.00  0.00     0.074 A 
ATOM     64  C   UNL A   1      47.959  30.642  27.696  1.00  0.00     0.031 C 
ATOM     65  C   UNL A   1      45.719  31.316  28.518  1.00  0.00     0.034 A 
BRANCH  52  66
ATOM     66  C   UNL A   1      39.932  29.266  29.354  1.00  0.00     0.023 A 
ATOM     67  C   UNL A   1      39.527  29.379  30.696  1.00  0.00     0.031 A 
ATOM     68  C   UNL A   1      38.962  29.468  28.356  1.00  0.00     0.131 A 
ATOM     69  C   UNL A   1      38.179  29.621  31.003  1.00  0.00     0.055 A 
ATOM     70  C   UNL A   1      37.638  29.784  28.666  1.00  0.00     0.041 A 
ATOM     71  F   UNL A   1      39.285  29.355  27.058  1.00  0.00    -0.206 F 
ATOM     72  C   UNL A   1      37.237  29.850  29.998  1.00  0.00     0.022 A 
BRANCH  69  73
ATOM     73  S   UNL A   1      37.650  29.515  32.735  1.00  0.00     0.124 S 
ATOM     74  O   UNL A   1      37.555  28.069  32.925  1.00  0.00    -0.237 OA
ATOM     75  O   UNL A   1      38.740  30.182  33.439  1.00  0.00    -0.237 OA
ATOM     76  O   UNL A   1      36.372  30.224  32.747  1.00  0.00    -0.744 OA
ENDBRANCH  69  73
ENDBRANCH  52  66
BRANCH  53  77
ATOM     77  C   UNL A   1      49.116  26.897  26.123  1.00  0.00     0.023 A 
ATOM     78  C   UNL A   1      49.476  27.327  24.836  1.00  0.00     0.031 A 
ATOM     79  C   UNL A   1      50.041  26.116  26.839  1.00  0.00     0.131 A 
ATOM     80  C   UNL A   1      50.705  26.932  24.284  1.00  0.00     0.055 A 
ATOM     81  C   UNL A   1      51.286  25.773  26.309  1.00  0.00     0.041 A 
ATOM     82  F   UNL A   1      49.751  25.682  28.076  1.00  0.00    -0.206 F 
ATOM     83  C   UNL A   1      51.618  26.169  25.016  1.00  0.00     0.022 A 
BRANCH  80  84
ATOM     84  S   UNL A   1      51.054  27.350  22.554  1.00  0.00     0.124 S 
ATOM     85  O   UNL A   1      51.095  28.807  22.602  1.00  0.00    -0.237 OA
ATOM     86  O   UNL A   1      52.331  26.678  22.333  1.00  0.00    -0.237 OA
ATOM     87  O   UNL A   1      49.919  26.780  21.832  1.00  0.00    -0.744 OA
ENDBRANCH  80  84
ENDBRANCH  53  77
BRANCH  65  88
ATOM     88  C   UNL A   1      46.296  32.679  28.810  1.00  0.00     0.023 A 
ATOM     89  C   UNL A   1      46.282  33.706  27.850  1.00  0.00     0.031 A 
ATOM     90  C   UNL A   1      46.879  32.950  30.060  1.00  0.00     0.131 A 
ATOM     91  C   UNL A   1      46.891  34.937  28.136  1.00  0.00     0.055 A 
ATOM     92  C   UNL A   1      47.429  34.196  30.360  1.00  0.00     0.041 A 
ATOM     93  F   UNL A   1      46.921  32.004  31.014  1.00  0.00    -0.206 F 
ATOM     94  C   UNL A   1      47.449  35.195  29.390  1.00  0.00     0.022 A 
BRANCH  91  95
ATOM     95  S   UNL A   1      47.026  36.169  26.812  1.00  0.00     0.124 S 
ATOM     96  O   UNL A   1      48.314  36.790  27.105  1.00  0.00    -0.237 OA
ATOM     97  O   UNL A   1      46.976  35.343  25.609  1.00  0.00    -0.237 OA
ATOM     98  O   UNL A   1      45.862  37.028  27.022  1.00  0.00    -0.744 OA
ENDBRANCH  91  95
ENDBRANCH  65  88
ENDBRANCH  39  40
ENDBRANCH  31  34
ENDBRANCH  29  30
ENDBRANCH  28  29
ENDBRANCH   1  28
TORSDOF 18
ENDMDL
