MODEL 1
REMARK VINA RESULT:     -11.2      0.000      0.000
REMARK SMILES CC(C)CCn1cc(C(=O)NCCCCCCNC(=O)c2ccc(-c3c4nc(c(-c5cc(S(=O)(=O)[O-])ccc5F)c5ccc([nH]5)c(-c5cc(S(=O)(=O)[O-])ccc5F)c5nc(c(-c6cc(S(=O)(=O)[O-])ccc6F)c6ccc3[nH]6)C=C5)C=C4)cc2)c(-c2ccoc2)n1
REMARK SMILES IDX 14 1 13 2 12 3 11 4 9 5 10 6 8 8 6 9 7 10 90 11 84 12 5 13
REMARK SMILES IDX 4 14 2 15 1 16 3 17 85 18 86 19 89 20 87 21 88 22 15 23
REMARK SMILES IDX 16 24 17 25 18 26 19 27 20 29 21 30 22 31 83 32 23 33 82 34
REMARK SMILES IDX 24 35 25 36 26 37 76 38 27 39 81 40 75 41 77 42 28 43 80 44
REMARK SMILES IDX 74 45 73 46 29 48 61 49 41 50 60 51 42 52 45 53 59 54 78 55
REMARK SMILES IDX 43 56 44 57 58 59 79 60 46 61 30 62 31 63 39 64 32 65 38 66
REMARK SMILES IDX 40 67 37 68 33 69 34 70 35 71 36 72 62 73 63 74 71 75 64 76
REMARK SMILES IDX 70 77 72 78 69 79 65 80 66 81 67 82 68 83 47 84 48 85 56 86
REMARK SMILES IDX 49 87 55 88 57 89 54 90 50 91 51 92 52 93 53 94
REMARK H PARENT 11 7 18 28 77 47 45 58
REMARK Flexibility Score: inf
ROOT
ATOM      1  C   UNL A   1      37.042  22.457  24.747  1.00  0.00     0.002 C 
ENDROOT
BRANCH   1   2
ATOM      2  C   UNL A   1      36.054  23.385  25.451  1.00  0.00     0.021 C 
BRANCH   2   3
ATOM      3  C   UNL A   1      35.222  22.746  26.557  1.00  0.00     0.116 C 
BRANCH   3   4
ATOM      4  N   UNL A   1      33.953  23.409  26.789  1.00  0.00    -0.352 N 
ATOM      5  C   UNL A   1      32.709  23.224  26.235  1.00  0.00     0.255 C 
ATOM      6  O   UNL A   1      31.812  23.976  26.624  1.00  0.00    -0.269 OA
ATOM      7  H   UNL A   1      33.989  24.121  27.469  1.00  0.00     0.163 HD
BRANCH   5   8
ATOM      8  C   UNL A   1      32.483  22.214  25.213  1.00  0.00     0.085 A 
ATOM      9  N   UNL A   1      32.310  20.298  24.144  1.00  0.00    -0.271 N 
ATOM     10  C   UNL A   1      32.197  20.870  25.376  1.00  0.00     0.123 A 
ATOM     11  N   UNL A   1      32.272  21.203  23.153  1.00  0.00    -0.172 NA
ATOM     12  C   UNL A   1      32.379  22.374  23.800  1.00  0.00     0.108 A 
BRANCH   9  13
ATOM     13  C   UNL A   1      32.406  18.876  23.870  1.00  0.00     0.144 C 
BRANCH  13  14
ATOM     14  C   UNL A   1      33.360  18.115  24.807  1.00  0.00     0.027 C 
BRANCH  14  15
ATOM     15  C   UNL A   1      33.862  16.737  24.318  1.00  0.00    -0.016 C 
ATOM     16  C   UNL A   1      34.226  16.721  22.832  1.00  0.00     0.007 C 
ATOM     17  C   UNL A   1      35.079  16.291  25.136  1.00  0.00     0.007 C 
ENDBRANCH  14  15
ENDBRANCH  13  14
ENDBRANCH   9  13
BRANCH  12  18
ATOM     18  C   UNL A   1      32.283  23.650  23.105  1.00  0.00     0.041 A 
ATOM     19  C   UNL A   1      33.221  24.098  22.141  1.00  0.00     0.052 A 
ATOM     20  C   UNL A   1      31.301  24.609  23.169  1.00  0.00     0.205 A 
ATOM     21  C   UNL A   1      32.730  25.289  21.662  1.00  0.00     0.195 A 
ATOM     22  O   UNL A   1      31.570  25.616  22.292  1.00  0.00    -0.472 OA
ENDBRANCH  12  18
ENDBRANCH   5   8
ENDBRANCH   3   4
ENDBRANCH   2   3
ENDBRANCH   1   2
BRANCH   1  23
ATOM     23  C   UNL A   1      36.647  20.976  24.674  1.00  0.00     0.002 C 
BRANCH  23  24
ATOM     24  C   UNL A   1      37.781  19.949  24.812  1.00  0.00     0.021 C 
BRANCH  24  25
ATOM     25  C   UNL A   1      38.884  20.361  25.775  1.00  0.00     0.116 C 
BRANCH  25  26
ATOM     26  N   UNL A   1      39.957  19.372  25.854  1.00  0.00    -0.352 N 
ATOM     27  C   UNL A   1      41.312  19.606  25.963  1.00  0.00     0.251 C 
ATOM     28  H   UNL A   1      39.680  18.427  25.827  1.00  0.00     0.163 HD
ATOM     29  O   UNL A   1      42.121  18.744  25.613  1.00  0.00    -0.269 OA
BRANCH  27  30
ATOM     30  C   UNL A   1      41.771  20.892  26.517  1.00  0.00     0.039 A 
ATOM     31  C   UNL A   1      42.247  21.924  25.702  1.00  0.00     0.014 A 
ATOM     32  C   UNL A   1      41.712  21.050  27.901  1.00  0.00     0.014 A 
ATOM     33  C   UNL A   1      42.593  23.141  26.291  1.00  0.00     0.010 A 
ATOM     34  C   UNL A   1      41.910  22.285  28.458  1.00  0.00     0.010 A 
ATOM     35  C   UNL A   1      42.408  23.316  27.672  1.00  0.00    -0.014 A 
BRANCH  35  36
ATOM     36  C   UNL A   1      42.551  24.621  28.314  1.00  0.00     0.031 A 
ATOM     37  C   UNL A   1      41.357  25.488  28.122  1.00  0.00     0.074 A 
ATOM     38  C   UNL A   1      43.521  24.888  29.219  1.00  0.00     0.049 A 
ATOM     39  N   UNL A   1      41.256  26.536  27.373  1.00  0.00    -0.248 NA
ATOM     40  C   UNL A   1      40.060  25.019  28.646  1.00  0.00     0.031 C 
ATOM     41  C   UNL A   1      44.568  23.980  29.705  1.00  0.00     0.029 A 
ATOM     42  N   UNL A   1      43.716  25.991  29.994  1.00  0.00    -0.354 N 
ATOM     43  C   UNL A   1      39.972  27.024  27.591  1.00  0.00     0.074 A 
ATOM     44  C   UNL A   1      39.226  25.920  28.124  1.00  0.00     0.031 C 
ATOM     45  C   UNL A   1      45.122  24.480  30.834  1.00  0.00     0.029 A 
ATOM     46  C   UNL A   1      44.586  25.810  31.076  1.00  0.00     0.049 A 
ATOM     47  H   UNL A   1      43.279  26.853  29.806  1.00  0.00     0.167 HD
ATOM     48  C   UNL A   1      39.739  28.367  27.631  1.00  0.00     0.034 A 
ATOM     49  C   UNL A   1      44.835  26.675  32.101  1.00  0.00     0.034 A 
ATOM     50  C   UNL A   1      40.868  29.091  27.076  1.00  0.00     0.049 A 
ATOM     51  C   UNL A   1      44.421  28.018  31.621  1.00  0.00     0.074 A 
ATOM     52  C   UNL A   1      41.538  29.065  25.867  1.00  0.00     0.029 A 
ATOM     53  N   UNL A   1      41.728  29.710  27.958  1.00  0.00    -0.354 N 
ATOM     54  N   UNL A   1      45.016  28.633  30.637  1.00  0.00    -0.248 NA
ATOM     55  C   UNL A   1      43.048  28.432  31.870  1.00  0.00     0.031 C 
ATOM     56  C   UNL A   1      42.918  29.189  26.210  1.00  0.00     0.029 A 
ATOM     57  C   UNL A   1      43.012  29.400  27.587  1.00  0.00     0.049 A 
ATOM     58  H   UNL A   1      41.466  30.274  28.721  1.00  0.00     0.167 HD
ATOM     59  C   UNL A   1      43.986  29.153  29.869  1.00  0.00     0.074 A 
ATOM     60  C   UNL A   1      42.802  29.082  30.727  1.00  0.00     0.031 C 
ATOM     61  C   UNL A   1      44.124  29.305  28.516  1.00  0.00     0.034 A 
BRANCH  48  62
ATOM     62  C   UNL A   1      38.737  29.049  28.551  1.00  0.00     0.023 A 
ATOM     63  C   UNL A   1      38.970  28.917  29.934  1.00  0.00     0.031 A 
ATOM     64  C   UNL A   1      37.456  29.533  28.198  1.00  0.00     0.131 A 
ATOM     65  C   UNL A   1      37.934  29.094  30.866  1.00  0.00     0.055 A 
ATOM     66  C   UNL A   1      36.448  29.774  29.136  1.00  0.00     0.041 A 
ATOM     67  F   UNL A   1      37.067  29.730  26.935  1.00  0.00    -0.206 F 
ATOM     68  C   UNL A   1      36.668  29.515  30.475  1.00  0.00     0.022 A 
BRANCH  65  69
ATOM     69  S   UNL A   1      38.226  28.563  32.570  1.00  0.00     0.124 S 
ATOM     70  O   UNL A   1      39.417  29.333  32.908  1.00  0.00    -0.237 OA
ATOM     71  O   UNL A   1      36.986  28.968  33.224  1.00  0.00    -0.237 OA
ATOM     72  O   UNL A   1      38.423  27.121  32.444  1.00  0.00    -0.744 OA
ENDBRANCH  65  69
ENDBRANCH  48  62
BRANCH  49  73
ATOM     73  C   UNL A   1      45.096  26.373  33.545  1.00  0.00     0.023 A 
ATOM     74  C   UNL A   1      44.081  26.322  34.534  1.00  0.00     0.031 A 
ATOM     75  C   UNL A   1      46.358  25.862  33.922  1.00  0.00     0.131 A 
ATOM     76  C   UNL A   1      44.352  25.776  35.818  1.00  0.00     0.055 A 
ATOM     77  C   UNL A   1      46.617  25.321  35.185  1.00  0.00     0.041 A 
ATOM     78  F   UNL A   1      47.367  25.787  33.039  1.00  0.00    -0.206 F 
ATOM     79  C   UNL A   1      45.611  25.265  36.136  1.00  0.00     0.022 A 
BRANCH  76  80
ATOM     80  S   UNL A   1      43.042  25.640  37.088  1.00  0.00     0.124 S 
ATOM     81  O   UNL A   1      43.755  25.041  38.211  1.00  0.00    -0.237 OA
ATOM     82  O   UNL A   1      42.615  27.024  37.252  1.00  0.00    -0.237 OA
ATOM     83  O   UNL A   1      42.047  24.767  36.461  1.00  0.00    -0.744 OA
ENDBRANCH  76  80
ENDBRANCH  49  73
BRANCH  61  84
ATOM     84  C   UNL A   1      45.513  29.194  27.917  1.00  0.00     0.023 A 
ATOM     85  C   UNL A   1      46.509  30.199  27.952  1.00  0.00     0.031 A 
ATOM     86  C   UNL A   1      45.869  27.945  27.377  1.00  0.00     0.131 A 
ATOM     87  C   UNL A   1      47.798  29.931  27.444  1.00  0.00     0.055 A 
ATOM     88  C   UNL A   1      47.149  27.677  26.900  1.00  0.00     0.041 A 
ATOM     89  F   UNL A   1      44.974  26.943  27.337  1.00  0.00    -0.206 F 
ATOM     90  C   UNL A   1      48.118  28.672  26.927  1.00  0.00     0.022 A 
BRANCH  87  91
ATOM     91  S   UNL A   1      49.087  31.222  27.423  1.00  0.00     0.124 S 
ATOM     92  O   UNL A   1      48.327  32.462  27.331  1.00  0.00    -0.237 OA
ATOM     93  O   UNL A   1      49.787  30.992  28.684  1.00  0.00    -0.237 OA
ATOM     94  O   UNL A   1      49.872  30.898  26.229  1.00  0.00    -0.744 OA
ENDBRANCH  87  91
ENDBRANCH  61  84
ENDBRANCH  35  36
ENDBRANCH  27  30
ENDBRANCH  25  26
ENDBRANCH  24  25
ENDBRANCH  23  24
ENDBRANCH   1  23
TORSDOF 20
ENDMDL
MODEL 2
REMARK VINA RESULT:     -10.9      2.454      4.187
REMARK SMILES CC(C)CCn1cc(C(=O)NCCCCCCNC(=O)c2ccc(-c3c4nc(c(-c5cc(S(=O)(=O)[O-])ccc5F)c5ccc([nH]5)c(-c5cc(S(=O)(=O)[O-])ccc5F)c5nc(c(-c6cc(S(=O)(=O)[O-])ccc6F)c6ccc3[nH]6)C=C5)C=C4)cc2)c(-c2ccoc2)n1
REMARK SMILES IDX 14 1 13 2 12 3 11 4 9 5 10 6 8 8 6 9 7 10 90 11 84 12 5 13
REMARK SMILES IDX 4 14 2 15 1 16 3 17 85 18 86 19 89 20 87 21 88 22 15 23
REMARK SMILES IDX 16 24 17 25 18 26 19 27 20 29 21 30 22 31 83 32 23 33 82 34
REMARK SMILES IDX 24 35 25 36 26 37 76 38 27 39 81 40 75 41 77 42 28 43 80 44
REMARK SMILES IDX 74 45 73 46 29 48 61 49 41 50 60 51 42 52 45 53 59 54 78 55
REMARK SMILES IDX 43 56 44 57 58 59 79 60 46 61 30 62 31 63 39 64 32 65 38 66
REMARK SMILES IDX 40 67 37 68 33 69 34 70 35 71 36 72 62 73 63 74 71 75 64 76
REMARK SMILES IDX 70 77 72 78 69 79 65 80 66 81 67 82 68 83 47 84 48 85 56 86
REMARK SMILES IDX 49 87 55 88 57 89 54 90 50 91 51 92 52 93 53 94
REMARK H PARENT 11 7 18 28 77 47 45 58
REMARK Flexibility Score: inf
ROOT
ATOM      1  C   UNL A   1      35.942  22.520  23.790  1.00  0.00     0.002 C 
ENDROOT
BRANCH   1   2
ATOM      2  C   UNL A   1      34.512  22.926  23.443  1.00  0.00     0.021 C 
BRANCH   2   3
ATOM      3  C   UNL A   1      34.283  24.417  23.222  1.00  0.00     0.116 C 
BRANCH   3   4
ATOM      4  N   UNL A   1      34.371  25.207  24.435  1.00  0.00    -0.352 N 
ATOM      5  C   UNL A   1      33.489  26.081  25.024  1.00  0.00     0.255 C 
ATOM      6  O   UNL A   1      33.865  26.634  26.060  1.00  0.00    -0.269 OA
ATOM      7  H   UNL A   1      35.217  25.096  24.928  1.00  0.00     0.163 HD
BRANCH   5   8
ATOM      8  C   UNL A   1      32.195  26.361  24.423  1.00  0.00     0.085 A 
ATOM      9  N   UNL A   1      30.521  27.339  23.379  1.00  0.00    -0.271 N 
ATOM     10  C   UNL A   1      31.881  27.275  23.432  1.00  0.00     0.123 A 
ATOM     11  N   UNL A   1      29.935  26.286  23.972  1.00  0.00    -0.172 NA
ATOM     12  C   UNL A   1      30.952  25.688  24.613  1.00  0.00     0.108 A 
BRANCH   9  13
ATOM     13  C   UNL A   1      29.741  28.369  22.720  1.00  0.00     0.144 C 
BRANCH  13  14
ATOM     14  C   UNL A   1      29.851  29.759  23.372  1.00  0.00     0.027 C 
BRANCH  14  15
ATOM     15  C   UNL A   1      28.545  30.577  23.489  1.00  0.00    -0.016 C 
ATOM     16  C   UNL A   1      28.779  32.089  23.500  1.00  0.00     0.007 C 
ATOM     17  C   UNL A   1      27.592  30.227  22.340  1.00  0.00     0.007 C 
ENDBRANCH  14  15
ENDBRANCH  13  14
ENDBRANCH   9  13
BRANCH  12  18
ATOM     18  C   UNL A   1      30.781  24.427  25.321  1.00  0.00     0.041 A 
ATOM     19  C   UNL A   1      30.056  24.292  26.532  1.00  0.00     0.052 A 
ATOM     20  C   UNL A   1      31.193  23.164  24.970  1.00  0.00     0.205 A 
ATOM     21  C   UNL A   1      30.053  22.949  26.823  1.00  0.00     0.195 A 
ATOM     22  O   UNL A   1      30.755  22.256  25.886  1.00  0.00    -0.472 OA
ENDBRANCH  12  18
ENDBRANCH   5   8
ENDBRANCH   3   4
ENDBRANCH   2   3
ENDBRANCH   1   2
BRANCH   1  23
ATOM     23  C   UNL A   1      36.141  21.840  25.152  1.00  0.00     0.002 C 
BRANCH  23  24
ATOM     24  C   UNL A   1      37.001  20.567  25.171  1.00  0.00     0.021 C 
BRANCH  24  25
ATOM     25  C   UNL A   1      38.499  20.824  25.118  1.00  0.00     0.116 C 
BRANCH  25  26
ATOM     26  N   UNL A   1      39.283  19.647  25.485  1.00  0.00    -0.352 N 
ATOM     27  C   UNL A   1      40.595  19.606  25.908  1.00  0.00     0.251 C 
ATOM     28  H   UNL A   1      38.820  18.780  25.425  1.00  0.00     0.163 HD
ATOM     29  O   UNL A   1      41.254  18.571  25.792  1.00  0.00    -0.269 OA
BRANCH  27  30
ATOM     30  C   UNL A   1      41.187  20.813  26.513  1.00  0.00     0.039 A 
ATOM     31  C   UNL A   1      41.989  21.694  25.781  1.00  0.00     0.014 A 
ATOM     32  C   UNL A   1      40.913  21.054  27.859  1.00  0.00     0.014 A 
ATOM     33  C   UNL A   1      42.451  22.855  26.401  1.00  0.00     0.010 A 
ATOM     34  C   UNL A   1      41.242  22.259  28.420  1.00  0.00     0.010 A 
ATOM     35  C   UNL A   1      42.061  23.136  27.721  1.00  0.00    -0.014 A 
BRANCH  35  36
ATOM     36  C   UNL A   1      42.335  24.425  28.352  1.00  0.00     0.031 A 
ATOM     37  C   UNL A   1      41.283  25.438  28.069  1.00  0.00     0.074 A 
ATOM     38  C   UNL A   1      43.271  24.580  29.318  1.00  0.00     0.049 A 
ATOM     39  N   UNL A   1      41.372  26.472  27.300  1.00  0.00    -0.248 NA
ATOM     40  C   UNL A   1      39.903  25.156  28.510  1.00  0.00     0.031 C 
ATOM     41  C   UNL A   1      44.152  23.553  29.886  1.00  0.00     0.029 A 
ATOM     42  N   UNL A   1      43.561  25.665  30.089  1.00  0.00    -0.354 N 
ATOM     43  C   UNL A   1      40.154  27.132  27.424  1.00  0.00     0.074 A 
ATOM     44  C   UNL A   1      39.233  26.149  27.920  1.00  0.00     0.031 C 
ATOM     45  C   UNL A   1      44.693  24.000  31.043  1.00  0.00     0.029 A 
ATOM     46  C   UNL A   1      44.326  25.394  31.230  1.00  0.00     0.049 A 
ATOM     47  H   UNL A   1      43.256  26.573  29.861  1.00  0.00     0.167 HD
ATOM     48  C   UNL A   1      40.100  28.494  27.430  1.00  0.00     0.034 A 
ATOM     49  C   UNL A   1      44.621  26.242  32.258  1.00  0.00     0.034 A 
ATOM     50  C   UNL A   1      41.350  29.049  26.943  1.00  0.00     0.049 A 
ATOM     51  C   UNL A   1      44.423  27.617  31.733  1.00  0.00     0.074 A 
ATOM     52  C   UNL A   1      42.088  28.907  25.783  1.00  0.00     0.029 A 
ATOM     53  N   UNL A   1      42.226  29.568  27.873  1.00  0.00    -0.354 N 
ATOM     54  N   UNL A   1      45.158  28.125  30.783  1.00  0.00    -0.248 NA
ATOM     55  C   UNL A   1      43.104  28.214  31.882  1.00  0.00     0.031 C 
ATOM     56  C   UNL A   1      43.447  28.855  26.217  1.00  0.00     0.029 A 
ATOM     57  C   UNL A   1      43.478  29.082  27.594  1.00  0.00     0.049 A 
ATOM     58  H   UNL A   1      41.993  30.179  28.609  1.00  0.00     0.167 HD
ATOM     59  C   UNL A   1      44.259  28.760  29.940  1.00  0.00     0.074 A 
ATOM     60  C   UNL A   1      43.023  28.865  30.717  1.00  0.00     0.031 C 
ATOM     61  C   UNL A   1      44.504  28.861  28.598  1.00  0.00     0.034 A 
BRANCH  48  62
ATOM     62  C   UNL A   1      39.141  29.324  28.271  1.00  0.00     0.023 A 
ATOM     63  C   UNL A   1      39.336  29.280  29.666  1.00  0.00     0.031 A 
ATOM     64  C   UNL A   1      37.912  29.881  27.851  1.00  0.00     0.131 A 
ATOM     65  C   UNL A   1      38.301  29.611  30.555  1.00  0.00     0.055 A 
ATOM     66  C   UNL A   1      36.909  30.274  28.742  1.00  0.00     0.041 A 
ATOM     67  F   UNL A   1      37.564  30.011  26.567  1.00  0.00    -0.206 F 
ATOM     68  C   UNL A   1      37.082  30.101  30.102  1.00  0.00     0.022 A 
BRANCH  65  69
ATOM     69  S   UNL A   1      38.516  29.190  32.301  1.00  0.00     0.124 S 
ATOM     70  O   UNL A   1      37.425  29.943  32.911  1.00  0.00    -0.237 OA
ATOM     71  O   UNL A   1      38.367  27.739  32.278  1.00  0.00    -0.237 OA
ATOM     72  O   UNL A   1      39.860  29.676  32.601  1.00  0.00    -0.744 OA
ENDBRANCH  65  69
ENDBRANCH  48  62
BRANCH  49  73
ATOM     73  C   UNL A   1      44.744  25.940  33.720  1.00  0.00     0.023 A 
ATOM     74  C   UNL A   1      43.759  26.284  34.680  1.00  0.00     0.031 A 
ATOM     75  C   UNL A   1      45.752  25.050  34.154  1.00  0.00     0.131 A 
ATOM     76  C   UNL A   1      43.810  25.742  35.993  1.00  0.00     0.055 A 
ATOM     77  C   UNL A   1      45.794  24.516  35.446  1.00  0.00     0.041 A 
ATOM     78  F   UNL A   1      46.687  24.595  33.305  1.00  0.00    -0.206 F 
ATOM     79  C   UNL A   1      44.817  24.851  36.368  1.00  0.00     0.022 A 
BRANCH  76  80
ATOM     80  S   UNL A   1      42.515  26.120  37.229  1.00  0.00     0.124 S 
ATOM     81  O   UNL A   1      41.656  24.944  37.152  1.00  0.00    -0.237 OA
ATOM     82  O   UNL A   1      43.287  26.284  38.455  1.00  0.00    -0.237 OA
ATOM     83  O   UNL A   1      41.909  27.354  36.723  1.00  0.00    -0.744 OA
ENDBRANCH  76  80
ENDBRANCH  49  73
BRANCH  61  84
ATOM     84  C   UNL A   1      45.902  28.553  28.095  1.00  0.00     0.023 A 
ATOM     85  C   UNL A   1      46.339  27.308  27.584  1.00  0.00     0.031 A 
ATOM     86  C   UNL A   1      46.803  29.632  28.037  1.00  0.00     0.131 A 
ATOM     87  C   UNL A   1      47.641  27.182  27.053  1.00  0.00     0.055 A 
ATOM     88  C   UNL A   1      48.077  29.509  27.491  1.00  0.00     0.041 A 
ATOM     89  F   UNL A   1      46.439  30.845  28.486  1.00  0.00    -0.206 F 
ATOM     90  C   UNL A   1      48.504  28.281  27.001  1.00  0.00     0.022 A 
BRANCH  87  91
ATOM     91  S   UNL A   1      48.253  25.578  26.438  1.00  0.00     0.124 S 
ATOM     92  O   UNL A   1      49.600  25.882  25.971  1.00  0.00    -0.237 OA
ATOM     93  O   UNL A   1      48.163  24.728  27.623  1.00  0.00    -0.237 OA
ATOM     94  O   UNL A   1      47.303  25.236  25.376  1.00  0.00    -0.744 OA
ENDBRANCH  87  91
ENDBRANCH  61  84
ENDBRANCH  35  36
ENDBRANCH  27  30
ENDBRANCH  25  26
ENDBRANCH  24  25
ENDBRANCH  23  24
ENDBRANCH   1  23
TORSDOF 20
ENDMDL
MODEL 3
REMARK VINA RESULT:     -10.8      2.514      7.099
REMARK SMILES CC(C)CCn1cc(C(=O)NCCCCCCNC(=O)c2ccc(-c3c4nc(c(-c5cc(S(=O)(=O)[O-])ccc5F)c5ccc([nH]5)c(-c5cc(S(=O)(=O)[O-])ccc5F)c5nc(c(-c6cc(S(=O)(=O)[O-])ccc6F)c6ccc3[nH]6)C=C5)C=C4)cc2)c(-c2ccoc2)n1
REMARK SMILES IDX 14 1 13 2 12 3 11 4 9 5 10 6 8 8 6 9 7 10 90 11 84 12 5 13
REMARK SMILES IDX 4 14 2 15 1 16 3 17 85 18 86 19 89 20 87 21 88 22 15 23
REMARK SMILES IDX 16 24 17 25 18 26 19 27 20 29 21 30 22 31 83 32 23 33 82 34
REMARK SMILES IDX 24 35 25 36 26 37 76 38 27 39 81 40 75 41 77 42 28 43 80 44
REMARK SMILES IDX 74 45 73 46 29 48 61 49 41 50 60 51 42 52 45 53 59 54 78 55
REMARK SMILES IDX 43 56 44 57 58 59 79 60 46 61 30 62 31 63 39 64 32 65 38 66
REMARK SMILES IDX 40 67 37 68 33 69 34 70 35 71 36 72 62 73 63 74 71 75 64 76
REMARK SMILES IDX 70 77 72 78 69 79 65 80 66 81 67 82 68 83 47 84 48 85 56 86
REMARK SMILES IDX 49 87 55 88 57 89 54 90 50 91 51 92 52 93 53 94
REMARK H PARENT 11 7 18 28 77 47 45 58
REMARK Flexibility Score: inf
ROOT
ATOM      1  C   UNL A   1      39.945  22.662  26.843  1.00  0.00     0.002 C 
ENDROOT
BRANCH   1   2
ATOM      2  C   UNL A   1      39.074  23.868  26.499  1.00  0.00     0.021 C 
BRANCH   2   3
ATOM      3  C   UNL A   1      37.644  23.551  26.077  1.00  0.00     0.116 C 
BRANCH   3   4
ATOM      4  N   UNL A   1      37.470  23.440  24.641  1.00  0.00    -0.352 N 
ATOM      5  C   UNL A   1      36.451  22.919  23.880  1.00  0.00     0.255 C 
ATOM      6  O   UNL A   1      36.605  22.944  22.657  1.00  0.00    -0.269 OA
ATOM      7  H   UNL A   1      38.219  23.805  24.115  1.00  0.00     0.163 HD
BRANCH   5   8
ATOM      8  C   UNL A   1      35.271  22.338  24.500  1.00  0.00     0.085 A 
ATOM      9  N   UNL A   1      33.752  20.918  25.223  1.00  0.00    -0.271 N 
ATOM     10  C   UNL A   1      35.080  21.042  24.946  1.00  0.00     0.123 A 
ATOM     11  N   UNL A   1      33.144  22.108  25.357  1.00  0.00    -0.172 NA
ATOM     12  C   UNL A   1      34.067  22.978  24.915  1.00  0.00     0.108 A 
BRANCH   9  13
ATOM     13  C   UNL A   1      33.033  19.673  25.420  1.00  0.00     0.144 C 
BRANCH  13  14
ATOM     14  C   UNL A   1      33.106  18.706  24.225  1.00  0.00     0.027 C 
BRANCH  14  15
ATOM     15  C   UNL A   1      33.965  17.435  24.412  1.00  0.00    -0.016 C 
ATOM     16  C   UNL A   1      33.361  16.439  25.404  1.00  0.00     0.007 C 
ATOM     17  C   UNL A   1      34.178  16.733  23.066  1.00  0.00     0.007 C 
ENDBRANCH  14  15
ENDBRANCH  13  14
ENDBRANCH   9  13
BRANCH  12  18
ATOM     18  C   UNL A   1      33.859  24.417  24.974  1.00  0.00     0.041 A 
ATOM     19  C   UNL A   1      33.261  25.085  26.072  1.00  0.00     0.052 A 
ATOM     20  C   UNL A   1      34.227  25.392  24.079  1.00  0.00     0.205 A 
ATOM     21  C   UNL A   1      33.331  26.427  25.783  1.00  0.00     0.195 A 
ATOM     22  O   UNL A   1      33.904  26.623  24.565  1.00  0.00    -0.472 OA
ENDBRANCH  12  18
ENDBRANCH   5   8
ENDBRANCH   3   4
ENDBRANCH   2   3
ENDBRANCH   1   2
BRANCH   1  23
ATOM     23  C   UNL A   1      39.528  21.324  26.216  1.00  0.00     0.002 C 
BRANCH  23  24
ATOM     24  C   UNL A   1      40.608  20.236  26.126  1.00  0.00     0.021 C 
BRANCH  24  25
ATOM     25  C   UNL A   1      41.923  20.602  26.798  1.00  0.00     0.116 C 
BRANCH  25  26
ATOM     26  N   UNL A   1      43.076  20.391  25.925  1.00  0.00    -0.352 N 
ATOM     27  C   UNL A   1      43.833  21.348  25.284  1.00  0.00     0.251 C 
ATOM     28  H   UNL A   1      43.344  19.455  25.778  1.00  0.00     0.163 HD
ATOM     29  O   UNL A   1      44.490  21.054  24.283  1.00  0.00    -0.269 OA
BRANCH  27  30
ATOM     30  C   UNL A   1      43.855  22.719  25.824  1.00  0.00     0.039 A 
ATOM     31  C   UNL A   1      43.074  23.745  25.281  1.00  0.00     0.014 A 
ATOM     32  C   UNL A   1      44.690  22.964  26.914  1.00  0.00     0.014 A 
ATOM     33  C   UNL A   1      43.091  24.998  25.893  1.00  0.00     0.010 A 
ATOM     34  C   UNL A   1      44.594  24.146  27.599  1.00  0.00     0.010 A 
ATOM     35  C   UNL A   1      43.846  25.186  27.062  1.00  0.00    -0.014 A 
BRANCH  35  36
ATOM     36  C   UNL A   1      43.742  26.403  27.865  1.00  0.00     0.031 A 
ATOM     37  C   UNL A   1      44.853  27.358  27.605  1.00  0.00     0.074 A 
ATOM     38  C   UNL A   1      42.614  26.744  28.532  1.00  0.00     0.049 A 
ATOM     39  N   UNL A   1      45.843  27.645  28.385  1.00  0.00    -0.248 NA
ATOM     40  C   UNL A   1      45.012  27.892  26.239  1.00  0.00     0.031 C 
ATOM     41  C   UNL A   1      41.348  26.003  28.590  1.00  0.00     0.029 A 
ATOM     42  N   UNL A   1      42.310  27.885  29.210  1.00  0.00    -0.354 N 
ATOM     43  C   UNL A   1      46.562  28.633  27.720  1.00  0.00     0.074 A 
ATOM     44  C   UNL A   1      46.186  28.520  26.339  1.00  0.00     0.031 C 
ATOM     45  C   UNL A   1      40.365  26.808  29.055  1.00  0.00     0.029 A 
ATOM     46  C   UNL A   1      40.948  28.073  29.474  1.00  0.00     0.049 A 
ATOM     47  H   UNL A   1      42.997  28.530  29.495  1.00  0.00     0.167 HD
ATOM     48  C   UNL A   1      47.133  29.660  28.413  1.00  0.00     0.034 A 
ATOM     49  C   UNL A   1      40.341  29.185  29.980  1.00  0.00     0.034 A 
ATOM     50  C   UNL A   1      47.180  29.346  29.829  1.00  0.00     0.049 A 
ATOM     51  C   UNL A   1      41.404  29.966  30.661  1.00  0.00     0.074 A 
ATOM     52  C   UNL A   1      47.711  28.311  30.577  1.00  0.00     0.029 A 
ATOM     53  N   UNL A   1      46.255  29.955  30.651  1.00  0.00    -0.354 N 
ATOM     54  N   UNL A   1      42.033  29.533  31.718  1.00  0.00    -0.248 NA
ATOM     55  C   UNL A   1      42.123  30.958  29.876  1.00  0.00     0.031 C 
ATOM     56  C   UNL A   1      46.731  28.044  31.580  1.00  0.00     0.029 A 
ATOM     57  C   UNL A   1      45.714  28.994  31.467  1.00  0.00     0.049 A 
ATOM     58  H   UNL A   1      46.023  30.911  30.651  1.00  0.00     0.167 HD
ATOM     59  C   UNL A   1      43.366  29.832  31.486  1.00  0.00     0.074 A 
ATOM     60  C   UNL A   1      43.350  30.795  30.383  1.00  0.00     0.031 C 
ATOM     61  C   UNL A   1      44.363  29.047  31.997  1.00  0.00     0.034 A 
BRANCH  48  62
ATOM     62  C   UNL A   1      47.234  31.095  27.916  1.00  0.00     0.023 A 
ATOM     63  C   UNL A   1      46.021  31.724  27.576  1.00  0.00     0.031 A 
ATOM     64  C   UNL A   1      48.403  31.757  27.475  1.00  0.00     0.131 A 
ATOM     65  C   UNL A   1      45.994  32.832  26.714  1.00  0.00     0.055 A 
ATOM     66  C   UNL A   1      48.373  32.902  26.673  1.00  0.00     0.041 A 
ATOM     67  F   UNL A   1      49.638  31.308  27.717  1.00  0.00    -0.206 F 
ATOM     68  C   UNL A   1      47.164  33.423  26.252  1.00  0.00     0.022 A 
BRANCH  65  69
ATOM     69  S   UNL A   1      44.394  33.352  26.051  1.00  0.00     0.124 S 
ATOM     70  O   UNL A   1      44.803  34.354  25.074  1.00  0.00    -0.237 OA
ATOM     71  O   UNL A   1      43.872  32.099  25.514  1.00  0.00    -0.237 OA
ATOM     72  O   UNL A   1      43.694  33.868  27.225  1.00  0.00    -0.744 OA
ENDBRANCH  65  69
ENDBRANCH  48  62
BRANCH  49  73
ATOM     73  C   UNL A   1      39.001  29.763  29.639  1.00  0.00     0.023 A 
ATOM     74  C   UNL A   1      38.198  30.485  30.558  1.00  0.00     0.031 A 
ATOM     75  C   UNL A   1      38.608  29.830  28.283  1.00  0.00     0.131 A 
ATOM     76  C   UNL A   1      37.073  31.226  30.106  1.00  0.00     0.055 A 
ATOM     77  C   UNL A   1      37.503  30.566  27.844  1.00  0.00     0.041 A 
ATOM     78  F   UNL A   1      39.342  29.252  27.320  1.00  0.00    -0.206 F 
ATOM     79  C   UNL A   1      36.737  31.277  28.753  1.00  0.00     0.022 A 
BRANCH  76  80
ATOM     80  S   UNL A   1      36.060  32.217  31.264  1.00  0.00     0.124 S 
ATOM     81  O   UNL A   1      34.775  32.282  30.579  1.00  0.00    -0.237 OA
ATOM     82  O   UNL A   1      36.108  31.423  32.485  1.00  0.00    -0.237 OA
ATOM     83  O   UNL A   1      36.777  33.492  31.339  1.00  0.00    -0.744 OA
ENDBRANCH  76  80
ENDBRANCH  49  73
BRANCH  61  84
ATOM     84  C   UNL A   1      44.006  28.036  33.071  1.00  0.00     0.023 A 
ATOM     85  C   UNL A   1      43.706  28.339  34.420  1.00  0.00     0.031 A 
ATOM     86  C   UNL A   1      43.858  26.701  32.655  1.00  0.00     0.131 A 
ATOM     87  C   UNL A   1      43.289  27.314  35.296  1.00  0.00     0.055 A 
ATOM     88  C   UNL A   1      43.423  25.698  33.516  1.00  0.00     0.041 A 
ATOM     89  F   UNL A   1      44.106  26.355  31.380  1.00  0.00    -0.206 F 
ATOM     90  C   UNL A   1      43.142  25.999  34.843  1.00  0.00     0.022 A 
BRANCH  87  91
ATOM     91  S   UNL A   1      42.949  27.660  37.054  1.00  0.00     0.124 S 
ATOM     92  O   UNL A   1      44.211  27.347  37.714  1.00  0.00    -0.237 OA
ATOM     93  O   UNL A   1      42.571  29.070  37.032  1.00  0.00    -0.237 OA
ATOM     94  O   UNL A   1      41.851  26.745  37.375  1.00  0.00    -0.744 OA
ENDBRANCH  87  91
ENDBRANCH  61  84
ENDBRANCH  35  36
ENDBRANCH  27  30
ENDBRANCH  25  26
ENDBRANCH  24  25
ENDBRANCH  23  24
ENDBRANCH   1  23
TORSDOF 20
ENDMDL
