MODEL 1
REMARK VINA RESULT:      -9.9      0.000      0.000
REMARK SMILES CC[N@H+](CC(C)(C)C(=O)NCCCCCCNC(=O)c1ccc(-c2c3nc(c(-c4cc(S(=O)(=O)[O-])ccc4F)c4ccc([nH]4)c(-c4cc(S(=O)(=O)[O-])ccc4F)c4nc(c(-c5cc(S(=O)(=O)[O-])ccc5F)c5ccc2[nH]5)C=C4)C=C3)cc1)[C@H]1CC[NH2+]C1
REMARK SMILES IDX 13 1 12 2 11 3 10 4 8 5 9 6 5 8 6 9 7 10 4 11 3 12 2 14 1 15
REMARK SMILES IDX 83 16 84 17 87 18 85 19 86 20 14 23 15 24 16 25 17 26 18 27
REMARK SMILES IDX 19 29 20 30 21 31 82 32 22 33 81 34 23 35 24 36 25 37 75 38
REMARK SMILES IDX 26 39 80 40 74 41 76 42 27 43 79 44 73 45 72 46 28 48 60 49
REMARK SMILES IDX 40 50 59 51 41 52 44 53 58 54 77 55 42 56 43 57 57 59 78 60
REMARK SMILES IDX 45 61 29 62 30 63 38 64 31 65 37 66 39 67 36 68 32 69 33 70
REMARK SMILES IDX 34 71 35 72 61 73 62 74 70 75 63 76 69 77 71 78 68 79 64 80
REMARK SMILES IDX 65 81 66 82 67 83 46 84 47 85 55 86 48 87 54 88 56 89 53 90
REMARK SMILES IDX 49 91 50 92 51 93 52 94
REMARK H PARENT 10 7 3 13 86 21 86 22 17 28 76 47 44 58
REMARK Flexibility Score: inf
ROOT
ATOM      1  C   UNL A   1      31.443  28.759  26.680  1.00  0.00     0.002 C 
ENDROOT
BRANCH   1   2
ATOM      2  C   UNL A   1      31.750  28.338  25.236  1.00  0.00     0.021 C 
BRANCH   2   3
ATOM      3  C   UNL A   1      31.062  27.037  24.820  1.00  0.00     0.116 C 
BRANCH   3   4
ATOM      4  N   UNL A   1      30.611  26.335  26.001  1.00  0.00    -0.355 N 
ATOM      5  C   UNL A   1      30.209  25.044  26.112  1.00  0.00     0.231 C 
ATOM      6  O   UNL A   1      29.235  24.845  26.844  1.00  0.00    -0.274 OA
ATOM      7  H   UNL A   1      30.591  26.863  26.831  1.00  0.00     0.163 HD
BRANCH   5   8
ATOM      8  C   UNL A   1      30.920  23.908  25.357  1.00  0.00     0.092 C 
ATOM      9  C   UNL A   1      30.678  23.913  23.839  1.00  0.00     0.027 C 
ATOM     10  C   UNL A   1      30.458  22.571  25.977  1.00  0.00     0.027 C 
BRANCH   8  11
ATOM     11  C   UNL A   1      32.461  24.016  25.619  1.00  0.00     0.279 C 
BRANCH  11  12
ATOM     12  N   UNL A   1      33.417  23.687  24.519  1.00  0.00    -0.327 N 
ATOM     13  H   UNL A   1      32.879  23.577  23.660  1.00  0.00     0.348 HD
BRANCH  12  14
ATOM     14  C   UNL A   1      34.370  24.791  24.285  1.00  0.00     0.259 C 
ATOM     15  C   UNL A   1      34.481  25.823  25.406  1.00  0.00     0.071 C 
ENDBRANCH  12  14
BRANCH  12  16
ATOM     16  C   UNL A   1      34.099  22.398  24.767  1.00  0.00     0.245 C 
ATOM     17  C   UNL A   1      35.546  22.242  24.296  1.00  0.00     0.132 C 
ATOM     18  C   UNL A   1      34.158  21.985  26.255  1.00  0.00     0.326 C 
ATOM     19  C   UNL A   1      36.042  21.100  25.159  1.00  0.00     0.267 C 
ATOM     20  N   UNL A   1      35.485  21.377  26.489  1.00  0.00    -0.341 N 
ATOM     21  H   UNL A   1      36.087  22.025  26.998  1.00  0.00     0.346 HD
ATOM     22  H   UNL A   1      35.414  20.527  27.049  1.00  0.00     0.346 HD
ENDBRANCH  12  16
ENDBRANCH  11  12
ENDBRANCH   8  11
ENDBRANCH   5   8
ENDBRANCH   3   4
ENDBRANCH   2   3
ENDBRANCH   1   2
BRANCH   1  23
ATOM     23  C   UNL A   1      32.436  29.763  27.274  1.00  0.00     0.002 C 
BRANCH  23  24
ATOM     24  C   UNL A   1      32.138  31.224  26.933  1.00  0.00     0.021 C 
BRANCH  24  25
ATOM     25  C   UNL A   1      33.339  32.149  27.073  1.00  0.00     0.116 C 
BRANCH  25  26
ATOM     26  N   UNL A   1      32.943  33.476  27.512  1.00  0.00    -0.352 N 
ATOM     27  C   UNL A   1      33.348  34.163  28.627  1.00  0.00     0.251 C 
ATOM     28  H   UNL A   1      32.298  33.944  26.933  1.00  0.00     0.163 HD
ATOM     29  O   UNL A   1      32.740  35.171  28.983  1.00  0.00    -0.269 OA
BRANCH  27  30
ATOM     30  C   UNL A   1      34.503  33.665  29.403  1.00  0.00     0.039 A 
ATOM     31  C   UNL A   1      34.301  32.666  30.355  1.00  0.00     0.014 A 
ATOM     32  C   UNL A   1      35.785  34.176  29.174  1.00  0.00     0.014 A 
ATOM     33  C   UNL A   1      35.394  32.143  31.046  1.00  0.00     0.010 A 
ATOM     34  C   UNL A   1      36.881  33.596  29.802  1.00  0.00     0.010 A 
ATOM     35  C   UNL A   1      36.697  32.581  30.753  1.00  0.00    -0.014 A 
BRANCH  35  36
ATOM     36  C   UNL A   1      37.878  32.006  31.449  1.00  0.00     0.031 A 
ATOM     37  C   UNL A   1      38.673  30.910  30.796  1.00  0.00     0.074 A 
ATOM     38  C   UNL A   1      38.204  32.440  32.682  1.00  0.00     0.049 A 
ATOM     39  N   UNL A   1      39.693  30.235  31.261  1.00  0.00    -0.248 NA
ATOM     40  C   UNL A   1      38.243  30.496  29.451  1.00  0.00     0.031 C 
ATOM     41  C   UNL A   1      37.490  33.477  33.430  1.00  0.00     0.029 A 
ATOM     42  N   UNL A   1      39.215  32.061  33.528  1.00  0.00    -0.354 N 
ATOM     43  C   UNL A   1      40.022  29.316  30.272  1.00  0.00     0.074 A 
ATOM     44  C   UNL A   1      39.044  29.469  29.216  1.00  0.00     0.031 C 
ATOM     45  C   UNL A   1      38.107  33.676  34.605  1.00  0.00     0.029 A 
ATOM     46  C   UNL A   1      39.226  32.747  34.721  1.00  0.00     0.049 A 
ATOM     47  H   UNL A   1      39.874  31.364  33.302  1.00  0.00     0.167 HD
ATOM     48  C   UNL A   1      41.060  28.443  30.234  1.00  0.00     0.034 A 
ATOM     49  C   UNL A   1      40.037  32.630  35.792  1.00  0.00     0.034 A 
ATOM     50  C   UNL A   1      42.026  28.305  31.297  1.00  0.00     0.049 A 
ATOM     51  C   UNL A   1      41.152  31.615  35.751  1.00  0.00     0.074 A 
ATOM     52  C   UNL A   1      43.138  27.483  31.350  1.00  0.00     0.029 A 
ATOM     53  N   UNL A   1      41.991  29.001  32.499  1.00  0.00    -0.354 N 
ATOM     54  N   UNL A   1      41.476  30.780  34.790  1.00  0.00    -0.248 NA
ATOM     55  C   UNL A   1      42.018  31.536  36.934  1.00  0.00     0.031 C 
ATOM     56  C   UNL A   1      43.727  27.621  32.611  1.00  0.00     0.029 A 
ATOM     57  C   UNL A   1      43.041  28.600  33.313  1.00  0.00     0.049 A 
ATOM     58  H   UNL A   1      41.321  29.680  32.739  1.00  0.00     0.167 HD
ATOM     59  C   UNL A   1      42.608  30.104  35.240  1.00  0.00     0.074 A 
ATOM     60  C   UNL A   1      42.914  30.639  36.551  1.00  0.00     0.031 C 
ATOM     61  C   UNL A   1      43.331  29.135  34.623  1.00  0.00     0.034 A 
BRANCH  48  62
ATOM     62  C   UNL A   1      41.178  27.558  29.015  1.00  0.00     0.023 A 
ATOM     63  C   UNL A   1      42.168  27.773  28.039  1.00  0.00     0.031 A 
ATOM     64  C   UNL A   1      40.268  26.506  28.803  1.00  0.00     0.131 A 
ATOM     65  C   UNL A   1      42.169  27.012  26.860  1.00  0.00     0.055 A 
ATOM     66  C   UNL A   1      40.333  25.692  27.671  1.00  0.00     0.041 A 
ATOM     67  F   UNL A   1      39.285  26.264  29.685  1.00  0.00    -0.206 F 
ATOM     68  C   UNL A   1      41.276  25.953  26.681  1.00  0.00     0.022 A 
BRANCH  65  69
ATOM     69  S   UNL A   1      43.241  27.538  25.494  1.00  0.00     0.124 S 
ATOM     70  O   UNL A   1      43.782  26.260  25.037  1.00  0.00    -0.237 OA
ATOM     71  O   UNL A   1      42.304  28.195  24.593  1.00  0.00    -0.237 OA
ATOM     72  O   UNL A   1      44.211  28.419  26.141  1.00  0.00    -0.744 OA
ENDBRANCH  65  69
ENDBRANCH  48  62
BRANCH  49  73
ATOM     73  C   UNL A   1      39.829  33.486  36.995  1.00  0.00     0.023 A 
ATOM     74  C   UNL A   1      39.104  33.015  38.100  1.00  0.00     0.031 A 
ATOM     75  C   UNL A   1      40.315  34.806  37.041  1.00  0.00     0.131 A 
ATOM     76  C   UNL A   1      38.840  33.870  39.182  1.00  0.00     0.055 A 
ATOM     77  C   UNL A   1      40.101  35.633  38.145  1.00  0.00     0.041 A 
ATOM     78  F   UNL A   1      41.017  35.308  36.013  1.00  0.00    -0.206 F 
ATOM     79  C   UNL A   1      39.347  35.170  39.219  1.00  0.00     0.022 A 
BRANCH  76  80
ATOM     80  S   UNL A   1      37.739  33.287  40.500  1.00  0.00     0.124 S 
ATOM     81  O   UNL A   1      37.474  34.519  41.232  1.00  0.00    -0.237 OA
ATOM     82  O   UNL A   1      36.621  32.737  39.739  1.00  0.00    -0.237 OA
ATOM     83  O   UNL A   1      38.552  32.300  41.210  1.00  0.00    -0.744 OA
ENDBRANCH  76  80
ENDBRANCH  49  73
BRANCH  61  84
ATOM     84  C   UNL A   1      44.562  28.631  35.342  1.00  0.00     0.023 A 
ATOM     85  C   UNL A   1      44.555  27.438  36.084  1.00  0.00     0.031 A 
ATOM     86  C   UNL A   1      45.760  29.367  35.288  1.00  0.00     0.131 A 
ATOM     87  C   UNL A   1      45.703  27.047  36.790  1.00  0.00     0.055 A 
ATOM     88  C   UNL A   1      46.919  28.937  35.934  1.00  0.00     0.041 A 
ATOM     89  F   UNL A   1      45.825  30.518  34.597  1.00  0.00    -0.206 F 
ATOM     90  C   UNL A   1      46.891  27.778  36.704  1.00  0.00     0.022 A 
BRANCH  87  91
ATOM     91  S   UNL A   1      45.595  25.624  37.910  1.00  0.00     0.124 S 
ATOM     92  O   UNL A   1      45.806  26.247  39.213  1.00  0.00    -0.237 OA
ATOM     93  O   UNL A   1      44.248  25.126  37.653  1.00  0.00    -0.237 OA
ATOM     94  O   UNL A   1      46.675  24.749  37.459  1.00  0.00    -0.744 OA
ENDBRANCH  87  91
ENDBRANCH  61  84
ENDBRANCH  35  36
ENDBRANCH  27  30
ENDBRANCH  25  26
ENDBRANCH  24  25
ENDBRANCH  23  24
ENDBRANCH   1  23
TORSDOF 20
ENDMDL
MODEL 2
REMARK VINA RESULT:      -9.9      2.074      7.995
REMARK SMILES CC[N@H+](CC(C)(C)C(=O)NCCCCCCNC(=O)c1ccc(-c2c3nc(c(-c4cc(S(=O)(=O)[O-])ccc4F)c4ccc([nH]4)c(-c4cc(S(=O)(=O)[O-])ccc4F)c4nc(c(-c5cc(S(=O)(=O)[O-])ccc5F)c5ccc2[nH]5)C=C4)C=C3)cc1)[C@H]1CC[NH2+]C1
REMARK SMILES IDX 13 1 12 2 11 3 10 4 8 5 9 6 5 8 6 9 7 10 4 11 3 12 2 14 1 15
REMARK SMILES IDX 83 16 84 17 87 18 85 19 86 20 14 23 15 24 16 25 17 26 18 27
REMARK SMILES IDX 19 29 20 30 21 31 82 32 22 33 81 34 23 35 24 36 25 37 75 38
REMARK SMILES IDX 26 39 80 40 74 41 76 42 27 43 79 44 73 45 72 46 28 48 60 49
REMARK SMILES IDX 40 50 59 51 41 52 44 53 58 54 77 55 42 56 43 57 57 59 78 60
REMARK SMILES IDX 45 61 29 62 30 63 38 64 31 65 37 66 39 67 36 68 32 69 33 70
REMARK SMILES IDX 34 71 35 72 61 73 62 74 70 75 63 76 69 77 71 78 68 79 64 80
REMARK SMILES IDX 65 81 66 82 67 83 46 84 47 85 55 86 48 87 54 88 56 89 53 90
REMARK SMILES IDX 49 91 50 92 51 93 52 94
REMARK H PARENT 10 7 3 13 86 21 86 22 17 28 76 47 44 58
REMARK Flexibility Score: inf
ROOT
ATOM      1  C   UNL A   1      33.440  29.164  25.755  1.00  0.00     0.002 C 
ENDROOT
BRANCH   1   2
ATOM      2  C   UNL A   1      33.763  27.816  25.096  1.00  0.00     0.021 C 
BRANCH   2   3
ATOM      3  C   UNL A   1      32.523  26.984  24.767  1.00  0.00     0.116 C 
BRANCH   3   4
ATOM      4  N   UNL A   1      32.548  26.618  23.369  1.00  0.00    -0.355 N 
ATOM      5  C   UNL A   1      33.337  25.703  22.751  1.00  0.00     0.231 C 
ATOM      6  O   UNL A   1      33.770  26.029  21.641  1.00  0.00    -0.274 OA
ATOM      7  H   UNL A   1      31.911  27.096  22.791  1.00  0.00     0.163 HD
BRANCH   5   8
ATOM      8  C   UNL A   1      33.678  24.354  23.406  1.00  0.00     0.092 C 
ATOM      9  C   UNL A   1      34.891  24.402  24.349  1.00  0.00     0.027 C 
ATOM     10  C   UNL A   1      33.907  23.327  22.276  1.00  0.00     0.027 C 
BRANCH   8  11
ATOM     11  C   UNL A   1      32.432  23.860  24.218  1.00  0.00     0.279 C 
BRANCH  11  12
ATOM     12  N   UNL A   1      32.616  23.366  25.616  1.00  0.00    -0.327 N 
ATOM     13  H   UNL A   1      33.593  23.510  25.872  1.00  0.00     0.348 HD
BRANCH  12  14
ATOM     14  C   UNL A   1      31.807  24.148  26.573  1.00  0.00     0.259 C 
ATOM     15  C   UNL A   1      30.344  23.728  26.707  1.00  0.00     0.071 C 
ENDBRANCH  12  14
BRANCH  12  16
ATOM     16  C   UNL A   1      32.355  21.914  25.713  1.00  0.00     0.245 C 
ATOM     17  C   UNL A   1      32.689  21.035  24.506  1.00  0.00     0.132 C 
ATOM     18  C   UNL A   1      33.085  21.213  26.882  1.00  0.00     0.326 C 
ATOM     19  C   UNL A   1      32.812  19.662  25.134  1.00  0.00     0.267 C 
ATOM     20  N   UNL A   1      33.541  19.896  26.388  1.00  0.00    -0.341 N 
ATOM     21  H   UNL A   1      34.546  19.909  26.217  1.00  0.00     0.346 HD
ATOM     22  H   UNL A   1      33.359  19.158  27.069  1.00  0.00     0.346 HD
ENDBRANCH  12  16
ENDBRANCH  11  12
ENDBRANCH   8  11
ENDBRANCH   5   8
ENDBRANCH   3   4
ENDBRANCH   2   3
ENDBRANCH   1   2
BRANCH   1  23
ATOM     23  C   UNL A   1      32.065  29.735  25.392  1.00  0.00     0.002 C 
BRANCH  23  24
ATOM     24  C   UNL A   1      31.668  30.980  26.188  1.00  0.00     0.021 C 
BRANCH  24  25
ATOM     25  C   UNL A   1      32.735  31.456  27.164  1.00  0.00     0.116 C 
BRANCH  25  26
ATOM     26  N   UNL A   1      32.763  32.905  27.261  1.00  0.00    -0.352 N 
ATOM     27  C   UNL A   1      33.569  33.695  28.040  1.00  0.00     0.251 C 
ATOM     28  H   UNL A   1      32.117  33.384  26.691  1.00  0.00     0.163 HD
ATOM     29  O   UNL A   1      33.304  34.886  28.187  1.00  0.00    -0.269 OA
BRANCH  27  30
ATOM     30  C   UNL A   1      34.736  33.091  28.714  1.00  0.00     0.039 A 
ATOM     31  C   UNL A   1      34.530  32.257  29.813  1.00  0.00     0.014 A 
ATOM     32  C   UNL A   1      36.032  33.340  28.248  1.00  0.00     0.014 A 
ATOM     33  C   UNL A   1      35.621  31.631  30.416  1.00  0.00     0.010 A 
ATOM     34  C   UNL A   1      37.106  32.650  28.797  1.00  0.00     0.010 A 
ATOM     35  C   UNL A   1      36.915  31.797  29.894  1.00  0.00    -0.014 A 
BRANCH  35  36
ATOM     36  C   UNL A   1      38.084  31.105  30.497  1.00  0.00     0.031 A 
ATOM     37  C   UNL A   1      38.548  31.481  31.877  1.00  0.00     0.074 A 
ATOM     38  C   UNL A   1      38.750  30.175  29.786  1.00  0.00     0.049 A 
ATOM     39  N   UNL A   1      39.579  31.044  32.553  1.00  0.00    -0.248 NA
ATOM     40  C   UNL A   1      37.763  32.509  32.578  1.00  0.00     0.031 C 
ATOM     41  C   UNL A   1      38.412  29.747  28.426  1.00  0.00     0.029 A 
ATOM     42  N   UNL A   1      39.853  29.422  30.104  1.00  0.00    -0.354 N 
ATOM     43  C   UNL A   1      39.571  31.746  33.753  1.00  0.00     0.074 A 
ATOM     44  C   UNL A   1      38.478  32.692  33.677  1.00  0.00     0.031 C 
ATOM     45  C   UNL A   1      39.267  28.786  28.043  1.00  0.00     0.029 A 
ATOM     46  C   UNL A   1      40.245  28.563  29.103  1.00  0.00     0.049 A 
ATOM     47  H   UNL A   1      40.320  29.489  30.968  1.00  0.00     0.167 HD
ATOM     48  C   UNL A   1      40.383  31.598  34.830  1.00  0.00     0.034 A 
ATOM     49  C   UNL A   1      41.282  27.705  29.041  1.00  0.00     0.034 A 
ATOM     50  C   UNL A   1      41.468  30.648  34.887  1.00  0.00     0.049 A 
ATOM     51  C   UNL A   1      42.205  27.594  30.229  1.00  0.00     0.074 A 
ATOM     52  C   UNL A   1      42.330  30.385  35.938  1.00  0.00     0.029 A 
ATOM     53  N   UNL A   1      41.848  29.810  33.845  1.00  0.00    -0.354 N 
ATOM     54  N   UNL A   1      42.160  28.237  31.374  1.00  0.00    -0.248 NA
ATOM     55  C   UNL A   1      43.311  26.635  30.121  1.00  0.00     0.031 C 
ATOM     56  C   UNL A   1      43.277  29.451  35.507  1.00  0.00     0.029 A 
ATOM     57  C   UNL A   1      42.953  29.057  34.217  1.00  0.00     0.049 A 
ATOM     58  H   UNL A   1      41.399  29.758  32.971  1.00  0.00     0.167 HD
ATOM     59  C   UNL A   1      43.210  27.729  32.136  1.00  0.00     0.074 A 
ATOM     60  C   UNL A   1      43.859  26.720  31.323  1.00  0.00     0.031 C 
ATOM     61  C   UNL A   1      43.598  28.060  33.394  1.00  0.00     0.034 A 
BRANCH  48  62
ATOM     62  C   UNL A   1      40.137  32.504  36.014  1.00  0.00     0.023 A 
ATOM     63  C   UNL A   1      39.215  32.169  37.021  1.00  0.00     0.031 A 
ATOM     64  C   UNL A   1      40.804  33.738  36.121  1.00  0.00     0.131 A 
ATOM     65  C   UNL A   1      38.919  33.090  38.037  1.00  0.00     0.055 A 
ATOM     66  C   UNL A   1      40.574  34.609  37.188  1.00  0.00     0.041 A 
ATOM     67  F   UNL A   1      41.679  34.126  35.180  1.00  0.00    -0.206 F 
ATOM     68  C   UNL A   1      39.613  34.296  38.144  1.00  0.00     0.022 A 
BRANCH  65  69
ATOM     69  S   UNL A   1      37.496  32.760  39.114  1.00  0.00     0.124 S 
ATOM     70  O   UNL A   1      37.723  31.365  39.482  1.00  0.00    -0.237 OA
ATOM     71  O   UNL A   1      37.673  33.740  40.178  1.00  0.00    -0.237 OA
ATOM     72  O   UNL A   1      36.346  32.986  38.240  1.00  0.00    -0.744 OA
ENDBRANCH  65  69
ENDBRANCH  48  62
BRANCH  49  73
ATOM     73  C   UNL A   1      41.514  26.884  27.818  1.00  0.00     0.023 A 
ATOM     74  C   UNL A   1      41.093  25.547  27.755  1.00  0.00     0.031 A 
ATOM     75  C   UNL A   1      42.200  27.411  26.708  1.00  0.00     0.131 A 
ATOM     76  C   UNL A   1      41.405  24.765  26.631  1.00  0.00     0.055 A 
ATOM     77  C   UNL A   1      42.456  26.647  25.568  1.00  0.00     0.041 A 
ATOM     78  F   UNL A   1      42.623  28.685  26.713  1.00  0.00    -0.206 F 
ATOM     79  C   UNL A   1      42.070  25.311  25.531  1.00  0.00     0.022 A 
BRANCH  76  80
ATOM     80  S   UNL A   1      41.015  22.994  26.670  1.00  0.00     0.124 S 
ATOM     81  O   UNL A   1      41.860  22.481  25.599  1.00  0.00    -0.237 OA
ATOM     82  O   UNL A   1      41.404  22.629  28.028  1.00  0.00    -0.237 OA
ATOM     83  O   UNL A   1      39.578  22.958  26.404  1.00  0.00    -0.744 OA
ENDBRANCH  76  80
ENDBRANCH  49  73
BRANCH  61  84
ATOM     84  C   UNL A   1      44.748  27.281  33.989  1.00  0.00     0.023 A 
ATOM     85  C   UNL A   1      44.546  26.109  34.737  1.00  0.00     0.031 A 
ATOM     86  C   UNL A   1      46.070  27.730  33.809  1.00  0.00     0.131 A 
ATOM     87  C   UNL A   1      45.641  25.459  35.327  1.00  0.00     0.055 A 
ATOM     88  C   UNL A   1      47.160  27.040  34.339  1.00  0.00     0.041 A 
ATOM     89  F   UNL A   1      46.323  28.847  33.107  1.00  0.00    -0.206 F 
ATOM     90  C   UNL A   1      46.948  25.905  35.117  1.00  0.00     0.022 A 
BRANCH  87  91
ATOM     91  S   UNL A   1      45.326  24.080  36.463  1.00  0.00     0.124 S 
ATOM     92  O   UNL A   1      44.382  24.673  37.405  1.00  0.00    -0.237 OA
ATOM     93  O   UNL A   1      44.784  23.060  35.573  1.00  0.00    -0.237 OA
ATOM     94  O   UNL A   1      46.647  23.782  37.015  1.00  0.00    -0.744 OA
ENDBRANCH  87  91
ENDBRANCH  61  84
ENDBRANCH  35  36
ENDBRANCH  27  30
ENDBRANCH  25  26
ENDBRANCH  24  25
ENDBRANCH  23  24
ENDBRANCH   1  23
TORSDOF 20
ENDMDL
MODEL 3
REMARK VINA RESULT:      -9.7      5.623      9.462
REMARK SMILES CC[N@H+](CC(C)(C)C(=O)NCCCCCCNC(=O)c1ccc(-c2c3nc(c(-c4cc(S(=O)(=O)[O-])ccc4F)c4ccc([nH]4)c(-c4cc(S(=O)(=O)[O-])ccc4F)c4nc(c(-c5cc(S(=O)(=O)[O-])ccc5F)c5ccc2[nH]5)C=C4)C=C3)cc1)[C@H]1CC[NH2+]C1
REMARK SMILES IDX 13 1 12 2 11 3 10 4 8 5 9 6 5 8 6 9 7 10 4 11 3 12 2 14 1 15
REMARK SMILES IDX 83 16 84 17 87 18 85 19 86 20 14 23 15 24 16 25 17 26 18 27
REMARK SMILES IDX 19 29 20 30 21 31 82 32 22 33 81 34 23 35 24 36 25 37 75 38
REMARK SMILES IDX 26 39 80 40 74 41 76 42 27 43 79 44 73 45 72 46 28 48 60 49
REMARK SMILES IDX 40 50 59 51 41 52 44 53 58 54 77 55 42 56 43 57 57 59 78 60
REMARK SMILES IDX 45 61 29 62 30 63 38 64 31 65 37 66 39 67 36 68 32 69 33 70
REMARK SMILES IDX 34 71 35 72 61 73 62 74 70 75 63 76 69 77 71 78 68 79 64 80
REMARK SMILES IDX 65 81 66 82 67 83 46 84 47 85 55 86 48 87 54 88 56 89 53 90
REMARK SMILES IDX 49 91 50 92 51 93 52 94
REMARK H PARENT 10 7 3 13 86 21 86 22 17 28 76 47 44 58
REMARK Flexibility Score: inf
ROOT
ATOM      1  C   UNL A   1      34.995  20.103  24.973  1.00  0.00     0.002 C 
ENDROOT
BRANCH   1   2
ATOM      2  C   UNL A   1      33.902  20.686  25.879  1.00  0.00     0.021 C 
BRANCH   2   3
ATOM      3  C   UNL A   1      32.599  20.998  25.142  1.00  0.00     0.116 C 
BRANCH   3   4
ATOM      4  N   UNL A   1      31.816  21.927  25.924  1.00  0.00    -0.355 N 
ATOM      5  C   UNL A   1      32.166  23.160  26.370  1.00  0.00     0.231 C 
ATOM      6  O   UNL A   1      31.802  23.441  27.516  1.00  0.00    -0.274 OA
ATOM      7  H   UNL A   1      30.910  21.625  26.166  1.00  0.00     0.163 HD
BRANCH   5   8
ATOM      8  C   UNL A   1      32.980  24.133  25.501  1.00  0.00     0.092 C 
ATOM      9  C   UNL A   1      32.990  23.782  24.004  1.00  0.00     0.027 C 
ATOM     10  C   UNL A   1      34.419  24.172  26.060  1.00  0.00     0.027 C 
BRANCH   8  11
ATOM     11  C   UNL A   1      32.391  25.575  25.674  1.00  0.00     0.279 C 
BRANCH  11  12
ATOM     12  N   UNL A   1      31.774  26.261  24.499  1.00  0.00    -0.327 N 
ATOM     13  H   UNL A   1      32.202  25.882  23.654  1.00  0.00     0.348 HD
BRANCH  12  14
ATOM     14  C   UNL A   1      30.328  25.973  24.406  1.00  0.00     0.259 C 
ATOM     15  C   UNL A   1      29.622  25.678  25.728  1.00  0.00     0.071 C 
ENDBRANCH  12  14
BRANCH  12  16
ATOM     16  C   UNL A   1      32.059  27.712  24.511  1.00  0.00     0.245 C 
ATOM     17  C   UNL A   1      31.766  28.498  25.790  1.00  0.00     0.132 C 
ATOM     18  C   UNL A   1      33.529  28.074  24.195  1.00  0.00     0.326 C 
ATOM     19  C   UNL A   1      32.645  29.721  25.623  1.00  0.00     0.267 C 
ATOM     20  N   UNL A   1      33.904  29.196  25.081  1.00  0.00    -0.341 N 
ATOM     21  H   UNL A   1      34.506  28.866  25.835  1.00  0.00     0.346 HD
ATOM     22  H   UNL A   1      34.421  29.915  24.574  1.00  0.00     0.346 HD
ENDBRANCH  12  16
ENDBRANCH  11  12
ENDBRANCH   8  11
ENDBRANCH   5   8
ENDBRANCH   3   4
ENDBRANCH   2   3
ENDBRANCH   1   2
BRANCH   1  23
ATOM     23  C   UNL A   1      36.314  20.882  24.986  1.00  0.00     0.002 C 
BRANCH  23  24
ATOM     24  C   UNL A   1      37.566  20.004  24.955  1.00  0.00     0.021 C 
BRANCH  24  25
ATOM     25  C   UNL A   1      38.766  20.613  25.667  1.00  0.00     0.116 C 
BRANCH  25  26
ATOM     26  N   UNL A   1      39.805  19.625  25.904  1.00  0.00    -0.352 N 
ATOM     27  C   UNL A   1      41.131  19.830  26.182  1.00  0.00     0.251 C 
ATOM     28  H   UNL A   1      39.518  18.684  25.859  1.00  0.00     0.163 HD
ATOM     29  O   UNL A   1      41.924  18.893  26.117  1.00  0.00    -0.269 OA
BRANCH  27  30
ATOM     30  C   UNL A   1      41.594  21.188  26.535  1.00  0.00     0.039 A 
ATOM     31  C   UNL A   1      41.928  22.078  25.515  1.00  0.00     0.014 A 
ATOM     32  C   UNL A   1      41.681  21.582  27.875  1.00  0.00     0.014 A 
ATOM     33  C   UNL A   1      42.303  23.383  25.836  1.00  0.00     0.010 A 
ATOM     34  C   UNL A   1      41.973  22.905  28.187  1.00  0.00     0.010 A 
ATOM     35  C   UNL A   1      42.298  23.817  27.172  1.00  0.00    -0.014 A 
BRANCH  35  36
ATOM     36  C   UNL A   1      42.655  25.215  27.530  1.00  0.00     0.031 A 
ATOM     37  C   UNL A   1      44.060  25.707  27.321  1.00  0.00     0.074 A 
ATOM     38  C   UNL A   1      41.727  26.021  28.082  1.00  0.00     0.049 A 
ATOM     39  N   UNL A   1      44.587  26.866  27.626  1.00  0.00    -0.248 NA
ATOM     40  C   UNL A   1      45.008  24.758  26.718  1.00  0.00     0.031 C 
ATOM     41  C   UNL A   1      40.339  25.646  28.360  1.00  0.00     0.029 A 
ATOM     42  N   UNL A   1      41.810  27.321  28.512  1.00  0.00    -0.354 N 
ATOM     43  C   UNL A   1      45.925  26.783  27.257  1.00  0.00     0.074 A 
ATOM     44  C   UNL A   1      46.144  25.434  26.780  1.00  0.00     0.031 C 
ATOM     45  C   UNL A   1      39.694  26.702  28.880  1.00  0.00     0.029 A 
ATOM     46  C   UNL A   1      40.630  27.812  29.023  1.00  0.00     0.049 A 
ATOM     47  H   UNL A   1      42.637  27.855  28.459  1.00  0.00     0.167 HD
ATOM     48  C   UNL A   1      46.877  27.749  27.288  1.00  0.00     0.034 A 
ATOM     49  C   UNL A   1      40.340  29.015  29.558  1.00  0.00     0.034 A 
ATOM     50  C   UNL A   1      46.638  29.089  27.767  1.00  0.00     0.049 A 
ATOM     51  C   UNL A   1      41.428  30.058  29.632  1.00  0.00     0.074 A 
ATOM     52  C   UNL A   1      47.516  30.159  27.809  1.00  0.00     0.029 A 
ATOM     53  N   UNL A   1      45.436  29.543  28.298  1.00  0.00    -0.354 N 
ATOM     54  N   UNL A   1      42.680  29.977  29.242  1.00  0.00    -0.248 NA
ATOM     55  C   UNL A   1      41.061  31.357  30.209  1.00  0.00     0.031 C 
ATOM     56  C   UNL A   1      46.872  31.230  28.436  1.00  0.00     0.029 A 
ATOM     57  C   UNL A   1      45.562  30.865  28.701  1.00  0.00     0.049 A 
ATOM     58  H   UNL A   1      44.615  29.006  28.375  1.00  0.00     0.167 HD
ATOM     59  C   UNL A   1      43.237  31.230  29.491  1.00  0.00     0.074 A 
ATOM     60  C   UNL A   1      42.180  32.046  30.053  1.00  0.00     0.031 C 
ATOM     61  C   UNL A   1      44.503  31.666  29.269  1.00  0.00     0.034 A 
BRANCH  48  62
ATOM     62  C   UNL A   1      48.261  27.374  26.815  1.00  0.00     0.023 A 
ATOM     63  C   UNL A   1      49.277  27.010  27.718  1.00  0.00     0.031 A 
ATOM     64  C   UNL A   1      48.587  27.415  25.447  1.00  0.00     0.131 A 
ATOM     65  C   UNL A   1      50.583  26.791  27.255  1.00  0.00     0.055 A 
ATOM     66  C   UNL A   1      49.866  27.103  24.984  1.00  0.00     0.041 A 
ATOM     67  F   UNL A   1      47.669  27.777  24.536  1.00  0.00    -0.206 F 
ATOM     68  C   UNL A   1      50.880  26.807  25.891  1.00  0.00     0.022 A 
BRANCH  65  69
ATOM     69  S   UNL A   1      51.920  26.655  28.475  1.00  0.00     0.124 S 
ATOM     70  O   UNL A   1      52.981  26.041  27.680  1.00  0.00    -0.237 OA
ATOM     71  O   UNL A   1      52.133  28.043  28.865  1.00  0.00    -0.237 OA
ATOM     72  O   UNL A   1      51.351  25.795  29.511  1.00  0.00    -0.744 OA
ENDBRANCH  65  69
ENDBRANCH  48  62
BRANCH  49  73
ATOM     73  C   UNL A   1      38.971  29.305  30.071  1.00  0.00     0.023 A 
ATOM     74  C   UNL A   1      38.020  29.951  29.266  1.00  0.00     0.031 A 
ATOM     75  C   UNL A   1      38.604  28.980  31.390  1.00  0.00     0.131 A 
ATOM     76  C   UNL A   1      36.769  30.299  29.800  1.00  0.00     0.055 A 
ATOM     77  C   UNL A   1      37.338  29.274  31.899  1.00  0.00     0.041 A 
ATOM     78  F   UNL A   1      39.474  28.359  32.204  1.00  0.00    -0.206 F 
ATOM     79  C   UNL A   1      36.416  29.951  31.105  1.00  0.00     0.022 A 
BRANCH  76  80
ATOM     80  S   UNL A   1      35.644  31.302  28.792  1.00  0.00     0.124 S 
ATOM     81  O   UNL A   1      34.811  31.928  29.811  1.00  0.00    -0.237 OA
ATOM     82  O   UNL A   1      36.571  32.183  28.089  1.00  0.00    -0.237 OA
ATOM     83  O   UNL A   1      34.968  30.314  27.953  1.00  0.00    -0.744 OA
ENDBRANCH  76  80
ENDBRANCH  49  73
BRANCH  61  84
ATOM     84  C   UNL A   1      44.798  33.115  29.585  1.00  0.00     0.023 A 
ATOM     85  C   UNL A   1      44.642  34.133  28.630  1.00  0.00     0.031 A 
ATOM     86  C   UNL A   1      45.252  33.477  30.867  1.00  0.00     0.131 A 
ATOM     87  C   UNL A   1      44.995  35.453  28.950  1.00  0.00     0.055 A 
ATOM     88  C   UNL A   1      45.534  34.801  31.201  1.00  0.00     0.041 A 
ATOM     89  F   UNL A   1      45.425  32.546  31.820  1.00  0.00    -0.206 F 
ATOM     90  C   UNL A   1      45.421  35.797  30.236  1.00  0.00     0.022 A 
BRANCH  87  91
ATOM     91  S   UNL A   1      44.990  36.700  27.633  1.00  0.00     0.124 S 
ATOM     92  O   UNL A   1      44.462  37.871  28.326  1.00  0.00    -0.237 OA
ATOM     93  O   UNL A   1      46.398  36.762  27.256  1.00  0.00    -0.237 OA
ATOM     94  O   UNL A   1      44.103  36.127  26.621  1.00  0.00    -0.744 OA
ENDBRANCH  87  91
ENDBRANCH  61  84
ENDBRANCH  35  36
ENDBRANCH  27  30
ENDBRANCH  25  26
ENDBRANCH  24  25
ENDBRANCH  23  24
ENDBRANCH   1  23
TORSDOF 20
ENDMDL
