MODEL 1
REMARK VINA RESULT:     -10.0      0.000      0.000
REMARK SMILES C=CCS(=O)(=O)N[C@H](CC(N)=O)C(=O)NCCCCCCNC(=O)c1ccc(-c2c3nc(c(-c4cc(S(=O)(=O)[O-])ccc4F)c4ccc([nH]4)c(-c4cc(S(=O)(=O)[O-])ccc4F)c4nc(c(-c5cc(S(=O)(=O)[O-])ccc5F)c5ccc2[nH]5)C=C4)C=C3)cc1
REMARK SMILES IDX 18 1 17 2 16 3 15 4 13 5 14 6 8 8 7 9 4 11 5 12 6 13 3 14
REMARK SMILES IDX 2 15 1 16 9 17 10 18 11 19 12 20 19 23 20 24 21 25 22 26
REMARK SMILES IDX 23 27 24 29 25 30 26 31 87 32 27 33 86 34 28 35 29 36 30 37
REMARK SMILES IDX 80 38 31 39 85 40 79 41 81 42 32 43 84 44 78 45 77 46 33 48
REMARK SMILES IDX 65 49 45 50 64 51 46 52 49 53 63 54 82 55 47 56 48 57 62 59
REMARK SMILES IDX 83 60 50 61 34 62 35 63 43 64 36 65 42 66 44 67 41 68 37 69
REMARK SMILES IDX 38 70 39 71 40 72 66 73 67 74 75 75 68 76 74 77 76 78 73 79
REMARK SMILES IDX 69 80 70 81 71 82 72 83 51 84 52 85 60 86 53 87 59 88 61 89
REMARK SMILES IDX 58 90 54 91 55 92 56 93 57 94
REMARK H PARENT 15 7 7 10 11 21 11 22 22 28 81 47 49 58
REMARK Flexibility Score: inf
ROOT
ATOM      1  C   UNL A   1      37.679  21.969  25.346  1.00  0.00     0.002 C 
ENDROOT
BRANCH   1   2
ATOM      2  C   UNL A   1      36.717  23.038  24.815  1.00  0.00     0.021 C 
BRANCH   2   3
ATOM      3  C   UNL A   1      36.113  22.640  23.479  1.00  0.00     0.116 C 
BRANCH   3   4
ATOM      4  N   UNL A   1      34.977  23.464  23.156  1.00  0.00    -0.355 N 
ATOM      5  C   UNL A   1      33.744  23.462  23.708  1.00  0.00     0.238 C 
ATOM      6  O   UNL A   1      32.902  24.203  23.183  1.00  0.00    -0.273 OA
ATOM      7  H   UNL A   1      35.118  24.118  22.433  1.00  0.00     0.163 HD
BRANCH   5   8
ATOM      8  C   UNL A   1      33.343  22.550  24.851  1.00  0.00     0.168 C 
BRANCH   8   9
ATOM      9  N   UNL A   1      32.546  21.321  24.770  1.00  0.00    -0.202 NA
ATOM     10  H   UNL A   1      31.882  21.414  25.538  1.00  0.00     0.141 HD
BRANCH   9  11
ATOM     11  S   UNL A   1      32.973  19.724  24.818  1.00  0.00     0.215 S 
ATOM     12  O   UNL A   1      32.382  19.095  25.975  1.00  0.00    -0.212 OA
ATOM     13  O   UNL A   1      34.419  19.784  24.717  1.00  0.00    -0.212 OA
BRANCH  11  14
ATOM     14  C   UNL A   1      32.419  18.856  23.335  1.00  0.00     0.180 C 
BRANCH  14  15
ATOM     15  C   UNL A   1      33.192  17.616  23.027  1.00  0.00    -0.017 C 
ATOM     16  C   UNL A   1      33.371  16.619  23.906  1.00  0.00     0.005 C 
ENDBRANCH  14  15
ENDBRANCH  11  14
ENDBRANCH   9  11
ENDBRANCH   8   9
BRANCH   8  17
ATOM     17  C   UNL A   1      33.034  23.404  26.102  1.00  0.00     0.129 C 
BRANCH  17  18
ATOM     18  C   UNL A   1      32.174  22.799  27.188  1.00  0.00     0.219 C 
ATOM     19  N   UNL A   1      32.732  21.763  27.879  1.00  0.00    -0.370 N 
ATOM     20  O   UNL A   1      31.075  23.228  27.514  1.00  0.00    -0.275 OA
ATOM     21  H   UNL A   1      33.615  21.418  27.618  1.00  0.00     0.159 HD
ATOM     22  H   UNL A   1      32.250  21.362  28.639  1.00  0.00     0.159 HD
ENDBRANCH  17  18
ENDBRANCH   8  17
ENDBRANCH   5   8
ENDBRANCH   3   4
ENDBRANCH   2   3
ENDBRANCH   1   2
BRANCH   1  23
ATOM     23  C   UNL A   1      37.574  20.606  24.643  1.00  0.00     0.002 C 
BRANCH  23  24
ATOM     24  C   UNL A   1      38.530  19.534  25.175  1.00  0.00     0.021 C 
BRANCH  24  25
ATOM     25  C   UNL A   1      39.556  20.060  26.172  1.00  0.00     0.116 C 
BRANCH  25  26
ATOM     26  N   UNL A   1      40.734  19.210  26.213  1.00  0.00    -0.352 N 
ATOM     27  C   UNL A   1      42.057  19.554  26.175  1.00  0.00     0.251 C 
ATOM     28  H   UNL A   1      40.553  18.245  26.280  1.00  0.00     0.163 HD
ATOM     29  O   UNL A   1      42.902  18.691  25.954  1.00  0.00    -0.269 OA
BRANCH  27  30
ATOM     30  C   UNL A   1      42.457  20.958  26.391  1.00  0.00     0.039 A 
ATOM     31  C   UNL A   1      42.655  21.403  27.698  1.00  0.00     0.014 A 
ATOM     32  C   UNL A   1      42.603  21.839  25.313  1.00  0.00     0.014 A 
ATOM     33  C   UNL A   1      43.031  22.725  27.924  1.00  0.00     0.010 A 
ATOM     34  C   UNL A   1      43.052  23.137  25.535  1.00  0.00     0.010 A 
ATOM     35  C   UNL A   1      43.255  23.596  26.844  1.00  0.00    -0.014 A 
BRANCH  35  36
ATOM     36  C   UNL A   1      43.697  24.992  27.085  1.00  0.00     0.031 A 
ATOM     37  C   UNL A   1      42.737  26.008  27.637  1.00  0.00     0.074 A 
ATOM     38  C   UNL A   1      44.964  25.339  26.781  1.00  0.00     0.049 A 
ATOM     39  N   UNL A   1      42.941  27.268  27.925  1.00  0.00    -0.248 NA
ATOM     40  C   UNL A   1      41.357  25.556  27.875  1.00  0.00     0.031 C 
ATOM     41  C   UNL A   1      45.964  24.445  26.192  1.00  0.00     0.029 A 
ATOM     42  N   UNL A   1      45.629  26.528  26.929  1.00  0.00    -0.354 N 
ATOM     43  C   UNL A   1      41.719  27.760  28.371  1.00  0.00     0.074 A 
ATOM     44  C   UNL A   1      40.765  26.679  28.254  1.00  0.00     0.031 C 
ATOM     45  C   UNL A   1      47.124  25.106  26.065  1.00  0.00     0.029 A 
ATOM     46  C   UNL A   1      46.942  26.481  26.519  1.00  0.00     0.049 A 
ATOM     47  H   UNL A   1      45.208  27.339  27.295  1.00  0.00     0.167 HD
ATOM     48  C   UNL A   1      41.430  28.993  28.855  1.00  0.00     0.034 A 
ATOM     49  C   UNL A   1      47.888  27.439  26.505  1.00  0.00     0.034 A 
ATOM     50  C   UNL A   1      42.402  30.054  28.966  1.00  0.00     0.049 A 
ATOM     51  C   UNL A   1      47.537  28.805  27.037  1.00  0.00     0.074 A 
ATOM     52  C   UNL A   1      42.236  31.324  29.492  1.00  0.00     0.029 A 
ATOM     53  N   UNL A   1      43.722  29.975  28.535  1.00  0.00    -0.354 N 
ATOM     54  N   UNL A   1      46.394  29.235  27.520  1.00  0.00    -0.248 NA
ATOM     55  C   UNL A   1      48.609  29.806  27.041  1.00  0.00     0.031 C 
ATOM     56  C   UNL A   1      43.427  32.034  29.308  1.00  0.00     0.029 A 
ATOM     57  C   UNL A   1      44.367  31.184  28.749  1.00  0.00     0.049 A 
ATOM     58  H   UNL A   1      44.137  29.177  28.134  1.00  0.00     0.167 HD
ATOM     59  C   UNL A   1      46.619  30.553  27.909  1.00  0.00     0.074 A 
ATOM     60  C   UNL A   1      48.013  30.831  27.630  1.00  0.00     0.031 C 
ATOM     61  C   UNL A   1      45.754  31.453  28.447  1.00  0.00     0.034 A 
BRANCH  48  62
ATOM     62  C   UNL A   1      40.002  29.265  29.268  1.00  0.00     0.023 A 
ATOM     63  C   UNL A   1      39.619  29.326  30.621  1.00  0.00     0.031 A 
ATOM     64  C   UNL A   1      39.003  29.453  28.296  1.00  0.00     0.131 A 
ATOM     65  C   UNL A   1      38.270  29.500  30.962  1.00  0.00     0.055 A 
ATOM     66  C   UNL A   1      37.675  29.707  28.643  1.00  0.00     0.041 A 
ATOM     67  F   UNL A   1      39.300  29.384  26.989  1.00  0.00    -0.206 F 
ATOM     68  C   UNL A   1      37.298  29.718  29.983  1.00  0.00     0.022 A 
BRANCH  65  69
ATOM     69  S   UNL A   1      37.778  29.301  32.697  1.00  0.00     0.124 S 
ATOM     70  O   UNL A   1      36.518  30.041  32.734  1.00  0.00    -0.237 OA
ATOM     71  O   UNL A   1      37.673  27.853  32.830  1.00  0.00    -0.237 OA
ATOM     72  O   UNL A   1      38.876  29.919  33.438  1.00  0.00    -0.744 OA
ENDBRANCH  65  69
ENDBRANCH  48  62
BRANCH  49  73
ATOM     73  C   UNL A   1      49.250  27.151  25.966  1.00  0.00     0.023 A 
ATOM     74  C   UNL A   1      49.608  27.523  24.661  1.00  0.00     0.031 A 
ATOM     75  C   UNL A   1      50.199  26.457  26.737  1.00  0.00     0.131 A 
ATOM     76  C   UNL A   1      50.859  27.150  24.146  1.00  0.00     0.055 A 
ATOM     77  C   UNL A   1      51.465  26.143  26.242  1.00  0.00     0.041 A 
ATOM     78  F   UNL A   1      49.910  26.080  27.993  1.00  0.00    -0.206 F 
ATOM     79  C   UNL A   1      51.796  26.476  24.933  1.00  0.00     0.022 A 
BRANCH  76  80
ATOM     80  S   UNL A   1      51.208  27.471  22.394  1.00  0.00     0.124 S 
ATOM     81  O   UNL A   1      50.107  26.774  21.740  1.00  0.00    -0.237 OA
ATOM     82  O   UNL A   1      51.169  28.927  22.339  1.00  0.00    -0.237 OA
ATOM     83  O   UNL A   1      52.528  26.876  22.196  1.00  0.00    -0.744 OA
ENDBRANCH  76  80
ENDBRANCH  49  73
BRANCH  61  84
ATOM     84  C   UNL A   1      46.318  32.810  28.798  1.00  0.00     0.023 A 
ATOM     85  C   UNL A   1      46.341  33.863  27.868  1.00  0.00     0.031 A 
ATOM     86  C   UNL A   1      46.872  33.040  30.070  1.00  0.00     0.131 A 
ATOM     87  C   UNL A   1      46.976  35.072  28.195  1.00  0.00     0.055 A 
ATOM     88  C   UNL A   1      47.435  34.270  30.415  1.00  0.00     0.041 A 
ATOM     89  F   UNL A   1      46.880  32.071  30.999  1.00  0.00    -0.206 F 
ATOM     90  C   UNL A   1      47.506  35.287  29.470  1.00  0.00     0.022 A 
BRANCH  87  91
ATOM     91  S   UNL A   1      47.213  36.309  26.890  1.00  0.00     0.124 S 
ATOM     92  O   UNL A   1      48.343  37.078  27.403  1.00  0.00    -0.237 OA
ATOM     93  O   UNL A   1      47.484  35.481  25.720  1.00  0.00    -0.237 OA
ATOM     94  O   UNL A   1      45.938  37.024  26.861  1.00  0.00    -0.744 OA
ENDBRANCH  87  91
ENDBRANCH  61  84
ENDBRANCH  35  36
ENDBRANCH  27  30
ENDBRANCH  25  26
ENDBRANCH  24  25
ENDBRANCH  23  24
ENDBRANCH   1  23
TORSDOF 22
ENDMDL
MODEL 2
REMARK VINA RESULT:      -9.5      1.703      7.820
REMARK SMILES C=CCS(=O)(=O)N[C@H](CC(N)=O)C(=O)NCCCCCCNC(=O)c1ccc(-c2c3nc(c(-c4cc(S(=O)(=O)[O-])ccc4F)c4ccc([nH]4)c(-c4cc(S(=O)(=O)[O-])ccc4F)c4nc(c(-c5cc(S(=O)(=O)[O-])ccc5F)c5ccc2[nH]5)C=C4)C=C3)cc1
REMARK SMILES IDX 18 1 17 2 16 3 15 4 13 5 14 6 8 8 7 9 4 11 5 12 6 13 3 14
REMARK SMILES IDX 2 15 1 16 9 17 10 18 11 19 12 20 19 23 20 24 21 25 22 26
REMARK SMILES IDX 23 27 24 29 25 30 26 31 87 32 27 33 86 34 28 35 29 36 30 37
REMARK SMILES IDX 80 38 31 39 85 40 79 41 81 42 32 43 84 44 78 45 77 46 33 48
REMARK SMILES IDX 65 49 45 50 64 51 46 52 49 53 63 54 82 55 47 56 48 57 62 59
REMARK SMILES IDX 83 60 50 61 34 62 35 63 43 64 36 65 42 66 44 67 41 68 37 69
REMARK SMILES IDX 38 70 39 71 40 72 66 73 67 74 75 75 68 76 74 77 76 78 73 79
REMARK SMILES IDX 69 80 70 81 71 82 72 83 51 84 52 85 60 86 53 87 59 88 61 89
REMARK SMILES IDX 58 90 54 91 55 92 56 93 57 94
REMARK H PARENT 15 7 7 10 11 21 11 22 22 28 81 47 49 58
REMARK Flexibility Score: inf
ROOT
ATOM      1  C   UNL A   1      37.292  21.929  25.376  1.00  0.00     0.002 C 
ENDROOT
BRANCH   1   2
ATOM      2  C   UNL A   1      36.189  22.885  24.907  1.00  0.00     0.021 C 
BRANCH   2   3
ATOM      3  C   UNL A   1      35.709  22.548  23.505  1.00  0.00     0.116 C 
BRANCH   3   4
ATOM      4  N   UNL A   1      34.464  23.209  23.209  1.00  0.00    -0.355 N 
ATOM      5  C   UNL A   1      33.268  23.079  23.825  1.00  0.00     0.238 C 
ATOM      6  O   UNL A   1      32.315  23.684  23.316  1.00  0.00    -0.273 OA
ATOM      7  H   UNL A   1      34.486  23.841  22.454  1.00  0.00     0.163 HD
BRANCH   5   8
ATOM      8  C   UNL A   1      33.041  22.178  25.023  1.00  0.00     0.168 C 
BRANCH   8   9
ATOM      9  N   UNL A   1      32.351  20.882  25.044  1.00  0.00    -0.202 NA
ATOM     10  H   UNL A   1      31.959  20.834  25.984  1.00  0.00     0.141 HD
BRANCH   9  11
ATOM     11  S   UNL A   1      32.887  19.343  24.767  1.00  0.00     0.215 S 
ATOM     12  O   UNL A   1      32.242  18.430  25.679  1.00  0.00    -0.212 OA
ATOM     13  O   UNL A   1      34.328  19.497  24.835  1.00  0.00    -0.212 OA
BRANCH  11  14
ATOM     14  C   UNL A   1      32.536  18.824  23.074  1.00  0.00     0.180 C 
BRANCH  14  15
ATOM     15  C   UNL A   1      32.862  17.395  22.791  1.00  0.00    -0.017 C 
ATOM     16  C   UNL A   1      34.029  16.823  23.123  1.00  0.00     0.005 C 
ENDBRANCH  14  15
ENDBRANCH  11  14
ENDBRANCH   9  11
ENDBRANCH   8   9
BRANCH   8  17
ATOM     17  C   UNL A   1      32.756  23.047  26.270  1.00  0.00     0.129 C 
BRANCH  17  18
ATOM     18  C   UNL A   1      31.352  23.570  26.473  1.00  0.00     0.219 C 
ATOM     19  N   UNL A   1      30.369  22.916  25.789  1.00  0.00    -0.370 N 
ATOM     20  O   UNL A   1      31.059  24.468  27.251  1.00  0.00    -0.275 OA
ATOM     21  H   UNL A   1      30.603  22.194  25.163  1.00  0.00     0.159 HD
ATOM     22  H   UNL A   1      29.426  23.167  25.922  1.00  0.00     0.159 HD
ENDBRANCH  17  18
ENDBRANCH   8  17
ENDBRANCH   5   8
ENDBRANCH   3   4
ENDBRANCH   2   3
ENDBRANCH   1   2
BRANCH   1  23
ATOM     23  C   UNL A   1      37.354  20.598  24.611  1.00  0.00     0.002 C 
BRANCH  23  24
ATOM     24  C   UNL A   1      38.372  19.591  25.156  1.00  0.00     0.021 C 
BRANCH  24  25
ATOM     25  C   UNL A   1      39.383  20.196  26.123  1.00  0.00     0.116 C 
BRANCH  25  26
ATOM     26  N   UNL A   1      40.625  19.442  26.127  1.00  0.00    -0.352 N 
ATOM     27  C   UNL A   1      41.916  19.890  26.169  1.00  0.00     0.251 C 
ATOM     28  H   UNL A   1      40.521  18.463  26.095  1.00  0.00     0.163 HD
ATOM     29  O   UNL A   1      42.835  19.121  25.899  1.00  0.00    -0.269 OA
BRANCH  27  30
ATOM     30  C   UNL A   1      42.194  21.294  26.531  1.00  0.00     0.039 A 
ATOM     31  C   UNL A   1      42.393  21.610  27.875  1.00  0.00     0.014 A 
ATOM     32  C   UNL A   1      42.223  22.297  25.555  1.00  0.00     0.014 A 
ATOM     33  C   UNL A   1      42.655  22.930  28.238  1.00  0.00     0.010 A 
ATOM     34  C   UNL A   1      42.560  23.599  25.910  1.00  0.00     0.010 A 
ATOM     35  C   UNL A   1      42.763  23.930  27.257  1.00  0.00    -0.014 A 
BRANCH  35  36
ATOM     36  C   UNL A   1      43.084  25.327  27.641  1.00  0.00     0.031 A 
ATOM     37  C   UNL A   1      44.485  25.852  27.494  1.00  0.00     0.074 A 
ATOM     38  C   UNL A   1      42.108  26.108  28.144  1.00  0.00     0.049 A 
ATOM     39  N   UNL A   1      44.954  27.043  27.765  1.00  0.00    -0.248 NA
ATOM     40  C   UNL A   1      45.499  24.908  27.000  1.00  0.00     0.031 C 
ATOM     41  C   UNL A   1      40.725  25.683  28.377  1.00  0.00     0.029 A 
ATOM     42  N   UNL A   1      42.123  27.420  28.543  1.00  0.00    -0.354 N 
ATOM     43  C   UNL A   1      46.315  26.990  27.482  1.00  0.00     0.074 A 
ATOM     44  C   UNL A   1      46.606  25.632  27.079  1.00  0.00     0.031 C 
ATOM     45  C   UNL A   1      40.018  26.724  28.842  1.00  0.00     0.029 A 
ATOM     46  C   UNL A   1      40.902  27.876  28.984  1.00  0.00     0.049 A 
ATOM     47  H   UNL A   1      42.931  27.981  28.517  1.00  0.00     0.167 HD
ATOM     48  C   UNL A   1      47.228  27.991  27.530  1.00  0.00     0.034 A 
ATOM     49  C   UNL A   1      40.539  29.085  29.453  1.00  0.00     0.034 A 
ATOM     50  C   UNL A   1      46.911  29.341  27.931  1.00  0.00     0.049 A 
ATOM     51  C   UNL A   1      41.576  30.177  29.509  1.00  0.00     0.074 A 
ATOM     52  C   UNL A   1      47.742  30.448  27.964  1.00  0.00     0.029 A 
ATOM     53  N   UNL A   1      45.666  29.769  28.377  1.00  0.00    -0.354 N 
ATOM     54  N   UNL A   1      42.845  30.130  29.171  1.00  0.00    -0.248 NA
ATOM     55  C   UNL A   1      41.128  31.488  29.989  1.00  0.00     0.031 C 
ATOM     56  C   UNL A   1      47.023  31.521  28.502  1.00  0.00     0.029 A 
ATOM     57  C   UNL A   1      45.717  31.112  28.723  1.00  0.00     0.049 A 
ATOM     58  H   UNL A   1      44.864  29.201  28.440  1.00  0.00     0.167 HD
ATOM     59  C   UNL A   1      43.339  31.415  29.375  1.00  0.00     0.074 A 
ATOM     60  C   UNL A   1      42.223  32.217  29.836  1.00  0.00     0.031 C 
ATOM     61  C   UNL A   1      44.599  31.892  29.200  1.00  0.00     0.034 A 
BRANCH  48  62
ATOM     62  C   UNL A   1      48.657  27.653  27.172  1.00  0.00     0.023 A 
ATOM     63  C   UNL A   1      49.219  28.020  25.935  1.00  0.00     0.031 A 
ATOM     64  C   UNL A   1      49.467  26.941  28.074  1.00  0.00     0.131 A 
ATOM     65  C   UNL A   1      50.523  27.616  25.609  1.00  0.00     0.055 A 
ATOM     66  C   UNL A   1      50.791  26.612  27.776  1.00  0.00     0.041 A 
ATOM     67  F   UNL A   1      48.981  26.541  29.260  1.00  0.00    -0.206 F 
ATOM     68  C   UNL A   1      51.322  26.938  26.531  1.00  0.00     0.022 A 
BRANCH  65  69
ATOM     69  S   UNL A   1      51.112  27.869  23.912  1.00  0.00     0.124 S 
ATOM     70  O   UNL A   1      51.696  26.565  23.605  1.00  0.00    -0.237 OA
ATOM     71  O   UNL A   1      49.886  28.204  23.199  1.00  0.00    -0.237 OA
ATOM     72  O   UNL A   1      52.077  28.959  24.043  1.00  0.00    -0.744 OA
ENDBRANCH  65  69
ENDBRANCH  48  62
BRANCH  49  73
ATOM     73  C   UNL A   1      39.141  29.330  29.915  1.00  0.00     0.023 A 
ATOM     74  C   UNL A   1      38.244  30.088  29.145  1.00  0.00     0.031 A 
ATOM     75  C   UNL A   1      38.696  28.846  31.158  1.00  0.00     0.131 A 
ATOM     76  C   UNL A   1      36.969  30.388  29.650  1.00  0.00     0.055 A 
ATOM     77  C   UNL A   1      37.406  29.095  31.628  1.00  0.00     0.041 A 
ATOM     78  F   UNL A   1      39.511  28.113  31.933  1.00  0.00    -0.206 F 
ATOM     79  C   UNL A   1      36.539  29.883  30.880  1.00  0.00     0.022 A 
BRANCH  76  80
ATOM     80  S   UNL A   1      35.914  31.534  28.720  1.00  0.00     0.124 S 
ATOM     81  O   UNL A   1      36.862  32.579  28.353  1.00  0.00    -0.237 OA
ATOM     82  O   UNL A   1      35.436  30.690  27.631  1.00  0.00    -0.237 OA
ATOM     83  O   UNL A   1      34.898  31.927  29.694  1.00  0.00    -0.744 OA
ENDBRANCH  76  80
ENDBRANCH  49  73
BRANCH  61  84
ATOM     84  C   UNL A   1      44.814  33.362  29.477  1.00  0.00     0.023 A 
ATOM     85  C   UNL A   1      44.695  34.329  28.464  1.00  0.00     0.031 A 
ATOM     86  C   UNL A   1      45.177  33.796  30.764  1.00  0.00     0.131 A 
ATOM     87  C   UNL A   1      45.014  35.669  28.735  1.00  0.00     0.055 A 
ATOM     88  C   UNL A   1      45.420  35.141  31.046  1.00  0.00     0.041 A 
ATOM     89  F   UNL A   1      45.309  32.917  31.771  1.00  0.00    -0.206 F 
ATOM     90  C   UNL A   1      45.357  36.084  30.024  1.00  0.00     0.022 A 
BRANCH  87  91
ATOM     91  S   UNL A   1      45.098  36.839  27.351  1.00  0.00     0.124 S 
ATOM     92  O   UNL A   1      43.691  37.167  27.145  1.00  0.00    -0.237 OA
ATOM     93  O   UNL A   1      45.928  37.907  27.897  1.00  0.00    -0.237 OA
ATOM     94  O   UNL A   1      45.716  36.059  26.281  1.00  0.00    -0.744 OA
ENDBRANCH  87  91
ENDBRANCH  61  84
ENDBRANCH  35  36
ENDBRANCH  27  30
ENDBRANCH  25  26
ENDBRANCH  24  25
ENDBRANCH  23  24
ENDBRANCH   1  23
TORSDOF 22
ENDMDL
MODEL 3
REMARK VINA RESULT:      -9.4      2.308      3.279
REMARK SMILES C=CCS(=O)(=O)N[C@H](CC(N)=O)C(=O)NCCCCCCNC(=O)c1ccc(-c2c3nc(c(-c4cc(S(=O)(=O)[O-])ccc4F)c4ccc([nH]4)c(-c4cc(S(=O)(=O)[O-])ccc4F)c4nc(c(-c5cc(S(=O)(=O)[O-])ccc5F)c5ccc2[nH]5)C=C4)C=C3)cc1
REMARK SMILES IDX 18 1 17 2 16 3 15 4 13 5 14 6 8 8 7 9 4 11 5 12 6 13 3 14
REMARK SMILES IDX 2 15 1 16 9 17 10 18 11 19 12 20 19 23 20 24 21 25 22 26
REMARK SMILES IDX 23 27 24 29 25 30 26 31 87 32 27 33 86 34 28 35 29 36 30 37
REMARK SMILES IDX 80 38 31 39 85 40 79 41 81 42 32 43 84 44 78 45 77 46 33 48
REMARK SMILES IDX 65 49 45 50 64 51 46 52 49 53 63 54 82 55 47 56 48 57 62 59
REMARK SMILES IDX 83 60 50 61 34 62 35 63 43 64 36 65 42 66 44 67 41 68 37 69
REMARK SMILES IDX 38 70 39 71 40 72 66 73 67 74 75 75 68 76 74 77 76 78 73 79
REMARK SMILES IDX 69 80 70 81 71 82 72 83 51 84 52 85 60 86 53 87 59 88 61 89
REMARK SMILES IDX 58 90 54 91 55 92 56 93 57 94
REMARK H PARENT 15 7 7 10 11 21 11 22 22 28 81 47 49 58
REMARK Flexibility Score: inf
ROOT
ATOM      1  C   UNL A   1      37.011  21.751  25.064  1.00  0.00     0.002 C 
ENDROOT
BRANCH   1   2
ATOM      2  C   UNL A   1      35.943  22.276  26.032  1.00  0.00     0.021 C 
BRANCH   2   3
ATOM      3  C   UNL A   1      35.571  23.719  25.732  1.00  0.00     0.116 C 
BRANCH   3   4
ATOM      4  N   UNL A   1      35.377  23.923  24.320  1.00  0.00    -0.355 N 
ATOM      5  C   UNL A   1      34.256  23.758  23.585  1.00  0.00     0.238 C 
ATOM      6  O   UNL A   1      34.370  23.901  22.360  1.00  0.00    -0.273 OA
ATOM      7  H   UNL A   1      36.172  24.223  23.820  1.00  0.00     0.163 HD
BRANCH   5   8
ATOM      8  C   UNL A   1      32.927  23.331  24.177  1.00  0.00     0.168 C 
BRANCH   8   9
ATOM      9  N   UNL A   1      32.229  23.929  25.321  1.00  0.00    -0.202 NA
ATOM     10  H   UNL A   1      31.565  23.208  25.602  1.00  0.00     0.141 HD
BRANCH   9  11
ATOM     11  S   UNL A   1      31.367  25.332  25.476  1.00  0.00     0.215 S 
ATOM     12  O   UNL A   1      30.366  25.178  26.503  1.00  0.00    -0.212 OA
ATOM     13  O   UNL A   1      30.939  25.588  24.114  1.00  0.00    -0.212 OA
BRANCH  11  14
ATOM     14  C   UNL A   1      32.444  26.714  25.912  1.00  0.00     0.180 C 
BRANCH  14  15
ATOM     15  C   UNL A   1      32.960  27.481  24.739  1.00  0.00    -0.017 C 
ATOM     16  C   UNL A   1      33.653  28.624  24.850  1.00  0.00     0.005 C 
ENDBRANCH  14  15
ENDBRANCH  11  14
ENDBRANCH   9  11
ENDBRANCH   8   9
BRANCH   8  17
ATOM     17  C   UNL A   1      32.816  21.789  24.126  1.00  0.00     0.129 C 
BRANCH  17  18
ATOM     18  C   UNL A   1      32.154  21.080  25.286  1.00  0.00     0.219 C 
ATOM     19  N   UNL A   1      32.884  20.086  25.870  1.00  0.00    -0.370 N 
ATOM     20  O   UNL A   1      31.068  21.395  25.755  1.00  0.00    -0.275 OA
ATOM     21  H   UNL A   1      33.757  19.832  25.494  1.00  0.00     0.159 HD
ATOM     22  H   UNL A   1      32.536  19.624  26.667  1.00  0.00     0.159 HD
ENDBRANCH  17  18
ENDBRANCH   8  17
ENDBRANCH   5   8
ENDBRANCH   3   4
ENDBRANCH   2   3
ENDBRANCH   1   2
BRANCH   1  23
ATOM     23  C   UNL A   1      36.868  20.266  24.698  1.00  0.00     0.002 C 
BRANCH  23  24
ATOM     24  C   UNL A   1      38.103  19.409  24.995  1.00  0.00     0.021 C 
BRANCH  24  25
ATOM     25  C   UNL A   1      39.191  20.143  25.771  1.00  0.00     0.116 C 
BRANCH  25  26
ATOM     26  N   UNL A   1      40.278  19.247  26.126  1.00  0.00    -0.352 N 
ATOM     27  C   UNL A   1      41.591  19.532  26.387  1.00  0.00     0.251 C 
ATOM     28  H   UNL A   1      40.035  18.296  26.190  1.00  0.00     0.163 HD
ATOM     29  O   UNL A   1      42.416  18.623  26.410  1.00  0.00    -0.269 OA
BRANCH  27  30
ATOM     30  C   UNL A   1      42.004  20.928  26.632  1.00  0.00     0.039 A 
ATOM     31  C   UNL A   1      42.123  21.790  25.541  1.00  0.00     0.014 A 
ATOM     32  C   UNL A   1      42.304  21.375  27.924  1.00  0.00     0.014 A 
ATOM     33  C   UNL A   1      42.512  23.111  25.750  1.00  0.00     0.010 A 
ATOM     34  C   UNL A   1      42.618  22.713  28.139  1.00  0.00     0.010 A 
ATOM     35  C   UNL A   1      42.740  23.589  27.052  1.00  0.00    -0.014 A 
BRANCH  35  36
ATOM     36  C   UNL A   1      43.114  25.008  27.275  1.00  0.00     0.031 A 
ATOM     37  C   UNL A   1      42.144  25.955  27.925  1.00  0.00     0.074 A 
ATOM     38  C   UNL A   1      44.324  25.438  26.868  1.00  0.00     0.049 A 
ATOM     39  N   UNL A   1      42.293  27.222  28.213  1.00  0.00    -0.248 NA
ATOM     40  C   UNL A   1      40.821  25.413  28.275  1.00  0.00     0.031 C 
ATOM     41  C   UNL A   1      45.323  24.615  26.181  1.00  0.00     0.029 A 
ATOM     42  N   UNL A   1      44.924  26.666  26.977  1.00  0.00    -0.354 N 
ATOM     43  C   UNL A   1      41.087  27.631  28.771  1.00  0.00     0.074 A 
ATOM     44  C   UNL A   1      40.195  26.492  28.721  1.00  0.00     0.031 C 
ATOM     45  C   UNL A   1      46.424  25.350  25.964  1.00  0.00     0.029 A 
ATOM     46  C   UNL A   1      46.196  26.706  26.453  1.00  0.00     0.049 A 
ATOM     47  H   UNL A   1      44.487  27.445  27.390  1.00  0.00     0.167 HD
ATOM     48  C   UNL A   1      40.764  28.838  29.298  1.00  0.00     0.034 A 
ATOM     49  C   UNL A   1      47.076  27.723  26.373  1.00  0.00     0.034 A 
ATOM     50  C   UNL A   1      41.674  29.958  29.341  1.00  0.00     0.049 A 
ATOM     51  C   UNL A   1      46.689  29.058  26.955  1.00  0.00     0.074 A 
ATOM     52  C   UNL A   1      41.475  31.209  29.900  1.00  0.00     0.029 A 
ATOM     53  N   UNL A   1      42.953  29.968  28.796  1.00  0.00    -0.354 N 
ATOM     54  N   UNL A   1      45.567  29.410  27.542  1.00  0.00    -0.248 NA
ATOM     55  C   UNL A   1      47.692  30.125  26.881  1.00  0.00     0.031 C 
ATOM     56  C   UNL A   1      42.599  31.996  29.624  1.00  0.00     0.029 A 
ATOM     57  C   UNL A   1      43.538  31.213  28.972  1.00  0.00     0.049 A 
ATOM     58  H   UNL A   1      43.381  29.202  28.348  1.00  0.00     0.167 HD
ATOM     59  C   UNL A   1      45.743  30.735  27.930  1.00  0.00     0.074 A 
ATOM     60  C   UNL A   1      47.087  31.105  27.536  1.00  0.00     0.031 C 
ATOM     61  C   UNL A   1      44.873  31.572  28.555  1.00  0.00     0.034 A 
BRANCH  48  62
ATOM     62  C   UNL A   1      39.363  29.014  29.838  1.00  0.00     0.023 A 
ATOM     63  C   UNL A   1      38.319  29.524  29.044  1.00  0.00     0.031 A 
ATOM     64  C   UNL A   1      39.068  28.680  31.172  1.00  0.00     0.131 A 
ATOM     65  C   UNL A   1      37.054  29.748  29.607  1.00  0.00     0.055 A 
ATOM     66  C   UNL A   1      37.786  28.829  31.703  1.00  0.00     0.041 A 
ATOM     67  F   UNL A   1      40.027  28.211  31.987  1.00  0.00    -0.206 F 
ATOM     68  C   UNL A   1      36.772  29.379  30.924  1.00  0.00     0.022 A 
BRANCH  65  69
ATOM     69  S   UNL A   1      35.819  30.655  28.637  1.00  0.00     0.124 S 
ATOM     70  O   UNL A   1      35.228  31.526  29.651  1.00  0.00    -0.237 OA
ATOM     71  O   UNL A   1      36.635  31.315  27.625  1.00  0.00    -0.237 OA
ATOM     72  O   UNL A   1      34.934  29.604  28.138  1.00  0.00    -0.744 OA
ENDBRANCH  65  69
ENDBRANCH  48  62
BRANCH  49  73
ATOM     73  C   UNL A   1      48.400  27.528  25.713  1.00  0.00     0.023 A 
ATOM     74  C   UNL A   1      48.551  27.680  24.326  1.00  0.00     0.031 A 
ATOM     75  C   UNL A   1      49.528  27.140  26.459  1.00  0.00     0.131 A 
ATOM     76  C   UNL A   1      49.783  27.392  23.720  1.00  0.00     0.055 A 
ATOM     77  C   UNL A   1      50.768  26.915  25.860  1.00  0.00     0.041 A 
ATOM     78  F   UNL A   1      49.441  26.983  27.790  1.00  0.00    -0.206 F 
ATOM     79  C   UNL A   1      50.897  27.025  24.479  1.00  0.00     0.022 A 
BRANCH  76  80
ATOM     80  S   UNL A   1      49.885  27.404  21.908  1.00  0.00     0.124 S 
ATOM     81  O   UNL A   1      49.469  28.767  21.597  1.00  0.00    -0.237 OA
ATOM     82  O   UNL A   1      51.292  27.096  21.682  1.00  0.00    -0.237 OA
ATOM     83  O   UNL A   1      48.947  26.358  21.508  1.00  0.00    -0.744 OA
ENDBRANCH  76  80
ENDBRANCH  49  73
BRANCH  61  84
ATOM     84  C   UNL A   1      45.380  32.959  28.877  1.00  0.00     0.023 A 
ATOM     85  C   UNL A   1      46.030  33.245  30.090  1.00  0.00     0.031 A 
ATOM     86  C   UNL A   1      45.176  34.016  27.973  1.00  0.00     0.131 A 
ATOM     87  C   UNL A   1      46.382  34.567  30.401  1.00  0.00     0.055 A 
ATOM     88  C   UNL A   1      45.597  35.317  28.255  1.00  0.00     0.041 A 
ATOM     89  F   UNL A   1      44.559  33.805  26.800  1.00  0.00    -0.206 F 
ATOM     90  C   UNL A   1      46.187  35.602  29.482  1.00  0.00     0.022 A 
BRANCH  87  91
ATOM     91  S   UNL A   1      46.982  34.937  32.073  1.00  0.00     0.124 S 
ATOM     92  O   UNL A   1      46.399  33.849  32.851  1.00  0.00    -0.237 OA
ATOM     93  O   UNL A   1      48.430  34.893  31.901  1.00  0.00    -0.237 OA
ATOM     94  O   UNL A   1      46.431  36.262  32.349  1.00  0.00    -0.744 OA
ENDBRANCH  87  91
ENDBRANCH  61  84
ENDBRANCH  35  36
ENDBRANCH  27  30
ENDBRANCH  25  26
ENDBRANCH  24  25
ENDBRANCH  23  24
ENDBRANCH   1  23
TORSDOF 22
ENDMDL
