MODEL 1
REMARK VINA RESULT:     -12.6      0.000      0.000
REMARK SMILES Cc1c(NCc2ccccn2)cccc1C(=O)N1CCOC[C@@H]1CC(=O)NCCCCCCNC(=O)c1ccc(-c2c3nc(c(-c4cc(S(=O)(=O)[O-])ccc4F)c4ccc([nH]4)c(-c4cc(S(=O)(=O)[O-])ccc4F)c4nc(c(-c5cc(S(=O)(=O)[O-])ccc5F)c5ccc2[nH]5)C=C4)C=C3)cc1
REMARK SMILES IDX 29 1 28 2 27 3 25 4 26 5 24 7 23 8 18 9 19 10 20 11 22 12
REMARK SMILES IDX 21 13 16 14 17 15 15 16 1 17 2 18 3 19 12 20 14 21 13 22
REMARK SMILES IDX 4 23 5 25 6 26 7 27 11 28 8 29 10 30 9 31 30 32 31 33 32 34
REMARK SMILES IDX 33 35 34 36 35 37 36 39 37 40 38 41 99 42 39 43 98 44 40 45
REMARK SMILES IDX 41 46 42 47 92 48 43 49 97 50 91 51 93 52 44 53 96 54 90 55
REMARK SMILES IDX 89 56 45 58 77 59 57 60 76 61 58 62 61 63 75 64 94 65 59 66
REMARK SMILES IDX 60 67 74 69 95 70 62 71 46 72 47 73 55 74 48 75 54 76 56 77
REMARK SMILES IDX 53 78 49 79 50 80 51 81 52 82 78 83 79 84 87 85 80 86 86 87
REMARK SMILES IDX 88 88 85 89 81 90 82 91 83 92 84 93 63 94 64 95 72 96 65 97
REMARK SMILES IDX 71 98 73 99 70 100 66 101 67 102 68 103 69 104
REMARK H PARENT 27 6 4 24 34 38 93 57 61 68
REMARK Flexibility Score: inf
ROOT
ATOM      1  C   UNL A   1      33.324  27.943  25.862  1.00  0.00     0.021 C 
ENDROOT
BRANCH   1   2
ATOM      2  C   UNL A   1      33.210  27.867  24.340  1.00  0.00     0.116 C 
BRANCH   2   3
ATOM      3  N   UNL A   1      31.818  27.968  23.980  1.00  0.00    -0.356 N 
ATOM      4  C   UNL A   1      31.112  27.056  23.256  1.00  0.00     0.222 C 
ATOM      5  O   UNL A   1      30.116  27.434  22.638  1.00  0.00    -0.275 OA
ATOM      6  H   UNL A   1      31.333  28.768  24.285  1.00  0.00     0.163 HD
BRANCH   4   7
ATOM      7  C   UNL A   1      31.504  25.592  23.307  1.00  0.00     0.127 C 
BRANCH   7   8
ATOM      8  C   UNL A   1      31.292  24.794  24.603  1.00  0.00     0.120 C 
ATOM      9  N   UNL A   1      31.202  23.303  24.545  1.00  0.00    -0.331 N 
ATOM     10  C   UNL A   1      31.288  22.749  25.912  1.00  0.00     0.148 C 
ATOM     11  C   UNL A   1      30.266  23.387  26.876  1.00  0.00     0.181 C 
ATOM     12  C   UNL A   1      30.125  25.306  25.474  1.00  0.00     0.185 C 
ATOM     13  O   UNL A   1      30.284  24.822  26.821  1.00  0.00    -0.377 OA
BRANCH   9  14
ATOM     14  C   UNL A   1      31.833  22.575  23.532  1.00  0.00     0.254 C 
ATOM     15  O   UNL A   1      31.303  22.370  22.443  1.00  0.00    -0.269 OA
BRANCH  14  16
ATOM     16  C   UNL A   1      33.125  21.860  23.833  1.00  0.00     0.045 A 
ATOM     17  C   UNL A   1      34.898  24.158  23.886  1.00  0.00     0.047 C 
ATOM     18  C   UNL A   1      34.711  22.684  24.075  1.00  0.00    -0.015 A 
ATOM     19  C   UNL A   1      36.152  21.731  24.606  1.00  0.00     0.038 A 
ATOM     20  C   UNL A   1      36.030  19.958  24.904  1.00  0.00     0.026 A 
ATOM     21  C   UNL A   1      32.991  20.071  24.097  1.00  0.00     0.014 A 
ATOM     22  C   UNL A   1      34.441  19.121  24.642  1.00  0.00     0.003 A 
BRANCH  19  23
ATOM     23  N   UNL A   1      37.365  22.372  24.702  1.00  0.00    -0.379 N 
ATOM     24  H   UNL A   1      37.945  22.439  23.909  1.00  0.00     0.160 HD
BRANCH  23  25
ATOM     25  C   UNL A   1      37.797  22.949  25.958  1.00  0.00     0.169 C 
BRANCH  25  26
ATOM     26  C   UNL A   1      39.244  22.552  26.243  1.00  0.00     0.059 A 
ATOM     27  C   UNL A   1      40.239  23.457  27.500  1.00  0.00     0.026 A 
ATOM     28  N   UNL A   1      39.639  20.836  25.805  1.00  0.00    -0.259 NA
ATOM     29  C   UNL A   1      41.600  22.579  28.371  1.00  0.00     0.004 A 
ATOM     30  C   UNL A   1      40.960  19.952  26.642  1.00  0.00     0.111 A 
ATOM     31  C   UNL A   1      41.912  20.756  27.966  1.00  0.00     0.020 A 
ENDBRANCH  25  26
ENDBRANCH  23  25
ENDBRANCH  19  23
ENDBRANCH  14  16
ENDBRANCH   9  14
ENDBRANCH   7   8
ENDBRANCH   4   7
ENDBRANCH   2   3
ENDBRANCH   1   2
BRANCH   1  32
ATOM     32  C   UNL A   1      34.677  28.410  26.413  1.00  0.00     0.002 C 
BRANCH  32  33
ATOM     33  C   UNL A   1      34.601  29.591  27.647  1.00  0.00     0.002 C 
BRANCH  33  34
ATOM     34  C   UNL A   1      35.102  31.707  27.864  1.00  0.00     0.021 C 
BRANCH  34  35
ATOM     35  C   UNL A   1      36.189  32.645  28.806  1.00  0.00     0.116 C 
BRANCH  35  36
ATOM     36  N   UNL A   1      36.442  32.434  30.252  1.00  0.00    -0.352 N 
ATOM     37  C   UNL A   1      37.264  31.500  30.888  1.00  0.00     0.251 C 
ATOM     38  H   UNL A   1      35.959  33.043  30.855  1.00  0.00     0.163 HD
ATOM     39  O   UNL A   1      37.422  31.530  32.106  1.00  0.00    -0.269 OA
BRANCH  37  40
ATOM     40  C   UNL A   1      38.048  30.527  30.077  1.00  0.00     0.039 A 
ATOM     41  C   UNL A   1      38.133  29.223  30.567  1.00  0.00     0.014 A 
ATOM     42  C   UNL A   1      39.053  31.022  29.270  1.00  0.00     0.014 A 
ATOM     43  C   UNL A   1      39.384  28.627  30.624  1.00  0.00     0.010 A 
ATOM     44  C   UNL A   1      40.325  30.582  29.575  1.00  0.00     0.010 A 
ATOM     45  C   UNL A   1      40.505  29.437  30.378  1.00  0.00    -0.014 A 
BRANCH  45  46
ATOM     46  C   UNL A   1      42.055  29.207  30.980  1.00  0.00     0.031 A 
ATOM     47  C   UNL A   1      42.331  27.812  29.800  1.00  0.00     0.074 A 
ATOM     48  C   UNL A   1      43.134  29.913  32.347  1.00  0.00     0.049 A 
ATOM     49  N   UNL A   1      43.398  27.071  29.798  1.00  0.00    -0.248 NA
ATOM     50  C   UNL A   1      41.429  27.261  28.766  1.00  0.00     0.031 C 
ATOM     51  C   UNL A   1      44.797  29.772  32.807  1.00  0.00     0.029 A 
ATOM     52  N   UNL A   1      42.952  30.764  33.607  1.00  0.00    -0.354 N 
ATOM     53  C   UNL A   1      43.434  26.113  28.861  1.00  0.00     0.074 A 
ATOM     54  C   UNL A   1      42.181  26.304  28.180  1.00  0.00     0.031 C 
ATOM     55  C   UNL A   1      44.977  29.982  34.118  1.00  0.00     0.029 A 
ATOM     56  C   UNL A   1      43.683  30.207  34.672  1.00  0.00     0.049 A 
ATOM     57  H   UNL A   1      42.404  31.580  33.664  1.00  0.00     0.167 HD
ATOM     58  C   UNL A   1      44.611  25.423  28.816  1.00  0.00     0.034 A 
ATOM     59  C   UNL A   1      43.058  29.414  35.587  1.00  0.00     0.034 A 
ATOM     60  C   UNL A   1      45.401  25.582  30.087  1.00  0.00     0.049 A 
ATOM     61  C   UNL A   1      43.633  27.972  35.500  1.00  0.00     0.074 A 
ATOM     62  C   UNL A   1      46.470  26.389  30.454  1.00  0.00     0.029 A 
ATOM     63  N   UNL A   1      44.915  25.055  31.299  1.00  0.00    -0.354 N 
ATOM     64  N   UNL A   1      44.152  27.393  34.430  1.00  0.00    -0.248 NA
ATOM     65  C   UNL A   1      43.790  27.138  36.679  1.00  0.00     0.031 C 
ATOM     66  C   UNL A   1      46.542  26.437  31.888  1.00  0.00     0.029 A 
ATOM     67  C   UNL A   1      45.543  25.632  32.424  1.00  0.00     0.049 A 
ATOM     68  H   UNL A   1      44.217  24.364  31.356  1.00  0.00     0.167 HD
ATOM     69  C   UNL A   1      44.664  26.144  34.723  1.00  0.00     0.074 A 
ATOM     70  C   UNL A   1      44.475  26.094  36.177  1.00  0.00     0.031 C 
ATOM     71  C   UNL A   1      45.188  25.229  33.812  1.00  0.00     0.034 A 
BRANCH  58  72
ATOM     72  C   UNL A   1      45.188  24.899  27.517  1.00  0.00     0.023 A 
ATOM     73  C   UNL A   1      44.445  23.952  26.778  1.00  0.00     0.031 A 
ATOM     74  C   UNL A   1      46.481  25.164  27.022  1.00  0.00     0.131 A 
ATOM     75  C   UNL A   1      45.000  23.279  25.670  1.00  0.00     0.055 A 
ATOM     76  C   UNL A   1      47.038  24.486  25.927  1.00  0.00     0.041 A 
ATOM     77  F   UNL A   1      47.270  26.099  27.560  1.00  0.00    -0.206 F 
ATOM     78  C   UNL A   1      46.301  23.531  25.250  1.00  0.00     0.022 A 
BRANCH  75  79
ATOM     79  S   UNL A   1      44.006  22.030  24.805  1.00  0.00     0.124 S 
ATOM     80  O   UNL A   1      42.650  22.529  25.005  1.00  0.00    -0.237 OA
ATOM     81  O   UNL A   1      44.530  22.105  23.446  1.00  0.00    -0.237 OA
ATOM     82  O   UNL A   1      44.320  20.793  25.520  1.00  0.00    -0.744 OA
ENDBRANCH  75  79
ENDBRANCH  58  72
BRANCH  59  83
ATOM     83  C   UNL A   1      41.631  29.903  35.853  1.00  0.00     0.023 A 
ATOM     84  C   UNL A   1      41.467  31.044  36.706  1.00  0.00     0.031 A 
ATOM     85  C   UNL A   1      40.528  29.581  35.054  1.00  0.00     0.131 A 
ATOM     86  C   UNL A   1      40.382  31.934  36.555  1.00  0.00     0.055 A 
ATOM     87  C   UNL A   1      39.425  30.454  34.928  1.00  0.00     0.041 A 
ATOM     88  F   UNL A   1      40.544  28.483  34.283  1.00  0.00    -0.206 F 
ATOM     89  C   UNL A   1      39.378  31.662  35.632  1.00  0.00     0.022 A 
BRANCH  86  90
ATOM     90  S   UNL A   1      40.414  33.578  37.362  1.00  0.00     0.124 S 
ATOM     91  O   UNL A   1      41.001  34.420  36.325  1.00  0.00    -0.237 OA
ATOM     92  O   UNL A   1      39.007  33.841  37.663  1.00  0.00    -0.237 OA
ATOM     93  O   UNL A   1      41.251  33.364  38.543  1.00  0.00    -0.744 OA
ENDBRANCH  86  90
ENDBRANCH  59  83
BRANCH  71  94
ATOM     94  C   UNL A   1      45.515  23.784  34.186  1.00  0.00     0.023 A 
ATOM     95  C   UNL A   1      46.811  23.348  34.474  1.00  0.00     0.031 A 
ATOM     96  C   UNL A   1      44.510  22.792  34.316  1.00  0.00     0.131 A 
ATOM     97  C   UNL A   1      47.100  21.993  34.686  1.00  0.00     0.055 A 
ATOM     98  C   UNL A   1      44.782  21.468  34.677  1.00  0.00     0.041 A 
ATOM     99  F   UNL A   1      43.212  23.054  34.106  1.00  0.00    -0.206 F 
ATOM    100  C   UNL A   1      46.092  21.048  34.826  1.00  0.00     0.022 A 
BRANCH  97 101
ATOM    101  S   UNL A   1      48.839  21.498  34.623  1.00  0.00     0.124 S 
ATOM    102  O   UNL A   1      48.771  20.296  33.794  1.00  0.00    -0.237 OA
ATOM    103  O   UNL A   1      49.471  22.656  34.001  1.00  0.00    -0.237 OA
ATOM    104  O   UNL A   1      49.182  21.272  36.024  1.00  0.00    -0.744 OA
ENDBRANCH  97 101
ENDBRANCH  71  94
ENDBRANCH  45  46
ENDBRANCH  37  40
ENDBRANCH  35  36
ENDBRANCH  34  35
ENDBRANCH  33  34
ENDBRANCH  32  33
ENDBRANCH   1  32
TORSDOF 22
ENDMDL
MODEL 2
REMARK VINA RESULT:     -12.5      3.906      7.484
REMARK SMILES Cc1c(NCc2ccccn2)cccc1C(=O)N1CCOC[C@@H]1CC(=O)NCCCCCCNC(=O)c1ccc(-c2c3nc(c(-c4cc(S(=O)(=O)[O-])ccc4F)c4ccc([nH]4)c(-c4cc(S(=O)(=O)[O-])ccc4F)c4nc(c(-c5cc(S(=O)(=O)[O-])ccc5F)c5ccc2[nH]5)C=C4)C=C3)cc1
REMARK SMILES IDX 29 1 28 2 27 3 25 4 26 5 24 7 23 8 18 9 19 10 20 11 22 12
REMARK SMILES IDX 21 13 16 14 17 15 15 16 1 17 2 18 3 19 12 20 14 21 13 22
REMARK SMILES IDX 4 23 5 25 6 26 7 27 11 28 8 29 10 30 9 31 30 32 31 33 32 34
REMARK SMILES IDX 33 35 34 36 35 37 36 39 37 40 38 41 99 42 39 43 98 44 40 45
REMARK SMILES IDX 41 46 42 47 92 48 43 49 97 50 91 51 93 52 44 53 96 54 90 55
REMARK SMILES IDX 89 56 45 58 77 59 57 60 76 61 58 62 61 63 75 64 94 65 59 66
REMARK SMILES IDX 60 67 74 69 95 70 62 71 46 72 47 73 55 74 48 75 54 76 56 77
REMARK SMILES IDX 53 78 49 79 50 80 51 81 52 82 78 83 79 84 87 85 80 86 86 87
REMARK SMILES IDX 88 88 85 89 81 90 82 91 83 92 84 93 63 94 64 95 72 96 65 97
REMARK SMILES IDX 71 98 73 99 70 100 66 101 67 102 68 103 69 104
REMARK H PARENT 27 6 4 24 34 38 93 57 61 68
REMARK Flexibility Score: inf
ROOT
ATOM      1  C   UNL A   1      35.012  24.036  25.922  1.00  0.00     0.021 C 
ENDROOT
BRANCH   1   2
ATOM      2  C   UNL A   1      33.622  23.733  25.365  1.00  0.00     0.116 C 
BRANCH   2   3
ATOM      3  N   UNL A   1      33.524  24.303  24.044  1.00  0.00    -0.356 N 
ATOM      4  C   UNL A   1      32.455  24.982  23.546  1.00  0.00     0.222 C 
ATOM      5  O   UNL A   1      32.294  25.018  22.325  1.00  0.00    -0.275 OA
ATOM      6  H   UNL A   1      34.301  24.193  23.450  1.00  0.00     0.163 HD
BRANCH   4   7
ATOM      7  C   UNL A   1      31.553  25.756  24.486  1.00  0.00     0.127 C 
BRANCH   7   8
ATOM      8  C   UNL A   1      30.345  26.521  23.922  1.00  0.00     0.120 C 
ATOM      9  N   UNL A   1      30.438  27.999  23.716  1.00  0.00    -0.331 N 
ATOM     10  C   UNL A   1      29.287  28.459  22.912  1.00  0.00     0.148 C 
ATOM     11  C   UNL A   1      27.934  28.007  23.500  1.00  0.00     0.181 C 
ATOM     12  C   UNL A   1      29.017  26.226  24.651  1.00  0.00     0.185 C 
ATOM     13  O   UNL A   1      27.912  26.604  23.808  1.00  0.00    -0.377 OA
BRANCH   9  14
ATOM     14  C   UNL A   1      31.664  28.624  23.471  1.00  0.00     0.254 C 
ATOM     15  O   UNL A   1      32.144  28.709  22.343  1.00  0.00    -0.269 OA
BRANCH  14  16
ATOM     16  C   UNL A   1      32.520  29.051  24.635  1.00  0.00     0.045 A 
ATOM     17  C   UNL A   1      30.957  31.330  25.520  1.00  0.00     0.047 C 
ATOM     18  C   UNL A   1      32.127  30.422  25.739  1.00  0.00    -0.015 A 
ATOM     19  C   UNL A   1      33.142  30.721  27.204  1.00  0.00     0.038 A 
ATOM     20  C   UNL A   1      34.549  29.663  27.587  1.00  0.00     0.026 A 
ATOM     21  C   UNL A   1      33.951  27.995  24.987  1.00  0.00     0.014 A 
ATOM     22  C   UNL A   1      34.961  28.294  26.468  1.00  0.00     0.003 A 
BRANCH  19  23
ATOM     23  N   UNL A   1      32.867  31.823  27.980  1.00  0.00    -0.379 N 
ATOM     24  H   UNL A   1      32.079  31.819  28.570  1.00  0.00     0.160 HD
BRANCH  23  25
ATOM     25  C   UNL A   1      33.726  32.988  27.938  1.00  0.00     0.169 C 
BRANCH  25  26
ATOM     26  C   UNL A   1      34.805  32.879  29.014  1.00  0.00     0.059 A 
ATOM     27  C   UNL A   1      36.582  33.098  28.591  1.00  0.00     0.026 A 
ATOM     28  N   UNL A   1      34.203  33.196  30.697  1.00  0.00    -0.259 NA
ATOM     29  C   UNL A   1      37.742  33.717  29.877  1.00  0.00     0.004 A 
ATOM     30  C   UNL A   1      35.312  33.805  31.973  1.00  0.00     0.111 A 
ATOM     31  C   UNL A   1      37.057  34.141  31.591  1.00  0.00     0.020 A 
ENDBRANCH  25  26
ENDBRANCH  23  25
ENDBRANCH  19  23
ENDBRANCH  14  16
ENDBRANCH   9  14
ENDBRANCH   7   8
ENDBRANCH   4   7
ENDBRANCH   2   3
ENDBRANCH   1   2
BRANCH   1  32
ATOM     32  C   UNL A   1      36.189  23.375  25.192  1.00  0.00     0.002 C 
BRANCH  32  33
ATOM     33  C   UNL A   1      37.743  23.894  25.682  1.00  0.00     0.002 C 
BRANCH  33  34
ATOM     34  C   UNL A   1      39.388  23.096  26.879  1.00  0.00     0.021 C 
BRANCH  34  35
ATOM     35  C   UNL A   1      40.549  21.839  26.729  1.00  0.00     0.116 C 
BRANCH  35  36
ATOM     36  N   UNL A   1      41.977  22.053  26.389  1.00  0.00    -0.352 N 
ATOM     37  C   UNL A   1      42.954  22.792  27.060  1.00  0.00     0.251 C 
ATOM     38  H   UNL A   1      42.282  21.607  25.567  1.00  0.00     0.163 HD
ATOM     39  O   UNL A   1      44.121  22.784  26.676  1.00  0.00    -0.269 OA
BRANCH  37  40
ATOM     40  C   UNL A   1      42.608  23.509  28.319  1.00  0.00     0.039 A 
ATOM     41  C   UNL A   1      42.494  24.898  28.242  1.00  0.00     0.014 A 
ATOM     42  C   UNL A   1      42.958  22.917  29.516  1.00  0.00     0.014 A 
ATOM     43  C   UNL A   1      43.157  25.661  29.192  1.00  0.00     0.010 A 
ATOM     44  C   UNL A   1      43.851  23.631  30.289  1.00  0.00     0.010 A 
ATOM     45  C   UNL A   1      44.060  25.004  30.045  1.00  0.00    -0.014 A 
BRANCH  45  46
ATOM     46  C   UNL A   1      45.406  25.678  30.785  1.00  0.00     0.031 A 
ATOM     47  C   UNL A   1      46.448  25.272  29.313  1.00  0.00     0.074 A 
ATOM     48  C   UNL A   1      45.842  26.447  32.444  1.00  0.00     0.049 A 
ATOM     49  N   UNL A   1      47.731  25.466  29.263  1.00  0.00    -0.248 NA
ATOM     50  C   UNL A   1      46.067  24.622  28.041  1.00  0.00     0.031 C 
ATOM     51  C   UNL A   1      47.201  27.301  33.092  1.00  0.00     0.029 A 
ATOM     52  N   UNL A   1      45.241  26.517  33.851  1.00  0.00    -0.354 N 
ATOM     53  C   UNL A   1      48.323  25.125  28.110  1.00  0.00     0.074 A 
ATOM     54  C   UNL A   1      47.214  24.644  27.328  1.00  0.00     0.031 C 
ATOM     55  C   UNL A   1      47.302  27.154  34.420  1.00  0.00     0.029 A 
ATOM     56  C   UNL A   1      46.242  26.285  34.812  1.00  0.00     0.049 A 
ATOM     57  H   UNL A   1      44.295  26.698  34.053  1.00  0.00     0.167 HD
ATOM     58  C   UNL A   1      49.649  25.440  28.050  1.00  0.00     0.034 A 
ATOM     59  C   UNL A   1      46.388  25.045  35.357  1.00  0.00     0.034 A 
ATOM     60  C   UNL A   1      50.230  25.673  29.419  1.00  0.00     0.049 A 
ATOM     61  C   UNL A   1      47.772  24.462  34.952  1.00  0.00     0.074 A 
ATOM     62  C   UNL A   1      50.508  26.816  30.158  1.00  0.00     0.029 A 
ATOM     63  N   UNL A   1      50.325  24.615  30.343  1.00  0.00    -0.354 N 
ATOM     64  N   UNL A   1      48.454  24.740  33.854  1.00  0.00    -0.248 NA
ATOM     65  C   UNL A   1      48.544  23.627  35.856  1.00  0.00     0.031 C 
ATOM     66  C   UNL A   1      50.647  26.449  31.540  1.00  0.00     0.029 A 
ATOM     67  C   UNL A   1      50.495  25.073  31.667  1.00  0.00     0.049 A 
ATOM     68  H   UNL A   1      50.278  23.663  30.094  1.00  0.00     0.167 HD
ATOM     69  C   UNL A   1      49.693  24.129  33.855  1.00  0.00     0.074 A 
ATOM     70  C   UNL A   1      49.707  23.517  35.188  1.00  0.00     0.031 C 
ATOM     71  C   UNL A   1      50.618  24.131  32.812  1.00  0.00     0.034 A 
BRANCH  58  72
ATOM     72  C   UNL A   1      50.319  25.866  26.760  1.00  0.00     0.023 A 
ATOM     73  C   UNL A   1      49.526  26.441  25.742  1.00  0.00     0.031 A 
ATOM     74  C   UNL A   1      51.662  25.622  26.407  1.00  0.00     0.131 A 
ATOM     75  C   UNL A   1      50.040  26.678  24.450  1.00  0.00     0.055 A 
ATOM     76  C   UNL A   1      52.170  25.847  25.119  1.00  0.00     0.041 A 
ATOM     77  F   UNL A   1      52.556  25.165  27.289  1.00  0.00    -0.206 F 
ATOM     78  C   UNL A   1      51.357  26.370  24.129  1.00  0.00     0.022 A 
BRANCH  75  79
ATOM     79  S   UNL A   1      48.945  27.363  23.175  1.00  0.00     0.124 S 
ATOM     80  O   UNL A   1      48.465  26.158  22.506  1.00  0.00    -0.237 OA
ATOM     81  O   UNL A   1      47.966  28.096  23.969  1.00  0.00    -0.237 OA
ATOM     82  O   UNL A   1      49.840  28.198  22.373  1.00  0.00    -0.744 OA
ENDBRANCH  75  79
ENDBRANCH  58  72
BRANCH  59  83
ATOM     83  C   UNL A   1      45.030  24.358  35.531  1.00  0.00     0.023 A 
ATOM     84  C   UNL A   1      44.053  25.014  36.350  1.00  0.00     0.031 A 
ATOM     85  C   UNL A   1      44.537  23.366  34.677  1.00  0.00     0.131 A 
ATOM     86  C   UNL A   1      42.668  24.864  36.119  1.00  0.00     0.055 A 
ATOM     87  C   UNL A   1      43.150  23.189  34.470  1.00  0.00     0.041 A 
ATOM     88  F   UNL A   1      45.375  22.631  33.930  1.00  0.00    -0.206 F 
ATOM     89  C   UNL A   1      42.215  23.980  35.145  1.00  0.00     0.022 A 
BRANCH  86  90
ATOM     90  S   UNL A   1      41.470  26.012  36.892  1.00  0.00     0.124 S 
ATOM     91  O   UNL A   1      42.107  26.309  38.171  1.00  0.00    -0.237 OA
ATOM     92  O   UNL A   1      41.403  27.127  35.949  1.00  0.00    -0.237 OA
ATOM     93  O   UNL A   1      40.241  25.221  36.975  1.00  0.00    -0.744 OA
ENDBRANCH  86  90
ENDBRANCH  59  83
BRANCH  71  94
ATOM     94  C   UNL A   1      51.858  23.239  32.805  1.00  0.00     0.023 A 
ATOM     95  C   UNL A   1      53.159  23.746  32.763  1.00  0.00     0.031 A 
ATOM     96  C   UNL A   1      51.773  21.826  32.894  1.00  0.00     0.131 A 
ATOM     97  C   UNL A   1      54.272  22.905  32.626  1.00  0.00     0.055 A 
ATOM     98  C   UNL A   1      52.894  20.989  32.910  1.00  0.00     0.041 A 
ATOM     99  F   UNL A   1      50.600  21.182  32.974  1.00  0.00    -0.206 F 
ATOM    100  C   UNL A   1      54.158  21.526  32.734  1.00  0.00     0.022 A 
BRANCH  97 101
ATOM    101  S   UNL A   1      55.840  23.677  32.157  1.00  0.00     0.124 S 
ATOM    102  O   UNL A   1      55.496  25.096  32.212  1.00  0.00    -0.237 OA
ATOM    103  O   UNL A   1      56.744  23.208  33.202  1.00  0.00    -0.237 OA
ATOM    104  O   UNL A   1      56.096  23.147  30.821  1.00  0.00    -0.744 OA
ENDBRANCH  97 101
ENDBRANCH  71  94
ENDBRANCH  45  46
ENDBRANCH  37  40
ENDBRANCH  35  36
ENDBRANCH  34  35
ENDBRANCH  33  34
ENDBRANCH  32  33
ENDBRANCH   1  32
TORSDOF 22
ENDMDL
MODEL 3
REMARK VINA RESULT:     -12.2      3.986      7.327
REMARK SMILES Cc1c(NCc2ccccn2)cccc1C(=O)N1CCOC[C@@H]1CC(=O)NCCCCCCNC(=O)c1ccc(-c2c3nc(c(-c4cc(S(=O)(=O)[O-])ccc4F)c4ccc([nH]4)c(-c4cc(S(=O)(=O)[O-])ccc4F)c4nc(c(-c5cc(S(=O)(=O)[O-])ccc5F)c5ccc2[nH]5)C=C4)C=C3)cc1
REMARK SMILES IDX 29 1 28 2 27 3 25 4 26 5 24 7 23 8 18 9 19 10 20 11 22 12
REMARK SMILES IDX 21 13 16 14 17 15 15 16 1 17 2 18 3 19 12 20 14 21 13 22
REMARK SMILES IDX 4 23 5 25 6 26 7 27 11 28 8 29 10 30 9 31 30 32 31 33 32 34
REMARK SMILES IDX 33 35 34 36 35 37 36 39 37 40 38 41 99 42 39 43 98 44 40 45
REMARK SMILES IDX 41 46 42 47 92 48 43 49 97 50 91 51 93 52 44 53 96 54 90 55
REMARK SMILES IDX 89 56 45 58 77 59 57 60 76 61 58 62 61 63 75 64 94 65 59 66
REMARK SMILES IDX 60 67 74 69 95 70 62 71 46 72 47 73 55 74 48 75 54 76 56 77
REMARK SMILES IDX 53 78 49 79 50 80 51 81 52 82 78 83 79 84 87 85 80 86 86 87
REMARK SMILES IDX 88 88 85 89 81 90 82 91 83 92 84 93 63 94 64 95 72 96 65 97
REMARK SMILES IDX 71 98 73 99 70 100 66 101 67 102 68 103 69 104
REMARK H PARENT 27 6 4 24 34 38 93 57 61 68
REMARK Flexibility Score: inf
ROOT
ATOM      1  C   UNL A   1      35.429  24.343  25.801  1.00  0.00     0.021 C 
ENDROOT
BRANCH   1   2
ATOM      2  C   UNL A   1      34.010  24.153  25.267  1.00  0.00     0.116 C 
BRANCH   2   3
ATOM      3  N   UNL A   1      33.898  24.845  24.007  1.00  0.00    -0.356 N 
ATOM      4  C   UNL A   1      32.769  25.422  23.512  1.00  0.00     0.222 C 
ATOM      5  O   UNL A   1      32.666  25.568  22.293  1.00  0.00    -0.275 OA
ATOM      6  H   UNL A   1      34.711  24.907  23.456  1.00  0.00     0.163 HD
BRANCH   4   7
ATOM      7  C   UNL A   1      31.719  25.958  24.465  1.00  0.00     0.127 C 
BRANCH   7   8
ATOM      8  C   UNL A   1      30.454  26.626  23.904  1.00  0.00     0.120 C 
ATOM      9  N   UNL A   1      30.354  28.118  23.885  1.00  0.00    -0.331 N 
ATOM     10  C   UNL A   1      29.202  28.525  23.053  1.00  0.00     0.148 C 
ATOM     11  C   UNL A   1      27.892  27.829  23.474  1.00  0.00     0.181 C 
ATOM     12  C   UNL A   1      29.137  26.070  24.485  1.00  0.00     0.185 C 
ATOM     13  O   UNL A   1      28.045  26.407  23.609  1.00  0.00    -0.377 OA
BRANCH   9  14
ATOM     14  C   UNL A   1      31.495  28.923  23.814  1.00  0.00     0.254 C 
ATOM     15  O   UNL A   1      32.245  28.914  22.841  1.00  0.00    -0.269 OA
BRANCH  14  16
ATOM     16  C   UNL A   1      31.929  29.695  25.032  1.00  0.00     0.045 A 
ATOM     17  C   UNL A   1      34.231  28.090  25.775  1.00  0.00     0.047 C 
ATOM     18  C   UNL A   1      33.385  29.300  26.022  1.00  0.00    -0.015 A 
ATOM     19  C   UNL A   1      33.900  30.409  27.354  1.00  0.00     0.038 A 
ATOM     20  C   UNL A   1      32.979  31.916  27.711  1.00  0.00     0.026 A 
ATOM     21  C   UNL A   1      30.973  31.191  25.398  1.00  0.00     0.014 A 
ATOM     22  C   UNL A   1      31.502  32.307  26.730  1.00  0.00     0.003 A 
BRANCH  19  23
ATOM     23  N   UNL A   1      34.963  30.039  28.143  1.00  0.00    -0.379 N 
ATOM     24  H   UNL A   1      34.962  29.157  28.580  1.00  0.00     0.160 HD
BRANCH  23  25
ATOM     25  C   UNL A   1      36.085  30.934  28.336  1.00  0.00     0.169 C 
BRANCH  25  26
ATOM     26  C   UNL A   1      36.867  30.527  29.583  1.00  0.00     0.059 A 
ATOM     27  C   UNL A   1      37.732  28.904  29.665  1.00  0.00     0.026 A 
ATOM     28  N   UNL A   1      37.420  31.927  30.598  1.00  0.00    -0.259 NA
ATOM     29  C   UNL A   1      39.218  28.731  30.734  1.00  0.00     0.004 A 
ATOM     30  C   UNL A   1      38.870  31.788  31.649  1.00  0.00     0.111 A 
ATOM     31  C   UNL A   1      39.829  30.244  31.694  1.00  0.00     0.020 A 
ENDBRANCH  25  26
ENDBRANCH  23  25
ENDBRANCH  19  23
ENDBRANCH  14  16
ENDBRANCH   9  14
ENDBRANCH   7   8
ENDBRANCH   4   7
ENDBRANCH   2   3
ENDBRANCH   1   2
BRANCH   1  32
ATOM     32  C   UNL A   1      36.520  23.500  25.128  1.00  0.00     0.002 C 
BRANCH  32  33
ATOM     33  C   UNL A   1      38.101  23.718  25.742  1.00  0.00     0.002 C 
BRANCH  33  34
ATOM     34  C   UNL A   1      39.512  22.577  26.959  1.00  0.00     0.021 C 
BRANCH  34  35
ATOM     35  C   UNL A   1      40.729  21.396  26.687  1.00  0.00     0.116 C 
BRANCH  35  36
ATOM     36  N   UNL A   1      42.135  21.708  26.329  1.00  0.00    -0.352 N 
ATOM     37  C   UNL A   1      43.072  22.501  26.996  1.00  0.00     0.251 C 
ATOM     38  H   UNL A   1      42.456  21.293  25.496  1.00  0.00     0.163 HD
ATOM     39  O   UNL A   1      44.230  22.574  26.595  1.00  0.00    -0.269 OA
BRANCH  37  40
ATOM     40  C   UNL A   1      42.698  23.177  28.270  1.00  0.00     0.039 A 
ATOM     41  C   UNL A   1      42.433  24.546  28.202  1.00  0.00     0.014 A 
ATOM     42  C   UNL A   1      43.156  22.627  29.450  1.00  0.00     0.014 A 
ATOM     43  C   UNL A   1      43.046  25.377  29.128  1.00  0.00     0.010 A 
ATOM     44  C   UNL A   1      43.995  23.434  30.192  1.00  0.00     0.010 A 
ATOM     45  C   UNL A   1      44.046  24.821  29.944  1.00  0.00    -0.014 A 
BRANCH  45  46
ATOM     46  C   UNL A   1      45.339  25.637  30.634  1.00  0.00     0.031 A 
ATOM     47  C   UNL A   1      46.411  25.207  29.191  1.00  0.00     0.074 A 
ATOM     48  C   UNL A   1      45.714  26.545  32.237  1.00  0.00     0.049 A 
ATOM     49  N   UNL A   1      47.677  25.488  29.126  1.00  0.00    -0.248 NA
ATOM     50  C   UNL A   1      46.080  24.449  27.966  1.00  0.00     0.031 C 
ATOM     51  C   UNL A   1      47.008  27.534  32.824  1.00  0.00     0.029 A 
ATOM     52  N   UNL A   1      45.106  26.667  33.637  1.00  0.00    -0.354 N 
ATOM     53  C   UNL A   1      48.295  25.113  27.997  1.00  0.00     0.074 A 
ATOM     54  C   UNL A   1      47.226  24.503  27.252  1.00  0.00     0.031 C 
ATOM     55  C   UNL A   1      47.115  27.485  34.159  1.00  0.00     0.029 A 
ATOM     56  C   UNL A   1      46.118  26.571  34.610  1.00  0.00     0.049 A 
ATOM     57  H   UNL A   1      44.149  26.794  33.829  1.00  0.00     0.167 HD
ATOM     58  C   UNL A   1      49.596  25.517  27.914  1.00  0.00     0.034 A 
ATOM     59  C   UNL A   1      46.350  25.384  35.237  1.00  0.00     0.034 A 
ATOM     60  C   UNL A   1      50.155  25.881  29.263  1.00  0.00     0.049 A 
ATOM     61  C   UNL A   1      47.772  24.874  34.870  1.00  0.00     0.074 A 
ATOM     62  C   UNL A   1      50.349  27.088  29.923  1.00  0.00     0.029 A 
ATOM     63  N   UNL A   1      50.322  24.897  30.256  1.00  0.00    -0.354 N 
ATOM     64  N   UNL A   1      48.437  25.125  33.754  1.00  0.00    -0.248 NA
ATOM     65  C   UNL A   1      48.599  24.158  35.826  1.00  0.00     0.031 C 
ATOM     66  C   UNL A   1      50.510  26.826  31.326  1.00  0.00     0.029 A 
ATOM     67  C   UNL A   1      50.455  25.454  31.545  1.00  0.00     0.049 A 
ATOM     68  H   UNL A   1      50.343  23.930  30.071  1.00  0.00     0.167 HD
ATOM     69  C   UNL A   1      49.715  24.605  33.794  1.00  0.00     0.074 A 
ATOM     70  C   UNL A   1      49.769  24.086  35.165  1.00  0.00     0.031 C 
ATOM     71  C   UNL A   1      50.641  24.602  32.751  1.00  0.00     0.034 A 
BRANCH  58  72
ATOM     72  C   UNL A   1      50.238  25.901  26.597  1.00  0.00     0.023 A 
ATOM     73  C   UNL A   1      51.539  25.431  26.314  1.00  0.00     0.031 A 
ATOM     74  C   UNL A   1      49.711  26.808  25.655  1.00  0.00     0.131 A 
ATOM     75  C   UNL A   1      52.271  25.903  25.205  1.00  0.00     0.055 A 
ATOM     76  C   UNL A   1      50.443  27.288  24.559  1.00  0.00     0.041 A 
ATOM     77  F   UNL A   1      48.461  27.271  25.738  1.00  0.00    -0.206 F 
ATOM     78  C   UNL A   1      51.734  26.843  24.332  1.00  0.00     0.022 A 
BRANCH  75  79
ATOM     79  S   UNL A   1      53.962  25.300  24.939  1.00  0.00     0.124 S 
ATOM     80  O   UNL A   1      54.394  26.098  23.796  1.00  0.00    -0.237 OA
ATOM     81  O   UNL A   1      54.602  25.598  26.215  1.00  0.00    -0.237 OA
ATOM     82  O   UNL A   1      53.774  23.876  24.661  1.00  0.00    -0.744 OA
ENDBRANCH  75  79
ENDBRANCH  58  72
BRANCH  59  83
ATOM     83  C   UNL A   1      45.043  24.616  35.459  1.00  0.00     0.023 A 
ATOM     84  C   UNL A   1      44.067  25.202  36.331  1.00  0.00     0.031 A 
ATOM     85  C   UNL A   1      44.571  23.608  34.612  1.00  0.00     0.131 A 
ATOM     86  C   UNL A   1      42.685  24.973  36.158  1.00  0.00     0.055 A 
ATOM     87  C   UNL A   1      43.189  23.352  34.463  1.00  0.00     0.041 A 
ATOM     88  F   UNL A   1      45.417  22.934  33.817  1.00  0.00    -0.206 F 
ATOM     89  C   UNL A   1      42.240  24.077  35.191  1.00  0.00     0.022 A 
BRANCH  86  90
ATOM     90  S   UNL A   1      41.457  26.038  37.002  1.00  0.00     0.124 S 
ATOM     91  O   UNL A   1      42.180  26.456  38.198  1.00  0.00    -0.237 OA
ATOM     92  O   UNL A   1      41.191  27.096  36.027  1.00  0.00    -0.237 OA
ATOM     93  O   UNL A   1      40.326  25.139  37.237  1.00  0.00    -0.744 OA
ENDBRANCH  86  90
ENDBRANCH  59  83
BRANCH  71  94
ATOM     94  C   UNL A   1      51.941  23.802  32.802  1.00  0.00     0.023 A 
ATOM     95  C   UNL A   1      51.989  22.450  33.154  1.00  0.00     0.031 A 
ATOM     96  C   UNL A   1      53.192  24.368  32.443  1.00  0.00     0.131 A 
ATOM     97  C   UNL A   1      53.207  21.776  33.318  1.00  0.00     0.055 A 
ATOM     98  C   UNL A   1      54.392  23.650  32.461  1.00  0.00     0.041 A 
ATOM     99  F   UNL A   1      53.314  25.644  32.051  1.00  0.00    -0.206 F 
ATOM    100  C   UNL A   1      54.412  22.352  32.941  1.00  0.00     0.022 A 
BRANCH  97 101
ATOM    101  S   UNL A   1      53.162  20.184  34.176  1.00  0.00     0.124 S 
ATOM    102  O   UNL A   1      53.352  19.249  33.069  1.00  0.00    -0.237 OA
ATOM    103  O   UNL A   1      54.283  20.298  35.103  1.00  0.00    -0.237 OA
ATOM    104  O   UNL A   1      51.839  20.163  34.791  1.00  0.00    -0.744 OA
ENDBRANCH  97 101
ENDBRANCH  71  94
ENDBRANCH  45  46
ENDBRANCH  37  40
ENDBRANCH  35  36
ENDBRANCH  34  35
ENDBRANCH  33  34
ENDBRANCH  32  33
ENDBRANCH   1  32
TORSDOF 22
ENDMDL
