MODEL 1
REMARK VINA RESULT:     -12.9      0.000      0.000
REMARK SMILES Cc1cccc(NS(=O)(=O)c2ccc(Br)c(C(=O)NCCCCCCNC(=O)c3ccc(-c4c5nc(c(-c6cc(S(=O)(=O)[O-])ccc6F)c6ccc([nH]6)c(-c6cc(S(=O)(=O)[O-])ccc6F)c6nc(c(-c7cc(S(=O)(=O)[O-])ccc7F)c7ccc4[nH]7)C=C6)C=C5)cc3)c2)c1
REMARK SMILES IDX 22 1 21 2 20 3 19 4 17 5 18 6 16 8 11 9 12 10 92 11 13 12
REMARK SMILES IDX 14 13 15 14 8 15 9 16 10 17 7 18 6 20 1 21 2 22 3 23 93 24
REMARK SMILES IDX 4 25 5 26 23 27 24 28 25 29 26 30 27 31 28 33 29 34 30 35
REMARK SMILES IDX 91 36 31 37 90 38 32 39 33 40 34 41 84 42 35 43 89 44 83 45
REMARK SMILES IDX 85 46 36 47 88 48 82 49 81 50 37 52 69 53 49 54 68 55 50 56
REMARK SMILES IDX 53 57 67 58 86 59 51 60 52 61 66 63 87 64 54 65 38 66 39 67
REMARK SMILES IDX 47 68 40 69 46 70 48 71 45 72 41 73 42 74 43 75 44 76 70 77
REMARK SMILES IDX 71 78 79 79 72 80 78 81 80 82 77 83 73 84 74 85 75 86 76 87
REMARK SMILES IDX 55 88 56 89 64 90 57 91 63 92 65 93 62 94 58 95 59 96 60 97
REMARK SMILES IDX 61 98
REMARK H PARENT 19 7 7 19 26 32 85 51 53 62
REMARK Flexibility Score: inf
ROOT
ATOM      1  C   UNL A   1      32.290  28.968  25.149  1.00  0.00     0.002 C 
ENDROOT
BRANCH   1   2
ATOM      2  C   UNL A   1      32.349  28.929  23.620  1.00  0.00     0.021 C 
BRANCH   2   3
ATOM      3  C   UNL A   1      33.653  28.540  22.938  1.00  0.00     0.116 C 
BRANCH   3   4
ATOM      4  N   UNL A   1      33.612  27.536  21.895  1.00  0.00    -0.352 N 
ATOM      5  C   UNL A   1      33.342  26.183  21.999  1.00  0.00     0.252 C 
ATOM      6  O   UNL A   1      33.160  25.528  20.973  1.00  0.00    -0.269 OA
ATOM      7  H   UNL A   1      33.800  27.862  20.985  1.00  0.00     0.163 HD
BRANCH   5   8
ATOM      8  C   UNL A   1      33.417  25.456  23.303  1.00  0.00     0.055 A 
ATOM      9  C   UNL A   1      34.869  24.351  24.921  1.00  0.00     0.088 A 
ATOM     10  C   UNL A   1      33.919  24.543  25.918  1.00  0.00     0.023 A 
ATOM     11  C   UNL A   1      34.661  24.896  23.644  1.00  0.00     0.037 A 
ATOM     12  C   UNL A   1      32.637  24.932  25.537  1.00  0.00     0.018 A 
ATOM     13  C   UNL A   1      32.367  25.258  24.202  1.00  0.00     0.030 A 
ATOM     14  Br  UNL A   1      30.562  25.010  23.643  1.00  0.00    -0.050 Br
BRANCH   9  15
ATOM     15  S   UNL A   1      36.161  23.134  25.096  1.00  0.00     0.261 S 
ATOM     16  O   UNL A   1      36.992  23.565  26.204  1.00  0.00    -0.201 OA
ATOM     17  O   UNL A   1      36.721  22.912  23.783  1.00  0.00    -0.201 OA
BRANCH  15  18
ATOM     18  N   UNL A   1      35.492  21.682  25.602  1.00  0.00    -0.280 N 
ATOM     19  H   UNL A   1      35.733  21.395  26.512  1.00  0.00     0.180 HD
BRANCH  18  20
ATOM     20  C   UNL A   1      34.619  20.810  24.888  1.00  0.00     0.049 A 
ATOM     21  C   UNL A   1      34.569  17.029  24.380  1.00  0.00     0.044 C 
ATOM     22  C   UNL A   1      34.142  18.467  24.381  1.00  0.00    -0.049 A 
ATOM     23  C   UNL A   1      32.848  18.828  24.003  1.00  0.00     0.003 A 
ATOM     24  C   UNL A   1      35.013  19.465  24.837  1.00  0.00     0.030 A 
ATOM     25  C   UNL A   1      32.486  20.175  23.949  1.00  0.00     0.002 A 
ATOM     26  C   UNL A   1      33.395  21.171  24.332  1.00  0.00     0.027 A 
ENDBRANCH  18  20
ENDBRANCH  15  18
ENDBRANCH   9  15
ENDBRANCH   5   8
ENDBRANCH   3   4
ENDBRANCH   2   3
ENDBRANCH   1   2
BRANCH   1  27
ATOM     27  C   UNL A   1      33.482  28.461  25.971  1.00  0.00     0.002 C 
BRANCH  27  28
ATOM     28  C   UNL A   1      34.442  29.486  26.572  1.00  0.00     0.021 C 
BRANCH  28  29
ATOM     29  C   UNL A   1      34.088  30.001  27.962  1.00  0.00     0.116 C 
BRANCH  29  30
ATOM     30  N   UNL A   1      34.900  31.129  28.405  1.00  0.00    -0.352 N 
ATOM     31  C   UNL A   1      36.223  31.136  28.821  1.00  0.00     0.251 C 
ATOM     32  H   UNL A   1      34.448  32.004  28.411  1.00  0.00     0.163 HD
ATOM     33  O   UNL A   1      36.765  32.152  29.231  1.00  0.00    -0.269 OA
BRANCH  31  34
ATOM     34  C   UNL A   1      37.019  29.899  28.649  1.00  0.00     0.039 A 
ATOM     35  C   UNL A   1      37.161  29.063  29.763  1.00  0.00     0.014 A 
ATOM     36  C   UNL A   1      37.799  29.705  27.513  1.00  0.00     0.014 A 
ATOM     37  C   UNL A   1      38.252  28.203  29.832  1.00  0.00     0.010 A 
ATOM     38  C   UNL A   1      38.936  28.930  27.621  1.00  0.00     0.010 A 
ATOM     39  C   UNL A   1      39.197  28.238  28.810  1.00  0.00    -0.014 A 
BRANCH  39  40
ATOM     40  C   UNL A   1      40.545  27.698  28.946  1.00  0.00     0.031 A 
ATOM     41  C   UNL A   1      40.833  26.300  28.574  1.00  0.00     0.074 A 
ATOM     42  C   UNL A   1      41.545  28.507  29.357  1.00  0.00     0.049 A 
ATOM     43  N   UNL A   1      41.894  25.657  28.923  1.00  0.00    -0.248 NA
ATOM     44  C   UNL A   1      39.879  25.473  27.844  1.00  0.00     0.031 C 
ATOM     45  C   UNL A   1      42.982  28.263  29.277  1.00  0.00     0.029 A 
ATOM     46  N   UNL A   1      41.428  29.616  30.190  1.00  0.00    -0.354 N 
ATOM     47  C   UNL A   1      41.909  24.463  28.243  1.00  0.00     0.074 A 
ATOM     48  C   UNL A   1      40.581  24.345  27.700  1.00  0.00     0.031 C 
ATOM     49  C   UNL A   1      43.602  29.010  30.204  1.00  0.00     0.029 A 
ATOM     50  C   UNL A   1      42.571  29.637  31.009  1.00  0.00     0.049 A 
ATOM     51  H   UNL A   1      40.686  30.264  30.204  1.00  0.00     0.167 HD
ATOM     52  C   UNL A   1      43.095  23.800  28.117  1.00  0.00     0.034 A 
ATOM     53  C   UNL A   1      42.464  29.529  32.366  1.00  0.00     0.034 A 
ATOM     54  C   UNL A   1      44.093  24.340  29.050  1.00  0.00     0.049 A 
ATOM     55  C   UNL A   1      43.187  28.330  32.935  1.00  0.00     0.074 A 
ATOM     56  C   UNL A   1      45.212  25.143  28.901  1.00  0.00     0.029 A 
ATOM     57  N   UNL A   1      43.843  24.275  30.421  1.00  0.00    -0.354 N 
ATOM     58  N   UNL A   1      43.573  27.298  32.234  1.00  0.00    -0.248 NA
ATOM     59  C   UNL A   1      43.528  28.202  34.347  1.00  0.00     0.031 C 
ATOM     60  C   UNL A   1      45.582  25.624  30.188  1.00  0.00     0.029 A 
ATOM     61  C   UNL A   1      44.718  25.080  31.125  1.00  0.00     0.049 A 
ATOM     62  H   UNL A   1      43.135  23.729  30.833  1.00  0.00     0.167 HD
ATOM     63  C   UNL A   1      44.178  26.379  33.055  1.00  0.00     0.074 A 
ATOM     64  C   UNL A   1      44.149  27.011  34.365  1.00  0.00     0.031 C 
ATOM     65  C   UNL A   1      44.635  25.176  32.582  1.00  0.00     0.034 A 
BRANCH  52  66
ATOM     66  C   UNL A   1      43.446  22.831  26.992  1.00  0.00     0.023 A 
ATOM     67  C   UNL A   1      42.841  21.551  26.984  1.00  0.00     0.031 A 
ATOM     68  C   UNL A   1      44.423  23.020  25.990  1.00  0.00     0.131 A 
ATOM     69  C   UNL A   1      43.240  20.545  26.077  1.00  0.00     0.055 A 
ATOM     70  C   UNL A   1      44.808  22.026  25.079  1.00  0.00     0.041 A 
ATOM     71  F   UNL A   1      45.083  24.165  25.822  1.00  0.00    -0.206 F 
ATOM     72  C   UNL A   1      44.226  20.776  25.126  1.00  0.00     0.022 A 
BRANCH  69  73
ATOM     73  S   UNL A   1      42.497  18.893  26.186  1.00  0.00     0.124 S 
ATOM     74  O   UNL A   1      41.141  19.134  25.704  1.00  0.00    -0.237 OA
ATOM     75  O   UNL A   1      43.365  18.104  25.319  1.00  0.00    -0.237 OA
ATOM     76  O   UNL A   1      42.593  18.572  27.610  1.00  0.00    -0.744 OA
ENDBRANCH  69  73
ENDBRANCH  52  66
BRANCH  53  77
ATOM     77  C   UNL A   1      41.210  30.132  32.904  1.00  0.00     0.023 A 
ATOM     78  C   UNL A   1      41.143  31.543  32.930  1.00  0.00     0.031 A 
ATOM     79  C   UNL A   1      40.007  29.417  32.971  1.00  0.00     0.131 A 
ATOM     80  C   UNL A   1      39.908  32.194  32.825  1.00  0.00     0.055 A 
ATOM     81  C   UNL A   1      38.770  30.077  32.952  1.00  0.00     0.041 A 
ATOM     82  F   UNL A   1      40.002  28.077  32.920  1.00  0.00    -0.206 F 
ATOM     83  C   UNL A   1      38.716  31.467  32.828  1.00  0.00     0.022 A 
BRANCH  80  84
ATOM     84  S   UNL A   1      39.888  33.960  32.381  1.00  0.00     0.124 S 
ATOM     85  O   UNL A   1      40.919  34.025  31.352  1.00  0.00    -0.237 OA
ATOM     86  O   UNL A   1      38.516  34.168  31.922  1.00  0.00    -0.237 OA
ATOM     87  O   UNL A   1      40.205  34.627  33.641  1.00  0.00    -0.744 OA
ENDBRANCH  80  84
ENDBRANCH  53  77
BRANCH  65  88
ATOM     88  C   UNL A   1      45.116  24.003  33.427  1.00  0.00     0.023 A 
ATOM     89  C   UNL A   1      46.423  23.873  33.918  1.00  0.00     0.031 A 
ATOM     90  C   UNL A   1      44.219  22.980  33.831  1.00  0.00     0.131 A 
ATOM     91  C   UNL A   1      46.818  22.754  34.679  1.00  0.00     0.055 A 
ATOM     92  C   UNL A   1      44.593  21.910  34.652  1.00  0.00     0.041 A 
ATOM     93  F   UNL A   1      42.930  22.978  33.460  1.00  0.00    -0.206 F 
ATOM     94  C   UNL A   1      45.907  21.780  35.069  1.00  0.00     0.022 A 
BRANCH  91  95
ATOM     95  S   UNL A   1      48.574  22.578  35.096  1.00  0.00     0.124 S 
ATOM     96  O   UNL A   1      49.156  23.749  34.448  1.00  0.00    -0.237 OA
ATOM     97  O   UNL A   1      48.554  22.607  36.556  1.00  0.00    -0.237 OA
ATOM     98  O   UNL A   1      48.943  21.294  34.505  1.00  0.00    -0.744 OA
ENDBRANCH  91  95
ENDBRANCH  65  88
ENDBRANCH  39  40
ENDBRANCH  31  34
ENDBRANCH  29  30
ENDBRANCH  28  29
ENDBRANCH  27  28
ENDBRANCH   1  27
TORSDOF 19
ENDMDL
MODEL 2
REMARK VINA RESULT:     -12.1      2.305      2.718
REMARK SMILES Cc1cccc(NS(=O)(=O)c2ccc(Br)c(C(=O)NCCCCCCNC(=O)c3ccc(-c4c5nc(c(-c6cc(S(=O)(=O)[O-])ccc6F)c6ccc([nH]6)c(-c6cc(S(=O)(=O)[O-])ccc6F)c6nc(c(-c7cc(S(=O)(=O)[O-])ccc7F)c7ccc4[nH]7)C=C6)C=C5)cc3)c2)c1
REMARK SMILES IDX 22 1 21 2 20 3 19 4 17 5 18 6 16 8 11 9 12 10 92 11 13 12
REMARK SMILES IDX 14 13 15 14 8 15 9 16 10 17 7 18 6 20 1 21 2 22 3 23 93 24
REMARK SMILES IDX 4 25 5 26 23 27 24 28 25 29 26 30 27 31 28 33 29 34 30 35
REMARK SMILES IDX 91 36 31 37 90 38 32 39 33 40 34 41 84 42 35 43 89 44 83 45
REMARK SMILES IDX 85 46 36 47 88 48 82 49 81 50 37 52 69 53 49 54 68 55 50 56
REMARK SMILES IDX 53 57 67 58 86 59 51 60 52 61 66 63 87 64 54 65 38 66 39 67
REMARK SMILES IDX 47 68 40 69 46 70 48 71 45 72 41 73 42 74 43 75 44 76 70 77
REMARK SMILES IDX 71 78 79 79 72 80 78 81 80 82 77 83 73 84 74 85 75 86 76 87
REMARK SMILES IDX 55 88 56 89 64 90 57 91 63 92 65 93 62 94 58 95 59 96 60 97
REMARK SMILES IDX 61 98
REMARK H PARENT 19 7 7 19 26 32 85 51 53 62
REMARK Flexibility Score: inf
ROOT
ATOM      1  C   UNL A   1      30.986  29.269  24.425  1.00  0.00     0.002 C 
ENDROOT
BRANCH   1   2
ATOM      2  C   UNL A   1      31.317  28.454  23.173  1.00  0.00     0.021 C 
BRANCH   2   3
ATOM      3  C   UNL A   1      32.774  28.263  22.776  1.00  0.00     0.116 C 
BRANCH   3   4
ATOM      4  N   UNL A   1      33.088  27.267  21.772  1.00  0.00    -0.352 N 
ATOM      5  C   UNL A   1      33.192  25.895  21.909  1.00  0.00     0.252 C 
ATOM      6  O   UNL A   1      33.274  25.197  20.899  1.00  0.00    -0.269 OA
ATOM      7  H   UNL A   1      33.248  27.616  20.865  1.00  0.00     0.163 HD
BRANCH   5   8
ATOM      8  C   UNL A   1      33.363  25.241  23.242  1.00  0.00     0.055 A 
ATOM      9  C   UNL A   1      34.934  24.242  24.817  1.00  0.00     0.088 A 
ATOM     10  C   UNL A   1      34.049  24.476  25.863  1.00  0.00     0.023 A 
ATOM     11  C   UNL A   1      34.635  24.715  23.529  1.00  0.00     0.037 A 
ATOM     12  C   UNL A   1      32.739  24.828  25.547  1.00  0.00     0.018 A 
ATOM     13  C   UNL A   1      32.377  25.079  24.217  1.00  0.00     0.030 A 
ATOM     14  Br  UNL A   1      30.543  24.779  23.792  1.00  0.00    -0.050 Br
BRANCH   9  15
ATOM     15  S   UNL A   1      36.254  23.052  24.971  1.00  0.00     0.261 S 
ATOM     16  O   UNL A   1      37.101  23.508  26.056  1.00  0.00    -0.201 OA
ATOM     17  O   UNL A   1      36.788  22.832  23.647  1.00  0.00    -0.201 OA
BRANCH  15  18
ATOM     18  N   UNL A   1      35.626  21.591  25.502  1.00  0.00    -0.280 N 
ATOM     19  H   UNL A   1      35.938  21.288  26.384  1.00  0.00     0.180 HD
BRANCH  18  20
ATOM     20  C   UNL A   1      34.698  20.732  24.844  1.00  0.00     0.049 A 
ATOM     21  C   UNL A   1      34.564  16.953  24.340  1.00  0.00     0.044 C 
ATOM     22  C   UNL A   1      34.158  18.396  24.368  1.00  0.00    -0.049 A 
ATOM     23  C   UNL A   1      32.847  18.776  24.072  1.00  0.00     0.003 A 
ATOM     24  C   UNL A   1      35.069  19.382  24.769  1.00  0.00     0.030 A 
ATOM     25  C   UNL A   1      32.501  20.128  24.042  1.00  0.00     0.002 A 
ATOM     26  C   UNL A   1      33.446  21.111  24.367  1.00  0.00     0.027 A 
ENDBRANCH  18  20
ENDBRANCH  15  18
ENDBRANCH   9  15
ENDBRANCH   5   8
ENDBRANCH   3   4
ENDBRANCH   2   3
ENDBRANCH   1   2
BRANCH   1  27
ATOM     27  C   UNL A   1      32.095  30.053  25.140  1.00  0.00     0.002 C 
BRANCH  27  28
ATOM     28  C   UNL A   1      31.922  30.373  26.623  1.00  0.00     0.021 C 
BRANCH  28  29
ATOM     29  C   UNL A   1      33.133  30.115  27.510  1.00  0.00     0.116 C 
BRANCH  29  30
ATOM     30  N   UNL A   1      33.817  31.326  27.954  1.00  0.00    -0.352 N 
ATOM     31  C   UNL A   1      35.090  31.458  28.487  1.00  0.00     0.251 C 
ATOM     32  H   UNL A   1      33.304  32.161  27.865  1.00  0.00     0.163 HD
ATOM     33  O   UNL A   1      35.515  32.534  28.881  1.00  0.00    -0.269 OA
BRANCH  31  34
ATOM     34  C   UNL A   1      35.986  30.278  28.465  1.00  0.00     0.039 A 
ATOM     35  C   UNL A   1      36.347  29.720  29.696  1.00  0.00     0.014 A 
ATOM     36  C   UNL A   1      36.641  29.904  27.296  1.00  0.00     0.014 A 
ATOM     37  C   UNL A   1      37.523  28.983  29.789  1.00  0.00     0.010 A 
ATOM     38  C   UNL A   1      37.858  29.261  27.402  1.00  0.00     0.010 A 
ATOM     39  C   UNL A   1      38.331  28.867  28.661  1.00  0.00    -0.014 A 
BRANCH  39  40
ATOM     40  C   UNL A   1      39.735  28.476  28.717  1.00  0.00     0.031 A 
ATOM     41  C   UNL A   1      40.118  27.053  28.671  1.00  0.00     0.074 A 
ATOM     42  C   UNL A   1      40.688  29.432  28.747  1.00  0.00     0.049 A 
ATOM     43  N   UNL A   1      41.279  26.600  29.002  1.00  0.00    -0.248 NA
ATOM     44  C   UNL A   1      39.169  25.998  28.334  1.00  0.00     0.031 C 
ATOM     45  C   UNL A   1      42.120  29.274  28.508  1.00  0.00     0.029 A 
ATOM     46  N   UNL A   1      40.566  30.713  29.279  1.00  0.00    -0.354 N 
ATOM     47  C   UNL A   1      41.331  25.272  28.654  1.00  0.00     0.074 A 
ATOM     48  C   UNL A   1      39.962  24.923  28.373  1.00  0.00     0.031 C 
ATOM     49  C   UNL A   1      42.774  30.282  29.105  1.00  0.00     0.029 A 
ATOM     50  C   UNL A   1      41.798  31.030  29.875  1.00  0.00     0.049 A 
ATOM     51  H   UNL A   1      39.767  31.288  29.243  1.00  0.00     0.167 HD
ATOM     52  C   UNL A   1      42.553  24.682  28.517  1.00  0.00     0.034 A 
ATOM     53  C   UNL A   1      41.885  31.281  31.215  1.00  0.00     0.034 A 
ATOM     54  C   UNL A   1      43.603  25.518  29.114  1.00  0.00     0.049 A 
ATOM     55  C   UNL A   1      42.802  30.329  31.950  1.00  0.00     0.074 A 
ATOM     56  C   UNL A   1      44.600  26.326  28.592  1.00  0.00     0.029 A 
ATOM     57  N   UNL A   1      43.546  25.805  30.477  1.00  0.00    -0.354 N 
ATOM     58  N   UNL A   1      43.199  29.176  31.482  1.00  0.00    -0.248 NA
ATOM     59  C   UNL A   1      43.339  30.606  33.276  1.00  0.00     0.031 C 
ATOM     60  C   UNL A   1      45.085  27.158  29.640  1.00  0.00     0.029 A 
ATOM     61  C   UNL A   1      44.416  26.827  30.808  1.00  0.00     0.049 A 
ATOM     62  H   UNL A   1      42.962  25.342  31.121  1.00  0.00     0.167 HD
ATOM     63  C   UNL A   1      44.003  28.553  32.404  1.00  0.00     0.074 A 
ATOM     64  C   UNL A   1      44.081  29.508  33.499  1.00  0.00     0.031 C 
ATOM     65  C   UNL A   1      44.519  27.302  32.187  1.00  0.00     0.034 A 
BRANCH  52  66
ATOM     66  C   UNL A   1      42.853  23.474  27.634  1.00  0.00     0.023 A 
ATOM     67  C   UNL A   1      43.846  23.594  26.632  1.00  0.00     0.031 A 
ATOM     68  C   UNL A   1      42.155  22.246  27.619  1.00  0.00     0.131 A 
ATOM     69  C   UNL A   1      44.061  22.581  25.672  1.00  0.00     0.055 A 
ATOM     70  C   UNL A   1      42.380  21.233  26.675  1.00  0.00     0.041 A 
ATOM     71  F   UNL A   1      41.204  21.937  28.499  1.00  0.00    -0.206 F 
ATOM     72  C   UNL A   1      43.328  21.401  25.686  1.00  0.00     0.022 A 
BRANCH  69  73
ATOM     73  S   UNL A   1      45.278  22.841  24.351  1.00  0.00     0.124 S 
ATOM     74  O   UNL A   1      44.637  22.194  23.211  1.00  0.00    -0.237 OA
ATOM     75  O   UNL A   1      45.379  24.295  24.303  1.00  0.00    -0.237 OA
ATOM     76  O   UNL A   1      46.471  22.158  24.852  1.00  0.00    -0.744 OA
ENDBRANCH  69  73
ENDBRANCH  52  66
BRANCH  53  77
ATOM     77  C   UNL A   1      40.657  31.919  31.772  1.00  0.00     0.023 A 
ATOM     78  C   UNL A   1      39.941  31.181  32.741  1.00  0.00     0.031 A 
ATOM     79  C   UNL A   1      40.438  33.301  31.705  1.00  0.00     0.131 A 
ATOM     80  C   UNL A   1      39.196  31.844  33.725  1.00  0.00     0.055 A 
ATOM     81  C   UNL A   1      39.621  33.950  32.641  1.00  0.00     0.041 A 
ATOM     82  F   UNL A   1      41.109  34.059  30.827  1.00  0.00    -0.206 F 
ATOM     83  C   UNL A   1      39.038  33.230  33.686  1.00  0.00     0.022 A 
BRANCH  80  84
ATOM     84  S   UNL A   1      38.697  30.918  35.211  1.00  0.00     0.124 S 
ATOM     85  O   UNL A   1      38.390  29.604  34.661  1.00  0.00    -0.237 OA
ATOM     86  O   UNL A   1      39.886  30.992  36.059  1.00  0.00    -0.237 OA
ATOM     87  O   UNL A   1      37.556  31.679  35.714  1.00  0.00    -0.744 OA
ENDBRANCH  80  84
ENDBRANCH  53  77
BRANCH  65  88
ATOM     88  C   UNL A   1      45.230  26.433  33.216  1.00  0.00     0.023 A 
ATOM     89  C   UNL A   1      44.747  25.195  33.666  1.00  0.00     0.031 A 
ATOM     90  C   UNL A   1      46.493  26.810  33.742  1.00  0.00     0.131 A 
ATOM     91  C   UNL A   1      45.437  24.442  34.637  1.00  0.00     0.055 A 
ATOM     92  C   UNL A   1      47.215  26.023  34.647  1.00  0.00     0.041 A 
ATOM     93  F   UNL A   1      47.095  27.956  33.390  1.00  0.00    -0.206 F 
ATOM     94  C   UNL A   1      46.680  24.836  35.116  1.00  0.00     0.022 A 
BRANCH  91  95
ATOM     95  S   UNL A   1      44.634  22.957  35.300  1.00  0.00     0.124 S 
ATOM     96  O   UNL A   1      43.221  23.306  35.192  1.00  0.00    -0.237 OA
ATOM     97  O   UNL A   1      45.100  21.915  34.389  1.00  0.00    -0.237 OA
ATOM     98  O   UNL A   1      45.148  22.865  36.664  1.00  0.00    -0.744 OA
ENDBRANCH  91  95
ENDBRANCH  65  88
ENDBRANCH  39  40
ENDBRANCH  31  34
ENDBRANCH  29  30
ENDBRANCH  28  29
ENDBRANCH  27  28
ENDBRANCH   1  27
TORSDOF 19
ENDMDL
MODEL 3
REMARK VINA RESULT:     -11.6      3.891      9.952
REMARK SMILES Cc1cccc(NS(=O)(=O)c2ccc(Br)c(C(=O)NCCCCCCNC(=O)c3ccc(-c4c5nc(c(-c6cc(S(=O)(=O)[O-])ccc6F)c6ccc([nH]6)c(-c6cc(S(=O)(=O)[O-])ccc6F)c6nc(c(-c7cc(S(=O)(=O)[O-])ccc7F)c7ccc4[nH]7)C=C6)C=C5)cc3)c2)c1
REMARK SMILES IDX 22 1 21 2 20 3 19 4 17 5 18 6 16 8 11 9 12 10 92 11 13 12
REMARK SMILES IDX 14 13 15 14 8 15 9 16 10 17 7 18 6 20 1 21 2 22 3 23 93 24
REMARK SMILES IDX 4 25 5 26 23 27 24 28 25 29 26 30 27 31 28 33 29 34 30 35
REMARK SMILES IDX 91 36 31 37 90 38 32 39 33 40 34 41 84 42 35 43 89 44 83 45
REMARK SMILES IDX 85 46 36 47 88 48 82 49 81 50 37 52 69 53 49 54 68 55 50 56
REMARK SMILES IDX 53 57 67 58 86 59 51 60 52 61 66 63 87 64 54 65 38 66 39 67
REMARK SMILES IDX 47 68 40 69 46 70 48 71 45 72 41 73 42 74 43 75 44 76 70 77
REMARK SMILES IDX 71 78 79 79 72 80 78 81 80 82 77 83 73 84 74 85 75 86 76 87
REMARK SMILES IDX 55 88 56 89 64 90 57 91 63 92 65 93 62 94 58 95 59 96 60 97
REMARK SMILES IDX 61 98
REMARK H PARENT 19 7 7 19 26 32 85 51 53 62
REMARK Flexibility Score: inf
ROOT
ATOM      1  C   UNL A   1      37.115  23.708  25.528  1.00  0.00     0.002 C 
ENDROOT
BRANCH   1   2
ATOM      2  C   UNL A   1      37.168  22.379  24.770  1.00  0.00     0.021 C 
BRANCH   2   3
ATOM      3  C   UNL A   1      36.351  21.201  25.281  1.00  0.00     0.116 C 
BRANCH   3   4
ATOM      4  N   UNL A   1      35.617  21.358  26.520  1.00  0.00    -0.352 N 
ATOM      5  C   UNL A   1      34.290  21.701  26.709  1.00  0.00     0.252 C 
ATOM      6  O   UNL A   1      33.799  21.592  27.832  1.00  0.00    -0.269 OA
ATOM      7  H   UNL A   1      36.135  21.196  27.342  1.00  0.00     0.163 HD
BRANCH   5   8
ATOM      8  C   UNL A   1      33.476  22.344  25.634  1.00  0.00     0.055 A 
ATOM      9  C   UNL A   1      32.482  24.415  24.817  1.00  0.00     0.088 A 
ATOM     10  C   UNL A   1      32.432  23.895  23.529  1.00  0.00     0.023 A 
ATOM     11  C   UNL A   1      33.095  23.682  25.845  1.00  0.00     0.037 A 
ATOM     12  C   UNL A   1      32.642  22.527  23.367  1.00  0.00     0.018 A 
ATOM     13  C   UNL A   1      33.035  21.739  24.456  1.00  0.00     0.030 A 
ATOM     14  Br  UNL A   1      32.550  19.899  24.358  1.00  0.00    -0.050 Br
BRANCH   9  15
ATOM     15  S   UNL A   1      31.478  25.812  25.289  1.00  0.00     0.261 S 
ATOM     16  O   UNL A   1      31.324  25.748  26.730  1.00  0.00    -0.201 OA
ATOM     17  O   UNL A   1      30.328  25.827  24.414  1.00  0.00    -0.201 OA
BRANCH  15  18
ATOM     18  N   UNL A   1      32.331  27.228  25.012  1.00  0.00    -0.280 N 
ATOM     19  H   UNL A   1      32.654  27.359  24.092  1.00  0.00     0.180 HD
BRANCH  18  20
ATOM     20  C   UNL A   1      32.649  28.268  25.934  1.00  0.00     0.049 A 
ATOM     21  C   UNL A   1      35.900  29.345  27.615  1.00  0.00     0.044 C 
ATOM     22  C   UNL A   1      34.477  29.352  27.141  1.00  0.00    -0.049 A 
ATOM     23  C   UNL A   1      33.665  30.470  27.337  1.00  0.00     0.003 A 
ATOM     24  C   UNL A   1      33.963  28.264  26.424  1.00  0.00     0.030 A 
ATOM     25  C   UNL A   1      32.325  30.437  26.946  1.00  0.00     0.002 A 
ATOM     26  C   UNL A   1      31.800  29.309  26.301  1.00  0.00     0.027 A 
ENDBRANCH  18  20
ENDBRANCH  15  18
ENDBRANCH   9  15
ENDBRANCH   5   8
ENDBRANCH   3   4
ENDBRANCH   2   3
ENDBRANCH   1   2
BRANCH   1  27
ATOM     27  C   UNL A   1      38.252  24.084  26.487  1.00  0.00     0.002 C 
BRANCH  27  28
ATOM     28  C   UNL A   1      39.339  23.049  26.771  1.00  0.00     0.021 C 
BRANCH  28  29
ATOM     29  C   UNL A   1      40.530  23.050  25.821  1.00  0.00     0.116 C 
BRANCH  29  30
ATOM     30  N   UNL A   1      41.245  21.779  25.760  1.00  0.00    -0.352 N 
ATOM     31  C   UNL A   1      42.493  21.460  26.274  1.00  0.00     0.251 C 
ATOM     32  H   UNL A   1      40.780  21.050  25.290  1.00  0.00     0.163 HD
ATOM     33  O   UNL A   1      43.005  20.365  26.092  1.00  0.00    -0.269 OA
BRANCH  31  34
ATOM     34  C   UNL A   1      43.159  22.443  27.160  1.00  0.00     0.039 A 
ATOM     35  C   UNL A   1      42.820  22.420  28.518  1.00  0.00     0.014 A 
ATOM     36  C   UNL A   1      43.889  23.501  26.629  1.00  0.00     0.014 A 
ATOM     37  C   UNL A   1      42.991  23.572  29.280  1.00  0.00     0.010 A 
ATOM     38  C   UNL A   1      43.968  24.674  27.352  1.00  0.00     0.010 A 
ATOM     39  C   UNL A   1      43.451  24.727  28.653  1.00  0.00    -0.014 A 
BRANCH  39  40
ATOM     40  C   UNL A   1      43.304  26.061  29.223  1.00  0.00     0.031 A 
ATOM     41  C   UNL A   1      42.078  26.846  28.985  1.00  0.00     0.074 A 
ATOM     42  C   UNL A   1      44.274  26.549  30.026  1.00  0.00     0.049 A 
ATOM     43  N   UNL A   1      41.974  28.114  29.192  1.00  0.00    -0.248 NA
ATOM     44  C   UNL A   1      40.881  26.264  28.390  1.00  0.00     0.031 C 
ATOM     45  C   UNL A   1      44.198  27.701  30.919  1.00  0.00     0.029 A 
ATOM     46  N   UNL A   1      45.629  26.238  29.977  1.00  0.00    -0.354 N 
ATOM     47  C   UNL A   1      40.652  28.460  29.045  1.00  0.00     0.074 A 
ATOM     48  C   UNL A   1      40.050  27.310  28.420  1.00  0.00     0.031 C 
ATOM     49  C   UNL A   1      45.438  28.163  31.139  1.00  0.00     0.029 A 
ATOM     50  C   UNL A   1      46.333  27.419  30.273  1.00  0.00     0.049 A 
ATOM     51  H   UNL A   1      46.022  25.358  29.773  1.00  0.00     0.167 HD
ATOM     52  C   UNL A   1      40.218  29.627  29.603  1.00  0.00     0.034 A 
ATOM     53  C   UNL A   1      47.182  27.977  29.360  1.00  0.00     0.034 A 
ATOM     54  C   UNL A   1      41.356  30.478  29.976  1.00  0.00     0.049 A 
ATOM     55  C   UNL A   1      46.795  29.382  28.956  1.00  0.00     0.074 A 
ATOM     56  C   UNL A   1      41.946  30.818  31.182  1.00  0.00     0.029 A 
ATOM     57  N   UNL A   1      42.230  30.914  28.980  1.00  0.00    -0.354 N 
ATOM     58  N   UNL A   1      45.615  29.907  29.145  1.00  0.00    -0.248 NA
ATOM     59  C   UNL A   1      47.716  30.303  28.302  1.00  0.00     0.031 C 
ATOM     60  C   UNL A   1      43.219  31.389  30.902  1.00  0.00     0.029 A 
ATOM     61  C   UNL A   1      43.386  31.438  29.528  1.00  0.00     0.049 A 
ATOM     62  H   UNL A   1      42.049  30.855  28.014  1.00  0.00     0.167 HD
ATOM     63  C   UNL A   1      45.590  31.185  28.644  1.00  0.00     0.074 A 
ATOM     64  C   UNL A   1      46.944  31.393  28.154  1.00  0.00     0.031 C 
ATOM     65  C   UNL A   1      44.453  31.950  28.668  1.00  0.00     0.034 A 
BRANCH  52  66
ATOM     66  C   UNL A   1      38.786  29.912  30.044  1.00  0.00     0.023 A 
ATOM     67  C   UNL A   1      38.246  31.199  29.807  1.00  0.00     0.031 A 
ATOM     68  C   UNL A   1      37.946  29.055  30.789  1.00  0.00     0.131 A 
ATOM     69  C   UNL A   1      36.995  31.590  30.334  1.00  0.00     0.055 A 
ATOM     70  C   UNL A   1      36.697  29.438  31.298  1.00  0.00     0.041 A 
ATOM     71  F   UNL A   1      38.269  27.798  31.090  1.00  0.00    -0.206 F 
ATOM     72  C   UNL A   1      36.218  30.714  31.084  1.00  0.00     0.022 A 
BRANCH  69  73
ATOM     73  S   UNL A   1      36.405  33.287  30.081  1.00  0.00     0.124 S 
ATOM     74  O   UNL A   1      36.285  33.777  31.450  1.00  0.00    -0.237 OA
ATOM     75  O   UNL A   1      37.471  33.869  29.273  1.00  0.00    -0.237 OA
ATOM     76  O   UNL A   1      35.134  33.103  29.382  1.00  0.00    -0.744 OA
ENDBRANCH  69  73
ENDBRANCH  52  66
BRANCH  53  77
ATOM     77  C   UNL A   1      47.850  26.968  28.489  1.00  0.00     0.023 A 
ATOM     78  C   UNL A   1      47.317  26.795  27.192  1.00  0.00     0.031 A 
ATOM     79  C   UNL A   1      49.160  26.528  28.724  1.00  0.00     0.131 A 
ATOM     80  C   UNL A   1      48.143  26.384  26.138  1.00  0.00     0.055 A 
ATOM     81  C   UNL A   1      49.957  26.036  27.681  1.00  0.00     0.041 A 
ATOM     82  F   UNL A   1      49.732  26.691  29.926  1.00  0.00    -0.206 F 
ATOM     83  C   UNL A   1      49.467  26.010  26.374  1.00  0.00     0.022 A 
BRANCH  80  84
ATOM     84  S   UNL A   1      47.565  26.634  24.429  1.00  0.00     0.124 S 
ATOM     85  O   UNL A   1      48.281  27.843  24.040  1.00  0.00    -0.237 OA
ATOM     86  O   UNL A   1      47.980  25.403  23.759  1.00  0.00    -0.237 OA
ATOM     87  O   UNL A   1      46.119  26.773  24.581  1.00  0.00    -0.744 OA
ENDBRANCH  80  84
ENDBRANCH  53  77
BRANCH  65  88
ATOM     88  C   UNL A   1      44.249  33.279  27.953  1.00  0.00     0.023 A 
ATOM     89  C   UNL A   1      44.164  34.517  28.607  1.00  0.00     0.031 A 
ATOM     90  C   UNL A   1      44.201  33.346  26.536  1.00  0.00     0.131 A 
ATOM     91  C   UNL A   1      43.955  35.716  27.895  1.00  0.00     0.055 A 
ATOM     92  C   UNL A   1      44.072  34.545  25.827  1.00  0.00     0.041 A 
ATOM     93  F   UNL A   1      44.293  32.248  25.771  1.00  0.00    -0.206 F 
ATOM     94  C   UNL A   1      43.930  35.743  26.506  1.00  0.00     0.022 A 
BRANCH  91  95
ATOM     95  S   UNL A   1      43.657  37.234  28.841  1.00  0.00     0.124 S 
ATOM     96  O   UNL A   1      42.259  37.515  28.526  1.00  0.00    -0.237 OA
ATOM     97  O   UNL A   1      43.923  36.807  30.212  1.00  0.00    -0.237 OA
ATOM     98  O   UNL A   1      44.621  38.182  28.288  1.00  0.00    -0.744 OA
ENDBRANCH  91  95
ENDBRANCH  65  88
ENDBRANCH  39  40
ENDBRANCH  31  34
ENDBRANCH  29  30
ENDBRANCH  28  29
ENDBRANCH  27  28
ENDBRANCH   1  27
TORSDOF 19
ENDMDL
