MODEL 1
REMARK VINA RESULT:     -10.9      0.000      0.000
REMARK SMILES Cc1oc2c(c1C(=O)NCCCC(=O)NCCCCCCNC(=O)c1ccc(-c3c4nc(c(-c5cc(S(=O)(=O)[O-])ccc5F)c5ccc([nH]5)c(-c5cc(S(=O)(=O)[O-])ccc5F)c5nc(c(-c6cc(S(=O)(=O)[O-])ccc6F)c6ccc3[nH]6)C=C5)C=C4)cc1)CCCC2
REMARK SMILES IDX 18 1 17 2 16 3 15 4 13 5 14 6 12 8 11 9 10 10 9 11 7 12 8 13
REMARK SMILES IDX 6 15 1 16 2 17 3 18 4 19 5 20 91 21 88 22 90 23 89 24 19 25
REMARK SMILES IDX 20 26 21 27 22 28 23 29 24 31 25 32 26 33 87 34 27 35 86 36
REMARK SMILES IDX 28 37 29 38 30 39 80 40 31 41 85 42 79 43 81 44 32 45 84 46
REMARK SMILES IDX 78 47 77 48 33 50 65 51 45 52 64 53 46 54 49 55 63 56 82 57
REMARK SMILES IDX 47 58 48 59 62 61 83 62 50 63 34 64 35 65 43 66 36 67 42 68
REMARK SMILES IDX 44 69 41 70 37 71 38 72 39 73 40 74 66 75 67 76 75 77 68 78
REMARK SMILES IDX 74 79 76 80 73 81 69 82 70 83 71 84 72 85 51 86 52 87 60 88
REMARK SMILES IDX 53 89 59 90 61 91 58 92 54 93 55 94 56 95 57 96
REMARK H PARENT 15 7 9 14 22 30 81 49 49 60
REMARK Flexibility Score: inf
ROOT
ATOM      1  C   UNL A   1      37.592  23.002  25.815  1.00  0.00     0.002 C 
ENDROOT
BRANCH   1   2
ATOM      2  C   UNL A   1      36.357  22.104  25.729  1.00  0.00     0.021 C 
BRANCH   2   3
ATOM      3  C   UNL A   1      35.071  22.849  25.379  1.00  0.00     0.116 C 
BRANCH   3   4
ATOM      4  N   UNL A   1      34.920  22.971  23.943  1.00  0.00    -0.356 N 
ATOM      5  C   UNL A   1      33.832  23.339  23.215  1.00  0.00     0.220 C 
ATOM      6  O   UNL A   1      33.899  23.285  21.986  1.00  0.00    -0.275 OA
ATOM      7  H   UNL A   1      35.723  22.755  23.417  1.00  0.00     0.163 HD
BRANCH   5   8
ATOM      8  C   UNL A   1      32.581  23.845  23.907  1.00  0.00     0.102 C 
BRANCH   8   9
ATOM      9  C   UNL A   1      31.389  24.092  22.980  1.00  0.00     0.031 C 
BRANCH   9  10
ATOM     10  C   UNL A   1      31.095  25.538  22.582  1.00  0.00     0.116 C 
BRANCH  10  11
ATOM     11  N   UNL A   1      32.220  26.286  22.074  1.00  0.00    -0.352 N 
ATOM     12  C   UNL A   1      32.763  27.485  22.469  1.00  0.00     0.255 C 
ATOM     13  O   UNL A   1      33.825  27.782  21.910  1.00  0.00    -0.269 OA
ATOM     14  H   UNL A   1      32.678  25.864  21.311  1.00  0.00     0.163 HD
BRANCH  12  15
ATOM     15  C   UNL A   1      32.119  28.408  23.406  1.00  0.00     0.084 A 
ATOM     16  C   UNL A   1      29.781  29.301  22.433  1.00  0.00     0.088 C 
ATOM     17  C   UNL A   1      30.942  29.158  23.339  1.00  0.00     0.114 A 
ATOM     18  O   UNL A   1      30.810  29.948  24.445  1.00  0.00    -0.465 OA
ATOM     19  C   UNL A   1      31.825  29.656  25.267  1.00  0.00     0.108 A 
ATOM     20  C   UNL A   1      32.625  28.678  24.735  1.00  0.00     0.007 A 
ATOM     21  C   UNL A   1      31.931  30.338  26.574  1.00  0.00     0.076 C 
ATOM     22  C   UNL A   1      33.791  28.142  25.498  1.00  0.00     0.040 C 
ATOM     23  C   UNL A   1      33.322  30.045  27.167  1.00  0.00     0.008 C 
ATOM     24  C   UNL A   1      33.727  28.567  26.987  1.00  0.00     0.005 C 
ENDBRANCH  12  15
ENDBRANCH  10  11
ENDBRANCH   9  10
ENDBRANCH   8   9
ENDBRANCH   5   8
ENDBRANCH   3   4
ENDBRANCH   2   3
ENDBRANCH   1   2
BRANCH   1  25
ATOM     25  C   UNL A   1      38.916  22.282  26.116  1.00  0.00     0.002 C 
BRANCH  25  26
ATOM     26  C   UNL A   1      39.137  20.933  25.415  1.00  0.00     0.021 C 
BRANCH  26  27
ATOM     27  C   UNL A   1      39.570  19.816  26.353  1.00  0.00     0.116 C 
BRANCH  27  28
ATOM     28  N   UNL A   1      40.838  19.209  25.946  1.00  0.00    -0.352 N 
ATOM     29  C   UNL A   1      42.074  19.803  25.753  1.00  0.00     0.251 C 
ATOM     30  H   UNL A   1      40.809  18.238  25.786  1.00  0.00     0.163 HD
ATOM     31  O   UNL A   1      42.914  19.253  25.059  1.00  0.00    -0.269 OA
BRANCH  29  32
ATOM     32  C   UNL A   1      42.357  21.103  26.397  1.00  0.00     0.039 A 
ATOM     33  C   UNL A   1      42.666  22.242  25.650  1.00  0.00     0.014 A 
ATOM     34  C   UNL A   1      42.314  21.167  27.785  1.00  0.00     0.014 A 
ATOM     35  C   UNL A   1      42.867  23.448  26.323  1.00  0.00     0.010 A 
ATOM     36  C   UNL A   1      42.299  22.378  28.422  1.00  0.00     0.010 A 
ATOM     37  C   UNL A   1      42.666  23.507  27.712  1.00  0.00    -0.014 A 
BRANCH  37  38
ATOM     38  C   UNL A   1      42.705  24.766  28.446  1.00  0.00     0.031 A 
ATOM     39  C   UNL A   1      41.497  25.593  28.239  1.00  0.00     0.074 A 
ATOM     40  C   UNL A   1      43.622  25.059  29.396  1.00  0.00     0.049 A 
ATOM     41  N   UNL A   1      41.392  26.635  27.486  1.00  0.00    -0.248 NA
ATOM     42  C   UNL A   1      40.208  25.092  28.743  1.00  0.00     0.031 C 
ATOM     43  C   UNL A   1      44.695  24.207  29.918  1.00  0.00     0.029 A 
ATOM     44  N   UNL A   1      43.721  26.167  30.181  1.00  0.00    -0.354 N 
ATOM     45  C   UNL A   1      40.098  27.095  27.676  1.00  0.00     0.074 A 
ATOM     46  C   UNL A   1      39.365  25.981  28.209  1.00  0.00     0.031 C 
ATOM     47  C   UNL A   1      45.179  24.732  31.067  1.00  0.00     0.029 A 
ATOM     48  C   UNL A   1      44.570  26.033  31.280  1.00  0.00     0.049 A 
ATOM     49  H   UNL A   1      43.231  26.999  29.989  1.00  0.00     0.167 HD
ATOM     50  C   UNL A   1      39.838  28.433  27.676  1.00  0.00     0.034 A 
ATOM     51  C   UNL A   1      44.752  26.920  32.299  1.00  0.00     0.034 A 
ATOM     52  C   UNL A   1      40.959  29.173  27.119  1.00  0.00     0.049 A 
ATOM     53  C   UNL A   1      44.335  28.246  31.779  1.00  0.00     0.074 A 
ATOM     54  C   UNL A   1      41.664  29.112  25.930  1.00  0.00     0.029 A 
ATOM     55  N   UNL A   1      41.780  29.861  27.989  1.00  0.00    -0.354 N 
ATOM     56  N   UNL A   1      44.966  28.862  30.817  1.00  0.00    -0.248 NA
ATOM     57  C   UNL A   1      42.946  28.644  31.957  1.00  0.00     0.031 C 
ATOM     58  C   UNL A   1      43.031  29.284  26.304  1.00  0.00     0.029 A 
ATOM     59  C   UNL A   1      43.082  29.549  27.674  1.00  0.00     0.049 A 
ATOM     60  H   UNL A   1      41.486  30.468  28.706  1.00  0.00     0.167 HD
ATOM     61  C   UNL A   1      43.965  29.354  29.992  1.00  0.00     0.074 A 
ATOM     62  C   UNL A   1      42.747  29.283  30.800  1.00  0.00     0.031 C 
ATOM     63  C   UNL A   1      44.161  29.489  28.645  1.00  0.00     0.034 A 
BRANCH  50  64
ATOM     64  C   UNL A   1      38.791  29.101  28.543  1.00  0.00     0.023 A 
ATOM     65  C   UNL A   1      39.056  29.145  29.924  1.00  0.00     0.031 A 
ATOM     66  C   UNL A   1      37.465  29.419  28.166  1.00  0.00     0.131 A 
ATOM     67  C   UNL A   1      38.022  29.349  30.853  1.00  0.00     0.055 A 
ATOM     68  C   UNL A   1      36.456  29.695  29.093  1.00  0.00     0.041 A 
ATOM     69  F   UNL A   1      37.034  29.393  26.900  1.00  0.00    -0.206 F 
ATOM     70  C   UNL A   1      36.721  29.624  30.447  1.00  0.00     0.022 A 
BRANCH  67  71
ATOM     71  S   UNL A   1      38.381  29.048  32.599  1.00  0.00     0.124 S 
ATOM     72  O   UNL A   1      38.718  30.391  33.059  1.00  0.00    -0.237 OA
ATOM     73  O   UNL A   1      37.114  28.502  33.074  1.00  0.00    -0.237 OA
ATOM     74  O   UNL A   1      39.493  28.102  32.557  1.00  0.00    -0.744 OA
ENDBRANCH  67  71
ENDBRANCH  50  64
BRANCH  51  75
ATOM     75  C   UNL A   1      44.961  26.636  33.749  1.00  0.00     0.023 A 
ATOM     76  C   UNL A   1      43.932  26.738  34.716  1.00  0.00     0.031 A 
ATOM     77  C   UNL A   1      46.148  25.993  34.164  1.00  0.00     0.131 A 
ATOM     78  C   UNL A   1      44.112  26.201  36.016  1.00  0.00     0.055 A 
ATOM     79  C   UNL A   1      46.318  25.458  35.443  1.00  0.00     0.041 A 
ATOM     80  F   UNL A   1      47.160  25.785  33.308  1.00  0.00    -0.206 F 
ATOM     81  C   UNL A   1      45.296  25.550  36.373  1.00  0.00     0.022 A 
BRANCH  78  82
ATOM     82  S   UNL A   1      42.767  26.253  37.250  1.00  0.00     0.124 S 
ATOM     83  O   UNL A   1      42.082  24.987  37.020  1.00  0.00    -0.237 OA
ATOM     84  O   UNL A   1      43.495  26.381  38.507  1.00  0.00    -0.237 OA
ATOM     85  O   UNL A   1      41.999  27.441  36.869  1.00  0.00    -0.744 OA
ENDBRANCH  78  82
ENDBRANCH  51  75
BRANCH  63  86
ATOM     86  C   UNL A   1      45.580  29.381  28.110  1.00  0.00     0.023 A 
ATOM     87  C   UNL A   1      46.240  28.173  27.778  1.00  0.00     0.031 A 
ATOM     88  C   UNL A   1      46.263  30.582  27.845  1.00  0.00     0.131 A 
ATOM     89  C   UNL A   1      47.540  28.201  27.229  1.00  0.00     0.055 A 
ATOM     90  C   UNL A   1      47.538  30.607  27.280  1.00  0.00     0.041 A 
ATOM     91  F   UNL A   1      45.688  31.766  28.111  1.00  0.00    -0.206 F 
ATOM     92  C   UNL A   1      48.186  29.415  26.979  1.00  0.00     0.022 A 
BRANCH  89  93
ATOM     93  S   UNL A   1      48.438  26.655  26.866  1.00  0.00     0.124 S 
ATOM     94  O   UNL A   1      47.685  26.070  25.763  1.00  0.00    -0.237 OA
ATOM     95  O   UNL A   1      49.778  27.136  26.540  1.00  0.00    -0.237 OA
ATOM     96  O   UNL A   1      48.352  25.910  28.124  1.00  0.00    -0.744 OA
ENDBRANCH  89  93
ENDBRANCH  63  86
ENDBRANCH  37  38
ENDBRANCH  29  32
ENDBRANCH  27  28
ENDBRANCH  26  27
ENDBRANCH  25  26
ENDBRANCH   1  25
TORSDOF 20
ENDMDL
MODEL 2
REMARK VINA RESULT:     -10.8      2.514      7.270
REMARK SMILES Cc1oc2c(c1C(=O)NCCCC(=O)NCCCCCCNC(=O)c1ccc(-c3c4nc(c(-c5cc(S(=O)(=O)[O-])ccc5F)c5ccc([nH]5)c(-c5cc(S(=O)(=O)[O-])ccc5F)c5nc(c(-c6cc(S(=O)(=O)[O-])ccc6F)c6ccc3[nH]6)C=C5)C=C4)cc1)CCCC2
REMARK SMILES IDX 18 1 17 2 16 3 15 4 13 5 14 6 12 8 11 9 10 10 9 11 7 12 8 13
REMARK SMILES IDX 6 15 1 16 2 17 3 18 4 19 5 20 91 21 88 22 90 23 89 24 19 25
REMARK SMILES IDX 20 26 21 27 22 28 23 29 24 31 25 32 26 33 87 34 27 35 86 36
REMARK SMILES IDX 28 37 29 38 30 39 80 40 31 41 85 42 79 43 81 44 32 45 84 46
REMARK SMILES IDX 78 47 77 48 33 50 65 51 45 52 64 53 46 54 49 55 63 56 82 57
REMARK SMILES IDX 47 58 48 59 62 61 83 62 50 63 34 64 35 65 43 66 36 67 42 68
REMARK SMILES IDX 44 69 41 70 37 71 38 72 39 73 40 74 66 75 67 76 75 77 68 78
REMARK SMILES IDX 74 79 76 80 73 81 69 82 70 83 71 84 72 85 51 86 52 87 60 88
REMARK SMILES IDX 53 89 59 90 61 91 58 92 54 93 55 94 56 95 57 96
REMARK H PARENT 15 7 9 14 22 30 81 49 49 60
REMARK Flexibility Score: inf
ROOT
ATOM      1  C   UNL A   1      40.967  20.960  25.880  1.00  0.00     0.002 C 
ENDROOT
BRANCH   1   2
ATOM      2  C   UNL A   1      39.733  21.656  26.456  1.00  0.00     0.021 C 
BRANCH   2   3
ATOM      3  C   UNL A   1      38.521  21.640  25.527  1.00  0.00     0.116 C 
BRANCH   3   4
ATOM      4  N   UNL A   1      37.820  22.907  25.571  1.00  0.00    -0.356 N 
ATOM      5  C   UNL A   1      36.490  23.156  25.706  1.00  0.00     0.220 C 
ATOM      6  O   UNL A   1      36.098  24.322  25.626  1.00  0.00    -0.275 OA
ATOM      7  H   UNL A   1      38.391  23.705  25.490  1.00  0.00     0.163 HD
BRANCH   5   8
ATOM      8  C   UNL A   1      35.522  22.025  25.994  1.00  0.00     0.102 C 
BRANCH   8   9
ATOM      9  C   UNL A   1      34.686  22.202  27.263  1.00  0.00     0.031 C 
BRANCH   9  10
ATOM     10  C   UNL A   1      33.375  21.421  27.357  1.00  0.00     0.116 C 
BRANCH  10  11
ATOM     11  N   UNL A   1      32.194  22.213  27.603  1.00  0.00    -0.352 N 
ATOM     12  C   UNL A   1      31.548  23.142  26.823  1.00  0.00     0.255 C 
ATOM     13  O   UNL A   1      30.469  23.539  27.276  1.00  0.00    -0.269 OA
ATOM     14  H   UNL A   1      31.778  22.061  28.483  1.00  0.00     0.163 HD
BRANCH  12  15
ATOM     15  C   UNL A   1      32.105  23.711  25.594  1.00  0.00     0.084 A 
ATOM     16  C   UNL A   1      32.226  21.870  23.643  1.00  0.00     0.088 C 
ATOM     17  C   UNL A   1      32.409  23.158  24.347  1.00  0.00     0.114 A 
ATOM     18  O   UNL A   1      33.002  24.087  23.540  1.00  0.00    -0.465 OA
ATOM     19  C   UNL A   1      33.003  25.249  24.203  1.00  0.00     0.108 A 
ATOM     20  C   UNL A   1      32.411  25.116  25.433  1.00  0.00     0.007 A 
ATOM     21  C   UNL A   1      33.559  26.460  23.563  1.00  0.00     0.076 C 
ATOM     22  C   UNL A   1      32.241  26.295  26.333  1.00  0.00     0.040 C 
ATOM     23  C   UNL A   1      33.709  27.556  24.634  1.00  0.00     0.008 C 
ATOM     24  C   UNL A   1      32.482  27.621  25.568  1.00  0.00     0.005 C 
ENDBRANCH  12  15
ENDBRANCH  10  11
ENDBRANCH   9  10
ENDBRANCH   8   9
ENDBRANCH   5   8
ENDBRANCH   3   4
ENDBRANCH   2   3
ENDBRANCH   1   2
BRANCH   1  25
ATOM     25  C   UNL A   1      41.615  19.901  26.786  1.00  0.00     0.002 C 
BRANCH  25  26
ATOM     26  C   UNL A   1      42.230  18.681  26.083  1.00  0.00     0.021 C 
BRANCH  26  27
ATOM     27  C   UNL A   1      43.746  18.618  26.174  1.00  0.00     0.116 C 
BRANCH  27  28
ATOM     28  N   UNL A   1      44.385  18.699  24.859  1.00  0.00    -0.352 N 
ATOM     29  C   UNL A   1      44.590  19.803  24.048  1.00  0.00     0.251 C 
ATOM     30  H   UNL A   1      44.718  17.846  24.499  1.00  0.00     0.163 HD
ATOM     31  O   UNL A   1      44.778  19.654  22.852  1.00  0.00    -0.269 OA
BRANCH  29  32
ATOM     32  C   UNL A   1      44.577  21.152  24.652  1.00  0.00     0.039 A 
ATOM     33  C   UNL A   1      43.693  22.143  24.218  1.00  0.00     0.014 A 
ATOM     34  C   UNL A   1      45.482  21.420  25.672  1.00  0.00     0.014 A 
ATOM     35  C   UNL A   1      43.698  23.376  24.872  1.00  0.00     0.010 A 
ATOM     36  C   UNL A   1      45.343  22.541  26.444  1.00  0.00     0.010 A 
ATOM     37  C   UNL A   1      44.520  23.559  25.997  1.00  0.00    -0.014 A 
BRANCH  37  38
ATOM     38  C   UNL A   1      44.455  24.764  26.813  1.00  0.00     0.031 A 
ATOM     39  C   UNL A   1      45.560  25.709  26.540  1.00  0.00     0.074 A 
ATOM     40  C   UNL A   1      43.389  25.108  27.571  1.00  0.00     0.049 A 
ATOM     41  N   UNL A   1      46.611  25.902  27.263  1.00  0.00    -0.248 NA
ATOM     42  C   UNL A   1      45.624  26.351  25.216  1.00  0.00     0.031 C 
ATOM     43  C   UNL A   1      42.102  24.415  27.697  1.00  0.00     0.029 A 
ATOM     44  N   UNL A   1      43.193  26.227  28.321  1.00  0.00    -0.354 N 
ATOM     45  C   UNL A   1      47.307  26.921  26.632  1.00  0.00     0.074 A 
ATOM     46  C   UNL A   1      46.818  26.947  25.281  1.00  0.00     0.031 C 
ATOM     47  C   UNL A   1      41.198  25.233  28.283  1.00  0.00     0.029 A 
ATOM     48  C   UNL A   1      41.874  26.441  28.721  1.00  0.00     0.049 A 
ATOM     49  H   UNL A   1      43.926  26.837  28.564  1.00  0.00     0.167 HD
ATOM     50  C   UNL A   1      47.983  27.848  27.368  1.00  0.00     0.034 A 
ATOM     51  C   UNL A   1      41.368  27.538  29.354  1.00  0.00     0.034 A 
ATOM     52  C   UNL A   1      48.143  27.396  28.740  1.00  0.00     0.049 A 
ATOM     53  C   UNL A   1      42.515  28.200  30.024  1.00  0.00     0.074 A 
ATOM     54  C   UNL A   1      48.666  26.259  29.331  1.00  0.00     0.029 A 
ATOM     55  N   UNL A   1      47.347  27.971  29.710  1.00  0.00    -0.354 N 
ATOM     56  N   UNL A   1      43.179  27.650  31.003  1.00  0.00    -0.248 NA
ATOM     57  C   UNL A   1      43.243  29.221  29.284  1.00  0.00     0.031 C 
ATOM     58  C   UNL A   1      47.762  25.945  30.389  1.00  0.00     0.029 A 
ATOM     59  C   UNL A   1      46.802  26.956  30.462  1.00  0.00     0.049 A 
ATOM     60  H   UNL A   1      47.197  28.934  29.841  1.00  0.00     0.167 HD
ATOM     61  C   UNL A   1      44.512  27.898  30.713  1.00  0.00     0.074 A 
ATOM     62  C   UNL A   1      44.484  28.958  29.705  1.00  0.00     0.031 C 
ATOM     63  C   UNL A   1      45.493  27.023  31.091  1.00  0.00     0.034 A 
BRANCH  50  64
ATOM     64  C   UNL A   1      48.124  29.307  26.984  1.00  0.00     0.023 A 
ATOM     65  C   UNL A   1      49.412  29.862  27.096  1.00  0.00     0.031 A 
ATOM     66  C   UNL A   1      47.072  30.237  26.811  1.00  0.00     0.131 A 
ATOM     67  C   UNL A   1      49.596  31.252  27.173  1.00  0.00     0.055 A 
ATOM     68  C   UNL A   1      47.271  31.620  26.814  1.00  0.00     0.041 A 
ATOM     69  F   UNL A   1      45.785  29.883  26.721  1.00  0.00    -0.206 F 
ATOM     70  C   UNL A   1      48.533  32.138  27.035  1.00  0.00     0.022 A 
BRANCH  67  71
ATOM     71  S   UNL A   1      51.227  31.864  27.661  1.00  0.00     0.124 S 
ATOM     72  O   UNL A   1      50.893  33.186  28.180  1.00  0.00    -0.237 OA
ATOM     73  O   UNL A   1      51.636  30.868  28.645  1.00  0.00    -0.237 OA
ATOM     74  O   UNL A   1      51.979  31.853  26.409  1.00  0.00    -0.744 OA
ENDBRANCH  67  71
ENDBRANCH  50  64
BRANCH  51  75
ATOM     75  C   UNL A   1      40.044  28.196  29.153  1.00  0.00     0.023 A 
ATOM     76  C   UNL A   1      39.220  28.624  30.221  1.00  0.00     0.031 A 
ATOM     77  C   UNL A   1      39.688  28.654  27.865  1.00  0.00     0.131 A 
ATOM     78  C   UNL A   1      38.113  29.477  29.977  1.00  0.00     0.055 A 
ATOM     79  C   UNL A   1      38.602  29.502  27.631  1.00  0.00     0.041 A 
ATOM     80  F   UNL A   1      40.439  28.362  26.792  1.00  0.00    -0.206 F 
ATOM     81  C   UNL A   1      37.815  29.926  28.688  1.00  0.00     0.022 A 
BRANCH  78  82
ATOM     82  S   UNL A   1      37.087  30.103  31.352  1.00  0.00     0.124 S 
ATOM     83  O   UNL A   1      35.919  30.629  30.656  1.00  0.00    -0.237 OA
ATOM     84  O   UNL A   1      36.878  28.908  32.162  1.00  0.00    -0.237 OA
ATOM     85  O   UNL A   1      37.935  31.120  31.976  1.00  0.00    -0.744 OA
ENDBRANCH  78  82
ENDBRANCH  51  75
BRANCH  63  86
ATOM     86  C   UNL A   1      45.140  25.933  32.090  1.00  0.00     0.023 A 
ATOM     87  C   UNL A   1      45.076  26.098  33.495  1.00  0.00     0.031 A 
ATOM     88  C   UNL A   1      44.765  24.679  31.572  1.00  0.00     0.131 A 
ATOM     89  C   UNL A   1      44.675  25.025  34.319  1.00  0.00     0.055 A 
ATOM     90  C   UNL A   1      44.346  23.629  32.387  1.00  0.00     0.041 A 
ATOM     91  F   UNL A   1      44.777  24.459  30.246  1.00  0.00    -0.206 F 
ATOM     92  C   UNL A   1      44.309  23.795  33.766  1.00  0.00     0.022 A 
BRANCH  89  93
ATOM     93  S   UNL A   1      44.660  25.194  36.135  1.00  0.00     0.124 S 
ATOM     94  O   UNL A   1      43.365  24.647  36.521  1.00  0.00    -0.237 OA
ATOM     95  O   UNL A   1      45.828  24.413  36.536  1.00  0.00    -0.237 OA
ATOM     96  O   UNL A   1      44.797  26.637  36.342  1.00  0.00    -0.744 OA
ENDBRANCH  89  93
ENDBRANCH  63  86
ENDBRANCH  37  38
ENDBRANCH  29  32
ENDBRANCH  27  28
ENDBRANCH  26  27
ENDBRANCH  25  26
ENDBRANCH   1  25
TORSDOF 20
ENDMDL
MODEL 3
REMARK VINA RESULT:     -10.8      3.997      9.585
REMARK SMILES Cc1oc2c(c1C(=O)NCCCC(=O)NCCCCCCNC(=O)c1ccc(-c3c4nc(c(-c5cc(S(=O)(=O)[O-])ccc5F)c5ccc([nH]5)c(-c5cc(S(=O)(=O)[O-])ccc5F)c5nc(c(-c6cc(S(=O)(=O)[O-])ccc6F)c6ccc3[nH]6)C=C5)C=C4)cc1)CCCC2
REMARK SMILES IDX 18 1 17 2 16 3 15 4 13 5 14 6 12 8 11 9 10 10 9 11 7 12 8 13
REMARK SMILES IDX 6 15 1 16 2 17 3 18 4 19 5 20 91 21 88 22 90 23 89 24 19 25
REMARK SMILES IDX 20 26 21 27 22 28 23 29 24 31 25 32 26 33 87 34 27 35 86 36
REMARK SMILES IDX 28 37 29 38 30 39 80 40 31 41 85 42 79 43 81 44 32 45 84 46
REMARK SMILES IDX 78 47 77 48 33 50 65 51 45 52 64 53 46 54 49 55 63 56 82 57
REMARK SMILES IDX 47 58 48 59 62 61 83 62 50 63 34 64 35 65 43 66 36 67 42 68
REMARK SMILES IDX 44 69 41 70 37 71 38 72 39 73 40 74 66 75 67 76 75 77 68 78
REMARK SMILES IDX 74 79 76 80 73 81 69 82 70 83 71 84 72 85 51 86 52 87 60 88
REMARK SMILES IDX 53 89 59 90 61 91 58 92 54 93 55 94 56 95 57 96
REMARK H PARENT 15 7 9 14 22 30 81 49 49 60
REMARK Flexibility Score: inf
ROOT
ATOM      1  C   UNL A   1      31.460  29.489  25.346  1.00  0.00     0.002 C 
ENDROOT
BRANCH   1   2
ATOM      2  C   UNL A   1      32.632  29.309  24.378  1.00  0.00     0.021 C 
BRANCH   2   3
ATOM      3  C   UNL A   1      33.245  27.910  24.399  1.00  0.00     0.116 C 
BRANCH   3   4
ATOM      4  N   UNL A   1      33.166  27.294  23.090  1.00  0.00    -0.356 N 
ATOM      5  C   UNL A   1      32.196  26.499  22.564  1.00  0.00     0.220 C 
ATOM      6  O   UNL A   1      32.379  26.004  21.451  1.00  0.00    -0.275 OA
ATOM      7  H   UNL A   1      33.928  27.476  22.494  1.00  0.00     0.163 HD
BRANCH   5   8
ATOM      8  C   UNL A   1      30.901  26.269  23.319  1.00  0.00     0.102 C 
BRANCH   8   9
ATOM      9  C   UNL A   1      30.768  24.886  23.960  1.00  0.00     0.031 C 
BRANCH   9  10
ATOM     10  C   UNL A   1      32.035  24.254  24.537  1.00  0.00     0.116 C 
BRANCH  10  11
ATOM     11  N   UNL A   1      31.925  23.761  25.890  1.00  0.00    -0.352 N 
ATOM     12  C   UNL A   1      32.684  22.853  26.588  1.00  0.00     0.255 C 
ATOM     13  O   UNL A   1      32.406  22.758  27.788  1.00  0.00    -0.269 OA
ATOM     14  H   UNL A   1      31.174  24.142  26.402  1.00  0.00     0.163 HD
BRANCH  12  15
ATOM     15  C   UNL A   1      33.689  21.982  25.975  1.00  0.00     0.084 A 
ATOM     16  C   UNL A   1      32.589  19.685  25.122  1.00  0.00     0.088 C 
ATOM     17  C   UNL A   1      33.625  20.693  25.438  1.00  0.00     0.114 A 
ATOM     18  O   UNL A   1      34.867  20.266  25.060  1.00  0.00    -0.465 OA
ATOM     19  C   UNL A   1      35.714  21.283  25.254  1.00  0.00     0.108 A 
ATOM     20  C   UNL A   1      35.059  22.385  25.742  1.00  0.00     0.007 A 
ATOM     21  C   UNL A   1      37.141  21.128  24.901  1.00  0.00     0.076 C 
ATOM     22  C   UNL A   1      35.789  23.666  25.982  1.00  0.00     0.040 C 
ATOM     23  C   UNL A   1      37.924  22.313  25.496  1.00  0.00     0.008 C 
ATOM     24  C   UNL A   1      37.181  23.651  25.302  1.00  0.00     0.005 C 
ENDBRANCH  12  15
ENDBRANCH  10  11
ENDBRANCH   9  10
ENDBRANCH   8   9
ENDBRANCH   5   8
ENDBRANCH   3   4
ENDBRANCH   2   3
ENDBRANCH   1   2
BRANCH   1  25
ATOM     25  C   UNL A   1      31.810  30.126  26.700  1.00  0.00     0.002 C 
BRANCH  25  26
ATOM     26  C   UNL A   1      31.514  31.626  26.848  1.00  0.00     0.021 C 
BRANCH  26  27
ATOM     27  C   UNL A   1      32.760  32.494  26.931  1.00  0.00     0.116 C 
BRANCH  27  28
ATOM     28  N   UNL A   1      32.516  33.750  27.641  1.00  0.00    -0.352 N 
ATOM     29  C   UNL A   1      33.117  34.242  28.789  1.00  0.00     0.251 C 
ATOM     30  H   UNL A   1      31.825  34.330  27.247  1.00  0.00     0.163 HD
ATOM     31  O   UNL A   1      32.551  35.092  29.457  1.00  0.00    -0.269 OA
BRANCH  29  32
ATOM     32  C   UNL A   1      34.442  33.724  29.186  1.00  0.00     0.039 A 
ATOM     33  C   UNL A   1      34.591  32.812  30.234  1.00  0.00     0.014 A 
ATOM     34  C   UNL A   1      35.556  34.175  28.487  1.00  0.00     0.014 A 
ATOM     35  C   UNL A   1      35.867  32.323  30.517  1.00  0.00     0.010 A 
ATOM     36  C   UNL A   1      36.761  33.542  28.622  1.00  0.00     0.010 A 
ATOM     37  C   UNL A   1      36.946  32.685  29.693  1.00  0.00    -0.014 A 
BRANCH  37  38
ATOM     38  C   UNL A   1      38.267  32.086  29.840  1.00  0.00     0.031 A 
ATOM     39  C   UNL A   1      38.325  30.689  29.359  1.00  0.00     0.074 A 
ATOM     40  C   UNL A   1      39.381  32.782  30.159  1.00  0.00     0.049 A 
ATOM     41  N   UNL A   1      38.331  29.621  30.082  1.00  0.00    -0.248 NA
ATOM     42  C   UNL A   1      38.133  30.433  27.921  1.00  0.00     0.031 C 
ATOM     43  C   UNL A   1      39.523  34.227  30.366  1.00  0.00     0.029 A 
ATOM     44  N   UNL A   1      40.666  32.344  30.266  1.00  0.00    -0.354 N 
ATOM     45  C   UNL A   1      38.461  28.572  29.184  1.00  0.00     0.074 A 
ATOM     46  C   UNL A   1      38.055  29.099  27.910  1.00  0.00     0.031 C 
ATOM     47  C   UNL A   1      40.833  34.566  30.345  1.00  0.00     0.029 A 
ATOM     48  C   UNL A   1      41.630  33.353  30.288  1.00  0.00     0.049 A 
ATOM     49  H   UNL A   1      40.898  31.389  30.323  1.00  0.00     0.167 HD
ATOM     50  C   UNL A   1      39.192  27.471  29.515  1.00  0.00     0.034 A 
ATOM     51  C   UNL A   1      42.984  33.205  30.249  1.00  0.00     0.034 A 
ATOM     52  C   UNL A   1      39.446  27.436  30.947  1.00  0.00     0.049 A 
ATOM     53  C   UNL A   1      43.269  31.829  30.726  1.00  0.00     0.074 A 
ATOM     54  C   UNL A   1      38.644  27.484  32.073  1.00  0.00     0.029 A 
ATOM     55  N   UNL A   1      40.709  27.767  31.391  1.00  0.00    -0.354 N 
ATOM     56  N   UNL A   1      43.026  31.437  31.947  1.00  0.00    -0.248 NA
ATOM     57  C   UNL A   1      43.333  30.762  29.738  1.00  0.00     0.031 C 
ATOM     58  C   UNL A   1      39.340  28.335  32.985  1.00  0.00     0.029 A 
ATOM     59  C   UNL A   1      40.571  28.671  32.418  1.00  0.00     0.049 A 
ATOM     60  H   UNL A   1      41.558  27.417  31.036  1.00  0.00     0.167 HD
ATOM     61  C   UNL A   1      42.452  30.182  31.810  1.00  0.00     0.074 A 
ATOM     62  C   UNL A   1      42.766  29.775  30.439  1.00  0.00     0.031 C 
ATOM     63  C   UNL A   1      41.530  29.723  32.710  1.00  0.00     0.034 A 
BRANCH  50  64
ATOM     64  C   UNL A   1      40.025  26.671  28.536  1.00  0.00     0.023 A 
ATOM     65  C   UNL A   1      41.130  27.330  27.968  1.00  0.00     0.031 A 
ATOM     66  C   UNL A   1      39.656  25.454  27.916  1.00  0.00     0.131 A 
ATOM     67  C   UNL A   1      41.717  26.866  26.780  1.00  0.00     0.055 A 
ATOM     68  C   UNL A   1      40.292  24.958  26.774  1.00  0.00     0.041 A 
ATOM     69  F   UNL A   1      38.611  24.716  28.306  1.00  0.00    -0.206 F 
ATOM     70  C   UNL A   1      41.304  25.684  26.175  1.00  0.00     0.022 A 
BRANCH  67  71
ATOM     71  S   UNL A   1      42.893  27.951  25.936  1.00  0.00     0.124 S 
ATOM     72  O   UNL A   1      42.207  28.189  24.671  1.00  0.00    -0.237 OA
ATOM     73  O   UNL A   1      42.964  29.084  26.854  1.00  0.00    -0.237 OA
ATOM     74  O   UNL A   1      44.102  27.138  25.851  1.00  0.00    -0.744 OA
ENDBRANCH  67  71
ENDBRANCH  50  64
BRANCH  51  75
ATOM     75  C   UNL A   1      43.989  34.054  29.544  1.00  0.00     0.023 A 
ATOM     76  C   UNL A   1      44.508  33.741  28.265  1.00  0.00     0.031 A 
ATOM     77  C   UNL A   1      44.260  35.353  30.029  1.00  0.00     0.131 A 
ATOM     78  C   UNL A   1      45.243  34.707  27.531  1.00  0.00     0.055 A 
ATOM     79  C   UNL A   1      44.978  36.304  29.299  1.00  0.00     0.041 A 
ATOM     80  F   UNL A   1      43.760  35.774  31.200  1.00  0.00    -0.206 F 
ATOM     81  C   UNL A   1      45.464  35.989  28.042  1.00  0.00     0.022 A 
BRANCH  78  82
ATOM     82  S   UNL A   1      45.852  34.348  25.847  1.00  0.00     0.124 S 
ATOM     83  O   UNL A   1      46.813  33.278  26.084  1.00  0.00    -0.237 OA
ATOM     84  O   UNL A   1      44.631  33.981  25.140  1.00  0.00    -0.237 OA
ATOM     85  O   UNL A   1      46.444  35.617  25.420  1.00  0.00    -0.744 OA
ENDBRANCH  78  82
ENDBRANCH  51  75
BRANCH  63  86
ATOM     86  C   UNL A   1      41.367  30.476  34.020  1.00  0.00     0.023 A 
ATOM     87  C   UNL A   1      40.373  31.448  34.288  1.00  0.00     0.031 A 
ATOM     88  C   UNL A   1      42.220  30.119  35.081  1.00  0.00     0.131 A 
ATOM     89  C   UNL A   1      40.282  32.038  35.567  1.00  0.00     0.055 A 
ATOM     90  C   UNL A   1      42.112  30.686  36.350  1.00  0.00     0.041 A 
ATOM     91  F   UNL A   1      43.170  29.186  34.906  1.00  0.00    -0.206 F 
ATOM     92  C   UNL A   1      41.147  31.656  36.595  1.00  0.00     0.022 A 
BRANCH  89  93
ATOM     93  S   UNL A   1      39.059  33.347  35.910  1.00  0.00     0.124 S 
ATOM     94  O   UNL A   1      38.126  32.713  36.834  1.00  0.00    -0.237 OA
ATOM     95  O   UNL A   1      39.885  34.414  36.469  1.00  0.00    -0.237 OA
ATOM     96  O   UNL A   1      38.499  33.643  34.589  1.00  0.00    -0.744 OA
ENDBRANCH  89  93
ENDBRANCH  63  86
ENDBRANCH  37  38
ENDBRANCH  29  32
ENDBRANCH  27  28
ENDBRANCH  26  27
ENDBRANCH  25  26
ENDBRANCH   1  25
TORSDOF 20
ENDMDL
