MODEL 1
REMARK VINA RESULT:     -11.1      0.000      0.000
REMARK SMILES O=C(CCSc1nc(-c2cccs2)cc(C(F)(F)F)n1)NCCCCCCNC(=O)c1ccc(-c2c3nc(c(-c4cc(S(=O)(=O)[O-])ccc4F)c4ccc([nH]4)c(-c4cc(S(=O)(=O)[O-])ccc4F)c4nc(c(-c5cc(S(=O)(=O)[O-])ccc5F)c5ccc2[nH]5)C=C4)C=C3)cc1
REMARK SMILES IDX 24 1 23 2 22 3 21 4 1 5 2 6 3 8 4 9 5 10 6 11 7 12 20 13
REMARK SMILES IDX 8 14 15 15 14 16 9 17 10 18 13 19 11 20 12 21 16 22 17 23
REMARK SMILES IDX 18 24 19 25 25 26 26 27 27 28 28 29 29 30 30 32 31 33 32 34
REMARK SMILES IDX 93 35 33 36 92 37 34 38 35 39 36 40 86 41 37 42 91 43 85 44
REMARK SMILES IDX 87 45 38 46 90 47 84 48 83 49 39 51 71 52 51 53 70 54 52 55
REMARK SMILES IDX 55 56 69 57 88 58 53 59 54 60 68 62 89 63 56 64 40 65 41 66
REMARK SMILES IDX 49 67 42 68 48 69 50 70 47 71 43 72 44 73 45 74 46 75 72 76
REMARK SMILES IDX 73 77 81 78 74 79 80 80 82 81 79 82 75 83 76 84 77 85 78 86
REMARK SMILES IDX 57 87 58 88 66 89 59 90 65 91 67 92 64 93 60 94 61 95 62 96
REMARK SMILES IDX 63 97
REMARK H PARENT 21 7 28 31 87 50 55 61
REMARK Flexibility Score: inf
ROOT
ATOM      1  C   UNL A   1      32.042  29.582  26.996  1.00  0.00     0.002 C 
ENDROOT
BRANCH   1   2
ATOM      2  C   UNL A   1      32.144  28.123  26.521  1.00  0.00     0.021 C 
BRANCH   2   3
ATOM      3  C   UNL A   1      32.404  27.723  25.058  1.00  0.00     0.116 C 
BRANCH   3   4
ATOM      4  N   UNL A   1      31.426  26.896  24.392  1.00  0.00    -0.356 N 
ATOM      5  O   UNL A   1      32.993  25.463  23.467  1.00  0.00    -0.275 OA
ATOM      6  C   UNL A   1      31.825  25.753  23.719  1.00  0.00     0.220 C 
ATOM      7  H   UNL A   1      30.473  27.145  24.416  1.00  0.00     0.163 HD
BRANCH   6   8
ATOM      8  C   UNL A   1      30.690  24.825  23.353  1.00  0.00     0.111 C 
BRANCH   8   9
ATOM      9  C   UNL A   1      31.040  23.364  23.614  1.00  0.00     0.088 C 
BRANCH   9  10
ATOM     10  S   UNL A   1      31.217  22.966  25.378  1.00  0.00    -0.086 SA
BRANCH  10  11
ATOM     11  C   UNL A   1      32.685  21.949  25.359  1.00  0.00     0.188 A 
ATOM     12  N   UNL A   1      32.585  20.623  25.189  1.00  0.00    -0.222 NA
ATOM     13  N   UNL A   1      33.830  22.628  25.284  1.00  0.00    -0.218 NA
ATOM     14  C   UNL A   1      33.720  19.944  24.889  1.00  0.00     0.085 A 
ATOM     15  C   UNL A   1      34.957  21.933  24.986  1.00  0.00     0.149 A 
ATOM     16  C   UNL A   1      34.942  20.566  24.770  1.00  0.00     0.063 A 
BRANCH  14  17
ATOM     17  C   UNL A   1      33.545  18.507  24.614  1.00  0.00     0.053 A 
ATOM     18  C   UNL A   1      34.037  17.741  23.572  1.00  0.00     0.022 A 
ATOM     19  S   UNL A   1      32.654  17.512  25.700  1.00  0.00    -0.142 S 
ATOM     20  C   UNL A   1      33.818  16.340  23.761  1.00  0.00     0.012 A 
ATOM     21  C   UNL A   1      33.150  16.074  24.934  1.00  0.00     0.065 A 
ENDBRANCH  14  17
BRANCH  15  22
ATOM     22  C   UNL A   1      36.251  22.716  24.887  1.00  0.00     0.433 C 
ATOM     23  F   UNL A   1      36.825  22.950  26.100  1.00  0.00    -0.165 F 
ATOM     24  F   UNL A   1      37.191  22.068  24.143  1.00  0.00    -0.165 F 
ATOM     25  F   UNL A   1      36.097  23.940  24.308  1.00  0.00    -0.165 F 
ENDBRANCH  15  22
ENDBRANCH  10  11
ENDBRANCH   9  10
ENDBRANCH   8   9
ENDBRANCH   6   8
ENDBRANCH   3   4
ENDBRANCH   2   3
ENDBRANCH   1   2
BRANCH   1  26
ATOM     26  C   UNL A   1      31.314  30.705  26.240  1.00  0.00     0.002 C 
BRANCH  26  27
ATOM     27  C   UNL A   1      31.392  32.188  26.620  1.00  0.00     0.021 C 
BRANCH  27  28
ATOM     28  C   UNL A   1      32.735  32.819  26.984  1.00  0.00     0.116 C 
BRANCH  28  29
ATOM     29  N   UNL A   1      32.587  34.145  27.557  1.00  0.00    -0.352 N 
ATOM     30  C   UNL A   1      33.130  34.714  28.688  1.00  0.00     0.251 C 
ATOM     31  H   UNL A   1      31.994  34.743  27.046  1.00  0.00     0.163 HD
ATOM     32  O   UNL A   1      32.670  35.794  29.063  1.00  0.00    -0.269 OA
BRANCH  30  33
ATOM     33  C   UNL A   1      34.229  34.084  29.479  1.00  0.00     0.039 A 
ATOM     34  C   UNL A   1      35.554  34.373  29.121  1.00  0.00     0.014 A 
ATOM     35  C   UNL A   1      34.004  33.143  30.488  1.00  0.00     0.014 A 
ATOM     36  C   UNL A   1      36.631  33.758  29.778  1.00  0.00     0.010 A 
ATOM     37  C   UNL A   1      35.081  32.573  31.188  1.00  0.00     0.010 A 
ATOM     38  C   UNL A   1      36.409  32.861  30.835  1.00  0.00    -0.014 A 
BRANCH  38  39
ATOM     39  C   UNL A   1      37.557  32.217  31.547  1.00  0.00     0.031 A 
ATOM     40  C   UNL A   1      38.345  31.105  30.897  1.00  0.00     0.074 A 
ATOM     41  C   UNL A   1      37.891  32.617  32.792  1.00  0.00     0.049 A 
ATOM     42  N   UNL A   1      39.371  30.431  31.358  1.00  0.00    -0.248 NA
ATOM     43  C   UNL A   1      37.904  30.681  29.562  1.00  0.00     0.031 C 
ATOM     44  C   UNL A   1      37.205  33.664  33.551  1.00  0.00     0.029 A 
ATOM     45  N   UNL A   1      38.891  32.198  33.637  1.00  0.00    -0.354 N 
ATOM     46  C   UNL A   1      39.690  29.496  30.377  1.00  0.00     0.074 A 
ATOM     47  C   UNL A   1      38.708  29.655  29.324  1.00  0.00     0.031 C 
ATOM     48  C   UNL A   1      37.827  33.832  34.729  1.00  0.00     0.029 A 
ATOM     49  C   UNL A   1      38.929  32.879  34.833  1.00  0.00     0.049 A 
ATOM     50  H   UNL A   1      39.522  31.477  33.408  1.00  0.00     0.167 HD
ATOM     51  C   UNL A   1      40.715  28.604  30.343  1.00  0.00     0.034 A 
ATOM     52  C   UNL A   1      39.752  32.754  35.894  1.00  0.00     0.034 A 
ATOM     53  C   UNL A   1      41.696  28.458  31.395  1.00  0.00     0.049 A 
ATOM     54  C   UNL A   1      40.856  31.727  35.854  1.00  0.00     0.074 A 
ATOM     55  C   UNL A   1      42.810  27.633  31.430  1.00  0.00     0.029 A 
ATOM     56  N   UNL A   1      41.675  29.139  32.607  1.00  0.00    -0.354 N 
ATOM     57  N   UNL A   1      41.179  30.893  34.893  1.00  0.00    -0.248 NA
ATOM     58  C   UNL A   1      41.714  31.634  37.044  1.00  0.00     0.031 C 
ATOM     59  C   UNL A   1      43.412  27.756  32.687  1.00  0.00     0.029 A 
ATOM     60  C   UNL A   1      42.728  28.719  33.410  1.00  0.00     0.049 A 
ATOM     61  H   UNL A   1      41.011  29.819  32.859  1.00  0.00     0.167 HD
ATOM     62  C   UNL A   1      42.299  30.203  35.350  1.00  0.00     0.074 A 
ATOM     63  C   UNL A   1      42.602  30.726  36.666  1.00  0.00     0.031 C 
ATOM     64  C   UNL A   1      43.016  29.228  34.732  1.00  0.00     0.034 A 
BRANCH  51  65
ATOM     65  C   UNL A   1      40.800  27.688  29.140  1.00  0.00     0.023 A 
ATOM     66  C   UNL A   1      41.746  27.886  28.120  1.00  0.00     0.031 A 
ATOM     67  C   UNL A   1      39.896  26.620  28.993  1.00  0.00     0.131 A 
ATOM     68  C   UNL A   1      41.705  27.099  26.959  1.00  0.00     0.055 A 
ATOM     69  C   UNL A   1      39.919  25.781  27.876  1.00  0.00     0.041 A 
ATOM     70  F   UNL A   1      38.957  26.384  29.923  1.00  0.00    -0.206 F 
ATOM     71  C   UNL A   1      40.814  26.030  26.841  1.00  0.00     0.022 A 
BRANCH  68  72
ATOM     72  S   UNL A   1      42.707  27.603  25.532  1.00  0.00     0.124 S 
ATOM     73  O   UNL A   1      41.957  28.756  25.038  1.00  0.00    -0.237 OA
ATOM     74  O   UNL A   1      44.000  27.899  26.146  1.00  0.00    -0.237 OA
ATOM     75  O   UNL A   1      42.681  26.434  24.663  1.00  0.00    -0.744 OA
ENDBRANCH  68  72
ENDBRANCH  51  65
BRANCH  52  76
ATOM     76  C   UNL A   1      39.577  33.625  37.093  1.00  0.00     0.023 A 
ATOM     77  C   UNL A   1      38.922  33.147  38.241  1.00  0.00     0.031 A 
ATOM     78  C   UNL A   1      40.022  34.959  37.096  1.00  0.00     0.131 A 
ATOM     79  C   UNL A   1      38.695  34.007  39.327  1.00  0.00     0.055 A 
ATOM     80  C   UNL A   1      39.840  35.794  38.200  1.00  0.00     0.041 A 
ATOM     81  F   UNL A   1      40.654  35.466  36.025  1.00  0.00    -0.206 F 
ATOM     82  C   UNL A   1      39.162  35.323  39.319  1.00  0.00     0.022 A 
BRANCH  79  83
ATOM     83  S   UNL A   1      37.710  33.401  40.725  1.00  0.00     0.124 S 
ATOM     84  O   UNL A   1      38.477  32.236  41.146  1.00  0.00    -0.237 OA
ATOM     85  O   UNL A   1      37.732  34.547  41.630  1.00  0.00    -0.237 OA
ATOM     86  O   UNL A   1      36.410  33.111  40.124  1.00  0.00    -0.744 OA
ENDBRANCH  79  83
ENDBRANCH  52  76
BRANCH  64  87
ATOM     87  C   UNL A   1      44.226  28.696  35.467  1.00  0.00     0.023 A 
ATOM     88  C   UNL A   1      44.142  27.597  36.341  1.00  0.00     0.031 A 
ATOM     89  C   UNL A   1      45.478  29.319  35.312  1.00  0.00     0.131 A 
ATOM     90  C   UNL A   1      45.271  27.196  37.074  1.00  0.00     0.055 A 
ATOM     91  C   UNL A   1      46.613  28.874  35.994  1.00  0.00     0.041 A 
ATOM     92  F   UNL A   1      45.621  30.375  34.495  1.00  0.00    -0.206 F 
ATOM     93  C   UNL A   1      46.509  27.817  36.893  1.00  0.00     0.022 A 
BRANCH  90  94
ATOM     94  S   UNL A   1      45.073  25.921  38.350  1.00  0.00     0.124 S 
ATOM     95  O   UNL A   1      44.248  26.606  39.339  1.00  0.00    -0.237 OA
ATOM     96  O   UNL A   1      44.422  24.841  37.615  1.00  0.00    -0.237 OA
ATOM     97  O   UNL A   1      46.445  25.643  38.773  1.00  0.00    -0.744 OA
ENDBRANCH  90  94
ENDBRANCH  64  87
ENDBRANCH  38  39
ENDBRANCH  30  33
ENDBRANCH  28  29
ENDBRANCH  27  28
ENDBRANCH  26  27
ENDBRANCH   1  26
TORSDOF 21
ENDMDL
MODEL 2
REMARK VINA RESULT:     -10.8      5.685     10.797
REMARK SMILES O=C(CCSc1nc(-c2cccs2)cc(C(F)(F)F)n1)NCCCCCCNC(=O)c1ccc(-c2c3nc(c(-c4cc(S(=O)(=O)[O-])ccc4F)c4ccc([nH]4)c(-c4cc(S(=O)(=O)[O-])ccc4F)c4nc(c(-c5cc(S(=O)(=O)[O-])ccc5F)c5ccc2[nH]5)C=C4)C=C3)cc1
REMARK SMILES IDX 24 1 23 2 22 3 21 4 1 5 2 6 3 8 4 9 5 10 6 11 7 12 20 13
REMARK SMILES IDX 8 14 15 15 14 16 9 17 10 18 13 19 11 20 12 21 16 22 17 23
REMARK SMILES IDX 18 24 19 25 25 26 26 27 27 28 28 29 29 30 30 32 31 33 32 34
REMARK SMILES IDX 93 35 33 36 92 37 34 38 35 39 36 40 86 41 37 42 91 43 85 44
REMARK SMILES IDX 87 45 38 46 90 47 84 48 83 49 39 51 71 52 51 53 70 54 52 55
REMARK SMILES IDX 55 56 69 57 88 58 53 59 54 60 68 62 89 63 56 64 40 65 41 66
REMARK SMILES IDX 49 67 42 68 48 69 50 70 47 71 43 72 44 73 45 74 46 75 72 76
REMARK SMILES IDX 73 77 81 78 74 79 80 80 82 81 79 82 75 83 76 84 77 85 78 86
REMARK SMILES IDX 57 87 58 88 66 89 59 90 65 91 67 92 64 93 60 94 61 95 62 96
REMARK SMILES IDX 63 97
REMARK H PARENT 21 7 28 31 87 50 55 61
REMARK Flexibility Score: inf
ROOT
ATOM      1  C   UNL A   1      32.811  21.598  23.764  1.00  0.00     0.002 C 
ENDROOT
BRANCH   1   2
ATOM      2  C   UNL A   1      32.083  22.898  23.385  1.00  0.00     0.021 C 
BRANCH   2   3
ATOM      3  C   UNL A   1      32.634  23.913  22.366  1.00  0.00     0.116 C 
BRANCH   3   4
ATOM      4  N   UNL A   1      33.140  25.171  22.861  1.00  0.00    -0.356 N 
ATOM      5  O   UNL A   1      33.414  26.101  20.758  1.00  0.00    -0.275 OA
ATOM      6  C   UNL A   1      33.398  26.209  21.982  1.00  0.00     0.220 C 
ATOM      7  H   UNL A   1      33.302  25.290  23.826  1.00  0.00     0.163 HD
BRANCH   6   8
ATOM      8  C   UNL A   1      33.608  27.547  22.654  1.00  0.00     0.111 C 
BRANCH   8   9
ATOM      9  C   UNL A   1      32.734  28.637  22.043  1.00  0.00     0.088 C 
BRANCH   9  10
ATOM     10  S   UNL A   1      31.123  28.817  22.864  1.00  0.00    -0.086 SA
BRANCH  10  11
ATOM     11  C   UNL A   1      31.511  28.261  24.517  1.00  0.00     0.188 A 
ATOM     12  N   UNL A   1      31.276  26.991  24.874  1.00  0.00    -0.222 NA
ATOM     13  N   UNL A   1      32.242  29.117  25.232  1.00  0.00    -0.218 NA
ATOM     14  C   UNL A   1      31.851  26.548  26.019  1.00  0.00     0.085 A 
ATOM     15  C   UNL A   1      32.807  28.657  26.377  1.00  0.00     0.149 A 
ATOM     16  C   UNL A   1      32.639  27.353  26.809  1.00  0.00     0.063 A 
BRANCH  14  17
ATOM     17  C   UNL A   1      31.647  25.120  26.319  1.00  0.00     0.053 A 
ATOM     18  C   UNL A   1      32.529  24.193  26.846  1.00  0.00     0.022 A 
ATOM     19  S   UNL A   1      30.111  24.385  26.064  1.00  0.00    -0.142 S 
ATOM     20  C   UNL A   1      31.898  22.953  27.181  1.00  0.00     0.012 A 
ATOM     21  C   UNL A   1      30.554  22.960  26.885  1.00  0.00     0.065 A 
ENDBRANCH  14  17
BRANCH  15  22
ATOM     22  C   UNL A   1      33.650  29.632  27.176  1.00  0.00     0.433 C 
ATOM     23  F   UNL A   1      34.458  30.401  26.394  1.00  0.00    -0.165 F 
ATOM     24  F   UNL A   1      32.888  30.501  27.900  1.00  0.00    -0.165 F 
ATOM     25  F   UNL A   1      34.474  29.022  28.074  1.00  0.00    -0.165 F 
ENDBRANCH  15  22
ENDBRANCH  10  11
ENDBRANCH   9  10
ENDBRANCH   8   9
ENDBRANCH   6   8
ENDBRANCH   3   4
ENDBRANCH   2   3
ENDBRANCH   1   2
BRANCH   1  26
ATOM     26  C   UNL A   1      34.324  21.472  24.001  1.00  0.00     0.002 C 
BRANCH  26  27
ATOM     27  C   UNL A   1      35.143  22.441  24.861  1.00  0.00     0.021 C 
BRANCH  27  28
ATOM     28  C   UNL A   1      35.808  21.954  26.147  1.00  0.00     0.116 C 
BRANCH  28  29
ATOM     29  N   UNL A   1      36.829  20.951  25.897  1.00  0.00    -0.352 N 
ATOM     30  C   UNL A   1      38.203  21.043  25.846  1.00  0.00     0.251 C 
ATOM     31  H   UNL A   1      36.477  20.045  25.736  1.00  0.00     0.163 HD
ATOM     32  O   UNL A   1      38.825  20.077  25.402  1.00  0.00    -0.269 OA
BRANCH  30  33
ATOM     33  C   UNL A   1      38.963  22.252  26.285  1.00  0.00     0.039 A 
ATOM     34  C   UNL A   1      38.544  23.505  25.816  1.00  0.00     0.014 A 
ATOM     35  C   UNL A   1      40.130  22.186  27.053  1.00  0.00     0.014 A 
ATOM     36  C   UNL A   1      39.257  24.672  26.134  1.00  0.00     0.010 A 
ATOM     37  C   UNL A   1      40.809  23.359  27.422  1.00  0.00     0.010 A 
ATOM     38  C   UNL A   1      40.392  24.616  26.958  1.00  0.00    -0.014 A 
BRANCH  38  39
ATOM     39  C   UNL A   1      41.144  25.860  27.311  1.00  0.00     0.031 A 
ATOM     40  C   UNL A   1      40.527  26.911  28.203  1.00  0.00     0.074 A 
ATOM     41  C   UNL A   1      42.384  26.063  26.819  1.00  0.00     0.049 A 
ATOM     42  N   UNL A   1      41.027  28.050  28.618  1.00  0.00    -0.248 NA
ATOM     43  C   UNL A   1      39.157  26.656  28.667  1.00  0.00     0.031 C 
ATOM     44  C   UNL A   1      43.096  25.145  25.929  1.00  0.00     0.029 A 
ATOM     45  N   UNL A   1      43.269  27.100  26.999  1.00  0.00    -0.354 N 
ATOM     46  C   UNL A   1      40.031  28.652  29.382  1.00  0.00     0.074 A 
ATOM     47  C   UNL A   1      38.879  27.776  29.319  1.00  0.00     0.031 C 
ATOM     48  C   UNL A   1      44.319  25.639  25.675  1.00  0.00     0.029 A 
ATOM     49  C   UNL A   1      44.467  26.928  26.344  1.00  0.00     0.049 A 
ATOM     50  H   UNL A   1      43.064  27.893  27.547  1.00  0.00     0.167 HD
ATOM     51  C   UNL A   1      40.075  29.814  30.087  1.00  0.00     0.034 A 
ATOM     52  C   UNL A   1      45.561  27.715  26.285  1.00  0.00     0.034 A 
ATOM     53  C   UNL A   1      41.233  30.678  30.152  1.00  0.00     0.049 A 
ATOM     54  C   UNL A   1      45.573  29.021  27.039  1.00  0.00     0.074 A 
ATOM     55  C   UNL A   1      41.403  31.839  30.889  1.00  0.00     0.029 A 
ATOM     56  N   UNL A   1      42.412  30.488  29.441  1.00  0.00    -0.354 N 
ATOM     57  N   UNL A   1      44.644  29.545  27.804  1.00  0.00    -0.248 NA
ATOM     58  C   UNL A   1      46.791  29.837  26.928  1.00  0.00     0.031 C 
ATOM     59  C   UNL A   1      42.648  32.391  30.564  1.00  0.00     0.029 A 
ATOM     60  C   UNL A   1      43.293  31.533  29.688  1.00  0.00     0.049 A 
ATOM     61  H   UNL A   1      42.596  29.724  28.849  1.00  0.00     0.167 HD
ATOM     62  C   UNL A   1      45.181  30.734  28.292  1.00  0.00     0.074 A 
ATOM     63  C   UNL A   1      46.517  30.843  27.746  1.00  0.00     0.031 C 
ATOM     64  C   UNL A   1      44.619  31.650  29.124  1.00  0.00     0.034 A 
BRANCH  51  65
ATOM     65  C   UNL A   1      38.815  30.234  30.815  1.00  0.00     0.023 A 
ATOM     66  C   UNL A   1      37.808  30.985  30.184  1.00  0.00     0.031 A 
ATOM     67  C   UNL A   1      38.635  29.911  32.172  1.00  0.00     0.131 A 
ATOM     68  C   UNL A   1      36.721  31.469  30.928  1.00  0.00     0.055 A 
ATOM     69  C   UNL A   1      37.504  30.318  32.885  1.00  0.00     0.041 A 
ATOM     70  F   UNL A   1      39.565  29.209  32.839  1.00  0.00    -0.206 F 
ATOM     71  C   UNL A   1      36.548  31.119  32.269  1.00  0.00     0.022 A 
BRANCH  68  72
ATOM     72  S   UNL A   1      35.633  32.708  30.170  1.00  0.00     0.124 S 
ATOM     73  O   UNL A   1      35.423  32.141  28.839  1.00  0.00    -0.237 OA
ATOM     74  O   UNL A   1      34.472  32.691  31.059  1.00  0.00    -0.237 OA
ATOM     75  O   UNL A   1      36.426  33.929  30.201  1.00  0.00    -0.744 OA
ENDBRANCH  68  72
ENDBRANCH  51  65
BRANCH  52  76
ATOM     76  C   UNL A   1      46.750  27.297  25.485  1.00  0.00     0.023 A 
ATOM     77  C   UNL A   1      46.948  27.781  24.181  1.00  0.00     0.031 A 
ATOM     78  C   UNL A   1      47.682  26.375  25.994  1.00  0.00     0.131 A 
ATOM     79  C   UNL A   1      48.028  27.313  23.416  1.00  0.00     0.055 A 
ATOM     80  C   UNL A   1      48.784  25.953  25.248  1.00  0.00     0.041 A 
ATOM     81  F   UNL A   1      47.541  25.881  27.235  1.00  0.00    -0.206 F 
ATOM     82  C   UNL A   1      48.954  26.413  23.946  1.00  0.00     0.022 A 
BRANCH  79  83
ATOM     83  S   UNL A   1      48.161  27.840  21.685  1.00  0.00     0.124 S 
ATOM     84  O   UNL A   1      48.548  26.599  21.026  1.00  0.00    -0.237 OA
ATOM     85  O   UNL A   1      46.810  28.319  21.410  1.00  0.00    -0.237 OA
ATOM     86  O   UNL A   1      49.190  28.876  21.724  1.00  0.00    -0.744 OA
ENDBRANCH  79  83
ENDBRANCH  52  76
BRANCH  64  87
ATOM     87  C   UNL A   1      45.476  32.831  29.523  1.00  0.00     0.023 A 
ATOM     88  C   UNL A   1      45.470  34.033  28.793  1.00  0.00     0.031 A 
ATOM     89  C   UNL A   1      46.334  32.739  30.634  1.00  0.00     0.131 A 
ATOM     90  C   UNL A   1      46.350  35.070  29.143  1.00  0.00     0.055 A 
ATOM     91  C   UNL A   1      47.160  33.799  31.016  1.00  0.00     0.041 A 
ATOM     92  F   UNL A   1      46.387  31.616  31.367  1.00  0.00    -0.206 F 
ATOM     93  C   UNL A   1      47.182  34.966  30.260  1.00  0.00     0.022 A 
BRANCH  90  94
ATOM     94  S   UNL A   1      46.472  36.515  28.053  1.00  0.00     0.124 S 
ATOM     95  O   UNL A   1      47.422  37.359  28.770  1.00  0.00    -0.237 OA
ATOM     96  O   UNL A   1      46.956  35.927  26.807  1.00  0.00    -0.237 OA
ATOM     97  O   UNL A   1      45.103  37.026  28.005  1.00  0.00    -0.744 OA
ENDBRANCH  90  94
ENDBRANCH  64  87
ENDBRANCH  38  39
ENDBRANCH  30  33
ENDBRANCH  28  29
ENDBRANCH  27  28
ENDBRANCH  26  27
ENDBRANCH   1  26
TORSDOF 21
ENDMDL
MODEL 3
REMARK VINA RESULT:     -10.7      5.686      9.387
REMARK SMILES O=C(CCSc1nc(-c2cccs2)cc(C(F)(F)F)n1)NCCCCCCNC(=O)c1ccc(-c2c3nc(c(-c4cc(S(=O)(=O)[O-])ccc4F)c4ccc([nH]4)c(-c4cc(S(=O)(=O)[O-])ccc4F)c4nc(c(-c5cc(S(=O)(=O)[O-])ccc5F)c5ccc2[nH]5)C=C4)C=C3)cc1
REMARK SMILES IDX 24 1 23 2 22 3 21 4 1 5 2 6 3 8 4 9 5 10 6 11 7 12 20 13
REMARK SMILES IDX 8 14 15 15 14 16 9 17 10 18 13 19 11 20 12 21 16 22 17 23
REMARK SMILES IDX 18 24 19 25 25 26 26 27 27 28 28 29 29 30 30 32 31 33 32 34
REMARK SMILES IDX 93 35 33 36 92 37 34 38 35 39 36 40 86 41 37 42 91 43 85 44
REMARK SMILES IDX 87 45 38 46 90 47 84 48 83 49 39 51 71 52 51 53 70 54 52 55
REMARK SMILES IDX 55 56 69 57 88 58 53 59 54 60 68 62 89 63 56 64 40 65 41 66
REMARK SMILES IDX 49 67 42 68 48 69 50 70 47 71 43 72 44 73 45 74 46 75 72 76
REMARK SMILES IDX 73 77 81 78 74 79 80 80 82 81 79 82 75 83 76 84 77 85 78 86
REMARK SMILES IDX 57 87 58 88 66 89 59 90 65 91 67 92 64 93 60 94 61 95 62 96
REMARK SMILES IDX 63 97
REMARK H PARENT 21 7 28 31 87 50 55 61
REMARK Flexibility Score: inf
ROOT
ATOM      1  C   UNL A   1      34.863  19.066  24.629  1.00  0.00     0.002 C 
ENDROOT
BRANCH   1   2
ATOM      2  C   UNL A   1      33.440  19.386  25.115  1.00  0.00     0.021 C 
BRANCH   2   3
ATOM      3  C   UNL A   1      32.359  20.015  24.218  1.00  0.00     0.116 C 
BRANCH   3   4
ATOM      4  N   UNL A   1      32.141  21.439  24.307  1.00  0.00    -0.356 N 
ATOM      5  O   UNL A   1      32.066  21.759  22.014  1.00  0.00    -0.275 OA
ATOM      6  C   UNL A   1      31.913  22.180  23.159  1.00  0.00     0.220 C 
ATOM      7  H   UNL A   1      32.156  21.885  25.185  1.00  0.00     0.163 HD
BRANCH   6   8
ATOM      8  C   UNL A   1      31.388  23.573  23.419  1.00  0.00     0.111 C 
BRANCH   8   9
ATOM      9  C   UNL A   1      32.424  24.645  23.096  1.00  0.00     0.088 C 
BRANCH   9  10
ATOM     10  S   UNL A   1      31.836  25.885  21.906  1.00  0.00    -0.086 SA
BRANCH  10  11
ATOM     11  C   UNL A   1      31.682  27.325  22.951  1.00  0.00     0.188 A 
ATOM     12  N   UNL A   1      30.831  28.308  22.626  1.00  0.00    -0.222 NA
ATOM     13  N   UNL A   1      32.277  27.213  24.140  1.00  0.00    -0.218 NA
ATOM     14  C   UNL A   1      30.536  29.221  23.583  1.00  0.00     0.085 A 
ATOM     15  C   UNL A   1      31.971  28.138  25.086  1.00  0.00     0.149 A 
ATOM     16  C   UNL A   1      31.084  29.172  24.844  1.00  0.00     0.063 A 
BRANCH  14  17
ATOM     17  C   UNL A   1      29.522  30.223  23.211  1.00  0.00     0.053 A 
ATOM     18  C   UNL A   1      29.127  31.370  23.878  1.00  0.00     0.022 A 
ATOM     19  S   UNL A   1      28.662  30.086  21.726  1.00  0.00    -0.142 S 
ATOM     20  C   UNL A   1      28.255  32.194  23.097  1.00  0.00     0.012 A 
ATOM     21  C   UNL A   1      27.994  31.647  21.862  1.00  0.00     0.065 A 
ENDBRANCH  14  17
BRANCH  15  22
ATOM     22  C   UNL A   1      32.639  27.994  26.439  1.00  0.00     0.433 C 
ATOM     23  F   UNL A   1      33.902  28.503  26.466  1.00  0.00    -0.165 F 
ATOM     24  F   UNL A   1      31.952  28.638  27.425  1.00  0.00    -0.165 F 
ATOM     25  F   UNL A   1      32.753  26.699  26.849  1.00  0.00    -0.165 F 
ENDBRANCH  15  22
ENDBRANCH  10  11
ENDBRANCH   9  10
ENDBRANCH   8   9
ENDBRANCH   6   8
ENDBRANCH   3   4
ENDBRANCH   2   3
ENDBRANCH   1   2
BRANCH   1  26
ATOM     26  C   UNL A   1      36.109  19.914  24.933  1.00  0.00     0.002 C 
BRANCH  26  27
ATOM     27  C   UNL A   1      36.122  21.446  24.955  1.00  0.00     0.021 C 
BRANCH  27  28
ATOM     28  C   UNL A   1      37.225  22.194  25.702  1.00  0.00     0.116 C 
BRANCH  28  29
ATOM     29  N   UNL A   1      38.309  21.319  26.111  1.00  0.00    -0.352 N 
ATOM     30  C   UNL A   1      39.596  21.594  26.522  1.00  0.00     0.251 C 
ATOM     31  H   UNL A   1      38.086  20.360  26.091  1.00  0.00     0.163 HD
ATOM     32  O   UNL A   1      40.383  20.650  26.608  1.00  0.00    -0.269 OA
BRANCH  30  33
ATOM     33  C   UNL A   1      40.078  22.969  26.851  1.00  0.00     0.039 A 
ATOM     34  C   UNL A   1      40.912  23.129  27.968  1.00  0.00     0.014 A 
ATOM     35  C   UNL A   1      39.656  24.113  26.167  1.00  0.00     0.014 A 
ATOM     36  C   UNL A   1      41.341  24.403  28.372  1.00  0.00     0.010 A 
ATOM     37  C   UNL A   1      40.135  25.382  26.535  1.00  0.00     0.010 A 
ATOM     38  C   UNL A   1      40.972  25.547  27.649  1.00  0.00    -0.014 A 
BRANCH  38  39
ATOM     39  C   UNL A   1      41.442  26.904  28.070  1.00  0.00     0.031 A 
ATOM     40  C   UNL A   1      42.867  27.341  27.822  1.00  0.00     0.074 A 
ATOM     41  C   UNL A   1      40.596  27.750  28.693  1.00  0.00     0.049 A 
ATOM     42  N   UNL A   1      43.452  28.478  28.114  1.00  0.00    -0.248 NA
ATOM     43  C   UNL A   1      43.753  26.360  27.185  1.00  0.00     0.031 C 
ATOM     44  C   UNL A   1      39.199  27.454  29.017  1.00  0.00     0.029 A 
ATOM     45  N   UNL A   1      40.779  29.029  29.161  1.00  0.00    -0.354 N 
ATOM     46  C   UNL A   1      44.777  28.345  27.707  1.00  0.00     0.074 A 
ATOM     47  C   UNL A   1      44.917  26.993  27.203  1.00  0.00     0.031 C 
ATOM     48  C   UNL A   1      38.644  28.533  29.593  1.00  0.00     0.029 A 
ATOM     49  C   UNL A   1      39.649  29.583  29.721  1.00  0.00     0.049 A 
ATOM     50  H   UNL A   1      41.639  29.507  29.101  1.00  0.00     0.167 HD
ATOM     51  C   UNL A   1      45.778  29.264  27.729  1.00  0.00     0.034 A 
ATOM     52  C   UNL A   1      39.444  30.795  30.276  1.00  0.00     0.034 A 
ATOM     53  C   UNL A   1      45.626  30.613  28.225  1.00  0.00     0.049 A 
ATOM     54  C   UNL A   1      40.580  31.785  30.330  1.00  0.00     0.074 A 
ATOM     55  C   UNL A   1      46.557  31.641  28.230  1.00  0.00     0.029 A 
ATOM     56  N   UNL A   1      44.478  31.121  28.821  1.00  0.00    -0.354 N 
ATOM     57  N   UNL A   1      41.809  31.662  29.886  1.00  0.00    -0.248 NA
ATOM     58  C   UNL A   1      40.294  33.085  30.955  1.00  0.00     0.031 C 
ATOM     59  C   UNL A   1      46.000  32.739  28.898  1.00  0.00     0.029 A 
ATOM     60  C   UNL A   1      44.692  32.429  29.236  1.00  0.00     0.049 A 
ATOM     61  H   UNL A   1      43.635  30.626  28.932  1.00  0.00     0.167 HD
ATOM     62  C   UNL A   1      42.430  32.882  30.146  1.00  0.00     0.074 A 
ATOM     63  C   UNL A   1      41.438  33.729  30.773  1.00  0.00     0.031 C 
ATOM     64  C   UNL A   1      43.706  33.266  29.882  1.00  0.00     0.034 A 
BRANCH  51  65
ATOM     65  C   UNL A   1      47.139  28.821  27.234  1.00  0.00     0.023 A 
ATOM     66  C   UNL A   1      47.395  28.590  25.871  1.00  0.00     0.031 A 
ATOM     67  C   UNL A   1      48.188  28.591  28.143  1.00  0.00     0.131 A 
ATOM     68  C   UNL A   1      48.627  28.052  25.469  1.00  0.00     0.055 A 
ATOM     69  C   UNL A   1      49.444  28.143  27.726  1.00  0.00     0.041 A 
ATOM     70  F   UNL A   1      48.006  28.778  29.460  1.00  0.00    -0.206 F 
ATOM     71  C   UNL A   1      49.663  27.851  26.384  1.00  0.00     0.022 A 
BRANCH  68  72
ATOM     72  S   UNL A   1      48.797  27.449  23.765  1.00  0.00     0.124 S 
ATOM     73  O   UNL A   1      47.550  27.917  23.162  1.00  0.00    -0.237 OA
ATOM     74  O   UNL A   1      50.015  28.122  23.315  1.00  0.00    -0.237 OA
ATOM     75  O   UNL A   1      48.902  26.005  23.919  1.00  0.00    -0.744 OA
ENDBRANCH  68  72
ENDBRANCH  51  65
BRANCH  52  76
ATOM     76  C   UNL A   1      38.104  31.156  30.826  1.00  0.00     0.023 A 
ATOM     77  C   UNL A   1      37.159  31.831  30.036  1.00  0.00     0.031 A 
ATOM     78  C   UNL A   1      37.763  30.871  32.160  1.00  0.00     0.131 A 
ATOM     79  C   UNL A   1      35.936  32.234  30.596  1.00  0.00     0.055 A 
ATOM     80  C   UNL A   1      36.525  31.227  32.698  1.00  0.00     0.041 A 
ATOM     81  F   UNL A   1      38.629  30.227  32.959  1.00  0.00    -0.206 F 
ATOM     82  C   UNL A   1      35.608  31.924  31.917  1.00  0.00     0.022 A 
BRANCH  79  83
ATOM     83  S   UNL A   1      34.808  33.240  29.592  1.00  0.00     0.124 S 
ATOM     84  O   UNL A   1      34.208  32.235  28.723  1.00  0.00    -0.237 OA
ATOM     85  O   UNL A   1      33.932  33.817  30.608  1.00  0.00    -0.237 OA
ATOM     86  O   UNL A   1      35.699  34.189  28.929  1.00  0.00    -0.744 OA
ENDBRANCH  79  83
ENDBRANCH  52  76
BRANCH  64  87
ATOM     87  C   UNL A   1      44.082  34.687  30.239  1.00  0.00     0.023 A 
ATOM     88  C   UNL A   1      43.831  35.763  29.370  1.00  0.00     0.031 A 
ATOM     89  C   UNL A   1      44.730  34.962  31.458  1.00  0.00     0.131 A 
ATOM     90  C   UNL A   1      44.281  37.052  29.701  1.00  0.00     0.055 A 
ATOM     91  C   UNL A   1      45.117  36.257  31.811  1.00  0.00     0.041 A 
ATOM     92  F   UNL A   1      45.001  33.976  32.327  1.00  0.00    -0.206 F 
ATOM     93  C   UNL A   1      44.907  37.308  30.923  1.00  0.00     0.022 A 
BRANCH  90  94
ATOM     94  S   UNL A   1      44.135  38.370  28.463  1.00  0.00     0.124 S 
ATOM     95  O   UNL A   1      42.714  38.693  28.528  1.00  0.00    -0.237 OA
ATOM     96  O   UNL A   1      45.044  39.388  28.981  1.00  0.00    -0.237 OA
ATOM     97  O   UNL A   1      44.568  37.727  27.223  1.00  0.00    -0.744 OA
ENDBRANCH  90  94
ENDBRANCH  64  87
ENDBRANCH  38  39
ENDBRANCH  30  33
ENDBRANCH  28  29
ENDBRANCH  27  28
ENDBRANCH  26  27
ENDBRANCH   1  26
TORSDOF 21
ENDMDL
