MODEL 1
REMARK VINA RESULT:     -11.7      0.000      0.000
REMARK SMILES O=C(CCc1nc(-c2ccccc2)c(-c2ccccc2)o1)NCCCCCCNC(=O)c1ccc(-c2c3nc(c(-c4cc(S(=O)(=O)[O-])ccc4F)c4ccc([nH]4)c(-c4cc(S(=O)(=O)[O-])ccc4F)c4nc(c(-c5cc(S(=O)(=O)[O-])ccc5F)c5ccc2[nH]5)C=C4)C=C3)cc1
REMARK SMILES IDX 25 1 24 2 23 3 22 4 1 5 2 6 3 8 4 9 5 10 6 11 21 12 7 13
REMARK SMILES IDX 14 14 8 15 9 16 13 17 10 18 12 19 11 20 15 21 16 22 20 23
REMARK SMILES IDX 17 24 19 25 18 26 26 27 27 28 28 29 29 30 30 31 31 33 32 34
REMARK SMILES IDX 33 35 94 36 34 37 93 38 35 39 36 40 37 41 87 42 38 43 92 44
REMARK SMILES IDX 86 45 88 46 39 47 91 48 85 49 84 50 40 52 72 53 52 54 71 55
REMARK SMILES IDX 53 56 56 57 70 58 89 59 54 60 55 61 69 63 90 64 57 65 41 66
REMARK SMILES IDX 42 67 50 68 43 69 49 70 51 71 48 72 44 73 45 74 46 75 47 76
REMARK SMILES IDX 73 77 74 78 82 79 75 80 81 81 83 82 80 83 76 84 77 85 78 86
REMARK SMILES IDX 79 87 58 88 59 89 67 90 60 91 66 92 68 93 65 94 61 95 62 96
REMARK SMILES IDX 63 97 64 98
REMARK H PARENT 22 7 29 32 88 51 56 62
REMARK Flexibility Score: inf
ROOT
ATOM      1  C   UNL A   1      32.365  28.378  26.236  1.00  0.00     0.002 C 
ENDROOT
BRANCH   1   2
ATOM      2  C   UNL A   1      32.505  28.834  24.776  1.00  0.00     0.021 C 
BRANCH   2   3
ATOM      3  C   UNL A   1      31.257  28.628  23.913  1.00  0.00     0.116 C 
BRANCH   3   4
ATOM      4  N   UNL A   1      30.715  27.294  24.075  1.00  0.00    -0.356 N 
ATOM      5  O   UNL A   1      31.792  26.319  22.294  1.00  0.00    -0.275 OA
ATOM      6  C   UNL A   1      31.017  26.247  23.241  1.00  0.00     0.220 C 
ATOM      7  H   UNL A   1      30.096  27.130  24.823  1.00  0.00     0.163 HD
BRANCH   6   8
ATOM      8  C   UNL A   1      30.270  24.968  23.565  1.00  0.00     0.110 C 
BRANCH   8   9
ATOM      9  C   UNL A   1      30.614  24.414  24.941  1.00  0.00     0.107 C 
BRANCH   9  10
ATOM     10  C   UNL A   1      31.506  23.227  24.879  1.00  0.00     0.196 A 
ATOM     11  N   UNL A   1      31.179  21.972  24.652  1.00  0.00    -0.213 NA
ATOM     12  O   UNL A   1      32.854  23.452  24.987  1.00  0.00    -0.440 OA
ATOM     13  C   UNL A   1      32.386  21.309  24.629  1.00  0.00     0.117 A 
ATOM     14  C   UNL A   1      33.418  22.214  24.799  1.00  0.00     0.162 A 
BRANCH  13  15
ATOM     15  C   UNL A   1      32.507  19.885  24.370  1.00  0.00     0.004 A 
ATOM     16  C   UNL A   1      32.845  18.979  25.383  1.00  0.00     0.010 A 
ATOM     17  C   UNL A   1      32.309  19.401  23.069  1.00  0.00     0.010 A 
ATOM     18  C   UNL A   1      33.045  17.628  25.088  1.00  0.00     0.001 A 
ATOM     19  C   UNL A   1      32.525  18.054  22.772  1.00  0.00     0.001 A 
ATOM     20  C   UNL A   1      32.902  17.170  23.781  1.00  0.00     0.000 A 
ENDBRANCH  13  15
BRANCH  14  21
ATOM     21  C   UNL A   1      34.870  22.170  24.731  1.00  0.00     0.020 A 
ATOM     22  C   UNL A   1      35.586  22.988  23.853  1.00  0.00     0.012 A 
ATOM     23  C   UNL A   1      35.584  21.326  25.592  1.00  0.00     0.012 A 
ATOM     24  C   UNL A   1      36.985  22.971  23.856  1.00  0.00     0.001 A 
ATOM     25  C   UNL A   1      36.978  21.297  25.591  1.00  0.00     0.001 A 
ATOM     26  C   UNL A   1      37.679  22.128  24.724  1.00  0.00     0.000 A 
ENDBRANCH  14  21
ENDBRANCH   9  10
ENDBRANCH   8   9
ENDBRANCH   6   8
ENDBRANCH   3   4
ENDBRANCH   2   3
ENDBRANCH   1   2
BRANCH   1  27
ATOM     27  C   UNL A   1      32.057  29.502  27.224  1.00  0.00     0.002 C 
BRANCH  27  28
ATOM     28  C   UNL A   1      32.187  30.918  26.680  1.00  0.00     0.021 C 
BRANCH  28  29
ATOM     29  C   UNL A   1      33.220  31.778  27.399  1.00  0.00     0.116 C 
BRANCH  29  30
ATOM     30  N   UNL A   1      32.782  33.153  27.612  1.00  0.00    -0.352 N 
ATOM     31  C   UNL A   1      33.262  34.079  28.509  1.00  0.00     0.251 C 
ATOM     32  H   UNL A   1      32.045  33.460  27.036  1.00  0.00     0.163 HD
ATOM     33  O   UNL A   1      32.709  35.168  28.633  1.00  0.00    -0.269 OA
BRANCH  31  34
ATOM     34  C   UNL A   1      34.425  33.724  29.349  1.00  0.00     0.039 A 
ATOM     35  C   UNL A   1      34.251  32.854  30.427  1.00  0.00     0.014 A 
ATOM     36  C   UNL A   1      35.698  34.195  29.019  1.00  0.00     0.014 A 
ATOM     37  C   UNL A   1      35.370  32.381  31.118  1.00  0.00     0.010 A 
ATOM     38  C   UNL A   1      36.813  33.660  29.653  1.00  0.00     0.010 A 
ATOM     39  C   UNL A   1      36.662  32.742  30.706  1.00  0.00    -0.014 A 
BRANCH  39  40
ATOM     40  C   UNL A   1      37.882  32.189  31.351  1.00  0.00     0.031 A 
ATOM     41  C   UNL A   1      38.632  31.073  30.675  1.00  0.00     0.074 A 
ATOM     42  C   UNL A   1      38.245  32.606  32.582  1.00  0.00     0.049 A 
ATOM     43  N   UNL A   1      39.601  30.326  31.135  1.00  0.00    -0.248 NA
ATOM     44  C   UNL A   1      38.203  30.727  29.310  1.00  0.00     0.031 C 
ATOM     45  C   UNL A   1      37.573  33.653  33.356  1.00  0.00     0.029 A 
ATOM     46  N   UNL A   1      39.254  32.183  33.410  1.00  0.00    -0.354 N 
ATOM     47  C   UNL A   1      39.869  29.396  30.137  1.00  0.00     0.074 A 
ATOM     48  C   UNL A   1      38.934  29.650  29.062  1.00  0.00     0.031 C 
ATOM     49  C   UNL A   1      38.197  33.797  34.537  1.00  0.00     0.029 A 
ATOM     50  C   UNL A   1      39.278  32.822  34.630  1.00  0.00     0.049 A 
ATOM     51  H   UNL A   1      39.902  31.487  33.156  1.00  0.00     0.167 HD
ATOM     52  C   UNL A   1      40.818  28.429  30.115  1.00  0.00     0.034 A 
ATOM     53  C   UNL A   1      40.065  32.626  35.707  1.00  0.00     0.034 A 
ATOM     54  C   UNL A   1      41.775  28.224  31.172  1.00  0.00     0.049 A 
ATOM     55  C   UNL A   1      41.126  31.553  35.647  1.00  0.00     0.074 A 
ATOM     56  C   UNL A   1      42.832  27.332  31.214  1.00  0.00     0.029 A 
ATOM     57  N   UNL A   1      41.796  28.923  32.370  1.00  0.00    -0.354 N 
ATOM     58  N   UNL A   1      41.399  30.716  34.672  1.00  0.00    -0.248 NA
ATOM     59  C   UNL A   1      41.989  31.403  36.827  1.00  0.00     0.031 C 
ATOM     60  C   UNL A   1      43.458  27.453  32.458  1.00  0.00     0.029 A 
ATOM     61  C   UNL A   1      42.833  28.466  33.167  1.00  0.00     0.049 A 
ATOM     62  H   UNL A   1      41.166  29.637  32.619  1.00  0.00     0.167 HD
ATOM     63  C   UNL A   1      42.495  29.974  35.108  1.00  0.00     0.074 A 
ATOM     64  C   UNL A   1      42.832  30.463  36.427  1.00  0.00     0.031 C 
ATOM     65  C   UNL A   1      43.164  28.980  34.472  1.00  0.00     0.034 A 
BRANCH  52  66
ATOM     66  C   UNL A   1      40.852  27.508  28.923  1.00  0.00     0.023 A 
ATOM     67  C   UNL A   1      41.800  27.658  27.896  1.00  0.00     0.031 A 
ATOM     68  C   UNL A   1      39.918  26.462  28.811  1.00  0.00     0.131 A 
ATOM     69  C   UNL A   1      41.755  26.818  26.775  1.00  0.00     0.055 A 
ATOM     70  C   UNL A   1      39.925  25.582  27.727  1.00  0.00     0.041 A 
ATOM     71  F   UNL A   1      38.977  26.284  29.751  1.00  0.00    -0.206 F 
ATOM     72  C   UNL A   1      40.841  25.764  26.695  1.00  0.00     0.022 A 
BRANCH  69  73
ATOM     73  S   UNL A   1      42.838  27.188  25.369  1.00  0.00     0.124 S 
ATOM     74  O   UNL A   1      44.110  27.449  26.038  1.00  0.00    -0.237 OA
ATOM     75  O   UNL A   1      42.769  25.960  24.584  1.00  0.00    -0.237 OA
ATOM     76  O   UNL A   1      42.213  28.357  24.753  1.00  0.00    -0.744 OA
ENDBRANCH  69  73
ENDBRANCH  52  66
BRANCH  53  77
ATOM     77  C   UNL A   1      39.887  33.438  36.947  1.00  0.00     0.023 A 
ATOM     78  C   UNL A   1      39.161  32.933  38.038  1.00  0.00     0.031 A 
ATOM     79  C   UNL A   1      40.370  34.755  37.030  1.00  0.00     0.131 A 
ATOM     80  C   UNL A   1      38.883  33.760  39.137  1.00  0.00     0.055 A 
ATOM     81  C   UNL A   1      40.140  35.556  38.153  1.00  0.00     0.041 A 
ATOM     82  F   UNL A   1      41.074  35.287  36.020  1.00  0.00    -0.206 F 
ATOM     83  C   UNL A   1      39.376  35.064  39.207  1.00  0.00     0.022 A 
BRANCH  80  84
ATOM     84  S   UNL A   1      37.761  33.142  40.423  1.00  0.00     0.124 S 
ATOM     85  O   UNL A   1      36.535  32.917  39.665  1.00  0.00    -0.237 OA
ATOM     86  O   UNL A   1      38.460  31.946  40.883  1.00  0.00    -0.237 OA
ATOM     87  O   UNL A   1      37.708  34.241  41.384  1.00  0.00    -0.744 OA
ENDBRANCH  80  84
ENDBRANCH  53  77
BRANCH  65  88
ATOM     88  C   UNL A   1      44.376  28.414  35.168  1.00  0.00     0.023 A 
ATOM     89  C   UNL A   1      44.295  27.281  35.995  1.00  0.00     0.031 A 
ATOM     90  C   UNL A   1      45.632  29.020  34.989  1.00  0.00     0.131 A 
ATOM     91  C   UNL A   1      45.445  26.815  36.649  1.00  0.00     0.055 A 
ATOM     92  C   UNL A   1      46.781  28.521  35.601  1.00  0.00     0.041 A 
ATOM     93  F   UNL A   1      45.761  30.104  34.208  1.00  0.00    -0.206 F 
ATOM     94  C   UNL A   1      46.690  27.418  36.444  1.00  0.00     0.022 A 
BRANCH  91  95
ATOM     95  S   UNL A   1      45.284  25.443  37.825  1.00  0.00     0.124 S 
ATOM     96  O   UNL A   1      44.459  24.499  37.079  1.00  0.00    -0.237 OA
ATOM     97  O   UNL A   1      46.672  25.047  38.037  1.00  0.00    -0.237 OA
ATOM     98  O   UNL A   1      44.634  26.057  38.981  1.00  0.00    -0.744 OA
ENDBRANCH  91  95
ENDBRANCH  65  88
ENDBRANCH  39  40
ENDBRANCH  31  34
ENDBRANCH  29  30
ENDBRANCH  28  29
ENDBRANCH  27  28
ENDBRANCH   1  27
TORSDOF 20
ENDMDL
MODEL 2
REMARK VINA RESULT:     -11.6      1.812      2.302
REMARK SMILES O=C(CCc1nc(-c2ccccc2)c(-c2ccccc2)o1)NCCCCCCNC(=O)c1ccc(-c2c3nc(c(-c4cc(S(=O)(=O)[O-])ccc4F)c4ccc([nH]4)c(-c4cc(S(=O)(=O)[O-])ccc4F)c4nc(c(-c5cc(S(=O)(=O)[O-])ccc5F)c5ccc2[nH]5)C=C4)C=C3)cc1
REMARK SMILES IDX 25 1 24 2 23 3 22 4 1 5 2 6 3 8 4 9 5 10 6 11 21 12 7 13
REMARK SMILES IDX 14 14 8 15 9 16 13 17 10 18 12 19 11 20 15 21 16 22 20 23
REMARK SMILES IDX 17 24 19 25 18 26 26 27 27 28 28 29 29 30 30 31 31 33 32 34
REMARK SMILES IDX 33 35 94 36 34 37 93 38 35 39 36 40 37 41 87 42 38 43 92 44
REMARK SMILES IDX 86 45 88 46 39 47 91 48 85 49 84 50 40 52 72 53 52 54 71 55
REMARK SMILES IDX 53 56 56 57 70 58 89 59 54 60 55 61 69 63 90 64 57 65 41 66
REMARK SMILES IDX 42 67 50 68 43 69 49 70 51 71 48 72 44 73 45 74 46 75 47 76
REMARK SMILES IDX 73 77 74 78 82 79 75 80 81 81 83 82 80 83 76 84 77 85 78 86
REMARK SMILES IDX 79 87 58 88 59 89 67 90 60 91 66 92 68 93 65 94 61 95 62 96
REMARK SMILES IDX 63 97 64 98
REMARK H PARENT 22 7 29 32 88 51 56 62
REMARK Flexibility Score: inf
ROOT
ATOM      1  C   UNL A   1      31.908  28.861  23.420  1.00  0.00     0.002 C 
ENDROOT
BRANCH   1   2
ATOM      2  C   UNL A   1      31.091  28.101  22.366  1.00  0.00     0.021 C 
BRANCH   2   3
ATOM      3  C   UNL A   1      31.403  26.605  22.262  1.00  0.00     0.116 C 
BRANCH   3   4
ATOM      4  N   UNL A   1      31.682  26.030  23.562  1.00  0.00    -0.356 N 
ATOM      5  O   UNL A   1      29.504  25.826  24.266  1.00  0.00    -0.275 OA
ATOM      6  C   UNL A   1      30.706  25.698  24.468  1.00  0.00     0.220 C 
ATOM      7  H   UNL A   1      32.621  25.869  23.810  1.00  0.00     0.163 HD
BRANCH   6   8
ATOM      8  C   UNL A   1      31.243  25.184  25.789  1.00  0.00     0.110 C 
BRANCH   8   9
ATOM      9  C   UNL A   1      30.657  23.835  26.181  1.00  0.00     0.107 C 
BRANCH   9  10
ATOM     10  C   UNL A   1      31.576  22.702  25.896  1.00  0.00     0.196 A 
ATOM     11  N   UNL A   1      31.271  21.481  25.509  1.00  0.00    -0.213 NA
ATOM     12  O   UNL A   1      32.921  22.958  25.958  1.00  0.00    -0.440 OA
ATOM     13  C   UNL A   1      32.493  20.873  25.322  1.00  0.00     0.117 A 
ATOM     14  C   UNL A   1      33.507  21.782  25.561  1.00  0.00     0.162 A 
BRANCH  13  15
ATOM     15  C   UNL A   1      32.636  19.507  24.852  1.00  0.00     0.004 A 
ATOM     16  C   UNL A   1      32.899  18.450  25.734  1.00  0.00     0.010 A 
ATOM     17  C   UNL A   1      32.541  19.233  23.481  1.00  0.00     0.010 A 
ATOM     18  C   UNL A   1      33.124  17.160  25.247  1.00  0.00     0.001 A 
ATOM     19  C   UNL A   1      32.783  17.948  22.993  1.00  0.00     0.001 A 
ATOM     20  C   UNL A   1      33.083  16.913  23.877  1.00  0.00     0.000 A 
ENDBRANCH  13  15
BRANCH  14  21
ATOM     21  C   UNL A   1      34.952  21.802  25.403  1.00  0.00     0.020 A 
ATOM     22  C   UNL A   1      35.662  20.660  25.021  1.00  0.00     0.012 A 
ATOM     23  C   UNL A   1      35.659  22.997  25.593  1.00  0.00     0.012 A 
ATOM     24  C   UNL A   1      37.044  20.726  24.813  1.00  0.00     0.001 A 
ATOM     25  C   UNL A   1      37.038  23.064  25.398  1.00  0.00     0.001 A 
ATOM     26  C   UNL A   1      37.730  21.926  25.001  1.00  0.00     0.000 A 
ENDBRANCH  14  21
ENDBRANCH   9  10
ENDBRANCH   8   9
ENDBRANCH   6   8
ENDBRANCH   3   4
ENDBRANCH   2   3
ENDBRANCH   1   2
BRANCH   1  27
ATOM     27  C   UNL A   1      31.101  29.336  24.627  1.00  0.00     0.002 C 
BRANCH  27  28
ATOM     28  C   UNL A   1      31.715  29.049  25.991  1.00  0.00     0.021 C 
BRANCH  28  29
ATOM     29  C   UNL A   1      32.947  29.885  26.316  1.00  0.00     0.116 C 
BRANCH  29  30
ATOM     30  N   UNL A   1      32.636  31.268  26.661  1.00  0.00    -0.352 N 
ATOM     31  C   UNL A   1      33.365  32.148  27.426  1.00  0.00     0.251 C 
ATOM     32  H   UNL A   1      31.791  31.618  26.296  1.00  0.00     0.163 HD
ATOM     33  O   UNL A   1      32.908  33.252  27.708  1.00  0.00    -0.269 OA
BRANCH  31  34
ATOM     34  C   UNL A   1      34.686  31.726  27.936  1.00  0.00     0.039 A 
ATOM     35  C   UNL A   1      35.733  32.651  27.974  1.00  0.00     0.014 A 
ATOM     36  C   UNL A   1      34.862  30.438  28.448  1.00  0.00     0.014 A 
ATOM     37  C   UNL A   1      36.929  32.311  28.611  1.00  0.00     0.010 A 
ATOM     38  C   UNL A   1      36.021  30.132  29.151  1.00  0.00     0.010 A 
ATOM     39  C   UNL A   1      37.065  31.067  29.247  1.00  0.00    -0.014 A 
BRANCH  39  40
ATOM     40  C   UNL A   1      38.283  30.700  30.017  1.00  0.00     0.031 A 
ATOM     41  C   UNL A   1      39.262  29.722  29.426  1.00  0.00     0.074 A 
ATOM     42  C   UNL A   1      38.449  31.154  31.276  1.00  0.00     0.049 A 
ATOM     43  N   UNL A   1      40.281  29.127  29.987  1.00  0.00    -0.248 NA
ATOM     44  C   UNL A   1      39.034  29.329  28.026  1.00  0.00     0.031 C 
ATOM     45  C   UNL A   1      37.548  32.077  31.973  1.00  0.00     0.029 A 
ATOM     46  N   UNL A   1      39.422  30.882  32.206  1.00  0.00    -0.354 N 
ATOM     47  C   UNL A   1      40.790  28.261  29.027  1.00  0.00     0.074 A 
ATOM     48  C   UNL A   1      39.943  28.380  27.860  1.00  0.00     0.031 C 
ATOM     49  C   UNL A   1      38.018  32.301  33.211  1.00  0.00     0.029 A 
ATOM     50  C   UNL A   1      39.221  31.503  33.419  1.00  0.00     0.049 A 
ATOM     51  H   UNL A   1      40.192  30.297  32.023  1.00  0.00     0.167 HD
ATOM     52  C   UNL A   1      41.875  27.451  29.107  1.00  0.00     0.034 A 
ATOM     53  C   UNL A   1      39.915  31.418  34.572  1.00  0.00     0.034 A 
ATOM     54  C   UNL A   1      42.739  27.384  30.257  1.00  0.00     0.049 A 
ATOM     55  C   UNL A   1      41.129  30.522  34.627  1.00  0.00     0.074 A 
ATOM     56  C   UNL A   1      43.911  26.664  30.411  1.00  0.00     0.029 A 
ATOM     57  N   UNL A   1      42.529  28.064  31.448  1.00  0.00    -0.354 N 
ATOM     58  N   UNL A   1      41.627  29.749  33.689  1.00  0.00    -0.248 NA
ATOM     59  C   UNL A   1      41.880  30.493  35.889  1.00  0.00     0.031 C 
ATOM     60  C   UNL A   1      44.380  26.866  31.713  1.00  0.00     0.029 A 
ATOM     61  C   UNL A   1      43.537  27.763  32.349  1.00  0.00     0.049 A 
ATOM     62  H   UNL A   1      41.774  28.670  31.628  1.00  0.00     0.167 HD
ATOM     63  C   UNL A   1      42.773  29.179  34.238  1.00  0.00     0.074 A 
ATOM     64  C   UNL A   1      42.894  29.699  35.583  1.00  0.00     0.031 C 
ATOM     65  C   UNL A   1      43.649  28.307  33.680  1.00  0.00     0.034 A 
BRANCH  52  66
ATOM     66  C   UNL A   1      42.172  26.561  27.928  1.00  0.00     0.023 A 
ATOM     67  C   UNL A   1      41.875  25.187  27.941  1.00  0.00     0.031 A 
ATOM     68  C   UNL A   1      42.764  27.097  26.770  1.00  0.00     0.131 A 
ATOM     69  C   UNL A   1      42.226  24.385  26.846  1.00  0.00     0.055 A 
ATOM     70  C   UNL A   1      43.044  26.306  25.654  1.00  0.00     0.041 A 
ATOM     71  F   UNL A   1      43.088  28.398  26.708  1.00  0.00    -0.206 F 
ATOM     72  C   UNL A   1      42.785  24.939  25.692  1.00  0.00     0.022 A 
BRANCH  69  73
ATOM     73  S   UNL A   1      42.044  22.588  26.994  1.00  0.00     0.124 S 
ATOM     74  O   UNL A   1      41.909  22.424  28.439  1.00  0.00    -0.237 OA
ATOM     75  O   UNL A   1      40.843  22.326  26.208  1.00  0.00    -0.237 OA
ATOM     76  O   UNL A   1      43.286  22.069  26.426  1.00  0.00    -0.744 OA
ENDBRANCH  69  73
ENDBRANCH  52  66
BRANCH  53  77
ATOM     77  C   UNL A   1      39.488  32.179  35.783  1.00  0.00     0.023 A 
ATOM     78  C   UNL A   1      38.718  31.563  36.784  1.00  0.00     0.031 A 
ATOM     79  C   UNL A   1      39.774  33.548  35.922  1.00  0.00     0.131 A 
ATOM     80  C   UNL A   1      38.207  32.327  37.844  1.00  0.00     0.055 A 
ATOM     81  C   UNL A   1      39.311  34.292  37.011  1.00  0.00     0.041 A 
ATOM     82  F   UNL A   1      40.510  34.187  34.999  1.00  0.00    -0.206 F 
ATOM     83  C   UNL A   1      38.506  33.684  37.970  1.00  0.00     0.022 A 
BRANCH  80  84
ATOM     84  S   UNL A   1      37.041  31.543  38.992  1.00  0.00     0.124 S 
ATOM     85  O   UNL A   1      35.880  32.421  38.883  1.00  0.00    -0.237 OA
ATOM     86  O   UNL A   1      36.896  30.212  38.412  1.00  0.00    -0.237 OA
ATOM     87  O   UNL A   1      37.741  31.590  40.273  1.00  0.00    -0.744 OA
ENDBRANCH  80  84
ENDBRANCH  53  77
BRANCH  65  88
ATOM     88  C   UNL A   1      44.856  27.926  34.499  1.00  0.00     0.023 A 
ATOM     89  C   UNL A   1      44.859  26.797  35.333  1.00  0.00     0.031 A 
ATOM     90  C   UNL A   1      46.022  28.709  34.431  1.00  0.00     0.131 A 
ATOM     91  C   UNL A   1      45.996  26.505  36.104  1.00  0.00     0.055 A 
ATOM     92  C   UNL A   1      47.166  28.385  35.160  1.00  0.00     0.041 A 
ATOM     93  F   UNL A   1      46.069  29.797  33.647  1.00  0.00    -0.206 F 
ATOM     94  C   UNL A   1      47.154  27.282  36.010  1.00  0.00     0.022 A 
BRANCH  91  95
ATOM     95  S   UNL A   1      45.920  25.128  37.283  1.00  0.00     0.124 S 
ATOM     96  O   UNL A   1      47.020  24.283  36.832  1.00  0.00    -0.237 OA
ATOM     97  O   UNL A   1      46.116  25.801  38.563  1.00  0.00    -0.237 OA
ATOM     98  O   UNL A   1      44.584  24.573  37.076  1.00  0.00    -0.744 OA
ENDBRANCH  91  95
ENDBRANCH  65  88
ENDBRANCH  39  40
ENDBRANCH  31  34
ENDBRANCH  29  30
ENDBRANCH  28  29
ENDBRANCH  27  28
ENDBRANCH   1  27
TORSDOF 20
ENDMDL
MODEL 3
REMARK VINA RESULT:     -11.5      5.383     11.464
REMARK SMILES O=C(CCc1nc(-c2ccccc2)c(-c2ccccc2)o1)NCCCCCCNC(=O)c1ccc(-c2c3nc(c(-c4cc(S(=O)(=O)[O-])ccc4F)c4ccc([nH]4)c(-c4cc(S(=O)(=O)[O-])ccc4F)c4nc(c(-c5cc(S(=O)(=O)[O-])ccc5F)c5ccc2[nH]5)C=C4)C=C3)cc1
REMARK SMILES IDX 25 1 24 2 23 3 22 4 1 5 2 6 3 8 4 9 5 10 6 11 21 12 7 13
REMARK SMILES IDX 14 14 8 15 9 16 13 17 10 18 12 19 11 20 15 21 16 22 20 23
REMARK SMILES IDX 17 24 19 25 18 26 26 27 27 28 28 29 29 30 30 31 31 33 32 34
REMARK SMILES IDX 33 35 94 36 34 37 93 38 35 39 36 40 37 41 87 42 38 43 92 44
REMARK SMILES IDX 86 45 88 46 39 47 91 48 85 49 84 50 40 52 72 53 52 54 71 55
REMARK SMILES IDX 53 56 56 57 70 58 89 59 54 60 55 61 69 63 90 64 57 65 41 66
REMARK SMILES IDX 42 67 50 68 43 69 49 70 51 71 48 72 44 73 45 74 46 75 47 76
REMARK SMILES IDX 73 77 74 78 82 79 75 80 81 81 83 82 80 83 76 84 77 85 78 86
REMARK SMILES IDX 79 87 58 88 59 89 67 90 60 91 66 92 68 93 65 94 61 95 62 96
REMARK SMILES IDX 63 97 64 98
REMARK H PARENT 22 7 29 32 88 51 56 62
REMARK Flexibility Score: inf
ROOT
ATOM      1  C   UNL A   1      35.453  22.213  24.469  1.00  0.00     0.002 C 
ENDROOT
BRANCH   1   2
ATOM      2  C   UNL A   1      34.867  20.844  24.842  1.00  0.00     0.021 C 
BRANCH   2   3
ATOM      3  C   UNL A   1      34.033  20.826  26.126  1.00  0.00     0.116 C 
BRANCH   3   4
ATOM      4  N   UNL A   1      32.756  21.485  25.937  1.00  0.00    -0.356 N 
ATOM      5  O   UNL A   1      33.309  23.487  26.921  1.00  0.00    -0.275 OA
ATOM      6  C   UNL A   1      32.492  22.763  26.364  1.00  0.00     0.220 C 
ATOM      7  H   UNL A   1      32.039  20.990  25.479  1.00  0.00     0.163 HD
BRANCH   6   8
ATOM      8  C   UNL A   1      31.064  23.209  26.123  1.00  0.00     0.110 C 
BRANCH   8   9
ATOM      9  C   UNL A   1      30.788  23.545  24.663  1.00  0.00     0.107 C 
BRANCH   9  10
ATOM     10  C   UNL A   1      30.703  25.008  24.414  1.00  0.00     0.196 A 
ATOM     11  N   UNL A   1      29.911  25.648  23.580  1.00  0.00    -0.213 NA
ATOM     12  O   UNL A   1      31.478  25.821  25.199  1.00  0.00    -0.440 OA
ATOM     13  C   UNL A   1      30.192  26.978  23.805  1.00  0.00     0.117 A 
ATOM     14  C   UNL A   1      31.125  27.093  24.820  1.00  0.00     0.162 A 
BRANCH  13  15
ATOM     15  C   UNL A   1      29.513  28.061  23.116  1.00  0.00     0.004 A 
ATOM     16  C   UNL A   1      30.210  28.972  22.310  1.00  0.00     0.010 A 
ATOM     17  C   UNL A   1      28.131  28.226  23.280  1.00  0.00     0.010 A 
ATOM     18  C   UNL A   1      29.548  30.058  21.733  1.00  0.00     0.001 A 
ATOM     19  C   UNL A   1      27.473  29.321  22.717  1.00  0.00     0.001 A 
ATOM     20  C   UNL A   1      28.185  30.242  21.951  1.00  0.00     0.000 A 
ENDBRANCH  13  15
BRANCH  14  21
ATOM     21  C   UNL A   1      31.704  28.181  25.590  1.00  0.00     0.020 A 
ATOM     22  C   UNL A   1      31.403  29.516  25.310  1.00  0.00     0.012 A 
ATOM     23  C   UNL A   1      32.551  27.898  26.670  1.00  0.00     0.012 A 
ATOM     24  C   UNL A   1      31.924  30.539  26.110  1.00  0.00     0.001 A 
ATOM     25  C   UNL A   1      33.082  28.915  27.464  1.00  0.00     0.001 A 
ATOM     26  C   UNL A   1      32.761  30.239  27.185  1.00  0.00     0.000 A 
ENDBRANCH  14  21
ENDBRANCH   9  10
ENDBRANCH   8   9
ENDBRANCH   6   8
ENDBRANCH   3   4
ENDBRANCH   2   3
ENDBRANCH   1   2
BRANCH   1  27
ATOM     27  C   UNL A   1      36.935  22.380  24.803  1.00  0.00     0.002 C 
BRANCH  27  28
ATOM     28  C   UNL A   1      37.718  21.091  25.010  1.00  0.00     0.021 C 
BRANCH  28  29
ATOM     29  C   UNL A   1      39.008  21.257  25.805  1.00  0.00     0.116 C 
BRANCH  29  30
ATOM     30  N   UNL A   1      39.820  20.046  25.854  1.00  0.00    -0.352 N 
ATOM     31  C   UNL A   1      41.171  19.925  26.078  1.00  0.00     0.251 C 
ATOM     32  H   UNL A   1      39.334  19.202  25.709  1.00  0.00     0.163 HD
ATOM     33  O   UNL A   1      41.721  18.832  25.983  1.00  0.00    -0.269 OA
BRANCH  31  34
ATOM     34  C   UNL A   1      41.955  21.138  26.391  1.00  0.00     0.039 A 
ATOM     35  C   UNL A   1      42.302  22.015  25.360  1.00  0.00     0.014 A 
ATOM     36  C   UNL A   1      42.277  21.442  27.716  1.00  0.00     0.014 A 
ATOM     37  C   UNL A   1      42.891  23.243  25.670  1.00  0.00     0.010 A 
ATOM     38  C   UNL A   1      42.787  22.697  28.027  1.00  0.00     0.010 A 
ATOM     39  C   UNL A   1      43.094  23.614  27.008  1.00  0.00    -0.014 A 
BRANCH  39  40
ATOM     40  C   UNL A   1      43.630  24.949  27.387  1.00  0.00     0.031 A 
ATOM     41  C   UNL A   1      42.696  25.984  27.953  1.00  0.00     0.074 A 
ATOM     42  C   UNL A   1      44.914  25.263  27.120  1.00  0.00     0.049 A 
ATOM     43  N   UNL A   1      42.905  27.255  28.178  1.00  0.00    -0.248 NA
ATOM     44  C   UNL A   1      41.330  25.535  28.269  1.00  0.00     0.031 C 
ATOM     45  C   UNL A   1      45.907  24.356  26.535  1.00  0.00     0.029 A 
ATOM     46  N   UNL A   1      45.602  26.439  27.281  1.00  0.00    -0.354 N 
ATOM     47  C   UNL A   1      41.690  27.765  28.620  1.00  0.00     0.074 A 
ATOM     48  C   UNL A   1      40.740  26.674  28.595  1.00  0.00     0.031 C 
ATOM     49  C   UNL A   1      47.074  25.007  26.401  1.00  0.00     0.029 A 
ATOM     50  C   UNL A   1      46.905  26.389  26.838  1.00  0.00     0.049 A 
ATOM     51  H   UNL A   1      45.200  27.246  27.678  1.00  0.00     0.167 HD
ATOM     52  C   UNL A   1      41.399  29.027  29.024  1.00  0.00     0.034 A 
ATOM     53  C   UNL A   1      47.846  27.352  26.769  1.00  0.00     0.034 A 
ATOM     54  C   UNL A   1      42.369  30.088  29.093  1.00  0.00     0.049 A 
ATOM     55  C   UNL A   1      47.498  28.743  27.242  1.00  0.00     0.074 A 
ATOM     56  C   UNL A   1      42.202  31.377  29.567  1.00  0.00     0.029 A 
ATOM     57  N   UNL A   1      43.690  29.984  28.679  1.00  0.00    -0.354 N 
ATOM     58  N   UNL A   1      46.356  29.195  27.708  1.00  0.00    -0.248 NA
ATOM     59  C   UNL A   1      48.566  29.751  27.191  1.00  0.00     0.031 C 
ATOM     60  C   UNL A   1      43.405  32.068  29.391  1.00  0.00     0.029 A 
ATOM     61  C   UNL A   1      44.342  31.192  28.868  1.00  0.00     0.049 A 
ATOM     62  H   UNL A   1      44.103  29.172  28.306  1.00  0.00     0.167 HD
ATOM     63  C   UNL A   1      46.586  30.528  28.044  1.00  0.00     0.074 A 
ATOM     64  C   UNL A   1      47.972  30.803  27.733  1.00  0.00     0.031 C 
ATOM     65  C   UNL A   1      45.730  31.440  28.568  1.00  0.00     0.034 A 
BRANCH  52  66
ATOM     66  C   UNL A   1      39.971  29.329  29.400  1.00  0.00     0.023 A 
ATOM     67  C   UNL A   1      39.574  29.492  30.738  1.00  0.00     0.031 A 
ATOM     68  C   UNL A   1      38.989  29.456  28.400  1.00  0.00     0.131 A 
ATOM     69  C   UNL A   1      38.224  29.711  31.046  1.00  0.00     0.055 A 
ATOM     70  C   UNL A   1      37.659  29.747  28.709  1.00  0.00     0.041 A 
ATOM     71  F   UNL A   1      39.306  29.291  27.107  1.00  0.00    -0.206 F 
ATOM     72  C   UNL A   1      37.267  29.866  30.039  1.00  0.00     0.022 A 
BRANCH  69  73
ATOM     73  S   UNL A   1      37.714  29.681  32.785  1.00  0.00     0.124 S 
ATOM     74  O   UNL A   1      37.424  28.262  32.982  1.00  0.00    -0.237 OA
ATOM     75  O   UNL A   1      38.897  30.191  33.470  1.00  0.00    -0.237 OA
ATOM     76  O   UNL A   1      36.547  30.560  32.816  1.00  0.00    -0.744 OA
ENDBRANCH  69  73
ENDBRANCH  52  66
BRANCH  53  77
ATOM     77  C   UNL A   1      49.203  27.062  26.221  1.00  0.00     0.023 A 
ATOM     78  C   UNL A   1      49.611  27.602  24.990  1.00  0.00     0.031 A 
ATOM     79  C   UNL A   1      50.082  26.183  26.877  1.00  0.00     0.131 A 
ATOM     80  C   UNL A   1      50.832  27.208  24.422  1.00  0.00     0.055 A 
ATOM     81  C   UNL A   1      51.323  25.839  26.335  1.00  0.00     0.041 A 
ATOM     82  F   UNL A   1      49.746  25.642  28.058  1.00  0.00    -0.206 F 
ATOM     83  C   UNL A   1      51.695  26.339  25.091  1.00  0.00     0.022 A 
BRANCH  80  84
ATOM     84  S   UNL A   1      51.220  27.757  22.737  1.00  0.00     0.124 S 
ATOM     85  O   UNL A   1      51.651  26.511  22.111  1.00  0.00    -0.237 OA
ATOM     86  O   UNL A   1      49.936  28.289  22.291  1.00  0.00    -0.237 OA
ATOM     87  O   UNL A   1      52.271  28.752  22.936  1.00  0.00    -0.744 OA
ENDBRANCH  80  84
ENDBRANCH  53  77
BRANCH  65  88
ATOM     88  C   UNL A   1      46.294  32.796  28.907  1.00  0.00     0.023 A 
ATOM     89  C   UNL A   1      46.180  33.888  28.031  1.00  0.00     0.031 A 
ATOM     90  C   UNL A   1      46.949  32.993  30.136  1.00  0.00     0.131 A 
ATOM     91  C   UNL A   1      46.755  35.120  28.378  1.00  0.00     0.055 A 
ATOM     92  C   UNL A   1      47.472  34.233  30.498  1.00  0.00     0.041 A 
ATOM     93  F   UNL A   1      47.082  31.981  31.008  1.00  0.00    -0.206 F 
ATOM     94  C   UNL A   1      47.385  35.304  29.612  1.00  0.00     0.022 A 
BRANCH  91  95
ATOM     95  S   UNL A   1      46.722  36.469  27.166  1.00  0.00     0.124 S 
ATOM     96  O   UNL A   1      45.462  36.224  26.472  1.00  0.00    -0.237 OA
ATOM     97  O   UNL A   1      46.761  37.655  28.016  1.00  0.00    -0.237 OA
ATOM     98  O   UNL A   1      47.926  36.242  26.368  1.00  0.00    -0.744 OA
ENDBRANCH  91  95
ENDBRANCH  65  88
ENDBRANCH  39  40
ENDBRANCH  31  34
ENDBRANCH  29  30
ENDBRANCH  28  29
ENDBRANCH  27  28
ENDBRANCH   1  27
TORSDOF 20
ENDMDL
