MODEL 1
REMARK VINA RESULT:     -10.1      0.000      0.000
REMARK SMILES CSCC[C@@H](C(=O)NCCCCCCNC(=O)c1ccc(-c2c3nc(c(-c4cc(S(=O)(=O)[O-])ccc4F)c4ccc([nH]4)c(-c4cc(S(=O)(=O)[O-])ccc4F)c4nc(c(-c5cc(S(=O)(=O)[O-])ccc5F)c5ccc2[nH]5)C=C4)C=C3)cc1)N1C(=O)/C(=C/c2ccc(Cl)cc2Cl)SC1=S
REMARK SMILES IDX 11 1 10 2 9 3 8 4 6 5 7 6 5 8 4 9 3 10 2 11 1 12 81 13 82 14
REMARK SMILES IDX 95 15 83 16 84 17 94 18 96 19 85 20 86 21 87 22 92 23 88 24
REMARK SMILES IDX 91 25 93 26 89 27 90 28 12 29 13 30 14 31 15 32 16 33 17 35
REMARK SMILES IDX 18 36 19 37 80 38 20 39 79 40 21 41 22 42 23 43 73 44 24 45
REMARK SMILES IDX 78 46 72 47 74 48 25 49 77 50 71 51 70 52 26 54 58 55 38 56
REMARK SMILES IDX 57 57 39 58 42 59 56 60 75 61 40 62 41 63 55 65 76 66 43 67
REMARK SMILES IDX 27 68 28 69 36 70 29 71 35 72 37 73 34 74 30 75 31 76 32 77
REMARK SMILES IDX 33 78 59 79 60 80 68 81 61 82 67 83 69 84 66 85 62 86 63 87
REMARK SMILES IDX 64 88 65 89 44 90 45 91 53 92 46 93 52 94 54 95 51 96 47 97
REMARK SMILES IDX 48 98 49 99 50 100
REMARK H PARENT 8 7 15 34 74 53 42 64
REMARK Flexibility Score: inf
ROOT
ATOM      1  C   UNL A   1      39.011  33.889  32.788  1.00  0.00     0.002 C 
ENDROOT
BRANCH   1   2
ATOM      2  C   UNL A   1      38.080  34.337  31.661  1.00  0.00     0.021 C 
BRANCH   2   3
ATOM      3  C   UNL A   1      37.647  33.178  30.759  1.00  0.00     0.116 C 
BRANCH   3   4
ATOM      4  N   UNL A   1      36.242  32.908  30.953  1.00  0.00    -0.354 N 
ATOM      5  C   UNL A   1      35.193  32.966  30.089  1.00  0.00     0.243 C 
ATOM      6  O   UNL A   1      34.070  32.860  30.597  1.00  0.00    -0.273 OA
ATOM      7  H   UNL A   1      36.002  32.635  31.867  1.00  0.00     0.163 HD
BRANCH   5   8
ATOM      8  C   UNL A   1      35.386  33.084  28.547  1.00  0.00     0.182 C 
BRANCH   8   9
ATOM      9  C   UNL A   1      34.644  34.236  27.844  1.00  0.00     0.046 C 
BRANCH   9  10
ATOM     10  C   UNL A   1      34.453  35.607  28.496  1.00  0.00     0.072 C 
BRANCH  10  11
ATOM     11  S   UNL A   1      32.859  35.963  29.311  1.00  0.00    -0.165 SA
ATOM     12  C   UNL A   1      33.310  37.063  30.670  1.00  0.00     0.085 C 
ENDBRANCH  10  11
ENDBRANCH   9  10
ENDBRANCH   8   9
BRANCH   8  13
ATOM     13  N   UNL A   1      34.972  31.718  28.055  1.00  0.00    -0.280 N 
ATOM     14  C   UNL A   1      33.695  31.620  27.504  1.00  0.00     0.266 C 
ATOM     15  C   UNL A   1      35.783  30.608  27.862  1.00  0.00     0.149 C 
ATOM     16  O   UNL A   1      32.861  32.511  27.463  1.00  0.00    -0.268 OA
ATOM     17  C   UNL A   1      33.465  30.264  26.928  1.00  0.00     0.081 C 
ATOM     18  S   UNL A   1      34.865  29.300  27.122  1.00  0.00    -0.054 SA
ATOM     19  S   UNL A   1      37.395  30.338  28.212  1.00  0.00    -0.052 S 
ATOM     20  C   UNL A   1      32.309  29.885  26.363  1.00  0.00     0.031 C 
BRANCH  20  21
ATOM     21  C   UNL A   1      32.022  28.509  25.918  1.00  0.00    -0.006 A 
ATOM     22  C   UNL A   1      31.317  27.647  26.771  1.00  0.00     0.011 A 
ATOM     23  C   UNL A   1      32.413  28.036  24.650  1.00  0.00     0.049 A 
ATOM     24  C   UNL A   1      31.003  26.345  26.361  1.00  0.00     0.021 A 
ATOM     25  C   UNL A   1      32.090  26.742  24.237  1.00  0.00     0.041 A 
ATOM     26  Cl  UNL A   1      33.321  29.017  23.549  1.00  0.00    -0.084 Cl
ATOM     27  C   UNL A   1      31.388  25.902  25.096  1.00  0.00     0.042 A 
ATOM     28  Cl  UNL A   1      30.998  24.304  24.591  1.00  0.00    -0.084 Cl
ENDBRANCH  20  21
ENDBRANCH   8  13
ENDBRANCH   5   8
ENDBRANCH   3   4
ENDBRANCH   2   3
ENDBRANCH   1   2
BRANCH   1  29
ATOM     29  C   UNL A   1      38.451  34.141  34.194  1.00  0.00     0.002 C 
BRANCH  29  30
ATOM     30  C   UNL A   1      37.352  33.173  34.644  1.00  0.00     0.021 C 
BRANCH  30  31
ATOM     31  C   UNL A   1      37.711  31.694  34.519  1.00  0.00     0.116 C 
BRANCH  31  32
ATOM     32  N   UNL A   1      36.839  31.006  33.579  1.00  0.00    -0.352 N 
ATOM     33  C   UNL A   1      37.157  30.137  32.566  1.00  0.00     0.251 C 
ATOM     34  H   UNL A   1      35.879  31.193  33.685  1.00  0.00     0.163 HD
ATOM     35  O   UNL A   1      36.316  29.863  31.716  1.00  0.00    -0.269 OA
BRANCH  33  36
ATOM     36  C   UNL A   1      38.511  29.549  32.497  1.00  0.00     0.039 A 
ATOM     37  C   UNL A   1      39.610  30.396  32.345  1.00  0.00     0.014 A 
ATOM     38  C   UNL A   1      38.694  28.164  32.569  1.00  0.00     0.014 A 
ATOM     39  C   UNL A   1      40.899  29.858  32.333  1.00  0.00     0.010 A 
ATOM     40  C   UNL A   1      39.981  27.638  32.630  1.00  0.00     0.010 A 
ATOM     41  C   UNL A   1      41.096  28.480  32.515  1.00  0.00    -0.014 A 
BRANCH  41  42
ATOM     42  C   UNL A   1      42.464  27.908  32.612  1.00  0.00     0.031 A 
ATOM     43  C   UNL A   1      43.113  27.707  33.952  1.00  0.00     0.074 A 
ATOM     44  C   UNL A   1      43.144  27.631  31.483  1.00  0.00     0.049 A 
ATOM     45  N   UNL A   1      44.320  27.284  34.234  1.00  0.00    -0.248 NA
ATOM     46  C   UNL A   1      42.307  28.058  35.130  1.00  0.00     0.031 C 
ATOM     47  C   UNL A   1      42.635  27.832  30.124  1.00  0.00     0.029 A 
ATOM     48  N   UNL A   1      44.409  27.135  31.292  1.00  0.00    -0.354 N 
ATOM     49  C   UNL A   1      44.419  27.320  35.620  1.00  0.00     0.074 A 
ATOM     50  C   UNL A   1      43.176  27.877  36.112  1.00  0.00     0.031 C 
ATOM     51  C   UNL A   1      43.571  27.447  29.242  1.00  0.00     0.029 A 
ATOM     52  C   UNL A   1      44.763  27.022  29.968  1.00  0.00     0.049 A 
ATOM     53  H   UNL A   1      45.007  26.887  32.033  1.00  0.00     0.167 HD
ATOM     54  C   UNL A   1      45.441  26.900  36.409  1.00  0.00     0.034 A 
ATOM     55  C   UNL A   1      45.924  26.639  29.400  1.00  0.00     0.034 A 
ATOM     56  C   UNL A   1      46.678  26.359  35.895  1.00  0.00     0.049 A 
ATOM     57  C   UNL A   1      47.065  26.223  30.290  1.00  0.00     0.074 A 
ATOM     58  C   UNL A   1      47.759  25.859  36.597  1.00  0.00     0.029 A 
ATOM     59  N   UNL A   1      47.007  26.267  34.547  1.00  0.00    -0.354 N 
ATOM     60  N   UNL A   1      47.123  26.200  31.601  1.00  0.00    -0.248 NA
ATOM     61  C   UNL A   1      48.293  25.773  29.623  1.00  0.00     0.031 C 
ATOM     62  C   UNL A   1      48.770  25.542  35.681  1.00  0.00     0.029 A 
ATOM     63  C   UNL A   1      48.291  25.760  34.400  1.00  0.00     0.049 A 
ATOM     64  H   UNL A   1      46.414  26.524  33.803  1.00  0.00     0.167 HD
ATOM     65  C   UNL A   1      48.390  25.716  31.917  1.00  0.00     0.074 A 
ATOM     66  C   UNL A   1      49.051  25.440  30.657  1.00  0.00     0.031 C 
ATOM     67  C   UNL A   1      48.952  25.518  33.137  1.00  0.00     0.034 A 
BRANCH  54  68
ATOM     68  C   UNL A   1      45.262  27.044  37.905  1.00  0.00     0.023 A 
ATOM     69  C   UNL A   1      45.674  28.205  38.585  1.00  0.00     0.031 A 
ATOM     70  C   UNL A   1      44.729  25.993  38.671  1.00  0.00     0.131 A 
ATOM     71  C   UNL A   1      45.643  28.247  39.988  1.00  0.00     0.055 A 
ATOM     72  C   UNL A   1      44.608  26.080  40.060  1.00  0.00     0.041 A 
ATOM     73  F   UNL A   1      44.336  24.851  38.085  1.00  0.00    -0.206 F 
ATOM     74  C   UNL A   1      45.087  27.203  40.729  1.00  0.00     0.022 A 
BRANCH  71  75
ATOM     75  S   UNL A   1      46.510  29.600  40.829  1.00  0.00     0.124 S 
ATOM     76  O   UNL A   1      45.828  29.626  42.123  1.00  0.00    -0.237 OA
ATOM     77  O   UNL A   1      47.889  29.131  40.843  1.00  0.00    -0.237 OA
ATOM     78  O   UNL A   1      46.250  30.757  39.975  1.00  0.00    -0.744 OA
ENDBRANCH  71  75
ENDBRANCH  54  68
BRANCH  55  79
ATOM     79  C   UNL A   1      46.067  26.662  27.916  1.00  0.00     0.023 A 
ATOM     80  C   UNL A   1      45.961  25.488  27.155  1.00  0.00     0.031 A 
ATOM     81  C   UNL A   1      46.316  27.869  27.238  1.00  0.00     0.131 A 
ATOM     82  C   UNL A   1      46.133  25.542  25.761  1.00  0.00     0.055 A 
ATOM     83  C   UNL A   1      46.436  27.925  25.849  1.00  0.00     0.041 A 
ATOM     84  F   UNL A   1      46.420  29.022  27.919  1.00  0.00    -0.206 F 
ATOM     85  C   UNL A   1      46.353  26.754  25.103  1.00  0.00     0.022 A 
BRANCH  82  86
ATOM     86  S   UNL A   1      46.124  23.990  24.823  1.00  0.00     0.124 S 
ATOM     87  O   UNL A   1      47.145  24.247  23.814  1.00  0.00    -0.237 OA
ATOM     88  O   UNL A   1      46.466  23.012  25.849  1.00  0.00    -0.237 OA
ATOM     89  O   UNL A   1      44.754  23.906  24.318  1.00  0.00    -0.744 OA
ENDBRANCH  82  86
ENDBRANCH  55  79
BRANCH  67  90
ATOM     90  C   UNL A   1      50.354  24.953  33.160  1.00  0.00     0.023 A 
ATOM     91  C   UNL A   1      50.596  23.573  33.044  1.00  0.00     0.031 A 
ATOM     92  C   UNL A   1      51.460  25.806  33.311  1.00  0.00     0.131 A 
ATOM     93  C   UNL A   1      51.907  23.083  33.138  1.00  0.00     0.055 A 
ATOM     94  C   UNL A   1      52.768  25.319  33.336  1.00  0.00     0.041 A 
ATOM     95  F   UNL A   1      51.290  27.132  33.433  1.00  0.00    -0.206 F 
ATOM     96  C   UNL A   1      52.997  23.948  33.262  1.00  0.00     0.022 A 
BRANCH  93  97
ATOM     97  S   UNL A   1      52.164  21.288  33.194  1.00  0.00     0.124 S 
ATOM     98  O   UNL A   1      52.776  21.110  34.507  1.00  0.00    -0.237 OA
ATOM     99  O   UNL A   1      50.807  20.773  33.046  1.00  0.00    -0.237 OA
ATOM    100  O   UNL A   1      53.049  21.033  32.058  1.00  0.00    -0.744 OA
ENDBRANCH  93  97
ENDBRANCH  67  90
ENDBRANCH  41  42
ENDBRANCH  33  36
ENDBRANCH  31  32
ENDBRANCH  30  31
ENDBRANCH  29  30
ENDBRANCH   1  29
TORSDOF 21
ENDMDL
MODEL 2
REMARK VINA RESULT:      -9.9      0.399      7.466
REMARK SMILES CSCC[C@@H](C(=O)NCCCCCCNC(=O)c1ccc(-c2c3nc(c(-c4cc(S(=O)(=O)[O-])ccc4F)c4ccc([nH]4)c(-c4cc(S(=O)(=O)[O-])ccc4F)c4nc(c(-c5cc(S(=O)(=O)[O-])ccc5F)c5ccc2[nH]5)C=C4)C=C3)cc1)N1C(=O)/C(=C/c2ccc(Cl)cc2Cl)SC1=S
REMARK SMILES IDX 11 1 10 2 9 3 8 4 6 5 7 6 5 8 4 9 3 10 2 11 1 12 81 13 82 14
REMARK SMILES IDX 95 15 83 16 84 17 94 18 96 19 85 20 86 21 87 22 92 23 88 24
REMARK SMILES IDX 91 25 93 26 89 27 90 28 12 29 13 30 14 31 15 32 16 33 17 35
REMARK SMILES IDX 18 36 19 37 80 38 20 39 79 40 21 41 22 42 23 43 73 44 24 45
REMARK SMILES IDX 78 46 72 47 74 48 25 49 77 50 71 51 70 52 26 54 58 55 38 56
REMARK SMILES IDX 57 57 39 58 42 59 56 60 75 61 40 62 41 63 55 65 76 66 43 67
REMARK SMILES IDX 27 68 28 69 36 70 29 71 35 72 37 73 34 74 30 75 31 76 32 77
REMARK SMILES IDX 33 78 59 79 60 80 68 81 61 82 67 83 69 84 66 85 62 86 63 87
REMARK SMILES IDX 64 88 65 89 44 90 45 91 53 92 46 93 52 94 54 95 51 96 47 97
REMARK SMILES IDX 48 98 49 99 50 100
REMARK H PARENT 8 7 15 34 74 53 42 64
REMARK Flexibility Score: inf
ROOT
ATOM      1  C   UNL A   1      38.980  34.033  32.705  1.00  0.00     0.002 C 
ENDROOT
BRANCH   1   2
ATOM      2  C   UNL A   1      38.258  34.491  31.437  1.00  0.00     0.021 C 
BRANCH   2   3
ATOM      3  C   UNL A   1      37.836  33.322  30.544  1.00  0.00     0.116 C 
BRANCH   3   4
ATOM      4  N   UNL A   1      36.483  32.929  30.862  1.00  0.00    -0.354 N 
ATOM      5  C   UNL A   1      35.356  32.910  30.100  1.00  0.00     0.243 C 
ATOM      6  O   UNL A   1      34.299  32.700  30.709  1.00  0.00    -0.273 OA
ATOM      7  H   UNL A   1      36.355  32.622  31.788  1.00  0.00     0.163 HD
BRANCH   5   8
ATOM      8  C   UNL A   1      35.392  33.066  28.551  1.00  0.00     0.182 C 
BRANCH   8   9
ATOM      9  C   UNL A   1      34.551  34.210  27.952  1.00  0.00     0.046 C 
BRANCH   9  10
ATOM     10  C   UNL A   1      34.370  35.552  28.663  1.00  0.00     0.072 C 
BRANCH  10  11
ATOM     11  S   UNL A   1      32.880  35.795  29.689  1.00  0.00    -0.165 SA
ATOM     12  C   UNL A   1      33.368  37.086  30.853  1.00  0.00     0.085 C 
ENDBRANCH  10  11
ENDBRANCH   9  10
ENDBRANCH   8   9
BRANCH   8  13
ATOM     13  N   UNL A   1      34.971  31.699  28.068  1.00  0.00    -0.280 N 
ATOM     14  C   UNL A   1      33.692  31.603  27.520  1.00  0.00     0.266 C 
ATOM     15  C   UNL A   1      35.775  30.583  27.882  1.00  0.00     0.149 C 
ATOM     16  O   UNL A   1      32.863  32.498  27.475  1.00  0.00    -0.268 OA
ATOM     17  C   UNL A   1      33.455  30.245  26.953  1.00  0.00     0.081 C 
ATOM     18  S   UNL A   1      34.850  29.275  27.152  1.00  0.00    -0.054 SA
ATOM     19  S   UNL A   1      37.387  30.309  28.231  1.00  0.00    -0.052 S 
ATOM     20  C   UNL A   1      32.297  29.868  26.393  1.00  0.00     0.031 C 
BRANCH  20  21
ATOM     21  C   UNL A   1      32.001  28.490  25.958  1.00  0.00    -0.006 A 
ATOM     22  C   UNL A   1      31.372  27.610  26.850  1.00  0.00     0.011 A 
ATOM     23  C   UNL A   1      32.312  28.034  24.662  1.00  0.00     0.049 A 
ATOM     24  C   UNL A   1      31.052  26.306  26.452  1.00  0.00     0.021 A 
ATOM     25  C   UNL A   1      31.981  26.736  24.261  1.00  0.00     0.041 A 
ATOM     26  Cl  UNL A   1      33.124  29.037  23.508  1.00  0.00    -0.084 Cl
ATOM     27  C   UNL A   1      31.355  25.879  25.160  1.00  0.00     0.042 A 
ATOM     28  Cl  UNL A   1      30.957  24.278  24.670  1.00  0.00    -0.084 Cl
ENDBRANCH  20  21
ENDBRANCH   8  13
ENDBRANCH   5   8
ENDBRANCH   3   4
ENDBRANCH   2   3
ENDBRANCH   1   2
BRANCH   1  29
ATOM     29  C   UNL A   1      38.207  34.319  33.999  1.00  0.00     0.002 C 
BRANCH  29  30
ATOM     30  C   UNL A   1      37.138  33.284  34.365  1.00  0.00     0.021 C 
BRANCH  30  31
ATOM     31  C   UNL A   1      37.607  31.831  34.310  1.00  0.00     0.116 C 
BRANCH  31  32
ATOM     32  N   UNL A   1      36.772  31.029  33.431  1.00  0.00    -0.352 N 
ATOM     33  C   UNL A   1      37.133  30.112  32.476  1.00  0.00     0.251 C 
ATOM     34  H   UNL A   1      35.803  31.164  33.536  1.00  0.00     0.163 HD
ATOM     35  O   UNL A   1      36.303  29.730  31.657  1.00  0.00    -0.269 OA
BRANCH  33  36
ATOM     36  C   UNL A   1      38.520  29.604  32.430  1.00  0.00     0.039 A 
ATOM     37  C   UNL A   1      39.569  30.512  32.274  1.00  0.00     0.014 A 
ATOM     38  C   UNL A   1      38.783  28.234  32.528  1.00  0.00     0.014 A 
ATOM     39  C   UNL A   1      40.888  30.050  32.283  1.00  0.00     0.010 A 
ATOM     40  C   UNL A   1      40.098  27.785  32.611  1.00  0.00     0.010 A 
ATOM     41  C   UNL A   1      41.163  28.690  32.492  1.00  0.00    -0.014 A 
BRANCH  41  42
ATOM     42  C   UNL A   1      42.561  28.201  32.612  1.00  0.00     0.031 A 
ATOM     43  C   UNL A   1      43.355  27.853  31.385  1.00  0.00     0.074 A 
ATOM     44  C   UNL A   1      43.090  28.009  33.837  1.00  0.00     0.049 A 
ATOM     45  N   UNL A   1      44.560  27.351  31.292  1.00  0.00    -0.248 NA
ATOM     46  C   UNL A   1      42.691  28.071  30.092  1.00  0.00     0.031 C 
ATOM     47  C   UNL A   1      42.396  28.265  35.101  1.00  0.00     0.029 A 
ATOM     48  N   UNL A   1      44.322  27.545  34.223  1.00  0.00    -0.354 N 
ATOM     49  C   UNL A   1      44.800  27.190  29.932  1.00  0.00     0.074 A 
ATOM     50  C   UNL A   1      43.585  27.579  29.247  1.00  0.00     0.031 C 
ATOM     51  C   UNL A   1      43.218  27.972  36.121  1.00  0.00     0.029 A 
ATOM     52  C   UNL A   1      44.476  27.459  35.587  1.00  0.00     0.049 A 
ATOM     53  H   UNL A   1      45.028  27.296  33.584  1.00  0.00     0.167 HD
ATOM     54  C   UNL A   1      45.937  26.784  29.312  1.00  0.00     0.034 A 
ATOM     55  C   UNL A   1      45.504  26.999  36.326  1.00  0.00     0.034 A 
ATOM     56  C   UNL A   1      47.134  26.388  30.018  1.00  0.00     0.049 A 
ATOM     57  C   UNL A   1      46.740  26.506  35.623  1.00  0.00     0.074 A 
ATOM     58  C   UNL A   1      48.357  26.006  29.496  1.00  0.00     0.029 A 
ATOM     59  N   UNL A   1      47.252  26.303  31.400  1.00  0.00    -0.354 N 
ATOM     60  N   UNL A   1      46.978  26.420  34.334  1.00  0.00    -0.248 NA
ATOM     61  C   UNL A   1      47.849  26.056  36.473  1.00  0.00     0.031 C 
ATOM     62  C   UNL A   1      49.184  25.614  30.556  1.00  0.00     0.029 A 
ATOM     63  C   UNL A   1      48.511  25.833  31.747  1.00  0.00     0.049 A 
ATOM     64  H   UNL A   1      46.544  26.543  32.042  1.00  0.00     0.167 HD
ATOM     65  C   UNL A   1      48.273  25.921  34.219  1.00  0.00     0.074 A 
ATOM     66  C   UNL A   1      48.770  25.748  35.570  1.00  0.00     0.031 C 
ATOM     67  C   UNL A   1      48.985  25.635  33.098  1.00  0.00     0.034 A 
BRANCH  54  68
ATOM     68  C   UNL A   1      45.915  26.722  27.800  1.00  0.00     0.023 A 
ATOM     69  C   UNL A   1      45.706  25.510  27.117  1.00  0.00     0.031 A 
ATOM     70  C   UNL A   1      46.161  27.872  27.030  1.00  0.00     0.131 A 
ATOM     71  C   UNL A   1      45.850  25.454  25.722  1.00  0.00     0.055 A 
ATOM     72  C   UNL A   1      46.204  27.829  25.633  1.00  0.00     0.041 A 
ATOM     73  F   UNL A   1      46.388  29.056  27.620  1.00  0.00    -0.206 F 
ATOM     74  C   UNL A   1      46.069  26.611  24.973  1.00  0.00     0.022 A 
BRANCH  71  75
ATOM     75  S   UNL A   1      45.931  23.826  24.928  1.00  0.00     0.124 S 
ATOM     76  O   UNL A   1      46.407  22.986  26.027  1.00  0.00    -0.237 OA
ATOM     77  O   UNL A   1      44.552  23.609  24.509  1.00  0.00    -0.237 OA
ATOM     78  O   UNL A   1      46.891  24.020  23.844  1.00  0.00    -0.744 OA
ENDBRANCH  71  75
ENDBRANCH  54  68
BRANCH  55  79
ATOM     79  C   UNL A   1      45.391  26.959  37.812  1.00  0.00     0.023 A 
ATOM     80  C   UNL A   1      45.771  28.054  38.603  1.00  0.00     0.031 A 
ATOM     81  C   UNL A   1      44.898  25.814  38.464  1.00  0.00     0.131 A 
ATOM     82  C   UNL A   1      45.680  27.970  40.002  1.00  0.00     0.055 A 
ATOM     83  C   UNL A   1      44.762  25.754  39.851  1.00  0.00     0.041 A 
ATOM     84  F   UNL A   1      44.513  24.741  37.754  1.00  0.00    -0.206 F 
ATOM     85  C   UNL A   1      45.163  26.834  40.629  1.00  0.00     0.022 A 
BRANCH  82  86
ATOM     86  S   UNL A   1      46.306  29.349  40.999  1.00  0.00     0.124 S 
ATOM     87  O   UNL A   1      47.127  28.655  41.985  1.00  0.00    -0.237 OA
ATOM     88  O   UNL A   1      47.024  30.141  40.007  1.00  0.00    -0.237 OA
ATOM     89  O   UNL A   1      45.090  29.968  41.525  1.00  0.00    -0.744 OA
ENDBRANCH  82  86
ENDBRANCH  55  79
BRANCH  67  90
ATOM     90  C   UNL A   1      50.393  25.122  33.296  1.00  0.00     0.023 A 
ATOM     91  C   UNL A   1      50.707  23.758  33.160  1.00  0.00     0.031 A 
ATOM     92  C   UNL A   1      51.430  26.008  33.634  1.00  0.00     0.131 A 
ATOM     93  C   UNL A   1      52.013  23.313  33.418  1.00  0.00     0.055 A 
ATOM     94  C   UNL A   1      52.741  25.568  33.823  1.00  0.00     0.041 A 
ATOM     95  F   UNL A   1      51.189  27.320  33.783  1.00  0.00    -0.206 F 
ATOM     96  C   UNL A   1      53.036  24.211  33.728  1.00  0.00     0.022 A 
BRANCH  93  97
ATOM     97  S   UNL A   1      52.335  21.527  33.438  1.00  0.00     0.124 S 
ATOM     98  O   UNL A   1      51.446  21.072  34.502  1.00  0.00    -0.237 OA
ATOM     99  O   UNL A   1      51.968  21.128  32.084  1.00  0.00    -0.237 OA
ATOM    100  O   UNL A   1      53.763  21.441  33.744  1.00  0.00    -0.744 OA
ENDBRANCH  93  97
ENDBRANCH  67  90
ENDBRANCH  41  42
ENDBRANCH  33  36
ENDBRANCH  31  32
ENDBRANCH  30  31
ENDBRANCH  29  30
ENDBRANCH   1  29
TORSDOF 21
ENDMDL
MODEL 3
REMARK VINA RESULT:      -9.9      6.572     11.040
REMARK SMILES CSCC[C@@H](C(=O)NCCCCCCNC(=O)c1ccc(-c2c3nc(c(-c4cc(S(=O)(=O)[O-])ccc4F)c4ccc([nH]4)c(-c4cc(S(=O)(=O)[O-])ccc4F)c4nc(c(-c5cc(S(=O)(=O)[O-])ccc5F)c5ccc2[nH]5)C=C4)C=C3)cc1)N1C(=O)/C(=C/c2ccc(Cl)cc2Cl)SC1=S
REMARK SMILES IDX 11 1 10 2 9 3 8 4 6 5 7 6 5 8 4 9 3 10 2 11 1 12 81 13 82 14
REMARK SMILES IDX 95 15 83 16 84 17 94 18 96 19 85 20 86 21 87 22 92 23 88 24
REMARK SMILES IDX 91 25 93 26 89 27 90 28 12 29 13 30 14 31 15 32 16 33 17 35
REMARK SMILES IDX 18 36 19 37 80 38 20 39 79 40 21 41 22 42 23 43 73 44 24 45
REMARK SMILES IDX 78 46 72 47 74 48 25 49 77 50 71 51 70 52 26 54 58 55 38 56
REMARK SMILES IDX 57 57 39 58 42 59 56 60 75 61 40 62 41 63 55 65 76 66 43 67
REMARK SMILES IDX 27 68 28 69 36 70 29 71 35 72 37 73 34 74 30 75 31 76 32 77
REMARK SMILES IDX 33 78 59 79 60 80 68 81 61 82 67 83 69 84 66 85 62 86 63 87
REMARK SMILES IDX 64 88 65 89 44 90 45 91 53 92 46 93 52 94 54 95 51 96 47 97
REMARK SMILES IDX 48 98 49 99 50 100
REMARK H PARENT 8 7 15 34 74 53 42 64
REMARK Flexibility Score: inf
ROOT
ATOM      1  C   UNL A   1      39.040  21.606  25.775  1.00  0.00     0.002 C 
ENDROOT
BRANCH   1   2
ATOM      2  C   UNL A   1      37.855  20.863  25.158  1.00  0.00     0.021 C 
BRANCH   2   3
ATOM      3  C   UNL A   1      36.578  21.706  25.134  1.00  0.00     0.116 C 
BRANCH   3   4
ATOM      4  N   UNL A   1      35.930  21.646  26.423  1.00  0.00    -0.354 N 
ATOM      5  C   UNL A   1      34.640  21.879  26.787  1.00  0.00     0.243 C 
ATOM      6  O   UNL A   1      34.425  21.932  28.004  1.00  0.00    -0.273 OA
ATOM      7  H   UNL A   1      36.524  21.393  27.166  1.00  0.00     0.163 HD
BRANCH   5   8
ATOM      8  C   UNL A   1      33.487  21.997  25.746  1.00  0.00     0.182 C 
BRANCH   8   9
ATOM      9  C   UNL A   1      33.858  21.745  24.272  1.00  0.00     0.046 C 
BRANCH   9  10
ATOM     10  C   UNL A   1      32.901  22.062  23.121  1.00  0.00     0.072 C 
BRANCH  10  11
ATOM     11  S   UNL A   1      33.281  23.489  22.048  1.00  0.00    -0.165 SA
ATOM     12  C   UNL A   1      31.981  24.678  22.444  1.00  0.00     0.085 C 
ENDBRANCH  10  11
ENDBRANCH   9  10
ENDBRANCH   8   9
BRANCH   8  13
ATOM     13  N   UNL A   1      32.953  23.386  25.998  1.00  0.00    -0.280 N 
ATOM     14  C   UNL A   1      33.789  24.445  25.642  1.00  0.00     0.266 C 
ATOM     15  C   UNL A   1      31.650  23.747  26.313  1.00  0.00     0.149 C 
ATOM     16  O   UNL A   1      34.933  24.346  25.229  1.00  0.00    -0.268 OA
ATOM     17  C   UNL A   1      33.092  25.753  25.804  1.00  0.00     0.081 C 
ATOM     18  S   UNL A   1      31.491  25.500  26.352  1.00  0.00    -0.054 SA
ATOM     19  S   UNL A   1      30.296  22.826  26.650  1.00  0.00    -0.052 S 
ATOM     20  C   UNL A   1      33.673  26.937  25.563  1.00  0.00     0.031 C 
BRANCH  20  21
ATOM     21  C   UNL A   1      33.044  28.238  25.854  1.00  0.00    -0.006 A 
ATOM     22  C   UNL A   1      33.382  28.914  27.036  1.00  0.00     0.011 A 
ATOM     23  C   UNL A   1      32.127  28.839  24.969  1.00  0.00     0.049 A 
ATOM     24  C   UNL A   1      32.823  30.166  27.321  1.00  0.00     0.021 A 
ATOM     25  C   UNL A   1      31.579  30.093  25.249  1.00  0.00     0.041 A 
ATOM     26  Cl  UNL A   1      31.622  28.060  23.508  1.00  0.00    -0.084 Cl
ATOM     27  C   UNL A   1      31.928  30.749  26.424  1.00  0.00     0.042 A 
ATOM     28  Cl  UNL A   1      31.245  32.290  26.773  1.00  0.00    -0.084 Cl
ENDBRANCH  20  21
ENDBRANCH   8  13
ENDBRANCH   5   8
ENDBRANCH   3   4
ENDBRANCH   2   3
ENDBRANCH   1   2
BRANCH   1  29
ATOM     29  C   UNL A   1      40.018  20.700  26.533  1.00  0.00     0.002 C 
BRANCH  29  30
ATOM     30  C   UNL A   1      41.499  20.914  26.202  1.00  0.00     0.021 C 
BRANCH  30  31
ATOM     31  C   UNL A   1      41.869  22.345  25.815  1.00  0.00     0.116 C 
BRANCH  31  32
ATOM     32  N   UNL A   1      43.088  22.389  25.024  1.00  0.00    -0.352 N 
ATOM     33  C   UNL A   1      43.932  23.442  24.775  1.00  0.00     0.251 C 
ATOM     34  H   UNL A   1      43.347  21.537  24.606  1.00  0.00     0.163 HD
ATOM     35  O   UNL A   1      44.764  23.354  23.877  1.00  0.00    -0.269 OA
BRANCH  33  36
ATOM     36  C   UNL A   1      43.824  24.679  25.576  1.00  0.00     0.039 A 
ATOM     37  C   UNL A   1      44.250  24.664  26.906  1.00  0.00     0.014 A 
ATOM     38  C   UNL A   1      43.293  25.848  25.021  1.00  0.00     0.014 A 
ATOM     39  C   UNL A   1      44.204  25.840  27.659  1.00  0.00     0.010 A 
ATOM     40  C   UNL A   1      43.317  27.034  25.749  1.00  0.00     0.010 A 
ATOM     41  C   UNL A   1      43.776  27.042  27.074  1.00  0.00    -0.014 A 
BRANCH  41  42
ATOM     42  C   UNL A   1      43.823  28.321  27.829  1.00  0.00     0.031 A 
ATOM     43  C   UNL A   1      42.566  28.921  28.391  1.00  0.00     0.074 A 
ATOM     44  C   UNL A   1      44.996  28.973  27.948  1.00  0.00     0.049 A 
ATOM     45  N   UNL A   1      42.398  30.058  29.019  1.00  0.00    -0.248 NA
ATOM     46  C   UNL A   1      41.329  28.154  28.194  1.00  0.00     0.031 C 
ATOM     47  C   UNL A   1      46.274  28.511  27.400  1.00  0.00     0.029 A 
ATOM     48  N   UNL A   1      45.307  30.164  28.554  1.00  0.00    -0.354 N 
ATOM     49  C   UNL A   1      41.038  30.144  29.290  1.00  0.00     0.074 A 
ATOM     50  C   UNL A   1      40.420  28.980  28.691  1.00  0.00     0.031 C 
ATOM     51  C   UNL A   1      47.231  29.399  27.710  1.00  0.00     0.029 A 
ATOM     52  C   UNL A   1      46.631  30.516  28.432  1.00  0.00     0.049 A 
ATOM     53  H   UNL A   1      44.644  30.715  29.030  1.00  0.00     0.167 HD
ATOM     54  C   UNL A   1      40.371  31.092  29.997  1.00  0.00     0.034 A 
ATOM     55  C   UNL A   1      47.285  31.623  28.835  1.00  0.00     0.034 A 
ATOM     56  C   UNL A   1      41.008  32.253  30.575  1.00  0.00     0.049 A 
ATOM     57  C   UNL A   1      46.521  32.688  29.576  1.00  0.00     0.074 A 
ATOM     58  C   UNL A   1      40.443  33.250  31.350  1.00  0.00     0.029 A 
ATOM     59  N   UNL A   1      42.349  32.584  30.423  1.00  0.00    -0.354 N 
ATOM     60  N   UNL A   1      45.245  32.726  29.882  1.00  0.00    -0.248 NA
ATOM     61  C   UNL A   1      47.287  33.854  30.032  1.00  0.00     0.031 C 
ATOM     62  C   UNL A   1      41.421  34.222  31.597  1.00  0.00     0.029 A 
ATOM     63  C   UNL A   1      42.620  33.791  31.052  1.00  0.00     0.049 A 
ATOM     64  H   UNL A   1      43.013  32.040  29.939  1.00  0.00     0.167 HD
ATOM     65  C   UNL A   1      45.058  33.914  30.584  1.00  0.00     0.074 A 
ATOM     66  C   UNL A   1      46.358  34.549  30.673  1.00  0.00     0.031 C 
ATOM     67  C   UNL A   1      43.916  34.431  31.108  1.00  0.00     0.034 A 
BRANCH  54  68
ATOM     68  C   UNL A   1      38.876  30.915  30.149  1.00  0.00     0.023 A 
ATOM     69  C   UNL A   1      37.966  31.660  29.376  1.00  0.00     0.031 A 
ATOM     70  C   UNL A   1      38.349  30.038  31.113  1.00  0.00     0.131 A 
ATOM     71  C   UNL A   1      36.591  31.593  29.650  1.00  0.00     0.055 A 
ATOM     72  C   UNL A   1      36.973  29.901  31.312  1.00  0.00     0.041 A 
ATOM     73  F   UNL A   1      39.163  29.313  31.896  1.00  0.00    -0.206 F 
ATOM     74  C   UNL A   1      36.086  30.697  30.593  1.00  0.00     0.022 A 
BRANCH  71  75
ATOM     75  S   UNL A   1      35.499  32.824  28.887  1.00  0.00     0.124 S 
ATOM     76  O   UNL A   1      35.358  32.293  27.532  1.00  0.00    -0.237 OA
ATOM     77  O   UNL A   1      34.311  32.756  29.728  1.00  0.00    -0.237 OA
ATOM     78  O   UNL A   1      36.264  34.067  28.984  1.00  0.00    -0.744 OA
ENDBRANCH  71  75
ENDBRANCH  54  68
BRANCH  55  79
ATOM     79  C   UNL A   1      48.732  31.786  28.519  1.00  0.00     0.023 A 
ATOM     80  C   UNL A   1      49.156  32.444  27.354  1.00  0.00     0.031 A 
ATOM     81  C   UNL A   1      49.718  31.280  29.387  1.00  0.00     0.131 A 
ATOM     82  C   UNL A   1      50.528  32.552  27.073  1.00  0.00     0.055 A 
ATOM     83  C   UNL A   1      51.080  31.434  29.128  1.00  0.00     0.041 A 
ATOM     84  F   UNL A   1      49.366  30.648  30.518  1.00  0.00    -0.206 F 
ATOM     85  C   UNL A   1      51.491  32.066  27.960  1.00  0.00     0.022 A 
BRANCH  82  86
ATOM     86  S   UNL A   1      51.038  33.287  25.495  1.00  0.00     0.124 S 
ATOM     87  O   UNL A   1      51.318  32.102  24.692  1.00  0.00    -0.237 OA
ATOM     88  O   UNL A   1      49.854  34.053  25.120  1.00  0.00    -0.237 OA
ATOM     89  O   UNL A   1      52.207  34.088  25.855  1.00  0.00    -0.744 OA
ENDBRANCH  82  86
ENDBRANCH  55  79
BRANCH  67  90
ATOM     90  C   UNL A   1      44.035  35.745  31.844  1.00  0.00     0.023 A 
ATOM     91  C   UNL A   1      43.916  36.978  31.178  1.00  0.00     0.031 A 
ATOM     92  C   UNL A   1      44.280  35.763  33.228  1.00  0.00     0.131 A 
ATOM     93  C   UNL A   1      44.100  38.175  31.886  1.00  0.00     0.055 A 
ATOM     94  C   UNL A   1      44.394  36.958  33.939  1.00  0.00     0.041 A 
ATOM     95  F   UNL A   1      44.409  34.617  33.916  1.00  0.00    -0.206 F 
ATOM     96  C   UNL A   1      44.317  38.174  33.266  1.00  0.00     0.022 A 
BRANCH  93  97
ATOM     97  S   UNL A   1      44.148  39.735  30.961  1.00  0.00     0.124 S 
ATOM     98  O   UNL A   1      43.746  40.702  31.978  1.00  0.00    -0.237 OA
ATOM     99  O   UNL A   1      45.540  39.802  30.532  1.00  0.00    -0.237 OA
ATOM    100  O   UNL A   1      43.178  39.526  29.887  1.00  0.00    -0.744 OA
ENDBRANCH  93  97
ENDBRANCH  67  90
ENDBRANCH  41  42
ENDBRANCH  33  36
ENDBRANCH  31  32
ENDBRANCH  30  31
ENDBRANCH  29  30
ENDBRANCH   1  29
TORSDOF 21
ENDMDL
