MODEL 1
REMARK VINA RESULT:     -11.5      0.000      0.000
REMARK SMILES C[C@H]1[NH2+]CC[C@H]1C(=O)N1CCC(C(=O)NCCCCCCNC(=O)c2ccc(-c3c4nc(c(-c5cc(S(=O)(=O)[O-])ccc5F)c5ccc([nH]5)c(-c5cc(S(=O)(=O)[O-])ccc5F)c5nc(c(-c6cc(S(=O)(=O)[O-])ccc6F)c6ccc3[nH]6)C=C5)C=C4)cc2)CC1
REMARK SMILES IDX 19 1 18 2 17 3 16 4 15 5 13 6 14 7 12 9 7 10 8 11 9 12 10 13
REMARK SMILES IDX 89 14 11 15 88 16 6 17 1 18 2 19 3 20 4 21 5 24 20 25 21 26
REMARK SMILES IDX 22 27 23 28 24 30 25 31 26 32 87 33 27 34 86 35 28 36 29 37
REMARK SMILES IDX 30 38 80 39 31 40 85 41 79 42 81 43 32 44 84 45 78 46 77 47
REMARK SMILES IDX 33 49 65 50 45 51 64 52 46 53 49 54 63 55 82 56 47 57 48 58
REMARK SMILES IDX 62 60 83 61 50 62 34 63 35 64 43 65 36 66 42 67 44 68 41 69
REMARK SMILES IDX 37 70 38 71 39 72 40 73 66 74 67 75 75 76 68 77 74 78 76 79
REMARK SMILES IDX 73 80 69 81 70 82 71 83 72 84 51 85 52 86 60 87 53 88 59 89
REMARK SMILES IDX 61 90 58 91 54 92 55 93 56 94 57 95
REMARK H PARENT 15 8 3 22 3 23 22 29 81 48 49 59
REMARK Flexibility Score: inf
ROOT
ATOM      1  C   UNL A   1      31.838  30.042  26.518  1.00  0.00     0.002 C 
ENDROOT
BRANCH   1   2
ATOM      2  C   UNL A   1      31.913  29.527  25.076  1.00  0.00     0.002 C 
BRANCH   2   3
ATOM      3  C   UNL A   1      30.599  29.632  24.294  1.00  0.00     0.021 C 
BRANCH   3   4
ATOM      4  C   UNL A   1      30.557  28.728  23.064  1.00  0.00     0.116 C 
BRANCH   4   5
ATOM      5  N   UNL A   1      30.000  27.430  23.410  1.00  0.00    -0.356 N 
ATOM      6  C   UNL A   1      30.600  26.221  23.574  1.00  0.00     0.223 C 
ATOM      7  O   UNL A   1      29.880  25.236  23.762  1.00  0.00    -0.275 OA
ATOM      8  H   UNL A   1      29.026  27.425  23.550  1.00  0.00     0.163 HD
BRANCH   6   9
ATOM      9  C   UNL A   1      32.113  26.084  23.608  1.00  0.00     0.082 C 
ATOM     10  C   UNL A   1      34.497  23.112  24.594  1.00  0.00     0.231 C 
ATOM     11  O   UNL A   1      33.582  22.639  25.269  1.00  0.00    -0.274 OA
ATOM     12  N   UNL A   1      34.423  24.411  24.109  1.00  0.00    -0.342 N 
ATOM     13  C   UNL A   1      34.152  25.501  25.038  1.00  0.00     0.120 C 
ATOM     14  C   UNL A   1      34.017  24.669  22.745  1.00  0.00     0.120 C 
ATOM     15  C   UNL A   1      32.699  25.972  25.022  1.00  0.00     0.035 C 
ATOM     16  C   UNL A   1      32.534  24.971  22.648  1.00  0.00     0.035 C 
BRANCH  10  17
ATOM     17  C   UNL A   1      35.830  22.366  24.420  1.00  0.00     0.142 C 
ATOM     18  C   UNL A   1      37.267  23.762  26.140  1.00  0.00     0.076 C 
ATOM     19  C   UNL A   1      37.176  22.960  24.852  1.00  0.00     0.192 C 
ATOM     20  N   UNL A   1      38.084  21.797  24.973  1.00  0.00    -0.343 N 
ATOM     21  C   UNL A   1      37.296  20.570  25.023  1.00  0.00     0.261 C 
ATOM     22  H   UNL A   1      38.636  21.883  25.826  1.00  0.00     0.346 HD
ATOM     23  H   UNL A   1      38.709  21.769  24.167  1.00  0.00     0.346 HD
ATOM     24  C   UNL A   1      35.833  20.966  25.013  1.00  0.00     0.081 C 
ENDBRANCH  10  17
ENDBRANCH   6   9
ENDBRANCH   4   5
ENDBRANCH   3   4
ENDBRANCH   2   3
ENDBRANCH   1   2
BRANCH   1  25
ATOM     25  C   UNL A   1      31.744  31.564  26.648  1.00  0.00     0.021 C 
BRANCH  25  26
ATOM     26  C   UNL A   1      32.915  32.203  27.387  1.00  0.00     0.116 C 
BRANCH  26  27
ATOM     27  N   UNL A   1      32.698  33.624  27.611  1.00  0.00    -0.352 N 
ATOM     28  C   UNL A   1      33.256  34.440  28.562  1.00  0.00     0.251 C 
ATOM     29  H   UNL A   1      32.064  34.060  26.997  1.00  0.00     0.163 HD
ATOM     30  O   UNL A   1      32.794  35.561  28.757  1.00  0.00    -0.269 OA
BRANCH  28  31
ATOM     31  C   UNL A   1      34.396  33.947  29.361  1.00  0.00     0.039 A 
ATOM     32  C   UNL A   1      34.182  32.942  30.306  1.00  0.00     0.014 A 
ATOM     33  C   UNL A   1      35.679  34.465  29.159  1.00  0.00     0.014 A 
ATOM     34  C   UNL A   1      35.267  32.414  31.007  1.00  0.00     0.010 A 
ATOM     35  C   UNL A   1      36.767  33.884  29.801  1.00  0.00     0.010 A 
ATOM     36  C   UNL A   1      36.573  32.855  30.735  1.00  0.00    -0.014 A 
BRANCH  36  37
ATOM     37  C   UNL A   1      37.751  32.259  31.419  1.00  0.00     0.031 A 
ATOM     38  C   UNL A   1      38.518  31.147  30.757  1.00  0.00     0.074 A 
ATOM     39  C   UNL A   1      38.087  32.673  32.656  1.00  0.00     0.049 A 
ATOM     40  N   UNL A   1      39.509  30.432  31.224  1.00  0.00    -0.248 NA
ATOM     41  C   UNL A   1      38.092  30.770  29.400  1.00  0.00     0.031 C 
ATOM     42  C   UNL A   1      37.399  33.724  33.410  1.00  0.00     0.029 A 
ATOM     43  N   UNL A   1      39.083  32.256  33.504  1.00  0.00    -0.354 N 
ATOM     44  C   UNL A   1      39.816  29.513  30.226  1.00  0.00     0.074 A 
ATOM     45  C   UNL A   1      38.865  29.723  29.156  1.00  0.00     0.031 C 
ATOM     46  C   UNL A   1      38.007  33.883  34.597  1.00  0.00     0.029 A 
ATOM     47  C   UNL A   1      39.089  32.910  34.716  1.00  0.00     0.049 A 
ATOM     48  H   UNL A   1      39.731  31.555  33.268  1.00  0.00     0.167 HD
ATOM     49  C   UNL A   1      40.813  28.594  30.200  1.00  0.00     0.034 A 
ATOM     50  C   UNL A   1      39.863  32.734  35.805  1.00  0.00     0.034 A 
ATOM     51  C   UNL A   1      41.756  28.405  31.275  1.00  0.00     0.049 A 
ATOM     52  C   UNL A   1      40.937  31.673  35.768  1.00  0.00     0.074 A 
ATOM     53  C   UNL A   1      42.836  27.542  31.331  1.00  0.00     0.029 A 
ATOM     54  N   UNL A   1      41.725  29.081  32.490  1.00  0.00    -0.354 N 
ATOM     55  N   UNL A   1      41.246  30.843  34.799  1.00  0.00    -0.248 NA
ATOM     56  C   UNL A   1      41.771  31.533  36.969  1.00  0.00     0.031 C 
ATOM     57  C   UNL A   1      43.406  27.635  32.605  1.00  0.00     0.029 A 
ATOM     58  C   UNL A   1      42.744  28.624  33.314  1.00  0.00     0.049 A 
ATOM     59  H   UNL A   1      41.077  29.781  32.730  1.00  0.00     0.167 HD
ATOM     60  C   UNL A   1      42.334  30.108  35.262  1.00  0.00     0.074 A 
ATOM     61  C   UNL A   1      42.633  30.600  36.590  1.00  0.00     0.031 C 
ATOM     62  C   UNL A   1      43.028  29.119  34.641  1.00  0.00     0.034 A 
BRANCH  49  63
ATOM     63  C   UNL A   1      40.910  27.704  28.982  1.00  0.00     0.023 A 
ATOM     64  C   UNL A   1      41.901  27.891  28.003  1.00  0.00     0.031 A 
ATOM     65  C   UNL A   1      39.984  26.663  28.788  1.00  0.00     0.131 A 
ATOM     66  C   UNL A   1      41.899  27.104  26.842  1.00  0.00     0.055 A 
ATOM     67  C   UNL A   1      40.040  25.826  27.672  1.00  0.00     0.041 A 
ATOM     68  F   UNL A   1      39.000  26.447  29.675  1.00  0.00    -0.206 F 
ATOM     69  C   UNL A   1      40.993  26.053  26.683  1.00  0.00     0.022 A 
BRANCH  66  70
ATOM     70  S   UNL A   1      42.999  27.569  25.478  1.00  0.00     0.124 S 
ATOM     71  O   UNL A   1      43.411  26.262  24.972  1.00  0.00    -0.237 OA
ATOM     72  O   UNL A   1      42.118  28.341  24.610  1.00  0.00    -0.237 OA
ATOM     73  O   UNL A   1      44.056  28.335  26.135  1.00  0.00    -0.744 OA
ENDBRANCH  66  70
ENDBRANCH  49  63
BRANCH  50  74
ATOM     74  C   UNL A   1      39.645  33.555  37.031  1.00  0.00     0.023 A 
ATOM     75  C   UNL A   1      38.898  33.061  38.113  1.00  0.00     0.031 A 
ATOM     76  C   UNL A   1      40.143  34.868  37.121  1.00  0.00     0.131 A 
ATOM     77  C   UNL A   1      38.628  33.889  39.214  1.00  0.00     0.055 A 
ATOM     78  C   UNL A   1      39.923  35.666  38.245  1.00  0.00     0.041 A 
ATOM     79  F   UNL A   1      40.864  35.391  36.117  1.00  0.00    -0.206 F 
ATOM     80  C   UNL A   1      39.149  35.182  39.295  1.00  0.00     0.022 A 
BRANCH  77  81
ATOM     81  S   UNL A   1      37.500  33.285  40.499  1.00  0.00     0.124 S 
ATOM     82  O   UNL A   1      38.288  32.220  41.107  1.00  0.00    -0.237 OA
ATOM     83  O   UNL A   1      37.297  34.480  41.312  1.00  0.00    -0.237 OA
ATOM     84  O   UNL A   1      36.329  32.843  39.743  1.00  0.00    -0.744 OA
ENDBRANCH  77  81
ENDBRANCH  50  74
BRANCH  62  85
ATOM     85  C   UNL A   1      44.217  28.544  35.372  1.00  0.00     0.023 A 
ATOM     86  C   UNL A   1      44.081  27.532  36.338  1.00  0.00     0.031 A 
ATOM     87  C   UNL A   1      45.513  29.016  35.087  1.00  0.00     0.131 A 
ATOM     88  C   UNL A   1      45.214  27.060  37.018  1.00  0.00     0.055 A 
ATOM     89  C   UNL A   1      46.641  28.496  35.721  1.00  0.00     0.041 A 
ATOM     90  F   UNL A   1      45.701  29.986  34.179  1.00  0.00    -0.206 F 
ATOM     91  C   UNL A   1      46.494  27.521  36.702  1.00  0.00     0.022 A 
BRANCH  88  92
ATOM     92  S   UNL A   1      44.985  25.896  38.391  1.00  0.00     0.124 S 
ATOM     93  O   UNL A   1      44.210  26.692  39.337  1.00  0.00    -0.237 OA
ATOM     94  O   UNL A   1      44.274  24.793  37.752  1.00  0.00    -0.237 OA
ATOM     95  O   UNL A   1      46.352  25.589  38.812  1.00  0.00    -0.744 OA
ENDBRANCH  88  92
ENDBRANCH  62  85
ENDBRANCH  36  37
ENDBRANCH  28  31
ENDBRANCH  26  27
ENDBRANCH  25  26
ENDBRANCH   1  25
TORSDOF 17
ENDMDL
MODEL 2
REMARK VINA RESULT:     -11.5      4.469     10.953
REMARK SMILES C[C@H]1[NH2+]CC[C@H]1C(=O)N1CCC(C(=O)NCCCCCCNC(=O)c2ccc(-c3c4nc(c(-c5cc(S(=O)(=O)[O-])ccc5F)c5ccc([nH]5)c(-c5cc(S(=O)(=O)[O-])ccc5F)c5nc(c(-c6cc(S(=O)(=O)[O-])ccc6F)c6ccc3[nH]6)C=C5)C=C4)cc2)CC1
REMARK SMILES IDX 19 1 18 2 17 3 16 4 15 5 13 6 14 7 12 9 7 10 8 11 9 12 10 13
REMARK SMILES IDX 89 14 11 15 88 16 6 17 1 18 2 19 3 20 4 21 5 24 20 25 21 26
REMARK SMILES IDX 22 27 23 28 24 30 25 31 26 32 87 33 27 34 86 35 28 36 29 37
REMARK SMILES IDX 30 38 80 39 31 40 85 41 79 42 81 43 32 44 84 45 78 46 77 47
REMARK SMILES IDX 33 49 65 50 45 51 64 52 46 53 49 54 63 55 82 56 47 57 48 58
REMARK SMILES IDX 62 60 83 61 50 62 34 63 35 64 43 65 36 66 42 67 44 68 41 69
REMARK SMILES IDX 37 70 38 71 39 72 40 73 66 74 67 75 75 76 68 77 74 78 76 79
REMARK SMILES IDX 73 80 69 81 70 82 71 83 72 84 51 85 52 86 60 87 53 88 59 89
REMARK SMILES IDX 61 90 58 91 54 92 55 93 56 94 57 95
REMARK H PARENT 15 8 3 22 3 23 22 29 81 48 49 59
REMARK Flexibility Score: inf
ROOT
ATOM      1  C   UNL A   1      34.045  34.550  28.061  1.00  0.00     0.002 C 
ENDROOT
BRANCH   1   2
ATOM      2  C   UNL A   1      34.416  36.035  28.147  1.00  0.00     0.002 C 
BRANCH   2   3
ATOM      3  C   UNL A   1      33.405  36.901  28.907  1.00  0.00     0.021 C 
BRANCH   3   4
ATOM      4  C   UNL A   1      32.940  36.273  30.219  1.00  0.00     0.116 C 
BRANCH   4   5
ATOM      5  N   UNL A   1      33.355  37.094  31.345  1.00  0.00    -0.356 N 
ATOM      6  C   UNL A   1      33.952  36.755  32.519  1.00  0.00     0.223 C 
ATOM      7  O   UNL A   1      34.102  37.636  33.369  1.00  0.00    -0.275 OA
ATOM      8  H   UNL A   1      33.174  38.055  31.241  1.00  0.00     0.163 HD
BRANCH   6   9
ATOM      9  C   UNL A   1      34.496  35.356  32.758  1.00  0.00     0.082 C 
ATOM     10  C   UNL A   1      37.838  34.035  34.362  1.00  0.00     0.231 C 
ATOM     11  O   UNL A   1      38.359  35.120  34.099  1.00  0.00    -0.274 OA
ATOM     12  N   UNL A   1      36.614  33.684  33.808  1.00  0.00    -0.342 N 
ATOM     13  C   UNL A   1      36.444  33.748  32.362  1.00  0.00     0.120 C 
ATOM     14  C   UNL A   1      35.390  33.836  34.564  1.00  0.00     0.120 C 
ATOM     15  C   UNL A   1      35.706  34.998  31.886  1.00  0.00     0.035 C 
ATOM     16  C   UNL A   1      34.701  35.152  34.260  1.00  0.00     0.035 C 
BRANCH  10  17
ATOM     17  C   UNL A   1      38.596  32.954  35.149  1.00  0.00     0.142 C 
ATOM     18  C   UNL A   1      37.410  33.292  37.484  1.00  0.00     0.076 C 
ATOM     19  C   UNL A   1      38.648  32.926  36.681  1.00  0.00     0.192 C 
ATOM     20  N   UNL A   1      39.020  31.536  37.025  1.00  0.00    -0.343 N 
ATOM     21  C   UNL A   1      38.814  30.678  35.862  1.00  0.00     0.261 C 
ATOM     22  H   UNL A   1      38.440  31.209  37.797  1.00  0.00     0.346 HD
ATOM     23  H   UNL A   1      40.002  31.505  37.302  1.00  0.00     0.346 HD
ATOM     24  C   UNL A   1      38.216  31.533  34.764  1.00  0.00     0.081 C 
ENDBRANCH  10  17
ENDBRANCH   6   9
ENDBRANCH   4   5
ENDBRANCH   3   4
ENDBRANCH   2   3
ENDBRANCH   1   2
BRANCH   1  25
ATOM     25  C   UNL A   1      35.178  33.587  28.422  1.00  0.00     0.021 C 
BRANCH  25  26
ATOM     26  C   UNL A   1      34.753  32.427  29.316  1.00  0.00     0.116 C 
BRANCH  26  27
ATOM     27  N   UNL A   1      34.171  31.339  28.546  1.00  0.00    -0.352 N 
ATOM     28  C   UNL A   1      34.784  30.224  28.032  1.00  0.00     0.251 C 
ATOM     29  H   UNL A   1      33.205  31.412  28.369  1.00  0.00     0.163 HD
ATOM     30  O   UNL A   1      34.195  29.521  27.214  1.00  0.00    -0.269 OA
BRANCH  28  31
ATOM     31  C   UNL A   1      36.160  29.896  28.452  1.00  0.00     0.039 A 
ATOM     32  C   UNL A   1      36.368  29.287  29.691  1.00  0.00     0.014 A 
ATOM     33  C   UNL A   1      37.243  30.173  27.612  1.00  0.00     0.014 A 
ATOM     34  C   UNL A   1      37.656  28.900  30.062  1.00  0.00     0.010 A 
ATOM     35  C   UNL A   1      38.513  29.717  27.949  1.00  0.00     0.010 A 
ATOM     36  C   UNL A   1      38.734  29.079  29.179  1.00  0.00    -0.014 A 
BRANCH  36  37
ATOM     37  C   UNL A   1      40.103  28.612  29.522  1.00  0.00     0.031 A 
ATOM     38  C   UNL A   1      40.906  29.345  30.562  1.00  0.00     0.074 A 
ATOM     39  C   UNL A   1      40.643  27.573  28.855  1.00  0.00     0.049 A 
ATOM     40  N   UNL A   1      42.145  29.159  30.935  1.00  0.00    -0.248 NA
ATOM     41  C   UNL A   1      40.231  30.456  31.252  1.00  0.00     0.031 C 
ATOM     42  C   UNL A   1      39.971  26.802  27.806  1.00  0.00     0.029 A 
ATOM     43  N   UNL A   1      41.883  26.991  28.950  1.00  0.00    -0.354 N 
ATOM     44  C   UNL A   1      42.405  30.135  31.891  1.00  0.00     0.074 A 
ATOM     45  C   UNL A   1      41.212  30.948  31.993  1.00  0.00     0.031 C 
ATOM     46  C   UNL A   1      40.798  25.838  27.371  1.00  0.00     0.029 A 
ATOM     47  C   UNL A   1      42.077  25.954  28.065  1.00  0.00     0.049 A 
ATOM     48  H   UNL A   1      42.569  27.288  29.589  1.00  0.00     0.167 HD
ATOM     49  C   UNL A   1      43.528  30.321  32.628  1.00  0.00     0.034 A 
ATOM     50  C   UNL A   1      43.166  25.197  27.825  1.00  0.00     0.034 A 
ATOM     51  C   UNL A   1      44.705  29.494  32.516  1.00  0.00     0.049 A 
ATOM     52  C   UNL A   1      44.420  25.453  28.627  1.00  0.00     0.074 A 
ATOM     53  C   UNL A   1      45.876  29.559  33.250  1.00  0.00     0.029 A 
ATOM     54  N   UNL A   1      44.867  28.458  31.603  1.00  0.00    -0.354 N 
ATOM     55  N   UNL A   1      44.634  26.350  29.561  1.00  0.00    -0.248 NA
ATOM     56  C   UNL A   1      45.574  24.588  28.348  1.00  0.00     0.031 C 
ATOM     57  C   UNL A   1      46.773  28.622  32.729  1.00  0.00     0.029 A 
ATOM     58  C   UNL A   1      46.133  27.905  31.732  1.00  0.00     0.049 A 
ATOM     59  H   UNL A   1      44.184  28.160  30.960  1.00  0.00     0.167 HD
ATOM     60  C   UNL A   1      45.935  26.132  30.006  1.00  0.00     0.074 A 
ATOM     61  C   UNL A   1      46.451  25.013  29.245  1.00  0.00     0.031 C 
ATOM     62  C   UNL A   1      46.638  26.792  30.961  1.00  0.00     0.034 A 
BRANCH  49  63
ATOM     63  C   UNL A   1      43.543  31.482  33.595  1.00  0.00     0.023 A 
ATOM     64  C   UNL A   1      43.299  31.308  34.969  1.00  0.00     0.031 A 
ATOM     65  C   UNL A   1      43.789  32.788  33.133  1.00  0.00     0.131 A 
ATOM     66  C   UNL A   1      43.229  32.423  35.816  1.00  0.00     0.055 A 
ATOM     67  C   UNL A   1      43.805  33.884  33.998  1.00  0.00     0.041 A 
ATOM     68  F   UNL A   1      44.007  33.023  31.830  1.00  0.00    -0.206 F 
ATOM     69  C   UNL A   1      43.509  33.707  35.346  1.00  0.00     0.022 A 
BRANCH  66  70
ATOM     70  S   UNL A   1      42.621  32.188  37.509  1.00  0.00     0.124 S 
ATOM     71  O   UNL A   1      43.860  32.254  38.279  1.00  0.00    -0.237 OA
ATOM     72  O   UNL A   1      41.705  33.311  37.674  1.00  0.00    -0.237 OA
ATOM     73  O   UNL A   1      41.992  30.870  37.468  1.00  0.00    -0.744 OA
ENDBRANCH  66  70
ENDBRANCH  49  63
BRANCH  50  74
ATOM     74  C   UNL A   1      43.139  24.143  26.769  1.00  0.00     0.023 A 
ATOM     75  C   UNL A   1      42.456  22.933  26.970  1.00  0.00     0.031 A 
ATOM     76  C   UNL A   1      43.835  24.312  25.558  1.00  0.00     0.131 A 
ATOM     77  C   UNL A   1      42.526  21.921  26.000  1.00  0.00     0.055 A 
ATOM     78  C   UNL A   1      43.850  23.327  24.570  1.00  0.00     0.041 A 
ATOM     79  F   UNL A   1      44.504  25.450  25.313  1.00  0.00    -0.206 F 
ATOM     80  C   UNL A   1      43.204  22.115  24.795  1.00  0.00     0.022 A 
BRANCH  77  81
ATOM     81  S   UNL A   1      41.798  20.303  26.379  1.00  0.00     0.124 S 
ATOM     82  O   UNL A   1      42.286  19.492  25.270  1.00  0.00    -0.237 OA
ATOM     83  O   UNL A   1      42.371  20.012  27.689  1.00  0.00    -0.237 OA
ATOM     84  O   UNL A   1      40.360  20.568  26.375  1.00  0.00    -0.744 OA
ENDBRANCH  77  81
ENDBRANCH  50  74
BRANCH  62  85
ATOM     85  C   UNL A   1      48.024  26.283  31.278  1.00  0.00     0.023 A 
ATOM     86  C   UNL A   1      48.273  25.426  32.364  1.00  0.00     0.031 A 
ATOM     87  C   UNL A   1      49.113  26.658  30.469  1.00  0.00     0.131 A 
ATOM     88  C   UNL A   1      49.586  25.014  32.641  1.00  0.00     0.055 A 
ATOM     89  C   UNL A   1      50.405  26.192  30.711  1.00  0.00     0.041 A 
ATOM     90  F   UNL A   1      48.934  27.479  29.422  1.00  0.00    -0.206 F 
ATOM     91  C   UNL A   1      50.649  25.374  31.810  1.00  0.00     0.022 A 
BRANCH  88  92
ATOM     92  S   UNL A   1      49.903  24.069  34.157  1.00  0.00     0.124 S 
ATOM     93  O   UNL A   1      49.872  25.113  35.176  1.00  0.00    -0.237 OA
ATOM     94  O   UNL A   1      48.790  23.125  34.177  1.00  0.00    -0.237 OA
ATOM     95  O   UNL A   1      51.216  23.472  33.922  1.00  0.00    -0.744 OA
ENDBRANCH  88  92
ENDBRANCH  62  85
ENDBRANCH  36  37
ENDBRANCH  28  31
ENDBRANCH  26  27
ENDBRANCH  25  26
ENDBRANCH   1  25
TORSDOF 17
ENDMDL
MODEL 3
REMARK VINA RESULT:     -11.4      1.545      2.007
REMARK SMILES C[C@H]1[NH2+]CC[C@H]1C(=O)N1CCC(C(=O)NCCCCCCNC(=O)c2ccc(-c3c4nc(c(-c5cc(S(=O)(=O)[O-])ccc5F)c5ccc([nH]5)c(-c5cc(S(=O)(=O)[O-])ccc5F)c5nc(c(-c6cc(S(=O)(=O)[O-])ccc6F)c6ccc3[nH]6)C=C5)C=C4)cc2)CC1
REMARK SMILES IDX 19 1 18 2 17 3 16 4 15 5 13 6 14 7 12 9 7 10 8 11 9 12 10 13
REMARK SMILES IDX 89 14 11 15 88 16 6 17 1 18 2 19 3 20 4 21 5 24 20 25 21 26
REMARK SMILES IDX 22 27 23 28 24 30 25 31 26 32 87 33 27 34 86 35 28 36 29 37
REMARK SMILES IDX 30 38 80 39 31 40 85 41 79 42 81 43 32 44 84 45 78 46 77 47
REMARK SMILES IDX 33 49 65 50 45 51 64 52 46 53 49 54 63 55 82 56 47 57 48 58
REMARK SMILES IDX 62 60 83 61 50 62 34 63 35 64 43 65 36 66 42 67 44 68 41 69
REMARK SMILES IDX 37 70 38 71 39 72 40 73 66 74 67 75 75 76 68 77 74 78 76 79
REMARK SMILES IDX 73 80 69 81 70 82 71 83 72 84 51 85 52 86 60 87 53 88 59 89
REMARK SMILES IDX 61 90 58 91 54 92 55 93 56 94 57 95
REMARK H PARENT 15 8 3 22 3 23 22 29 81 48 49 59
REMARK Flexibility Score: inf
ROOT
ATOM      1  C   UNL A   1      31.999  29.718  26.488  1.00  0.00     0.002 C 
ENDROOT
BRANCH   1   2
ATOM      2  C   UNL A   1      33.221  29.415  25.614  1.00  0.00     0.002 C 
BRANCH   2   3
ATOM      3  C   UNL A   1      32.897  28.732  24.281  1.00  0.00     0.021 C 
BRANCH   3   4
ATOM      4  C   UNL A   1      34.133  28.197  23.561  1.00  0.00     0.116 C 
BRANCH   4   5
ATOM      5  N   UNL A   1      33.749  27.534  22.325  1.00  0.00    -0.356 N 
ATOM      6  C   UNL A   1      33.375  26.249  22.086  1.00  0.00     0.223 C 
ATOM      7  O   UNL A   1      33.203  25.903  20.914  1.00  0.00    -0.275 OA
ATOM      8  H   UNL A   1      33.761  28.111  21.528  1.00  0.00     0.163 HD
BRANCH   6   9
ATOM      9  C   UNL A   1      33.094  25.279  23.222  1.00  0.00     0.082 C 
ATOM     10  C   UNL A   1      32.447  21.398  23.314  1.00  0.00     0.231 C 
ATOM     11  O   UNL A   1      32.092  21.458  22.136  1.00  0.00    -0.274 OA
ATOM     12  N   UNL A   1      32.600  22.555  24.068  1.00  0.00    -0.342 N 
ATOM     13  C   UNL A   1      31.498  23.505  24.142  1.00  0.00     0.120 C 
ATOM     14  C   UNL A   1      33.910  23.135  24.273  1.00  0.00     0.120 C 
ATOM     15  C   UNL A   1      31.668  24.713  23.222  1.00  0.00     0.035 C 
ATOM     16  C   UNL A   1      34.204  24.228  23.266  1.00  0.00     0.035 C 
BRANCH  10  17
ATOM     17  C   UNL A   1      32.548  20.053  24.051  1.00  0.00     0.142 C 
ATOM     18  C   UNL A   1      32.403  18.463  21.947  1.00  0.00     0.076 C 
ATOM     19  C   UNL A   1      32.117  18.725  23.417  1.00  0.00     0.192 C 
ATOM     20  N   UNL A   1      32.806  17.683  24.210  1.00  0.00    -0.343 N 
ATOM     21  C   UNL A   1      33.880  18.295  24.985  1.00  0.00     0.261 C 
ATOM     22  H   UNL A   1      33.196  16.980  23.582  1.00  0.00     0.346 HD
ATOM     23  H   UNL A   1      32.139  17.239  24.842  1.00  0.00     0.346 HD
ATOM     24  C   UNL A   1      33.930  19.764  24.616  1.00  0.00     0.081 C 
ENDBRANCH  10  17
ENDBRANCH   6   9
ENDBRANCH   4   5
ENDBRANCH   3   4
ENDBRANCH   2   3
ENDBRANCH   1   2
BRANCH   1  25
ATOM     25  C   UNL A   1      31.752  31.206  26.747  1.00  0.00     0.021 C 
BRANCH  25  26
ATOM     26  C   UNL A   1      33.003  31.991  27.127  1.00  0.00     0.116 C 
BRANCH  26  27
ATOM     27  N   UNL A   1      32.699  33.388  27.398  1.00  0.00    -0.352 N 
ATOM     28  C   UNL A   1      33.192  34.199  28.388  1.00  0.00     0.251 C 
ATOM     29  H   UNL A   1      32.051  33.808  26.788  1.00  0.00     0.163 HD
ATOM     30  O   UNL A   1      32.662  35.284  28.614  1.00  0.00    -0.269 OA
BRANCH  28  31
ATOM     31  C   UNL A   1      34.346  33.745  29.189  1.00  0.00     0.039 A 
ATOM     32  C   UNL A   1      34.132  32.878  30.263  1.00  0.00     0.014 A 
ATOM     33  C   UNL A   1      35.641  34.160  28.864  1.00  0.00     0.014 A 
ATOM     34  C   UNL A   1      35.224  32.380  30.974  1.00  0.00     0.010 A 
ATOM     35  C   UNL A   1      36.731  33.602  29.524  1.00  0.00     0.010 A 
ATOM     36  C   UNL A   1      36.534  32.709  30.589  1.00  0.00    -0.014 A 
BRANCH  36  37
ATOM     37  C   UNL A   1      37.714  32.136  31.287  1.00  0.00     0.031 A 
ATOM     38  C   UNL A   1      38.480  31.003  30.660  1.00  0.00     0.074 A 
ATOM     39  C   UNL A   1      38.055  32.591  32.509  1.00  0.00     0.049 A 
ATOM     40  N   UNL A   1      39.473  30.304  31.146  1.00  0.00    -0.248 NA
ATOM     41  C   UNL A   1      38.049  30.582  29.317  1.00  0.00     0.031 C 
ATOM     42  C   UNL A   1      37.370  33.665  33.231  1.00  0.00     0.029 A 
ATOM     43  N   UNL A   1      39.054  32.202  33.367  1.00  0.00    -0.354 N 
ATOM     44  C   UNL A   1      39.776  29.353  30.178  1.00  0.00     0.074 A 
ATOM     45  C   UNL A   1      38.822  29.527  29.105  1.00  0.00     0.031 C 
ATOM     46  C   UNL A   1      37.981  33.863  34.410  1.00  0.00     0.029 A 
ATOM     47  C   UNL A   1      39.064  32.895  34.556  1.00  0.00     0.049 A 
ATOM     48  H   UNL A   1      39.702  31.494  33.152  1.00  0.00     0.167 HD
ATOM     49  C   UNL A   1      40.774  28.433  30.179  1.00  0.00     0.034 A 
ATOM     50  C   UNL A   1      39.842  32.754  35.649  1.00  0.00     0.034 A 
ATOM     51  C   UNL A   1      41.721  28.281  31.256  1.00  0.00     0.049 A 
ATOM     52  C   UNL A   1      40.916  31.693  35.643  1.00  0.00     0.074 A 
ATOM     53  C   UNL A   1      42.801  27.420  31.337  1.00  0.00     0.029 A 
ATOM     54  N   UNL A   1      41.694  28.995  32.448  1.00  0.00    -0.354 N 
ATOM     55  N   UNL A   1      41.222  30.832  34.700  1.00  0.00    -0.248 NA
ATOM     56  C   UNL A   1      41.755  31.592  36.845  1.00  0.00     0.031 C 
ATOM     57  C   UNL A   1      43.376  27.555  32.604  1.00  0.00     0.029 A 
ATOM     58  C   UNL A   1      42.716  28.566  33.283  1.00  0.00     0.049 A 
ATOM     59  H   UNL A   1      41.046  29.703  32.668  1.00  0.00     0.167 HD
ATOM     60  C   UNL A   1      42.312  30.113  35.183  1.00  0.00     0.074 A 
ATOM     61  C   UNL A   1      42.615  30.648  36.493  1.00  0.00     0.031 C 
ATOM     62  C   UNL A   1      43.004  29.105  34.592  1.00  0.00     0.034 A 
BRANCH  49  63
ATOM     63  C   UNL A   1      40.867  27.505  28.990  1.00  0.00     0.023 A 
ATOM     64  C   UNL A   1      41.833  27.680  27.984  1.00  0.00     0.031 A 
ATOM     65  C   UNL A   1      39.963  26.436  28.852  1.00  0.00     0.131 A 
ATOM     66  C   UNL A   1      41.825  26.853  26.851  1.00  0.00     0.055 A 
ATOM     67  C   UNL A   1      40.016  25.562  27.764  1.00  0.00     0.041 A 
ATOM     68  F   UNL A   1      39.002  26.228  29.767  1.00  0.00    -0.206 F 
ATOM     69  C   UNL A   1      40.942  25.777  26.748  1.00  0.00     0.022 A 
BRANCH  66  70
ATOM     70  S   UNL A   1      42.886  27.296  25.448  1.00  0.00     0.124 S 
ATOM     71  O   UNL A   1      44.107  27.725  26.125  1.00  0.00    -0.237 OA
ATOM     72  O   UNL A   1      42.972  26.041  24.710  1.00  0.00    -0.237 OA
ATOM     73  O   UNL A   1      42.145  28.363  24.781  1.00  0.00    -0.744 OA
ENDBRANCH  66  70
ENDBRANCH  49  63
BRANCH  50  74
ATOM     74  C   UNL A   1      39.628  33.615  36.848  1.00  0.00     0.023 A 
ATOM     75  C   UNL A   1      38.999  33.114  37.998  1.00  0.00     0.031 A 
ATOM     76  C   UNL A   1      40.010  34.970  36.844  1.00  0.00     0.131 A 
ATOM     77  C   UNL A   1      38.724  33.971  39.076  1.00  0.00     0.055 A 
ATOM     78  C   UNL A   1      39.790  35.802  37.943  1.00  0.00     0.041 A 
ATOM     79  F   UNL A   1      40.616  35.502  35.771  1.00  0.00    -0.206 F 
ATOM     80  C   UNL A   1      39.130  35.307  39.064  1.00  0.00     0.022 A 
BRANCH  77  81
ATOM     81  S   UNL A   1      37.738  33.337  40.460  1.00  0.00     0.124 S 
ATOM     82  O   UNL A   1      36.534  32.876  39.779  1.00  0.00    -0.237 OA
ATOM     83  O   UNL A   1      38.608  32.297  41.001  1.00  0.00    -0.237 OA
ATOM     84  O   UNL A   1      37.563  34.507  41.318  1.00  0.00    -0.744 OA
ENDBRANCH  77  81
ENDBRANCH  50  74
BRANCH  62  85
ATOM     85  C   UNL A   1      44.196  28.554  35.338  1.00  0.00     0.023 A 
ATOM     86  C   UNL A   1      44.070  27.536  36.298  1.00  0.00     0.031 A 
ATOM     87  C   UNL A   1      45.484  29.055  35.072  1.00  0.00     0.131 A 
ATOM     88  C   UNL A   1      45.204  27.087  36.993  1.00  0.00     0.055 A 
ATOM     89  C   UNL A   1      46.616  28.559  35.719  1.00  0.00     0.041 A 
ATOM     90  F   UNL A   1      45.663  30.033  34.169  1.00  0.00    -0.206 F 
ATOM     91  C   UNL A   1      46.478  27.578  36.695  1.00  0.00     0.022 A 
BRANCH  88  92
ATOM     92  S   UNL A   1      44.983  25.914  38.359  1.00  0.00     0.124 S 
ATOM     93  O   UNL A   1      44.229  26.709  39.323  1.00  0.00    -0.237 OA
ATOM     94  O   UNL A   1      44.252  24.824  37.721  1.00  0.00    -0.237 OA
ATOM     95  O   UNL A   1      46.352  25.590  38.758  1.00  0.00    -0.744 OA
ENDBRANCH  88  92
ENDBRANCH  62  85
ENDBRANCH  36  37
ENDBRANCH  28  31
ENDBRANCH  26  27
ENDBRANCH  25  26
ENDBRANCH   1  25
TORSDOF 17
ENDMDL
