MODEL 1
REMARK VINA RESULT:     -10.8      0.000      0.000
REMARK SMILES O=C(/C=C/c1c(Cl)cccc1Cl)NCC(=O)NCCCCCCNC(=O)c1ccc(-c2c3nc(c(-c4cc(S(=O)(=O)[O-])ccc4F)c4ccc([nH]4)c(-c4cc(S(=O)(=O)[O-])ccc4F)c4nc(c(-c5cc(S(=O)(=O)[O-])ccc5F)c5ccc2[nH]5)C=C4)C=C3)cc1
REMARK SMILES IDX 20 1 19 2 18 3 17 4 15 5 16 6 14 8 13 9 1 10 2 11 3 13 4 14
REMARK SMILES IDX 5 15 6 16 11 17 7 18 8 19 10 20 12 21 9 22 21 23 22 24 23 25
REMARK SMILES IDX 24 26 25 27 26 29 27 30 28 31 89 32 29 33 88 34 30 35 31 36
REMARK SMILES IDX 32 37 82 38 33 39 87 40 81 41 83 42 34 43 86 44 80 45 79 46
REMARK SMILES IDX 35 48 67 49 47 50 66 51 48 52 51 53 65 54 84 55 49 56 50 57
REMARK SMILES IDX 64 59 85 60 52 61 36 62 37 63 45 64 38 65 44 66 46 67 43 68
REMARK SMILES IDX 39 69 40 70 41 71 42 72 68 73 69 74 77 75 70 76 76 77 78 78
REMARK SMILES IDX 75 79 71 80 72 81 73 82 74 83 53 84 54 85 62 86 55 87 61 88
REMARK SMILES IDX 63 89 60 90 56 91 57 92 58 93 59 94
REMARK H PARENT 17 7 13 12 24 28 83 47 51 58
REMARK Flexibility Score: inf
ROOT
ATOM      1  C   UNL A   1      35.292  24.613  25.424  1.00  0.00     0.002 C 
ENDROOT
BRANCH   1   2
ATOM      2  C   UNL A   1      33.962  25.370  25.314  1.00  0.00     0.021 C 
BRANCH   2   3
ATOM      3  C   UNL A   1      33.881  26.292  24.098  1.00  0.00     0.116 C 
BRANCH   3   4
ATOM      4  N   UNL A   1      32.610  26.992  24.060  1.00  0.00    -0.355 N 
ATOM      5  C   UNL A   1      31.533  26.772  23.251  1.00  0.00     0.239 C 
ATOM      6  O   UNL A   1      30.531  27.473  23.403  1.00  0.00    -0.273 OA
ATOM      7  H   UNL A   1      32.511  27.727  24.707  1.00  0.00     0.163 HD
BRANCH   5   8
ATOM      8  C   UNL A   1      31.546  25.614  22.250  1.00  0.00     0.216 C 
BRANCH   8   9
ATOM      9  N   UNL A   1      31.520  24.309  22.890  1.00  0.00    -0.343 N 
ATOM     10  O   UNL A   1      33.228  23.442  21.636  1.00  0.00    -0.270 OA
ATOM     11  C   UNL A   1      32.389  23.319  22.520  1.00  0.00     0.244 C 
ATOM     12  H   UNL A   1      30.866  24.134  23.604  1.00  0.00     0.164 HD
BRANCH  11  13
ATOM     13  C   UNL A   1      32.222  22.006  23.186  1.00  0.00     0.072 C 
ATOM     14  C   UNL A   1      33.201  21.128  23.448  1.00  0.00     0.017 C 
BRANCH  14  15
ATOM     15  C   UNL A   1      32.919  19.807  24.047  1.00  0.00     0.012 A 
ATOM     16  C   UNL A   1      32.525  18.701  23.266  1.00  0.00     0.049 A 
ATOM     17  C   UNL A   1      33.062  19.610  25.435  1.00  0.00     0.049 A 
ATOM     18  Cl  UNL A   1      32.391  18.785  21.539  1.00  0.00    -0.084 Cl
ATOM     19  C   UNL A   1      32.255  17.460  23.854  1.00  0.00     0.021 A 
ATOM     20  C   UNL A   1      32.803  18.362  26.018  1.00  0.00     0.021 A 
ATOM     21  Cl  UNL A   1      33.564  20.889  26.492  1.00  0.00    -0.084 Cl
ATOM     22  C   UNL A   1      32.393  17.290  25.229  1.00  0.00     0.003 A 
ENDBRANCH  14  15
ENDBRANCH  11  13
ENDBRANCH   8   9
ENDBRANCH   5   8
ENDBRANCH   3   4
ENDBRANCH   2   3
ENDBRANCH   1   2
BRANCH   1  23
ATOM     23  C   UNL A   1      35.641  23.737  24.214  1.00  0.00     0.002 C 
BRANCH  23  24
ATOM     24  C   UNL A   1      36.387  22.442  24.546  1.00  0.00     0.021 C 
BRANCH  24  25
ATOM     25  C   UNL A   1      36.933  22.374  25.968  1.00  0.00     0.116 C 
BRANCH  25  26
ATOM     26  N   UNL A   1      38.015  21.411  26.085  1.00  0.00    -0.352 N 
ATOM     27  C   UNL A   1      39.345  21.625  26.329  1.00  0.00     0.251 C 
ATOM     28  H   UNL A   1      37.754  20.468  25.973  1.00  0.00     0.163 HD
ATOM     29  O   UNL A   1      40.146  20.701  26.168  1.00  0.00    -0.269 OA
BRANCH  27  30
ATOM     30  C   UNL A   1      39.822  22.955  26.766  1.00  0.00     0.039 A 
ATOM     31  C   UNL A   1      39.382  24.091  26.082  1.00  0.00     0.014 A 
ATOM     32  C   UNL A   1      40.732  23.084  27.821  1.00  0.00     0.014 A 
ATOM     33  C   UNL A   1      39.830  25.355  26.473  1.00  0.00     0.010 A 
ATOM     34  C   UNL A   1      41.116  24.349  28.259  1.00  0.00     0.010 A 
ATOM     35  C   UNL A   1      40.690  25.497  27.574  1.00  0.00    -0.014 A 
BRANCH  35  36
ATOM     36  C   UNL A   1      41.201  26.833  27.980  1.00  0.00     0.031 A 
ATOM     37  C   UNL A   1      42.634  27.204  27.700  1.00  0.00     0.074 A 
ATOM     38  C   UNL A   1      40.391  27.695  28.623  1.00  0.00     0.049 A 
ATOM     39  N   UNL A   1      43.285  28.296  28.008  1.00  0.00    -0.248 NA
ATOM     40  C   UNL A   1      43.452  26.194  27.010  1.00  0.00     0.031 C 
ATOM     41  C   UNL A   1      38.995  27.435  28.986  1.00  0.00     0.029 A 
ATOM     42  N   UNL A   1      40.621  28.965  29.088  1.00  0.00    -0.354 N 
ATOM     43  C   UNL A   1      44.589  28.100  27.562  1.00  0.00     0.074 A 
ATOM     44  C   UNL A   1      44.651  26.755  27.032  1.00  0.00     0.031 C 
ATOM     45  C   UNL A   1      38.488  28.523  29.588  1.00  0.00     0.029 A 
ATOM     46  C   UNL A   1      39.527  29.542  29.691  1.00  0.00     0.049 A 
ATOM     47  H   UNL A   1      41.489  29.422  28.999  1.00  0.00     0.167 HD
ATOM     48  C   UNL A   1      45.631  28.968  27.568  1.00  0.00     0.034 A 
ATOM     49  C   UNL A   1      39.381  30.754  30.262  1.00  0.00     0.034 A 
ATOM     50  C   UNL A   1      45.547  30.312  28.088  1.00  0.00     0.049 A 
ATOM     51  C   UNL A   1      40.553  31.703  30.259  1.00  0.00     0.074 A 
ATOM     52  C   UNL A   1      46.524  31.292  28.113  1.00  0.00     0.029 A 
ATOM     53  N   UNL A   1      44.416  30.868  28.677  1.00  0.00    -0.354 N 
ATOM     54  N   UNL A   1      41.769  31.519  29.795  1.00  0.00    -0.248 NA
ATOM     55  C   UNL A   1      40.323  33.034  30.834  1.00  0.00     0.031 C 
ATOM     56  C   UNL A   1      46.007  32.413  28.773  1.00  0.00     0.029 A 
ATOM     57  C   UNL A   1      44.679  32.167  29.085  1.00  0.00     0.049 A 
ATOM     58  H   UNL A   1      43.555  30.406  28.787  1.00  0.00     0.167 HD
ATOM     59  C   UNL A   1      42.435  32.727  29.989  1.00  0.00     0.074 A 
ATOM     60  C   UNL A   1      41.479  33.632  30.593  1.00  0.00     0.031 C 
ATOM     61  C   UNL A   1      43.719  33.059  29.693  1.00  0.00     0.034 A 
BRANCH  48  62
ATOM     62  C   UNL A   1      46.950  28.475  27.016  1.00  0.00     0.023 A 
ATOM     63  C   UNL A   1      47.150  28.284  25.637  1.00  0.00     0.031 A 
ATOM     64  C   UNL A   1      48.009  28.148  27.881  1.00  0.00     0.131 A 
ATOM     65  C   UNL A   1      48.339  27.701  25.173  1.00  0.00     0.055 A 
ATOM     66  C   UNL A   1      49.226  27.655  27.405  1.00  0.00     0.041 A 
ATOM     67  F   UNL A   1      47.874  28.285  29.210  1.00  0.00    -0.206 F 
ATOM     68  C   UNL A   1      49.390  27.411  26.044  1.00  0.00     0.022 A 
BRANCH  65  69
ATOM     69  S   UNL A   1      48.427  27.176  23.439  1.00  0.00     0.124 S 
ATOM     70  O   UNL A   1      47.409  28.025  22.823  1.00  0.00    -0.237 OA
ATOM     71  O   UNL A   1      49.809  27.478  23.087  1.00  0.00    -0.237 OA
ATOM     72  O   UNL A   1      48.092  25.754  23.492  1.00  0.00    -0.744 OA
ENDBRANCH  65  69
ENDBRANCH  48  62
BRANCH  49  73
ATOM     73  C   UNL A   1      38.081  31.151  30.877  1.00  0.00     0.023 A 
ATOM     74  C   UNL A   1      37.104  31.829  30.131  1.00  0.00     0.031 A 
ATOM     75  C   UNL A   1      37.817  30.902  32.235  1.00  0.00     0.131 A 
ATOM     76  C   UNL A   1      35.934  32.284  30.757  1.00  0.00     0.055 A 
ATOM     77  C   UNL A   1      36.626  31.307  32.842  1.00  0.00     0.041 A 
ATOM     78  F   UNL A   1      38.714  30.251  32.994  1.00  0.00    -0.206 F 
ATOM     79  C   UNL A   1      35.682  32.016  32.105  1.00  0.00     0.022 A 
BRANCH  76  80
ATOM     80  S   UNL A   1      34.783  33.315  29.806  1.00  0.00     0.124 S 
ATOM     81  O   UNL A   1      34.164  32.332  28.924  1.00  0.00    -0.237 OA
ATOM     82  O   UNL A   1      33.930  33.863  30.856  1.00  0.00    -0.237 OA
ATOM     83  O   UNL A   1      35.658  34.282  29.148  1.00  0.00    -0.744 OA
ENDBRANCH  76  80
ENDBRANCH  49  73
BRANCH  61  84
ATOM     84  C   UNL A   1      44.136  34.485  29.968  1.00  0.00     0.023 A 
ATOM     85  C   UNL A   1      43.986  35.502  29.008  1.00  0.00     0.031 A 
ATOM     86  C   UNL A   1      44.733  34.822  31.196  1.00  0.00     0.131 A 
ATOM     87  C   UNL A   1      44.500  36.783  29.260  1.00  0.00     0.055 A 
ATOM     88  C   UNL A   1      45.175  36.117  31.469  1.00  0.00     0.041 A 
ATOM     89  F   UNL A   1      44.903  33.893  32.151  1.00  0.00    -0.206 F 
ATOM     90  C   UNL A   1      45.078  37.101  30.490  1.00  0.00     0.022 A 
BRANCH  87  91
ATOM     91  S   UNL A   1      44.525  37.990  27.905  1.00  0.00     0.124 S 
ATOM     92  O   UNL A   1      43.168  37.887  27.380  1.00  0.00    -0.237 OA
ATOM     93  O   UNL A   1      44.847  39.232  28.601  1.00  0.00    -0.237 OA
ATOM     94  O   UNL A   1      45.573  37.486  27.019  1.00  0.00    -0.744 OA
ENDBRANCH  87  91
ENDBRANCH  61  84
ENDBRANCH  35  36
ENDBRANCH  27  30
ENDBRANCH  25  26
ENDBRANCH  24  25
ENDBRANCH  23  24
ENDBRANCH   1  23
TORSDOF 19
ENDMDL
MODEL 2
REMARK VINA RESULT:     -10.6      1.665      2.186
REMARK SMILES O=C(/C=C/c1c(Cl)cccc1Cl)NCC(=O)NCCCCCCNC(=O)c1ccc(-c2c3nc(c(-c4cc(S(=O)(=O)[O-])ccc4F)c4ccc([nH]4)c(-c4cc(S(=O)(=O)[O-])ccc4F)c4nc(c(-c5cc(S(=O)(=O)[O-])ccc5F)c5ccc2[nH]5)C=C4)C=C3)cc1
REMARK SMILES IDX 20 1 19 2 18 3 17 4 15 5 16 6 14 8 13 9 1 10 2 11 3 13 4 14
REMARK SMILES IDX 5 15 6 16 11 17 7 18 8 19 10 20 12 21 9 22 21 23 22 24 23 25
REMARK SMILES IDX 24 26 25 27 26 29 27 30 28 31 89 32 29 33 88 34 30 35 31 36
REMARK SMILES IDX 32 37 82 38 33 39 87 40 81 41 83 42 34 43 86 44 80 45 79 46
REMARK SMILES IDX 35 48 67 49 47 50 66 51 48 52 51 53 65 54 84 55 49 56 50 57
REMARK SMILES IDX 64 59 85 60 52 61 36 62 37 63 45 64 38 65 44 66 46 67 43 68
REMARK SMILES IDX 39 69 40 70 41 71 42 72 68 73 69 74 77 75 70 76 76 77 78 78
REMARK SMILES IDX 75 79 71 80 72 81 73 82 74 83 53 84 54 85 62 86 55 87 61 88
REMARK SMILES IDX 63 89 60 90 56 91 57 92 58 93 59 94
REMARK H PARENT 17 7 13 12 24 28 83 47 51 58
REMARK Flexibility Score: inf
ROOT
ATOM      1  C   UNL A   1      35.333  24.511  25.176  1.00  0.00     0.002 C 
ENDROOT
BRANCH   1   2
ATOM      2  C   UNL A   1      34.001  25.262  25.045  1.00  0.00     0.021 C 
BRANCH   2   3
ATOM      3  C   UNL A   1      34.020  26.361  23.982  1.00  0.00     0.116 C 
BRANCH   3   4
ATOM      4  N   UNL A   1      32.823  27.178  24.058  1.00  0.00    -0.355 N 
ATOM      5  C   UNL A   1      31.762  27.226  23.201  1.00  0.00     0.239 C 
ATOM      6  O   UNL A   1      30.824  27.980  23.469  1.00  0.00    -0.273 OA
ATOM      7  H   UNL A   1      32.768  27.780  24.835  1.00  0.00     0.163 HD
BRANCH   5   8
ATOM      8  C   UNL A   1      31.705  26.288  21.993  1.00  0.00     0.216 C 
BRANCH   8   9
ATOM      9  N   UNL A   1      31.832  24.886  22.355  1.00  0.00    -0.343 N 
ATOM     10  O   UNL A   1      29.920  24.835  23.613  1.00  0.00    -0.270 OA
ATOM     11  C   UNL A   1      30.902  24.269  23.146  1.00  0.00     0.244 C 
ATOM     12  H   UNL A   1      32.602  24.369  22.024  1.00  0.00     0.164 HD
BRANCH  11  13
ATOM     13  C   UNL A   1      31.172  22.860  23.514  1.00  0.00     0.072 C 
ATOM     14  C   UNL A   1      32.371  22.261  23.500  1.00  0.00     0.017 C 
BRANCH  14  15
ATOM     15  C   UNL A   1      32.524  20.824  23.810  1.00  0.00     0.012 A 
ATOM     16  C   UNL A   1      32.901  20.372  25.091  1.00  0.00     0.049 A 
ATOM     17  C   UNL A   1      32.270  19.852  22.821  1.00  0.00     0.049 A 
ATOM     18  Cl  UNL A   1      33.163  21.457  26.418  1.00  0.00    -0.084 Cl
ATOM     19  C   UNL A   1      33.048  19.006  25.361  1.00  0.00     0.021 A 
ATOM     20  C   UNL A   1      32.407  18.485  23.100  1.00  0.00     0.021 A 
ATOM     21  Cl  UNL A   1      31.778  20.288  21.217  1.00  0.00    -0.084 Cl
ATOM     22  C   UNL A   1      32.802  18.063  24.367  1.00  0.00     0.003 A 
ENDBRANCH  14  15
ENDBRANCH  11  13
ENDBRANCH   8   9
ENDBRANCH   5   8
ENDBRANCH   3   4
ENDBRANCH   2   3
ENDBRANCH   1   2
BRANCH   1  23
ATOM     23  C   UNL A   1      35.575  23.433  24.112  1.00  0.00     0.002 C 
BRANCH  23  24
ATOM     24  C   UNL A   1      36.586  22.351  24.504  1.00  0.00     0.021 C 
BRANCH  24  25
ATOM     25  C   UNL A   1      37.201  22.534  25.887  1.00  0.00     0.116 C 
BRANCH  25  26
ATOM     26  N   UNL A   1      38.321  21.633  26.102  1.00  0.00    -0.352 N 
ATOM     27  C   UNL A   1      39.616  21.924  26.440  1.00  0.00     0.251 C 
ATOM     28  H   UNL A   1      38.120  20.676  25.990  1.00  0.00     0.163 HD
ATOM     29  O   UNL A   1      40.474  21.042  26.357  1.00  0.00    -0.269 OA
BRANCH  27  30
ATOM     30  C   UNL A   1      39.987  23.284  26.885  1.00  0.00     0.039 A 
ATOM     31  C   UNL A   1      39.585  24.381  26.118  1.00  0.00     0.014 A 
ATOM     32  C   UNL A   1      40.764  23.481  28.032  1.00  0.00     0.014 A 
ATOM     33  C   UNL A   1      39.936  25.673  26.517  1.00  0.00     0.010 A 
ATOM     34  C   UNL A   1      41.045  24.773  28.470  1.00  0.00     0.010 A 
ATOM     35  C   UNL A   1      40.657  25.882  27.703  1.00  0.00    -0.014 A 
BRANCH  35  36
ATOM     36  C   UNL A   1      41.065  27.249  28.121  1.00  0.00     0.031 A 
ATOM     37  C   UNL A   1      42.515  27.651  28.053  1.00  0.00     0.074 A 
ATOM     38  C   UNL A   1      40.143  28.113  28.587  1.00  0.00     0.049 A 
ATOM     39  N   UNL A   1      43.084  28.775  28.408  1.00  0.00    -0.248 NA
ATOM     40  C   UNL A   1      43.456  26.638  27.549  1.00  0.00     0.031 C 
ATOM     41  C   UNL A   1      38.714  27.826  28.738  1.00  0.00     0.029 A 
ATOM     42  N   UNL A   1      40.267  29.408  29.022  1.00  0.00    -0.354 N 
ATOM     43  C   UNL A   1      44.446  28.600  28.183  1.00  0.00     0.074 A 
ATOM     44  C   UNL A   1      44.623  27.236  27.733  1.00  0.00     0.031 C 
ATOM     45  C   UNL A   1      38.092  28.922  29.199  1.00  0.00     0.029 A 
ATOM     46  C   UNL A   1      39.078  29.977  29.417  1.00  0.00     0.049 A 
ATOM     47  H   UNL A   1      41.127  29.887  29.049  1.00  0.00     0.167 HD
ATOM     48  C   UNL A   1      45.453  29.499  28.312  1.00  0.00     0.034 A 
ATOM     49  C   UNL A   1      38.815  31.207  29.900  1.00  0.00     0.034 A 
ATOM     50  C   UNL A   1      45.256  30.861  28.748  1.00  0.00     0.049 A 
ATOM     51  C   UNL A   1      39.949  32.191  30.036  1.00  0.00     0.074 A 
ATOM     52  C   UNL A   1      46.194  31.871  28.880  1.00  0.00     0.029 A 
ATOM     53  N   UNL A   1      44.034  31.407  29.124  1.00  0.00    -0.354 N 
ATOM     54  N   UNL A   1      41.228  32.024  29.779  1.00  0.00    -0.248 NA
ATOM     55  C   UNL A   1      39.600  33.537  30.505  1.00  0.00     0.031 C 
ATOM     56  C   UNL A   1      45.553  33.003  29.397  1.00  0.00     0.029 A 
ATOM     57  C   UNL A   1      44.198  32.729  29.507  1.00  0.00     0.049 A 
ATOM     58  H   UNL A   1      43.176  30.924  29.119  1.00  0.00     0.167 HD
ATOM     59  C   UNL A   1      41.826  33.259  30.019  1.00  0.00     0.074 A 
ATOM     60  C   UNL A   1      40.765  34.160  30.421  1.00  0.00     0.031 C 
ATOM     61  C   UNL A   1      43.133  33.617  29.913  1.00  0.00     0.034 A 
BRANCH  48  62
ATOM     62  C   UNL A   1      46.854  29.023  27.999  1.00  0.00     0.023 A 
ATOM     63  C   UNL A   1      47.276  28.780  26.679  1.00  0.00     0.031 A 
ATOM     64  C   UNL A   1      47.770  28.766  29.035  1.00  0.00     0.131 A 
ATOM     65  C   UNL A   1      48.536  28.215  26.437  1.00  0.00     0.055 A 
ATOM     66  C   UNL A   1      49.058  28.290  28.780  1.00  0.00     0.041 A 
ATOM     67  F   UNL A   1      47.422  28.955  30.318  1.00  0.00    -0.206 F 
ATOM     68  C   UNL A   1      49.442  27.994  27.475  1.00  0.00     0.022 A 
BRANCH  65  69
ATOM     69  S   UNL A   1      48.912  27.620  24.764  1.00  0.00     0.124 S 
ATOM     70  O   UNL A   1      48.973  26.175  24.973  1.00  0.00    -0.237 OA
ATOM     71  O   UNL A   1      47.775  28.107  23.993  1.00  0.00    -0.237 OA
ATOM     72  O   UNL A   1      50.194  28.251  24.455  1.00  0.00    -0.744 OA
ENDBRANCH  65  69
ENDBRANCH  48  62
BRANCH  49  73
ATOM     73  C   UNL A   1      37.424  31.590  30.282  1.00  0.00     0.023 A 
ATOM     74  C   UNL A   1      36.516  32.070  29.326  1.00  0.00     0.031 A 
ATOM     75  C   UNL A   1      36.999  31.529  31.621  1.00  0.00     0.131 A 
ATOM     76  C   UNL A   1      35.249  32.522  29.726  1.00  0.00     0.055 A 
ATOM     77  C   UNL A   1      35.718  31.928  32.008  1.00  0.00     0.041 A 
ATOM     78  F   UNL A   1      37.826  31.072  32.577  1.00  0.00    -0.206 F 
ATOM     79  C   UNL A   1      34.840  32.442  31.060  1.00  0.00     0.022 A 
BRANCH  76  80
ATOM     80  S   UNL A   1      34.175  33.305  28.491  1.00  0.00     0.124 S 
ATOM     81  O   UNL A   1      35.148  33.971  27.633  1.00  0.00    -0.237 OA
ATOM     82  O   UNL A   1      33.491  32.153  27.913  1.00  0.00    -0.237 OA
ATOM     83  O   UNL A   1      33.333  34.193  29.288  1.00  0.00    -0.744 OA
ENDBRANCH  76  80
ENDBRANCH  49  73
BRANCH  61  84
ATOM     84  C   UNL A   1      43.467  35.066  30.183  1.00  0.00     0.023 A 
ATOM     85  C   UNL A   1      43.602  35.568  31.489  1.00  0.00     0.031 A 
ATOM     86  C   UNL A   1      43.609  35.968  29.113  1.00  0.00     0.131 A 
ATOM     87  C   UNL A   1      43.790  36.944  31.694  1.00  0.00     0.055 A 
ATOM     88  C   UNL A   1      43.869  37.323  29.321  1.00  0.00     0.041 A 
ATOM     89  F   UNL A   1      43.490  35.547  27.843  1.00  0.00    -0.206 F 
ATOM     90  C   UNL A   1      43.940  37.821  30.618  1.00  0.00     0.022 A 
BRANCH  87  91
ATOM     91  S   UNL A   1      43.695  37.590  33.387  1.00  0.00     0.124 S 
ATOM     92  O   UNL A   1      45.083  37.494  33.827  1.00  0.00    -0.237 OA
ATOM     93  O   UNL A   1      43.185  38.940  33.176  1.00  0.00    -0.237 OA
ATOM     94  O   UNL A   1      42.769  36.673  34.051  1.00  0.00    -0.744 OA
ENDBRANCH  87  91
ENDBRANCH  61  84
ENDBRANCH  35  36
ENDBRANCH  27  30
ENDBRANCH  25  26
ENDBRANCH  24  25
ENDBRANCH  23  24
ENDBRANCH   1  23
TORSDOF 19
ENDMDL
MODEL 3
REMARK VINA RESULT:     -10.2      1.642      2.206
REMARK SMILES O=C(/C=C/c1c(Cl)cccc1Cl)NCC(=O)NCCCCCCNC(=O)c1ccc(-c2c3nc(c(-c4cc(S(=O)(=O)[O-])ccc4F)c4ccc([nH]4)c(-c4cc(S(=O)(=O)[O-])ccc4F)c4nc(c(-c5cc(S(=O)(=O)[O-])ccc5F)c5ccc2[nH]5)C=C4)C=C3)cc1
REMARK SMILES IDX 20 1 19 2 18 3 17 4 15 5 16 6 14 8 13 9 1 10 2 11 3 13 4 14
REMARK SMILES IDX 5 15 6 16 11 17 7 18 8 19 10 20 12 21 9 22 21 23 22 24 23 25
REMARK SMILES IDX 24 26 25 27 26 29 27 30 28 31 89 32 29 33 88 34 30 35 31 36
REMARK SMILES IDX 32 37 82 38 33 39 87 40 81 41 83 42 34 43 86 44 80 45 79 46
REMARK SMILES IDX 35 48 67 49 47 50 66 51 48 52 51 53 65 54 84 55 49 56 50 57
REMARK SMILES IDX 64 59 85 60 52 61 36 62 37 63 45 64 38 65 44 66 46 67 43 68
REMARK SMILES IDX 39 69 40 70 41 71 42 72 68 73 69 74 77 75 70 76 76 77 78 78
REMARK SMILES IDX 75 79 71 80 72 81 73 82 74 83 53 84 54 85 62 86 55 87 61 88
REMARK SMILES IDX 63 89 60 90 56 91 57 92 58 93 59 94
REMARK H PARENT 17 7 13 12 24 28 83 47 51 58
REMARK Flexibility Score: inf
ROOT
ATOM      1  C   UNL A   1      35.648  24.415  24.839  1.00  0.00     0.002 C 
ENDROOT
BRANCH   1   2
ATOM      2  C   UNL A   1      34.227  24.959  25.038  1.00  0.00     0.021 C 
BRANCH   2   3
ATOM      3  C   UNL A   1      33.923  26.200  24.200  1.00  0.00     0.116 C 
BRANCH   3   4
ATOM      4  N   UNL A   1      32.512  26.533  24.257  1.00  0.00    -0.355 N 
ATOM      5  C   UNL A   1      31.539  26.308  23.327  1.00  0.00     0.239 C 
ATOM      6  O   UNL A   1      30.385  26.651  23.589  1.00  0.00    -0.273 OA
ATOM      7  H   UNL A   1      32.214  26.983  25.081  1.00  0.00     0.163 HD
BRANCH   5   8
ATOM      8  C   UNL A   1      31.869  25.558  22.034  1.00  0.00     0.216 C 
BRANCH   8   9
ATOM      9  N   UNL A   1      32.430  24.237  22.271  1.00  0.00    -0.343 N 
ATOM     10  O   UNL A   1      30.572  23.424  23.333  1.00  0.00    -0.270 OA
ATOM     11  C   UNL A   1      31.710  23.264  22.909  1.00  0.00     0.244 C 
ATOM     12  H   UNL A   1      33.344  24.039  21.965  1.00  0.00     0.164 HD
BRANCH  11  13
ATOM     13  C   UNL A   1      32.407  21.982  23.163  1.00  0.00     0.072 C 
ATOM     14  C   UNL A   1      31.842  20.766  23.156  1.00  0.00     0.017 C 
BRANCH  14  15
ATOM     15  C   UNL A   1      32.610  19.552  23.501  1.00  0.00     0.012 A 
ATOM     16  C   UNL A   1      33.227  19.390  24.759  1.00  0.00     0.049 A 
ATOM     17  C   UNL A   1      32.727  18.496  22.575  1.00  0.00     0.049 A 
ATOM     18  Cl  UNL A   1      33.091  20.575  26.019  1.00  0.00    -0.084 Cl
ATOM     19  C   UNL A   1      33.956  18.234  25.063  1.00  0.00     0.021 A 
ATOM     20  C   UNL A   1      33.448  17.336  22.888  1.00  0.00     0.021 A 
ATOM     21  Cl  UNL A   1      31.991  18.572  21.007  1.00  0.00    -0.084 Cl
ATOM     22  C   UNL A   1      34.067  17.209  24.129  1.00  0.00     0.003 A 
ENDBRANCH  14  15
ENDBRANCH  11  13
ENDBRANCH   8   9
ENDBRANCH   5   8
ENDBRANCH   3   4
ENDBRANCH   2   3
ENDBRANCH   1   2
BRANCH   1  23
ATOM     23  C   UNL A   1      35.770  23.282  23.812  1.00  0.00     0.002 C 
BRANCH  23  24
ATOM     24  C   UNL A   1      35.899  21.878  24.408  1.00  0.00     0.021 C 
BRANCH  24  25
ATOM     25  C   UNL A   1      36.579  21.832  25.772  1.00  0.00     0.116 C 
BRANCH  25  26
ATOM     26  N   UNL A   1      37.577  20.777  25.842  1.00  0.00    -0.352 N 
ATOM     27  C   UNL A   1      38.930  20.875  26.023  1.00  0.00     0.251 C 
ATOM     28  H   UNL A   1      37.230  19.861  25.745  1.00  0.00     0.163 HD
ATOM     29  O   UNL A   1      39.639  19.885  25.829  1.00  0.00    -0.269 OA
BRANCH  27  30
ATOM     30  C   UNL A   1      39.541  22.157  26.435  1.00  0.00     0.039 A 
ATOM     31  C   UNL A   1      39.172  23.328  25.766  1.00  0.00     0.014 A 
ATOM     32  C   UNL A   1      40.505  22.206  27.447  1.00  0.00     0.014 A 
ATOM     33  C   UNL A   1      39.747  24.547  26.132  1.00  0.00     0.010 A 
ATOM     34  C   UNL A   1      41.018  23.432  27.864  1.00  0.00     0.010 A 
ATOM     35  C   UNL A   1      40.664  24.613  27.194  1.00  0.00    -0.014 A 
BRANCH  35  36
ATOM     36  C   UNL A   1      41.307  25.899  27.572  1.00  0.00     0.031 A 
ATOM     37  C   UNL A   1      42.731  26.173  27.162  1.00  0.00     0.074 A 
ATOM     38  C   UNL A   1      40.627  26.801  28.305  1.00  0.00     0.049 A 
ATOM     39  N   UNL A   1      43.487  27.208  27.424  1.00  0.00    -0.248 NA
ATOM     40  C   UNL A   1      43.403  25.125  26.379  1.00  0.00     0.031 C 
ATOM     41  C   UNL A   1      39.258  26.632  28.797  1.00  0.00     0.029 A 
ATOM     42  N   UNL A   1      40.994  28.039  28.768  1.00  0.00    -0.354 N 
ATOM     43  C   UNL A   1      44.725  26.931  26.852  1.00  0.00     0.074 A 
ATOM     44  C   UNL A   1      44.637  25.597  26.295  1.00  0.00     0.031 C 
ATOM     45  C   UNL A   1      38.890  27.738  29.463  1.00  0.00     0.029 A 
ATOM     46  C   UNL A   1      40.007  28.678  29.483  1.00  0.00     0.049 A 
ATOM     47  H   UNL A   1      41.880  28.435  28.603  1.00  0.00     0.167 HD
ATOM     48  C   UNL A   1      45.823  27.722  26.772  1.00  0.00     0.034 A 
ATOM     49  C   UNL A   1      40.005  29.883  30.087  1.00  0.00     0.034 A 
ATOM     50  C   UNL A   1      45.888  29.056  27.321  1.00  0.00     0.049 A 
ATOM     51  C   UNL A   1      41.237  30.746  29.987  1.00  0.00     0.074 A 
ATOM     52  C   UNL A   1      46.932  29.962  27.269  1.00  0.00     0.029 A 
ATOM     53  N   UNL A   1      44.862  29.676  28.026  1.00  0.00    -0.354 N 
ATOM     54  N   UNL A   1      42.387  30.487  29.405  1.00  0.00    -0.248 NA
ATOM     55  C   UNL A   1      41.162  32.075  30.605  1.00  0.00     0.031 C 
ATOM     56  C   UNL A   1      46.564  31.101  27.995  1.00  0.00     0.029 A 
ATOM     57  C   UNL A   1      45.257  30.942  28.429  1.00  0.00     0.049 A 
ATOM     58  H   UNL A   1      43.983  29.274  28.210  1.00  0.00     0.167 HD
ATOM     59  C   UNL A   1      43.156  31.639  29.555  1.00  0.00     0.074 A 
ATOM     60  C   UNL A   1      42.330  32.595  30.264  1.00  0.00     0.031 C 
ATOM     61  C   UNL A   1      44.427  31.886  29.143  1.00  0.00     0.034 A 
BRANCH  48  62
ATOM     62  C   UNL A   1      47.044  27.149  26.088  1.00  0.00     0.023 A 
ATOM     63  C   UNL A   1      48.011  26.412  26.795  1.00  0.00     0.031 A 
ATOM     64  C   UNL A   1      47.270  27.377  24.718  1.00  0.00     0.131 A 
ATOM     65  C   UNL A   1      49.194  26.009  26.157  1.00  0.00     0.055 A 
ATOM     66  C   UNL A   1      48.406  26.892  24.067  1.00  0.00     0.041 A 
ATOM     67  F   UNL A   1      46.396  28.092  23.991  1.00  0.00    -0.206 F 
ATOM     68  C   UNL A   1      49.386  26.219  24.791  1.00  0.00     0.022 A 
BRANCH  65  69
ATOM     69  S   UNL A   1      50.546  25.353  27.173  1.00  0.00     0.124 S 
ATOM     70  O   UNL A   1      50.950  26.539  27.925  1.00  0.00    -0.237 OA
ATOM     71  O   UNL A   1      49.886  24.304  27.940  1.00  0.00    -0.237 OA
ATOM     72  O   UNL A   1      51.522  24.888  26.188  1.00  0.00    -0.744 OA
ENDBRANCH  65  69
ENDBRANCH  48  62
BRANCH  49  73
ATOM     73  C   UNL A   1      38.801  30.357  30.830  1.00  0.00     0.023 A 
ATOM     74  C   UNL A   1      37.842  31.173  30.211  1.00  0.00     0.031 A 
ATOM     75  C   UNL A   1      38.619  30.041  32.189  1.00  0.00     0.131 A 
ATOM     76  C   UNL A   1      36.774  31.691  30.960  1.00  0.00     0.055 A 
ATOM     77  C   UNL A   1      37.525  30.513  32.916  1.00  0.00     0.041 A 
ATOM     78  F   UNL A   1      39.504  29.258  32.829  1.00  0.00    -0.206 F 
ATOM     79  C   UNL A   1      36.602  31.356  32.305  1.00  0.00     0.022 A 
BRANCH  76  80
ATOM     80  S   UNL A   1      35.661  32.889  30.172  1.00  0.00     0.124 S 
ATOM     81  O   UNL A   1      35.098  33.574  31.329  1.00  0.00    -0.237 OA
ATOM     82  O   UNL A   1      36.586  33.666  29.353  1.00  0.00    -0.237 OA
ATOM     83  O   UNL A   1      34.728  32.046  29.428  1.00  0.00    -0.744 OA
ENDBRANCH  76  80
ENDBRANCH  49  73
BRANCH  61  84
ATOM     84  C   UNL A   1      44.971  33.272  29.401  1.00  0.00     0.023 A 
ATOM     85  C   UNL A   1      44.866  34.301  28.449  1.00  0.00     0.031 A 
ATOM     86  C   UNL A   1      45.645  33.553  30.603  1.00  0.00     0.131 A 
ATOM     87  C   UNL A   1      45.494  35.535  28.680  1.00  0.00     0.055 A 
ATOM     88  C   UNL A   1      46.205  34.805  30.858  1.00  0.00     0.041 A 
ATOM     89  F   UNL A   1      45.779  32.609  31.548  1.00  0.00    -0.206 F 
ATOM     90  C   UNL A   1      46.148  35.798  29.885  1.00  0.00     0.022 A 
BRANCH  87  91
ATOM     91  S   UNL A   1      45.561  36.741  27.326  1.00  0.00     0.124 S 
ATOM     92  O   UNL A   1      46.528  37.711  27.830  1.00  0.00    -0.237 OA
ATOM     93  O   UNL A   1      46.006  35.923  26.203  1.00  0.00    -0.237 OA
ATOM     94  O   UNL A   1      44.186  37.227  27.233  1.00  0.00    -0.744 OA
ENDBRANCH  87  91
ENDBRANCH  61  84
ENDBRANCH  35  36
ENDBRANCH  27  30
ENDBRANCH  25  26
ENDBRANCH  24  25
ENDBRANCH  23  24
ENDBRANCH   1  23
TORSDOF 19
ENDMDL
