MODEL 1
REMARK VINA RESULT:     -11.8      0.000      0.000
REMARK SMILES O=C(NCCCCCCNC(=O)[C@@]1([NH2+]C2CC2)CC[C@@H]([N@@H+]2CC[N@@H+]3CCC[C@@H]3C2)C1)c1ccc(-c2c3nc(c(-c4cc(S(=O)(=O)[O-])ccc4F)c4ccc([nH]4)c(-c4cc(S(=O)(=O)[O-])ccc4F)c4nc(c(-c5cc(S(=O)(=O)[O-])ccc5F)c5ccc2[nH]5)C=C4)C=C3)cc1
REMARK SMILES IDX 6 1 5 2 4 3 3 4 1 5 2 6 31 8 32 9 93 10 33 11 92 12 34 13
REMARK SMILES IDX 35 14 36 15 86 16 37 17 91 18 85 19 87 20 38 21 90 22 84 23
REMARK SMILES IDX 83 24 39 26 71 27 51 28 70 29 52 30 55 31 69 32 88 33 53 34
REMARK SMILES IDX 54 35 68 37 89 38 56 39 40 40 41 41 49 42 42 43 48 44 50 45
REMARK SMILES IDX 47 46 43 47 44 48 45 49 46 50 72 51 73 52 81 53 74 54 80 55
REMARK SMILES IDX 82 56 79 57 75 58 76 59 77 60 78 61 57 62 58 63 66 64 59 65
REMARK SMILES IDX 65 66 67 67 64 68 60 69 61 70 62 71 63 72 7 73 8 74 9 75
REMARK SMILES IDX 10 76 11 77 12 79 13 80 18 81 30 82 19 83 20 84 14 85 15 88
REMARK SMILES IDX 16 89 17 90 21 91 22 92 29 93 23 95 28 96 24 97 27 98 25 99
REMARK SMILES IDX 26 101
REMARK H PARENT 3 7 87 25 55 36 10 78 14 86 14 87 21 94 24 100
REMARK Flexibility Score: inf
ROOT
ATOM      1  C   UNL A   1      31.314  30.633  25.696  1.00  0.00     0.002 C 
ENDROOT
BRANCH   1   2
ATOM      2  C   UNL A   1      31.300  31.973  26.432  1.00  0.00     0.021 C 
BRANCH   2   3
ATOM      3  C   UNL A   1      32.625  32.407  27.048  1.00  0.00     0.116 C 
BRANCH   3   4
ATOM      4  N   UNL A   1      32.614  33.776  27.536  1.00  0.00    -0.352 N 
ATOM      5  O   UNL A   1      33.234  35.526  28.820  1.00  0.00    -0.269 OA
ATOM      6  C   UNL A   1      33.451  34.375  28.449  1.00  0.00     0.251 C 
ATOM      7  H   UNL A   1      31.912  34.355  27.161  1.00  0.00     0.163 HD
BRANCH   6   8
ATOM      8  C   UNL A   1      34.597  33.619  29.006  1.00  0.00     0.039 A 
ATOM      9  C   UNL A   1      34.399  32.407  29.673  1.00  0.00     0.014 A 
ATOM     10  C   UNL A   1      35.887  34.137  28.866  1.00  0.00     0.014 A 
ATOM     11  C   UNL A   1      35.466  31.794  30.322  1.00  0.00     0.010 A 
ATOM     12  C   UNL A   1      36.972  33.474  29.450  1.00  0.00     0.010 A 
ATOM     13  C   UNL A   1      36.765  32.315  30.213  1.00  0.00    -0.014 A 
BRANCH  13  14
ATOM     14  C   UNL A   1      37.892  31.603  30.876  1.00  0.00     0.031 A 
ATOM     15  C   UNL A   1      38.706  30.576  30.138  1.00  0.00     0.074 A 
ATOM     16  C   UNL A   1      38.201  31.925  32.148  1.00  0.00     0.049 A 
ATOM     17  N   UNL A   1      39.743  29.890  30.551  1.00  0.00    -0.248 NA
ATOM     18  C   UNL A   1      38.296  30.270  28.760  1.00  0.00     0.031 C 
ATOM     19  C   UNL A   1      37.478  32.901  32.966  1.00  0.00     0.029 A 
ATOM     20  N   UNL A   1      39.210  31.489  32.968  1.00  0.00    -0.354 N 
ATOM     21  C   UNL A   1      40.100  29.059  29.494  1.00  0.00     0.074 A 
ATOM     22  C   UNL A   1      39.143  29.304  28.434  1.00  0.00     0.031 C 
ATOM     23  C   UNL A   1      38.099  33.032  34.147  1.00  0.00     0.029 A 
ATOM     24  C   UNL A   1      39.222  32.103  34.198  1.00  0.00     0.049 A 
ATOM     25  H   UNL A   1      39.863  30.803  32.701  1.00  0.00     0.167 HD
ATOM     26  C   UNL A   1      41.134  28.182  29.415  1.00  0.00     0.034 A 
ATOM     27  C   UNL A   1      40.037  31.932  35.256  1.00  0.00     0.034 A 
ATOM     28  C   UNL A   1      42.081  27.955  30.483  1.00  0.00     0.049 A 
ATOM     29  C   UNL A   1      41.153  30.929  35.155  1.00  0.00     0.074 A 
ATOM     30  C   UNL A   1      43.186  27.120  30.495  1.00  0.00     0.029 A 
ATOM     31  N   UNL A   1      42.031  28.557  31.736  1.00  0.00    -0.354 N 
ATOM     32  N   UNL A   1      41.490  30.168  34.140  1.00  0.00    -0.248 NA
ATOM     33  C   UNL A   1      41.999  30.764  36.343  1.00  0.00     0.031 C 
ATOM     34  C   UNL A   1      43.761  27.166  31.772  1.00  0.00     0.029 A 
ATOM     35  C   UNL A   1      43.062  28.086  32.536  1.00  0.00     0.049 A 
ATOM     36  H   UNL A   1      41.360  29.222  32.014  1.00  0.00     0.167 HD
ATOM     37  C   UNL A   1      42.602  29.446  34.563  1.00  0.00     0.074 A 
ATOM     38  C   UNL A   1      42.888  29.881  35.915  1.00  0.00     0.031 C 
ATOM     39  C   UNL A   1      43.323  28.511  33.893  1.00  0.00     0.034 A 
BRANCH  26  40
ATOM     40  C   UNL A   1      41.261  27.370  28.145  1.00  0.00     0.023 A 
ATOM     41  C   UNL A   1      40.910  26.009  28.095  1.00  0.00     0.031 A 
ATOM     42  C   UNL A   1      41.773  27.959  26.975  1.00  0.00     0.131 A 
ATOM     43  C   UNL A   1      41.144  25.266  26.926  1.00  0.00     0.055 A 
ATOM     44  C   UNL A   1      41.929  27.234  25.791  1.00  0.00     0.041 A 
ATOM     45  F   UNL A   1      42.144  29.249  26.965  1.00  0.00    -0.206 F 
ATOM     46  C   UNL A   1      41.630  25.875  25.767  1.00  0.00     0.022 A 
BRANCH  43  47
ATOM     47  S   UNL A   1      40.947  23.464  26.991  1.00  0.00     0.124 S 
ATOM     48  O   UNL A   1      41.406  23.162  28.345  1.00  0.00    -0.237 OA
ATOM     49  O   UNL A   1      39.519  23.294  26.747  1.00  0.00    -0.237 OA
ATOM     50  O   UNL A   1      41.824  22.984  25.923  1.00  0.00    -0.744 OA
ENDBRANCH  43  47
ENDBRANCH  26  40
BRANCH  27  51
ATOM     51  C   UNL A   1      39.817  32.713  36.506  1.00  0.00     0.023 A 
ATOM     52  C   UNL A   1      38.901  32.282  37.475  1.00  0.00     0.031 A 
ATOM     53  C   UNL A   1      40.510  33.915  36.738  1.00  0.00     0.131 A 
ATOM     54  C   UNL A   1      38.674  33.065  38.618  1.00  0.00     0.055 A 
ATOM     55  C   UNL A   1      40.319  34.663  37.899  1.00  0.00     0.041 A 
ATOM     56  F   UNL A   1      41.404  34.368  35.843  1.00  0.00    -0.206 F 
ATOM     57  C   UNL A   1      39.386  34.244  38.843  1.00  0.00     0.022 A 
BRANCH  54  58
ATOM     58  S   UNL A   1      37.378  32.551  39.778  1.00  0.00     0.124 S 
ATOM     59  O   UNL A   1      36.222  32.424  38.898  1.00  0.00    -0.237 OA
ATOM     60  O   UNL A   1      37.923  31.304  40.307  1.00  0.00    -0.237 OA
ATOM     61  O   UNL A   1      37.319  33.656  40.733  1.00  0.00    -0.744 OA
ENDBRANCH  54  58
ENDBRANCH  27  51
BRANCH  39  62
ATOM     62  C   UNL A   1      44.511  27.929  34.617  1.00  0.00     0.023 A 
ATOM     63  C   UNL A   1      44.403  26.764  35.396  1.00  0.00     0.031 A 
ATOM     64  C   UNL A   1      45.760  28.575  34.561  1.00  0.00     0.131 A 
ATOM     65  C   UNL A   1      45.505  26.316  36.141  1.00  0.00     0.055 A 
ATOM     66  C   UNL A   1      46.868  28.091  35.256  1.00  0.00     0.041 A 
ATOM     67  F   UNL A   1      45.918  29.693  33.836  1.00  0.00    -0.206 F 
ATOM     68  C   UNL A   1      46.741  26.964  36.064  1.00  0.00     0.022 A 
BRANCH  65  69
ATOM     69  S   UNL A   1      45.273  24.937  37.296  1.00  0.00     0.124 S 
ATOM     70  O   UNL A   1      44.531  25.571  38.381  1.00  0.00    -0.237 OA
ATOM     71  O   UNL A   1      44.527  23.977  36.489  1.00  0.00    -0.237 OA
ATOM     72  O   UNL A   1      46.638  24.536  37.630  1.00  0.00    -0.744 OA
ENDBRANCH  65  69
ENDBRANCH  39  62
ENDBRANCH  13  14
ENDBRANCH   6   8
ENDBRANCH   3   4
ENDBRANCH   2   3
ENDBRANCH   1   2
BRANCH   1  73
ATOM     73  C   UNL A   1      32.535  29.741  25.939  1.00  0.00     0.002 C 
BRANCH  73  74
ATOM     74  C   UNL A   1      32.798  28.650  24.894  1.00  0.00     0.021 C 
BRANCH  74  75
ATOM     75  C   UNL A   1      33.430  27.366  25.427  1.00  0.00     0.116 C 
BRANCH  75  76
ATOM     76  N   UNL A   1      32.538  26.618  26.293  1.00  0.00    -0.351 N 
ATOM     77  C   UNL A   1      31.851  25.464  26.028  1.00  0.00     0.281 C 
ATOM     78  H   UNL A   1      32.411  26.991  27.195  1.00  0.00     0.163 HD
ATOM     79  O   UNL A   1      31.263  24.935  26.980  1.00  0.00    -0.268 OA
BRANCH  77  80
ATOM     80  C   UNL A   1      31.742  24.899  24.583  1.00  0.00     0.181 C 
ATOM     81  C   UNL A   1      33.112  24.544  23.971  1.00  0.00     0.085 C 
ATOM     82  C   UNL A   1      31.073  23.498  24.670  1.00  0.00     0.144 C 
ATOM     83  C   UNL A   1      32.803  23.461  22.945  1.00  0.00     0.072 C 
ATOM     84  C   UNL A   1      31.739  22.584  23.617  1.00  0.00     0.191 C 
BRANCH  80  85
ATOM     85  N   UNL A   1      30.983  25.785  23.672  1.00  0.00    -0.331 N 
ATOM     86  H   UNL A   1      30.511  25.179  22.999  1.00  0.00     0.347 HD
ATOM     87  H   UNL A   1      31.696  26.420  23.315  1.00  0.00     0.347 HD
BRANCH  85  88
ATOM     88  C   UNL A   1      29.963  26.695  24.207  1.00  0.00     0.183 C 
ATOM     89  C   UNL A   1      29.222  27.741  23.426  1.00  0.00     0.071 C 
ATOM     90  C   UNL A   1      28.518  26.485  23.841  1.00  0.00     0.071 C 
ENDBRANCH  85  88
ENDBRANCH  80  85
BRANCH  84  91
ATOM     91  N   UNL A   1      32.279  21.314  24.121  1.00  0.00    -0.323 N 
ATOM     92  C   UNL A   1      33.488  21.454  24.955  1.00  0.00     0.324 C 
ATOM     93  C   UNL A   1      32.387  20.199  23.178  1.00  0.00     0.328 C 
ATOM     94  H   UNL A   1      31.515  21.027  24.733  1.00  0.00     0.348 HD
ATOM     95  C   UNL A   1      34.490  20.261  24.894  1.00  0.00     0.324 C 
ATOM     96  C   UNL A   1      32.697  18.894  23.940  1.00  0.00     0.240 C 
ATOM     97  N   UNL A   1      33.861  18.936  24.852  1.00  0.00    -0.323 N 
ATOM     98  C   UNL A   1      32.930  17.708  23.007  1.00  0.00     0.077 C 
ATOM     99  C   UNL A   1      34.789  17.872  24.457  1.00  0.00     0.263 C 
ATOM    100  H   UNL A   1      33.555  18.768  25.810  1.00  0.00     0.348 HD
ATOM    101  C   UNL A   1      33.901  16.841  23.784  1.00  0.00     0.068 C 
ENDBRANCH  84  91
ENDBRANCH  77  80
ENDBRANCH  75  76
ENDBRANCH  74  75
ENDBRANCH  73  74
ENDBRANCH   1  73
TORSDOF 19
ENDMDL
MODEL 2
REMARK VINA RESULT:     -11.8      1.904      2.155
REMARK SMILES O=C(NCCCCCCNC(=O)[C@@]1([NH2+]C2CC2)CC[C@@H]([N@@H+]2CC[N@@H+]3CCC[C@@H]3C2)C1)c1ccc(-c2c3nc(c(-c4cc(S(=O)(=O)[O-])ccc4F)c4ccc([nH]4)c(-c4cc(S(=O)(=O)[O-])ccc4F)c4nc(c(-c5cc(S(=O)(=O)[O-])ccc5F)c5ccc2[nH]5)C=C4)C=C3)cc1
REMARK SMILES IDX 6 1 5 2 4 3 3 4 1 5 2 6 31 8 32 9 93 10 33 11 92 12 34 13
REMARK SMILES IDX 35 14 36 15 86 16 37 17 91 18 85 19 87 20 38 21 90 22 84 23
REMARK SMILES IDX 83 24 39 26 71 27 51 28 70 29 52 30 55 31 69 32 88 33 53 34
REMARK SMILES IDX 54 35 68 37 89 38 56 39 40 40 41 41 49 42 42 43 48 44 50 45
REMARK SMILES IDX 47 46 43 47 44 48 45 49 46 50 72 51 73 52 81 53 74 54 80 55
REMARK SMILES IDX 82 56 79 57 75 58 76 59 77 60 78 61 57 62 58 63 66 64 59 65
REMARK SMILES IDX 65 66 67 67 64 68 60 69 61 70 62 71 63 72 7 73 8 74 9 75
REMARK SMILES IDX 10 76 11 77 12 79 13 80 18 81 30 82 19 83 20 84 14 85 15 88
REMARK SMILES IDX 16 89 17 90 21 91 22 92 29 93 23 95 28 96 24 97 27 98 25 99
REMARK SMILES IDX 26 101
REMARK H PARENT 3 7 87 25 55 36 10 78 14 86 14 87 21 94 24 100
REMARK Flexibility Score: inf
ROOT
ATOM      1  C   UNL A   1      31.401  30.653  25.795  1.00  0.00     0.002 C 
ENDROOT
BRANCH   1   2
ATOM      2  C   UNL A   1      31.345  31.950  26.603  1.00  0.00     0.021 C 
BRANCH   2   3
ATOM      3  C   UNL A   1      32.683  32.475  27.110  1.00  0.00     0.116 C 
BRANCH   3   4
ATOM      4  N   UNL A   1      32.626  33.853  27.569  1.00  0.00    -0.352 N 
ATOM      5  O   UNL A   1      33.144  35.635  28.853  1.00  0.00    -0.269 OA
ATOM      6  C   UNL A   1      33.399  34.481  28.518  1.00  0.00     0.251 C 
ATOM      7  H   UNL A   1      31.940  34.415  27.142  1.00  0.00     0.163 HD
BRANCH   6   8
ATOM      8  C   UNL A   1      34.518  33.751  29.159  1.00  0.00     0.039 A 
ATOM      9  C   UNL A   1      34.276  32.658  29.994  1.00  0.00     0.014 A 
ATOM     10  C   UNL A   1      35.829  34.175  28.924  1.00  0.00     0.014 A 
ATOM     11  C   UNL A   1      35.326  32.086  30.705  1.00  0.00     0.010 A 
ATOM     12  C   UNL A   1      36.893  33.545  29.578  1.00  0.00     0.010 A 
ATOM     13  C   UNL A   1      36.647  32.517  30.502  1.00  0.00    -0.014 A 
BRANCH  13  14
ATOM     14  C   UNL A   1      37.753  31.848  31.240  1.00  0.00     0.031 A 
ATOM     15  C   UNL A   1      38.571  30.761  30.597  1.00  0.00     0.074 A 
ATOM     16  C   UNL A   1      38.039  32.261  32.490  1.00  0.00     0.049 A 
ATOM     17  N   UNL A   1      39.592  30.099  31.082  1.00  0.00    -0.248 NA
ATOM     18  C   UNL A   1      38.187  30.356  29.238  1.00  0.00     0.031 C 
ATOM     19  C   UNL A   1      37.309  33.302  33.217  1.00  0.00     0.029 A 
ATOM     20  N   UNL A   1      39.026  31.879  33.361  1.00  0.00    -0.354 N 
ATOM     21  C   UNL A   1      39.963  29.188  30.099  1.00  0.00     0.074 A 
ATOM     22  C   UNL A   1      39.031  29.361  29.004  1.00  0.00     0.031 C 
ATOM     23  C   UNL A   1      37.907  33.515  34.398  1.00  0.00     0.029 A 
ATOM     24  C   UNL A   1      39.019  32.583  34.543  1.00  0.00     0.049 A 
ATOM     25  H   UNL A   1      39.677  31.169  33.161  1.00  0.00     0.167 HD
ATOM     26  C   UNL A   1      40.989  28.299  30.107  1.00  0.00     0.034 A 
ATOM     27  C   UNL A   1      39.810  32.485  35.627  1.00  0.00     0.034 A 
ATOM     28  C   UNL A   1      41.912  28.144  31.209  1.00  0.00     0.049 A 
ATOM     29  C   UNL A   1      40.917  31.467  35.625  1.00  0.00     0.074 A 
ATOM     30  C   UNL A   1      43.007  27.303  31.308  1.00  0.00     0.029 A 
ATOM     31  N   UNL A   1      41.842  28.838  32.412  1.00  0.00    -0.354 N 
ATOM     32  N   UNL A   1      41.267  30.629  34.678  1.00  0.00    -0.248 NA
ATOM     33  C   UNL A   1      41.737  31.385  36.840  1.00  0.00     0.031 C 
ATOM     34  C   UNL A   1      43.556  27.440  32.589  1.00  0.00     0.029 A 
ATOM     35  C   UNL A   1      42.851  28.420  33.268  1.00  0.00     0.049 A 
ATOM     36  H   UNL A   1      41.172  29.528  32.626  1.00  0.00     0.167 HD
ATOM     37  C   UNL A   1      42.363  29.932  35.176  1.00  0.00     0.074 A 
ATOM     38  C   UNL A   1      42.626  30.464  36.499  1.00  0.00     0.031 C 
ATOM     39  C   UNL A   1      43.088  28.943  34.594  1.00  0.00     0.034 A 
BRANCH  26  40
ATOM     40  C   UNL A   1      41.134  27.393  28.905  1.00  0.00     0.023 A 
ATOM     41  C   UNL A   1      42.139  27.592  27.941  1.00  0.00     0.031 A 
ATOM     42  C   UNL A   1      40.234  26.331  28.704  1.00  0.00     0.131 A 
ATOM     43  C   UNL A   1      42.173  26.792  26.786  1.00  0.00     0.055 A 
ATOM     44  C   UNL A   1      40.322  25.489  27.593  1.00  0.00     0.041 A 
ATOM     45  F   UNL A   1      39.242  26.102  29.579  1.00  0.00    -0.206 F 
ATOM     46  C   UNL A   1      41.285  25.728  26.618  1.00  0.00     0.022 A 
BRANCH  43  47
ATOM     47  S   UNL A   1      43.296  27.260  25.441  1.00  0.00     0.124 S 
ATOM     48  O   UNL A   1      44.306  28.040  26.153  1.00  0.00    -0.237 OA
ATOM     49  O   UNL A   1      43.731  25.965  24.929  1.00  0.00    -0.237 OA
ATOM     50  O   UNL A   1      42.446  28.034  24.537  1.00  0.00    -0.744 OA
ENDBRANCH  43  47
ENDBRANCH  26  40
BRANCH  27  51
ATOM     51  C   UNL A   1      39.573  33.359  36.810  1.00  0.00     0.023 A 
ATOM     52  C   UNL A   1      40.367  34.491  37.043  1.00  0.00     0.031 A 
ATOM     53  C   UNL A   1      38.557  33.061  37.737  1.00  0.00     0.131 A 
ATOM     54  C   UNL A   1      40.156  35.267  38.193  1.00  0.00     0.055 A 
ATOM     55  C   UNL A   1      38.318  33.865  38.852  1.00  0.00     0.041 A 
ATOM     56  F   UNL A   1      37.765  31.991  37.556  1.00  0.00    -0.206 F 
ATOM     57  C   UNL A   1      39.129  34.970  39.091  1.00  0.00     0.022 A 
BRANCH  54  58
ATOM     58  S   UNL A   1      41.293  36.638  38.536  1.00  0.00     0.124 S 
ATOM     59  O   UNL A   1      42.189  36.043  39.522  1.00  0.00    -0.237 OA
ATOM     60  O   UNL A   1      41.867  36.892  37.218  1.00  0.00    -0.237 OA
ATOM     61  O   UNL A   1      40.415  37.690  39.043  1.00  0.00    -0.744 OA
ENDBRANCH  54  58
ENDBRANCH  27  51
BRANCH  39  62
ATOM     62  C   UNL A   1      44.255  28.407  35.384  1.00  0.00     0.023 A 
ATOM     63  C   UNL A   1      44.096  27.381  36.332  1.00  0.00     0.031 A 
ATOM     64  C   UNL A   1      45.537  28.961  35.217  1.00  0.00     0.131 A 
ATOM     65  C   UNL A   1      45.185  26.985  37.124  1.00  0.00     0.055 A 
ATOM     66  C   UNL A   1      46.630  28.521  35.965  1.00  0.00     0.041 A 
ATOM     67  F   UNL A   1      45.746  29.945  34.329  1.00  0.00    -0.206 F 
ATOM     68  C   UNL A   1      46.454  27.539  36.936  1.00  0.00     0.022 A 
BRANCH  65  69
ATOM     69  S   UNL A   1      44.897  25.813  38.478  1.00  0.00     0.124 S 
ATOM     70  O   UNL A   1      44.186  26.639  39.449  1.00  0.00    -0.237 OA
ATOM     71  O   UNL A   1      44.108  24.772  37.827  1.00  0.00    -0.237 OA
ATOM     72  O   UNL A   1      46.245  25.410  38.875  1.00  0.00    -0.744 OA
ENDBRANCH  65  69
ENDBRANCH  39  62
ENDBRANCH  13  14
ENDBRANCH   6   8
ENDBRANCH   3   4
ENDBRANCH   2   3
ENDBRANCH   1   2
BRANCH   1  73
ATOM     73  C   UNL A   1      32.684  29.828  25.929  1.00  0.00     0.002 C 
BRANCH  73  74
ATOM     74  C   UNL A   1      33.301  29.313  24.623  1.00  0.00     0.021 C 
BRANCH  74  75
ATOM     75  C   UNL A   1      33.859  27.893  24.672  1.00  0.00     0.116 C 
BRANCH  75  76
ATOM     76  N   UNL A   1      33.162  27.048  25.623  1.00  0.00    -0.351 N 
ATOM     77  C   UNL A   1      32.620  25.806  25.432  1.00  0.00     0.281 C 
ATOM     78  H   UNL A   1      33.067  27.418  26.530  1.00  0.00     0.163 HD
ATOM     79  O   UNL A   1      32.200  25.221  26.439  1.00  0.00    -0.268 OA
BRANCH  77  80
ATOM     80  C   UNL A   1      32.458  25.202  24.008  1.00  0.00     0.181 C 
ATOM     81  C   UNL A   1      33.757  24.564  23.474  1.00  0.00     0.085 C 
ATOM     82  C   UNL A   1      31.532  23.958  24.121  1.00  0.00     0.144 C 
ATOM     83  C   UNL A   1      33.286  23.510  22.481  1.00  0.00     0.072 C 
ATOM     84  C   UNL A   1      32.049  22.884  23.138  1.00  0.00     0.191 C 
BRANCH  80  85
ATOM     85  N   UNL A   1      31.917  26.170  23.028  1.00  0.00    -0.331 N 
ATOM     86  H   UNL A   1      32.077  25.770  22.102  1.00  0.00     0.347 HD
ATOM     87  H   UNL A   1      32.407  27.034  23.258  1.00  0.00     0.347 HD
BRANCH  85  88
ATOM     88  C   UNL A   1      30.504  26.562  23.080  1.00  0.00     0.183 C 
ATOM     89  C   UNL A   1      29.872  27.434  24.126  1.00  0.00     0.071 C 
ATOM     90  C   UNL A   1      30.117  27.979  22.752  1.00  0.00     0.071 C 
ENDBRANCH  85  88
ENDBRANCH  80  85
BRANCH  84  91
ATOM     91  N   UNL A   1      32.317  21.562  23.718  1.00  0.00    -0.323 N 
ATOM     92  C   UNL A   1      33.405  21.541  24.715  1.00  0.00     0.324 C 
ATOM     93  C   UNL A   1      32.388  20.420  22.803  1.00  0.00     0.328 C 
ATOM     94  H   UNL A   1      31.440  21.406  24.216  1.00  0.00     0.348 HD
ATOM     95  C   UNL A   1      34.216  20.213  24.801  1.00  0.00     0.324 C 
ATOM     96  C   UNL A   1      32.390  19.102  23.607  1.00  0.00     0.240 C 
ATOM     97  N   UNL A   1      33.408  18.994  24.674  1.00  0.00    -0.323 N 
ATOM     98  C   UNL A   1      32.571  17.872  22.719  1.00  0.00     0.077 C 
ATOM     99  C   UNL A   1      34.212  17.796  24.419  1.00  0.00     0.263 C 
ATOM    100  H   UNL A   1      32.949  18.898  25.579  1.00  0.00     0.348 HD
ATOM    101  C   UNL A   1      33.283  16.892  23.629  1.00  0.00     0.068 C 
ENDBRANCH  84  91
ENDBRANCH  77  80
ENDBRANCH  75  76
ENDBRANCH  74  75
ENDBRANCH  73  74
ENDBRANCH   1  73
TORSDOF 19
ENDMDL
MODEL 3
REMARK VINA RESULT:     -11.7      2.095      7.652
REMARK SMILES O=C(NCCCCCCNC(=O)[C@@]1([NH2+]C2CC2)CC[C@@H]([N@@H+]2CC[N@@H+]3CCC[C@@H]3C2)C1)c1ccc(-c2c3nc(c(-c4cc(S(=O)(=O)[O-])ccc4F)c4ccc([nH]4)c(-c4cc(S(=O)(=O)[O-])ccc4F)c4nc(c(-c5cc(S(=O)(=O)[O-])ccc5F)c5ccc2[nH]5)C=C4)C=C3)cc1
REMARK SMILES IDX 6 1 5 2 4 3 3 4 1 5 2 6 31 8 32 9 93 10 33 11 92 12 34 13
REMARK SMILES IDX 35 14 36 15 86 16 37 17 91 18 85 19 87 20 38 21 90 22 84 23
REMARK SMILES IDX 83 24 39 26 71 27 51 28 70 29 52 30 55 31 69 32 88 33 53 34
REMARK SMILES IDX 54 35 68 37 89 38 56 39 40 40 41 41 49 42 42 43 48 44 50 45
REMARK SMILES IDX 47 46 43 47 44 48 45 49 46 50 72 51 73 52 81 53 74 54 80 55
REMARK SMILES IDX 82 56 79 57 75 58 76 59 77 60 78 61 57 62 58 63 66 64 59 65
REMARK SMILES IDX 65 66 67 67 64 68 60 69 61 70 62 71 63 72 7 73 8 74 9 75
REMARK SMILES IDX 10 76 11 77 12 79 13 80 18 81 30 82 19 83 20 84 14 85 15 88
REMARK SMILES IDX 16 89 17 90 21 91 22 92 29 93 23 95 28 96 24 97 27 98 25 99
REMARK SMILES IDX 26 101
REMARK H PARENT 3 7 87 25 55 36 10 78 14 86 14 87 21 94 24 100
REMARK Flexibility Score: inf
ROOT
ATOM      1  C   UNL A   1      32.066  30.534  26.827  1.00  0.00     0.002 C 
ENDROOT
BRANCH   1   2
ATOM      2  C   UNL A   1      31.693  32.016  26.876  1.00  0.00     0.021 C 
BRANCH   2   3
ATOM      3  C   UNL A   1      32.859  32.993  26.969  1.00  0.00     0.116 C 
BRANCH   3   4
ATOM      4  N   UNL A   1      32.556  34.184  27.745  1.00  0.00    -0.352 N 
ATOM      5  O   UNL A   1      32.706  35.628  29.472  1.00  0.00    -0.269 OA
ATOM      6  C   UNL A   1      33.161  34.646  28.891  1.00  0.00     0.251 C 
ATOM      7  H   UNL A   1      31.816  34.736  27.403  1.00  0.00     0.163 HD
BRANCH   6   8
ATOM      8  C   UNL A   1      34.342  33.939  29.439  1.00  0.00     0.039 A 
ATOM      9  C   UNL A   1      34.188  32.843  30.292  1.00  0.00     0.014 A 
ATOM     10  C   UNL A   1      35.621  34.387  29.098  1.00  0.00     0.014 A 
ATOM     11  C   UNL A   1      35.303  32.293  30.916  1.00  0.00     0.010 A 
ATOM     12  C   UNL A   1      36.746  33.778  29.664  1.00  0.00     0.010 A 
ATOM     13  C   UNL A   1      36.595  32.748  30.606  1.00  0.00    -0.014 A 
BRANCH  13  14
ATOM     14  C   UNL A   1      37.770  32.101  31.252  1.00  0.00     0.031 A 
ATOM     15  C   UNL A   1      38.220  32.505  32.629  1.00  0.00     0.074 A 
ATOM     16  C   UNL A   1      38.405  31.111  30.595  1.00  0.00     0.049 A 
ATOM     17  N   UNL A   1      39.198  32.021  33.354  1.00  0.00    -0.248 NA
ATOM     18  C   UNL A   1      37.486  33.604  33.272  1.00  0.00     0.031 C 
ATOM     19  C   UNL A   1      38.061  30.639  29.252  1.00  0.00     0.029 A 
ATOM     20  N   UNL A   1      39.452  30.308  30.970  1.00  0.00    -0.354 N 
ATOM     21  C   UNL A   1      39.210  32.764  34.530  1.00  0.00     0.074 A 
ATOM     22  C   UNL A   1      38.162  33.755  34.403  1.00  0.00     0.031 C 
ATOM     23  C   UNL A   1      38.842  29.595  28.939  1.00  0.00     0.029 A 
ATOM     24  C   UNL A   1      39.785  29.364  30.027  1.00  0.00     0.049 A 
ATOM     25  H   UNL A   1      39.920  30.399  31.830  1.00  0.00     0.167 HD
ATOM     26  C   UNL A   1      40.014  32.624  35.615  1.00  0.00     0.034 A 
ATOM     27  C   UNL A   1      40.750  28.425  30.029  1.00  0.00     0.034 A 
ATOM     28  C   UNL A   1      41.053  31.624  35.725  1.00  0.00     0.049 A 
ATOM     29  C   UNL A   1      41.650  28.315  31.228  1.00  0.00     0.074 A 
ATOM     30  C   UNL A   1      41.899  31.371  36.792  1.00  0.00     0.029 A 
ATOM     31  N   UNL A   1      41.398  30.719  34.728  1.00  0.00    -0.354 N 
ATOM     32  N   UNL A   1      41.632  29.011  32.341  1.00  0.00    -0.248 NA
ATOM     33  C   UNL A   1      42.699  27.290  31.171  1.00  0.00     0.031 C 
ATOM     34  C   UNL A   1      42.794  30.361  36.415  1.00  0.00     0.029 A 
ATOM     35  C   UNL A   1      42.463  29.931  35.141  1.00  0.00     0.049 A 
ATOM     36  H   UNL A   1      40.950  30.647  33.853  1.00  0.00     0.167 HD
ATOM     37  C   UNL A   1      42.658  28.493  33.126  1.00  0.00     0.074 A 
ATOM     38  C   UNL A   1      43.256  27.414  32.366  1.00  0.00     0.031 C 
ATOM     39  C   UNL A   1      43.066  28.873  34.364  1.00  0.00     0.034 A 
BRANCH  26  40
ATOM     40  C   UNL A   1      39.831  33.609  36.749  1.00  0.00     0.023 A 
ATOM     41  C   UNL A   1      40.717  34.682  36.952  1.00  0.00     0.031 A 
ATOM     42  C   UNL A   1      38.770  33.453  37.659  1.00  0.00     0.131 A 
ATOM     43  C   UNL A   1      40.571  35.509  38.078  1.00  0.00     0.055 A 
ATOM     44  C   UNL A   1      38.584  34.327  38.732  1.00  0.00     0.041 A 
ATOM     45  F   UNL A   1      37.902  32.437  37.529  1.00  0.00    -0.206 F 
ATOM     46  C   UNL A   1      39.497  35.352  38.956  1.00  0.00     0.022 A 
BRANCH  43  47
ATOM     47  S   UNL A   1      41.891  36.694  38.460  1.00  0.00     0.124 S 
ATOM     48  O   UNL A   1      42.375  37.041  37.125  1.00  0.00    -0.237 OA
ATOM     49  O   UNL A   1      41.173  37.746  39.172  1.00  0.00    -0.237 OA
ATOM     50  O   UNL A   1      42.827  35.918  39.270  1.00  0.00    -0.744 OA
ENDBRANCH  43  47
ENDBRANCH  26  40
BRANCH  27  51
ATOM     51  C   UNL A   1      40.926  27.529  28.851  1.00  0.00     0.023 A 
ATOM     52  C   UNL A   1      41.943  27.760  27.913  1.00  0.00     0.031 A 
ATOM     53  C   UNL A   1      40.064  26.438  28.638  1.00  0.00     0.131 A 
ATOM     54  C   UNL A   1      42.052  26.932  26.785  1.00  0.00     0.055 A 
ATOM     55  C   UNL A   1      40.209  25.588  27.542  1.00  0.00     0.041 A 
ATOM     56  F   UNL A   1      39.078  26.171  29.511  1.00  0.00    -0.206 F 
ATOM     57  C   UNL A   1      41.202  25.841  26.600  1.00  0.00     0.022 A 
BRANCH  54  58
ATOM     58  S   UNL A   1      43.286  27.347  25.521  1.00  0.00     0.124 S 
ATOM     59  O   UNL A   1      44.309  28.020  26.313  1.00  0.00    -0.237 OA
ATOM     60  O   UNL A   1      43.640  26.030  25.001  1.00  0.00    -0.237 OA
ATOM     61  O   UNL A   1      42.548  28.202  24.595  1.00  0.00    -0.744 OA
ENDBRANCH  54  58
ENDBRANCH  27  51
BRANCH  39  62
ATOM     62  C   UNL A   1      44.195  28.081  34.974  1.00  0.00     0.023 A 
ATOM     63  C   UNL A   1      43.962  26.889  35.682  1.00  0.00     0.031 A 
ATOM     64  C   UNL A   1      45.519  28.549  34.883  1.00  0.00     0.131 A 
ATOM     65  C   UNL A   1      45.025  26.239  36.327  1.00  0.00     0.055 A 
ATOM     66  C   UNL A   1      46.581  27.866  35.476  1.00  0.00     0.041 A 
ATOM     67  F   UNL A   1      45.798  29.684  34.223  1.00  0.00    -0.206 F 
ATOM     68  C   UNL A   1      46.336  26.713  36.216  1.00  0.00     0.022 A 
BRANCH  65  69
ATOM     69  S   UNL A   1      44.658  24.826  37.403  1.00  0.00     0.124 S 
ATOM     70  O   UNL A   1      43.419  25.248  38.047  1.00  0.00    -0.237 OA
ATOM     71  O   UNL A   1      44.540  23.729  36.448  1.00  0.00    -0.237 OA
ATOM     72  O   UNL A   1      45.822  24.755  38.285  1.00  0.00    -0.744 OA
ENDBRANCH  65  69
ENDBRANCH  39  62
ENDBRANCH  13  14
ENDBRANCH   6   8
ENDBRANCH   3   4
ENDBRANCH   2   3
ENDBRANCH   1   2
BRANCH   1  73
ATOM     73  C   UNL A   1      33.498  30.185  27.237  1.00  0.00     0.002 C 
BRANCH  73  74
ATOM     74  C   UNL A   1      33.977  28.768  26.895  1.00  0.00     0.021 C 
BRANCH  74  75
ATOM     75  C   UNL A   1      33.020  27.937  26.043  1.00  0.00     0.116 C 
BRANCH  75  76
ATOM     76  N   UNL A   1      33.638  27.438  24.829  1.00  0.00    -0.351 N 
ATOM     77  C   UNL A   1      33.118  26.593  23.885  1.00  0.00     0.281 C 
ATOM     78  H   UNL A   1      34.556  27.749  24.660  1.00  0.00     0.163 HD
ATOM     79  O   UNL A   1      33.789  26.424  22.860  1.00  0.00    -0.268 OA
BRANCH  77  80
ATOM     80  C   UNL A   1      31.794  25.816  24.134  1.00  0.00     0.181 C 
ATOM     81  C   UNL A   1      31.525  24.730  23.072  1.00  0.00     0.085 C 
ATOM     82  C   UNL A   1      31.983  24.952  25.414  1.00  0.00     0.144 C 
ATOM     83  C   UNL A   1      30.654  23.704  23.787  1.00  0.00     0.072 C 
ATOM     84  C   UNL A   1      31.245  23.611  25.199  1.00  0.00     0.191 C 
BRANCH  80  85
ATOM     85  N   UNL A   1      30.619  26.705  24.272  1.00  0.00    -0.331 N 
ATOM     86  H   UNL A   1      30.735  27.210  25.153  1.00  0.00     0.347 HD
ATOM     87  H   UNL A   1      29.830  26.064  24.198  1.00  0.00     0.347 HD
BRANCH  85  88
ATOM     88  C   UNL A   1      30.331  27.712  23.244  1.00  0.00     0.183 C 
ATOM     89  C   UNL A   1      29.063  28.509  23.125  1.00  0.00     0.071 C 
ATOM     90  C   UNL A   1      30.314  29.169  23.620  1.00  0.00     0.071 C 
ENDBRANCH  85  88
ENDBRANCH  80  85
BRANCH  84  91
ATOM     91  N   UNL A   1      32.048  22.399  25.406  1.00  0.00    -0.323 N 
ATOM     92  C   UNL A   1      33.460  22.654  25.751  1.00  0.00     0.324 C 
ATOM     93  C   UNL A   1      31.908  21.316  24.430  1.00  0.00     0.328 C 
ATOM     94  H   UNL A   1      31.592  22.023  26.237  1.00  0.00     0.348 HD
ATOM     95  C   UNL A   1      34.478  21.577  25.268  1.00  0.00     0.324 C 
ATOM     96  C   UNL A   1      32.597  20.040  24.957  1.00  0.00     0.240 C 
ATOM     97  N   UNL A   1      34.004  20.192  25.385  1.00  0.00    -0.323 N 
ATOM     98  C   UNL A   1      32.582  18.900  23.941  1.00  0.00     0.077 C 
ATOM     99  C   UNL A   1      34.818  19.240  24.626  1.00  0.00     0.263 C 
ATOM    100  H   UNL A   1      34.087  19.979  26.379  1.00  0.00     0.348 HD
ATOM    101  C   UNL A   1      33.846  18.131  24.267  1.00  0.00     0.068 C 
ENDBRANCH  84  91
ENDBRANCH  77  80
ENDBRANCH  75  76
ENDBRANCH  74  75
ENDBRANCH  73  74
ENDBRANCH   1  73
TORSDOF 19
ENDMDL
