MODEL 1
REMARK VINA RESULT:     -13.5      0.000      0.000
REMARK SMILES Cc1ccc(-c2cc(Cl)cc3c2O[C@H](C(F)(F)F)C(C(=O)NCCCCCCNC(=O)c2ccc(-c4c5nc(c(-c6cc(S(=O)(=O)[O-])ccc6F)c6ccc([nH]6)c(-c6cc(S(=O)(=O)[O-])ccc6F)c6nc(c(-c7cc(S(=O)(=O)[O-])ccc7F)c7ccc4[nH]7)C=C6)C=C5)cc2)=C3)cc1F
REMARK SMILES IDX 26 1 25 2 24 3 23 4 22 5 20 6 21 7 19 9 6 10 7 11 12 12 8 13
REMARK SMILES IDX 11 14 13 15 9 16 10 17 95 18 14 19 5 20 1 21 2 22 3 23 97 24
REMARK SMILES IDX 4 25 96 26 98 27 15 28 16 29 17 30 18 31 27 32 28 33 29 34
REMARK SMILES IDX 30 35 31 37 32 38 33 39 94 40 34 41 93 42 35 43 36 44 37 45
REMARK SMILES IDX 87 46 38 47 92 48 86 49 88 50 39 51 91 52 85 53 84 54 40 56
REMARK SMILES IDX 72 57 52 58 71 59 53 60 56 61 70 62 89 63 54 64 55 65 69 67
REMARK SMILES IDX 90 68 57 69 41 70 42 71 50 72 43 73 49 74 51 75 48 76 44 77
REMARK SMILES IDX 45 78 46 79 47 80 73 81 74 82 82 83 75 84 81 85 83 86 80 87
REMARK SMILES IDX 76 88 77 89 78 90 79 91 58 92 59 93 67 94 60 95 66 96 68 97
REMARK SMILES IDX 65 98 61 99 62 100 63 101 64 102
REMARK H PARENT 22 8 29 36 88 55 56 66
REMARK Flexibility Score: inf
ROOT
ATOM      1  C   UNL A   1      32.892  29.676  25.003  1.00  0.00     0.002 C 
ENDROOT
BRANCH   1   2
ATOM      2  C   UNL A   1      32.545  28.487  24.116  1.00  0.00     0.002 C 
BRANCH   2   3
ATOM      3  C   UNL A   1      33.626  28.145  23.081  1.00  0.00     0.021 C 
BRANCH   3   4
ATOM      4  C   UNL A   1      33.210  27.018  22.135  1.00  0.00     0.116 C 
BRANCH   4   5
ATOM      5  N   UNL A   1      31.947  26.448  22.574  1.00  0.00    -0.352 N 
ATOM      6  C   UNL A   1      31.535  25.248  23.038  1.00  0.00     0.251 C 
ATOM      7  O   UNL A   1      30.312  25.088  23.117  1.00  0.00    -0.270 OA
ATOM      8  H   UNL A   1      31.208  27.097  22.519  1.00  0.00     0.163 HD
BRANCH   6   9
ATOM      9  C   UNL A   1      32.451  24.150  23.464  1.00  0.00     0.067 C 
ATOM     10  C   UNL A   1      34.891  20.958  24.726  1.00  0.00     0.026 A 
ATOM     11  C   UNL A   1      34.356  19.664  24.746  1.00  0.00     0.033 A 
ATOM     12  C   UNL A   1      34.075  22.002  24.250  1.00  0.00     0.135 A 
ATOM     13  C   UNL A   1      33.049  19.434  24.306  1.00  0.00     0.042 A 
ATOM     14  C   UNL A   1      32.768  21.778  23.811  1.00  0.00     0.019 A 
ATOM     15  O   UNL A   1      34.650  23.237  24.169  1.00  0.00    -0.475 OA
ATOM     16  Cl  UNL A   1      32.414  17.834  24.330  1.00  0.00    -0.084 Cl
ATOM     17  C   UNL A   1      32.253  20.483  23.842  1.00  0.00     0.032 A 
ATOM     18  C   UNL A   1      31.978  22.899  23.310  1.00  0.00     0.025 C 
ATOM     19  C   UNL A   1      33.774  24.388  24.138  1.00  0.00     0.314 C 
BRANCH  10  20
ATOM     20  C   UNL A   1      36.264  21.229  25.187  1.00  0.00    -0.012 A 
ATOM     21  C   UNL A   1      40.351  22.191  26.243  1.00  0.00     0.047 C 
ATOM     22  C   UNL A   1      38.939  21.828  25.896  1.00  0.00    -0.015 A 
ATOM     23  C   UNL A   1      38.613  20.583  25.348  1.00  0.00     0.007 A 
ATOM     24  C   UNL A   1      37.918  22.756  26.094  1.00  0.00     0.126 A 
ATOM     25  C   UNL A   1      37.289  20.286  25.001  1.00  0.00     0.009 A 
ATOM     26  C   UNL A   1      36.600  22.470  25.751  1.00  0.00     0.048 A 
ATOM     27  F   UNL A   1      38.202  23.956  26.621  1.00  0.00    -0.207 F 
ENDBRANCH  10  20
BRANCH  19  28
ATOM     28  C   UNL A   1      33.626  24.959  25.560  1.00  0.00     0.429 C 
ATOM     29  F   UNL A   1      32.371  25.400  25.783  1.00  0.00    -0.167 F 
ATOM     30  F   UNL A   1      33.917  24.052  26.519  1.00  0.00    -0.167 F 
ATOM     31  F   UNL A   1      34.460  26.013  25.757  1.00  0.00    -0.167 F 
ENDBRANCH  19  28
ENDBRANCH   6   9
ENDBRANCH   4   5
ENDBRANCH   3   4
ENDBRANCH   2   3
ENDBRANCH   1   2
BRANCH   1  32
ATOM     32  C   UNL A   1      33.796  29.284  26.161  1.00  0.00     0.021 C 
BRANCH  32  33
ATOM     33  C   UNL A   1      33.432  29.796  27.542  1.00  0.00     0.116 C 
BRANCH  33  34
ATOM     34  N   UNL A   1      34.231  30.919  28.012  1.00  0.00    -0.352 N 
ATOM     35  C   UNL A   1      35.561  31.137  28.260  1.00  0.00     0.251 C 
ATOM     36  H   UNL A   1      33.683  31.715  28.196  1.00  0.00     0.163 HD
ATOM     37  O   UNL A   1      35.887  32.307  28.486  1.00  0.00    -0.269 OA
BRANCH  35  38
ATOM     38  C   UNL A   1      36.583  30.071  28.441  1.00  0.00     0.039 A 
ATOM     39  C   UNL A   1      36.708  29.222  29.538  1.00  0.00     0.014 A 
ATOM     40  C   UNL A   1      37.580  30.037  27.454  1.00  0.00     0.014 A 
ATOM     41  C   UNL A   1      37.924  28.578  29.793  1.00  0.00     0.010 A 
ATOM     42  C   UNL A   1      38.770  29.367  27.683  1.00  0.00     0.010 A 
ATOM     43  C   UNL A   1      38.988  28.743  28.911  1.00  0.00    -0.014 A 
BRANCH  43  44
ATOM     44  C   UNL A   1      40.352  28.312  29.197  1.00  0.00     0.031 A 
ATOM     45  C   UNL A   1      40.904  27.087  28.560  1.00  0.00     0.074 A 
ATOM     46  C   UNL A   1      41.122  29.047  30.044  1.00  0.00     0.049 A 
ATOM     47  N   UNL A   1      41.897  26.422  29.043  1.00  0.00    -0.248 NA
ATOM     48  C   UNL A   1      40.361  26.482  27.341  1.00  0.00     0.031 C 
ATOM     49  C   UNL A   1      42.569  28.994  30.171  1.00  0.00     0.029 A 
ATOM     50  N   UNL A   1      40.772  29.969  31.040  1.00  0.00    -0.354 N 
ATOM     51  C   UNL A   1      42.312  25.525  28.082  1.00  0.00     0.074 A 
ATOM     52  C   UNL A   1      41.247  25.503  27.106  1.00  0.00     0.031 C 
ATOM     53  C   UNL A   1      42.938  29.610  31.307  1.00  0.00     0.029 A 
ATOM     54  C   UNL A   1      41.731  29.885  32.065  1.00  0.00     0.049 A 
ATOM     55  H   UNL A   1      39.992  30.569  31.025  1.00  0.00     0.167 HD
ATOM     56  C   UNL A   1      43.588  25.046  28.141  1.00  0.00     0.034 A 
ATOM     57  C   UNL A   1      41.546  29.560  33.391  1.00  0.00     0.034 A 
ATOM     58  C   UNL A   1      44.277  25.561  29.326  1.00  0.00     0.049 A 
ATOM     59  C   UNL A   1      42.403  28.387  33.848  1.00  0.00     0.074 A 
ATOM     60  C   UNL A   1      45.118  26.645  29.517  1.00  0.00     0.029 A 
ATOM     61  N   UNL A   1      43.896  25.139  30.587  1.00  0.00    -0.354 N 
ATOM     62  N   UNL A   1      43.216  27.744  33.068  1.00  0.00    -0.248 NA
ATOM     63  C   UNL A   1      42.253  27.733  35.154  1.00  0.00     0.031 C 
ATOM     64  C   UNL A   1      45.263  26.852  30.911  1.00  0.00     0.029 A 
ATOM     65  C   UNL A   1      44.529  25.884  31.570  1.00  0.00     0.049 A 
ATOM     66  H   UNL A   1      43.260  24.408  30.762  1.00  0.00     0.167 HD
ATOM     67  C   UNL A   1      43.555  26.556  33.647  1.00  0.00     0.074 A 
ATOM     68  C   UNL A   1      42.944  26.597  34.962  1.00  0.00     0.031 C 
ATOM     69  C   UNL A   1      44.259  25.603  32.972  1.00  0.00     0.034 A 
BRANCH  56  70
ATOM     70  C   UNL A   1      44.335  24.365  27.006  1.00  0.00     0.023 A 
ATOM     71  C   UNL A   1      44.249  22.994  26.680  1.00  0.00     0.031 A 
ATOM     72  C   UNL A   1      45.149  25.139  26.142  1.00  0.00     0.131 A 
ATOM     73  C   UNL A   1      44.858  22.480  25.513  1.00  0.00     0.055 A 
ATOM     74  C   UNL A   1      45.771  24.623  25.001  1.00  0.00     0.041 A 
ATOM     75  F   UNL A   1      45.355  26.449  26.340  1.00  0.00    -0.206 F 
ATOM     76  C   UNL A   1      45.612  23.291  24.668  1.00  0.00     0.022 A 
BRANCH  73  77
ATOM     77  S   UNL A   1      44.640  20.750  25.001  1.00  0.00     0.124 S 
ATOM     78  O   UNL A   1      45.868  20.125  25.492  1.00  0.00    -0.237 OA
ATOM     79  O   UNL A   1      43.423  20.360  25.708  1.00  0.00    -0.237 OA
ATOM     80  O   UNL A   1      44.528  20.823  23.548  1.00  0.00    -0.744 OA
ENDBRANCH  73  77
ENDBRANCH  56  70
BRANCH  57  81
ATOM     81  C   UNL A   1      40.155  29.700  33.924  1.00  0.00     0.023 A 
ATOM     82  C   UNL A   1      39.214  30.163  32.997  1.00  0.00     0.031 A 
ATOM     83  C   UNL A   1      40.033  30.078  35.267  1.00  0.00     0.131 A 
ATOM     84  C   UNL A   1      38.565  31.351  33.283  1.00  0.00     0.055 A 
ATOM     85  C   UNL A   1      39.394  31.268  35.560  1.00  0.00     0.041 A 
ATOM     86  F   UNL A   1      40.778  29.493  36.216  1.00  0.00    -0.206 F 
ATOM     87  C   UNL A   1      38.812  31.973  34.507  1.00  0.00     0.022 A 
BRANCH  84  88
ATOM     88  S   UNL A   1      37.556  32.071  31.957  1.00  0.00     0.124 S 
ATOM     89  O   UNL A   1      36.358  31.242  32.039  1.00  0.00    -0.237 OA
ATOM     90  O   UNL A   1      37.345  33.460  32.365  1.00  0.00    -0.237 OA
ATOM     91  O   UNL A   1      38.392  31.900  30.786  1.00  0.00    -0.744 OA
ENDBRANCH  84  88
ENDBRANCH  57  81
BRANCH  69  92
ATOM     92  C   UNL A   1      44.763  24.331  33.591  1.00  0.00     0.023 A 
ATOM     93  C   UNL A   1      46.138  24.173  33.863  1.00  0.00     0.031 A 
ATOM     94  C   UNL A   1      43.911  23.328  34.086  1.00  0.00     0.131 A 
ATOM     95  C   UNL A   1      46.619  23.058  34.556  1.00  0.00     0.055 A 
ATOM     96  C   UNL A   1      44.397  22.183  34.723  1.00  0.00     0.041 A 
ATOM     97  F   UNL A   1      42.576  23.457  34.034  1.00  0.00    -0.206 F 
ATOM     98  C   UNL A   1      45.758  22.044  34.961  1.00  0.00     0.022 A 
BRANCH  95  99
ATOM     99  S   UNL A   1      48.361  22.954  35.049  1.00  0.00     0.124 S 
ATOM    100  O   UNL A   1      48.747  21.653  34.503  1.00  0.00    -0.237 OA
ATOM    101  O   UNL A   1      48.936  24.110  34.367  1.00  0.00    -0.237 OA
ATOM    102  O   UNL A   1      48.322  23.036  36.503  1.00  0.00    -0.744 OA
ENDBRANCH  95  99
ENDBRANCH  69  92
ENDBRANCH  43  44
ENDBRANCH  35  38
ENDBRANCH  33  34
ENDBRANCH  32  33
ENDBRANCH   1  32
TORSDOF 18
ENDMDL
MODEL 2
REMARK VINA RESULT:     -13.5      2.426      3.300
REMARK SMILES Cc1ccc(-c2cc(Cl)cc3c2O[C@H](C(F)(F)F)C(C(=O)NCCCCCCNC(=O)c2ccc(-c4c5nc(c(-c6cc(S(=O)(=O)[O-])ccc6F)c6ccc([nH]6)c(-c6cc(S(=O)(=O)[O-])ccc6F)c6nc(c(-c7cc(S(=O)(=O)[O-])ccc7F)c7ccc4[nH]7)C=C6)C=C5)cc2)=C3)cc1F
REMARK SMILES IDX 26 1 25 2 24 3 23 4 22 5 20 6 21 7 19 9 6 10 7 11 12 12 8 13
REMARK SMILES IDX 11 14 13 15 9 16 10 17 95 18 14 19 5 20 1 21 2 22 3 23 97 24
REMARK SMILES IDX 4 25 96 26 98 27 15 28 16 29 17 30 18 31 27 32 28 33 29 34
REMARK SMILES IDX 30 35 31 37 32 38 33 39 94 40 34 41 93 42 35 43 36 44 37 45
REMARK SMILES IDX 87 46 38 47 92 48 86 49 88 50 39 51 91 52 85 53 84 54 40 56
REMARK SMILES IDX 72 57 52 58 71 59 53 60 56 61 70 62 89 63 54 64 55 65 69 67
REMARK SMILES IDX 90 68 57 69 41 70 42 71 50 72 43 73 49 74 51 75 48 76 44 77
REMARK SMILES IDX 45 78 46 79 47 80 73 81 74 82 82 83 75 84 81 85 83 86 80 87
REMARK SMILES IDX 76 88 77 89 78 90 79 91 58 92 59 93 67 94 60 95 66 96 68 97
REMARK SMILES IDX 65 98 61 99 62 100 63 101 64 102
REMARK H PARENT 22 8 29 36 88 55 56 66
REMARK Flexibility Score: inf
ROOT
ATOM      1  C   UNL A   1      33.474  28.867  26.338  1.00  0.00     0.002 C 
ENDROOT
BRANCH   1   2
ATOM      2  C   UNL A   1      32.577  29.286  25.180  1.00  0.00     0.002 C 
BRANCH   2   3
ATOM      3  C   UNL A   1      32.699  28.386  23.941  1.00  0.00     0.021 C 
BRANCH   3   4
ATOM      4  C   UNL A   1      31.410  27.625  23.630  1.00  0.00     0.116 C 
BRANCH   4   5
ATOM      5  N   UNL A   1      30.771  27.210  24.869  1.00  0.00    -0.352 N 
ATOM      6  C   UNL A   1      30.784  26.103  25.642  1.00  0.00     0.251 C 
ATOM      7  O   UNL A   1      29.931  26.055  26.535  1.00  0.00    -0.270 OA
ATOM      8  H   UNL A   1      30.183  27.910  25.235  1.00  0.00     0.163 HD
BRANCH   6   9
ATOM      9  C   UNL A   1      31.754  24.980  25.489  1.00  0.00     0.067 C 
ATOM     10  C   UNL A   1      34.616  21.929  24.998  1.00  0.00     0.026 A 
ATOM     11  C   UNL A   1      35.974  22.248  25.130  1.00  0.00     0.033 A 
ATOM     12  C   UNL A   1      33.674  22.953  25.219  1.00  0.00     0.135 A 
ATOM     13  C   UNL A   1      36.364  23.547  25.466  1.00  0.00     0.042 A 
ATOM     14  C   UNL A   1      34.059  24.253  25.555  1.00  0.00     0.019 A 
ATOM     15  O   UNL A   1      32.359  22.594  25.162  1.00  0.00    -0.475 OA
ATOM     16  Cl  UNL A   1      38.038  23.914  25.633  1.00  0.00    -0.084 Cl
ATOM     17  C   UNL A   1      35.416  24.550  25.677  1.00  0.00     0.032 A 
ATOM     18  C   UNL A   1      33.035  25.265  25.791  1.00  0.00     0.025 C 
ATOM     19  C   UNL A   1      31.385  23.636  24.922  1.00  0.00     0.314 C 
BRANCH  10  20
ATOM     20  C   UNL A   1      34.177  20.569  24.640  1.00  0.00    -0.012 A 
ATOM     21  C   UNL A   1      33.085  16.598  23.309  1.00  0.00     0.047 C 
ATOM     22  C   UNL A   1      33.431  17.976  23.785  1.00  0.00    -0.015 A 
ATOM     23  C   UNL A   1      32.603  19.072  23.527  1.00  0.00     0.007 A 
ATOM     24  C   UNL A   1      34.620  18.188  24.481  1.00  0.00     0.126 A 
ATOM     25  C   UNL A   1      32.971  20.355  23.954  1.00  0.00     0.009 A 
ATOM     26  C   UNL A   1      34.994  19.459  24.907  1.00  0.00     0.048 A 
ATOM     27  F   UNL A   1      35.431  17.154  24.745  1.00  0.00    -0.207 F 
ENDBRANCH  10  20
BRANCH  19  28
ATOM     28  C   UNL A   1      31.052  23.693  23.420  1.00  0.00     0.429 C 
ATOM     29  F   UNL A   1      29.890  24.344  23.200  1.00  0.00    -0.167 F 
ATOM     30  F   UNL A   1      32.010  24.312  22.696  1.00  0.00    -0.167 F 
ATOM     31  F   UNL A   1      30.917  22.446  22.898  1.00  0.00    -0.167 F 
ENDBRANCH  19  28
ENDBRANCH   6   9
ENDBRANCH   4   5
ENDBRANCH   3   4
ENDBRANCH   2   3
ENDBRANCH   1   2
BRANCH   1  32
ATOM     32  C   UNL A   1      34.449  29.964  26.736  1.00  0.00     0.021 C 
BRANCH  32  33
ATOM     33  C   UNL A   1      34.204  30.679  28.052  1.00  0.00     0.116 C 
BRANCH  33  34
ATOM     34  N   UNL A   1      35.235  31.634  28.434  1.00  0.00    -0.352 N 
ATOM     35  C   UNL A   1      36.596  31.592  28.593  1.00  0.00     0.251 C 
ATOM     36  H   UNL A   1      34.865  32.526  28.625  1.00  0.00     0.163 HD
ATOM     37  O   UNL A   1      37.157  32.680  28.760  1.00  0.00    -0.269 OA
BRANCH  35  38
ATOM     38  C   UNL A   1      37.401  30.351  28.745  1.00  0.00     0.039 A 
ATOM     39  C   UNL A   1      37.531  29.586  29.902  1.00  0.00     0.014 A 
ATOM     40  C   UNL A   1      38.197  30.025  27.637  1.00  0.00     0.014 A 
ATOM     41  C   UNL A   1      38.620  28.720  30.053  1.00  0.00     0.010 A 
ATOM     42  C   UNL A   1      39.252  29.137  27.769  1.00  0.00     0.010 A 
ATOM     43  C   UNL A   1      39.538  28.582  29.016  1.00  0.00    -0.014 A 
BRANCH  43  44
ATOM     44  C   UNL A   1      40.817  27.894  29.151  1.00  0.00     0.031 A 
ATOM     45  C   UNL A   1      40.958  26.475  28.728  1.00  0.00     0.074 A 
ATOM     46  C   UNL A   1      41.887  28.565  29.659  1.00  0.00     0.049 A 
ATOM     47  N   UNL A   1      41.881  25.691  29.171  1.00  0.00    -0.248 NA
ATOM     48  C   UNL A   1      40.049  25.805  27.796  1.00  0.00     0.031 C 
ATOM     49  C   UNL A   1      43.286  28.187  29.541  1.00  0.00     0.029 A 
ATOM     50  N   UNL A   1      41.957  29.712  30.461  1.00  0.00    -0.354 N 
ATOM     51  C   UNL A   1      41.884  24.559  28.387  1.00  0.00     0.074 A 
ATOM     52  C   UNL A   1      40.648  24.615  27.643  1.00  0.00     0.031 C 
ATOM     53  C   UNL A   1      44.012  28.895  30.422  1.00  0.00     0.029 A 
ATOM     54  C   UNL A   1      43.083  29.590  31.294  1.00  0.00     0.049 A 
ATOM     55  H   UNL A   1      41.329  30.470  30.443  1.00  0.00     0.167 HD
ATOM     56  C   UNL A   1      43.020  23.805  28.332  1.00  0.00     0.034 A 
ATOM     57  C   UNL A   1      43.136  29.572  32.671  1.00  0.00     0.034 A 
ATOM     58  C   UNL A   1      44.043  24.347  29.227  1.00  0.00     0.049 A 
ATOM     59  C   UNL A   1      43.820  28.332  33.230  1.00  0.00     0.074 A 
ATOM     60  C   UNL A   1      45.104  25.211  29.014  1.00  0.00     0.029 A 
ATOM     61  N   UNL A   1      43.875  24.272  30.598  1.00  0.00    -0.354 N 
ATOM     62  N   UNL A   1      44.295  27.377  32.490  1.00  0.00    -0.248 NA
ATOM     63  C   UNL A   1      43.836  27.987  34.657  1.00  0.00     0.031 C 
ATOM     64  C   UNL A   1      45.593  25.633  30.275  1.00  0.00     0.029 A 
ATOM     65  C   UNL A   1      44.845  25.011  31.257  1.00  0.00     0.049 A 
ATOM     66  H   UNL A   1      43.161  23.762  31.045  1.00  0.00     0.167 HD
ATOM     67  C   UNL A   1      44.510  26.272  33.260  1.00  0.00     0.074 A 
ATOM     68  C   UNL A   1      44.226  26.703  34.615  1.00  0.00     0.031 C 
ATOM     69  C   UNL A   1      44.842  25.069  32.711  1.00  0.00     0.034 A 
BRANCH  56  70
ATOM     70  C   UNL A   1      43.346  22.763  27.272  1.00  0.00     0.023 A 
ATOM     71  C   UNL A   1      42.938  21.413  27.304  1.00  0.00     0.031 A 
ATOM     72  C   UNL A   1      44.064  23.148  26.112  1.00  0.00     0.131 A 
ATOM     73  C   UNL A   1      43.154  20.557  26.200  1.00  0.00     0.055 A 
ATOM     74  C   UNL A   1      44.298  22.294  25.031  1.00  0.00     0.041 A 
ATOM     75  F   UNL A   1      44.545  24.390  25.951  1.00  0.00    -0.206 F 
ATOM     76  C   UNL A   1      43.826  20.995  25.061  1.00  0.00     0.022 A 
BRANCH  73  77
ATOM     77  S   UNL A   1      42.511  18.858  26.164  1.00  0.00     0.124 S 
ATOM     78  O   UNL A   1      43.409  18.208  25.209  1.00  0.00    -0.237 OA
ATOM     79  O   UNL A   1      42.669  18.429  27.551  1.00  0.00    -0.237 OA
ATOM     80  O   UNL A   1      41.134  19.011  25.705  1.00  0.00    -0.744 OA
ENDBRANCH  73  77
ENDBRANCH  56  70
BRANCH  57  81
ATOM     81  C   UNL A   1      41.954  30.141  33.391  1.00  0.00     0.023 A 
ATOM     82  C   UNL A   1      42.257  31.154  34.308  1.00  0.00     0.031 A 
ATOM     83  C   UNL A   1      40.906  29.256  33.673  1.00  0.00     0.131 A 
ATOM     84  C   UNL A   1      41.926  30.937  35.634  1.00  0.00     0.055 A 
ATOM     85  C   UNL A   1      40.576  29.027  34.996  1.00  0.00     0.041 A 
ATOM     86  F   UNL A   1      40.447  28.413  32.737  1.00  0.00    -0.206 F 
ATOM     87  C   UNL A   1      41.237  29.772  35.972  1.00  0.00     0.022 A 
BRANCH  84  88
ATOM     88  S   UNL A   1      42.563  32.132  36.842  1.00  0.00     0.124 S 
ATOM     89  O   UNL A   1      42.211  31.473  38.095  1.00  0.00    -0.237 OA
ATOM     90  O   UNL A   1      44.003  32.187  36.585  1.00  0.00    -0.237 OA
ATOM     91  O   UNL A   1      41.838  33.343  36.512  1.00  0.00    -0.744 OA
ENDBRANCH  84  88
ENDBRANCH  57  81
BRANCH  69  92
ATOM     92  C   UNL A   1      45.206  23.850  33.510  1.00  0.00     0.023 A 
ATOM     93  C   UNL A   1      46.515  23.701  34.015  1.00  0.00     0.031 A 
ATOM     94  C   UNL A   1      44.260  22.905  33.942  1.00  0.00     0.131 A 
ATOM     95  C   UNL A   1      46.849  22.646  34.869  1.00  0.00     0.055 A 
ATOM     96  C   UNL A   1      44.607  21.814  34.745  1.00  0.00     0.041 A 
ATOM     97  F   UNL A   1      42.955  23.044  33.662  1.00  0.00    -0.206 F 
ATOM     98  C   UNL A   1      45.908  21.681  35.213  1.00  0.00     0.022 A 
BRANCH  95  99
ATOM     99  S   UNL A   1      48.485  22.564  35.646  1.00  0.00     0.124 S 
ATOM    100  O   UNL A   1      49.360  22.956  34.541  1.00  0.00    -0.237 OA
ATOM    101  O   UNL A   1      48.357  23.549  36.718  1.00  0.00    -0.237 OA
ATOM    102  O   UNL A   1      48.603  21.178  36.076  1.00  0.00    -0.744 OA
ENDBRANCH  95  99
ENDBRANCH  69  92
ENDBRANCH  43  44
ENDBRANCH  35  38
ENDBRANCH  33  34
ENDBRANCH  32  33
ENDBRANCH   1  32
TORSDOF 18
ENDMDL
MODEL 3
REMARK VINA RESULT:     -13.5      1.707      2.096
REMARK SMILES Cc1ccc(-c2cc(Cl)cc3c2O[C@H](C(F)(F)F)C(C(=O)NCCCCCCNC(=O)c2ccc(-c4c5nc(c(-c6cc(S(=O)(=O)[O-])ccc6F)c6ccc([nH]6)c(-c6cc(S(=O)(=O)[O-])ccc6F)c6nc(c(-c7cc(S(=O)(=O)[O-])ccc7F)c7ccc4[nH]7)C=C6)C=C5)cc2)=C3)cc1F
REMARK SMILES IDX 26 1 25 2 24 3 23 4 22 5 20 6 21 7 19 9 6 10 7 11 12 12 8 13
REMARK SMILES IDX 11 14 13 15 9 16 10 17 95 18 14 19 5 20 1 21 2 22 3 23 97 24
REMARK SMILES IDX 4 25 96 26 98 27 15 28 16 29 17 30 18 31 27 32 28 33 29 34
REMARK SMILES IDX 30 35 31 37 32 38 33 39 94 40 34 41 93 42 35 43 36 44 37 45
REMARK SMILES IDX 87 46 38 47 92 48 86 49 88 50 39 51 91 52 85 53 84 54 40 56
REMARK SMILES IDX 72 57 52 58 71 59 53 60 56 61 70 62 89 63 54 64 55 65 69 67
REMARK SMILES IDX 90 68 57 69 41 70 42 71 50 72 43 73 49 74 51 75 48 76 44 77
REMARK SMILES IDX 45 78 46 79 47 80 73 81 74 82 82 83 75 84 81 85 83 86 80 87
REMARK SMILES IDX 76 88 77 89 78 90 79 91 58 92 59 93 67 94 60 95 66 96 68 97
REMARK SMILES IDX 65 98 61 99 62 100 63 101 64 102
REMARK H PARENT 22 8 29 36 88 55 56 66
REMARK Flexibility Score: inf
ROOT
ATOM      1  C   UNL A   1      31.708  29.846  25.542  1.00  0.00     0.002 C 
ENDROOT
BRANCH   1   2
ATOM      2  C   UNL A   1      31.699  28.326  25.432  1.00  0.00     0.002 C 
BRANCH   2   3
ATOM      3  C   UNL A   1      30.702  27.783  24.399  1.00  0.00     0.021 C 
BRANCH   3   4
ATOM      4  C   UNL A   1      30.902  26.296  24.104  1.00  0.00     0.116 C 
BRANCH   4   5
ATOM      5  N   UNL A   1      31.351  26.122  22.732  1.00  0.00    -0.352 N 
ATOM      6  C   UNL A   1      32.295  25.386  22.107  1.00  0.00     0.251 C 
ATOM      7  O   UNL A   1      32.510  25.670  20.924  1.00  0.00    -0.270 OA
ATOM      8  H   UNL A   1      30.841  26.681  22.101  1.00  0.00     0.163 HD
BRANCH   6   9
ATOM      9  C   UNL A   1      33.054  24.272  22.747  1.00  0.00     0.067 C 
ATOM     10  C   UNL A   1      35.040  21.068  24.626  1.00  0.00     0.026 A 
ATOM     11  C   UNL A   1      34.332  19.886  24.876  1.00  0.00     0.033 A 
ATOM     12  C   UNL A   1      34.372  22.107  23.949  1.00  0.00     0.135 A 
ATOM     13  C   UNL A   1      33.002  19.760  24.463  1.00  0.00     0.042 A 
ATOM     14  C   UNL A   1      33.043  21.986  23.535  1.00  0.00     0.019 A 
ATOM     15  O   UNL A   1      35.111  23.214  23.650  1.00  0.00    -0.475 OA
ATOM     16  Cl  UNL A   1      32.153  18.294  24.772  1.00  0.00    -0.084 Cl
ATOM     17  C   UNL A   1      32.355  20.802  23.797  1.00  0.00     0.032 A 
ATOM     18  C   UNL A   1      32.412  23.090  22.819  1.00  0.00     0.025 C 
ATOM     19  C   UNL A   1      34.403  24.448  23.390  1.00  0.00     0.314 C 
BRANCH  10  20
ATOM     20  C   UNL A   1      36.441  21.230  25.054  1.00  0.00    -0.012 A 
ATOM     21  C   UNL A   1      40.468  21.552  26.606  1.00  0.00     0.047 C 
ATOM     22  C   UNL A   1      39.079  21.470  26.050  1.00  0.00    -0.015 A 
ATOM     23  C   UNL A   1      38.192  22.549  26.126  1.00  0.00     0.007 A 
ATOM     24  C   UNL A   1      38.638  20.285  25.465  1.00  0.00     0.126 A 
ATOM     25  C   UNL A   1      36.888  22.430  25.629  1.00  0.00     0.009 A 
ATOM     26  C   UNL A   1      37.344  20.158  24.970  1.00  0.00     0.048 A 
ATOM     27  F   UNL A   1      39.469  19.237  25.376  1.00  0.00    -0.207 F 
ENDBRANCH  10  20
BRANCH  19  28
ATOM     28  C   UNL A   1      34.346  25.290  24.677  1.00  0.00     0.429 C 
ATOM     29  F   UNL A   1      33.284  24.950  25.438  1.00  0.00    -0.167 F 
ATOM     30  F   UNL A   1      35.454  25.153  25.439  1.00  0.00    -0.167 F 
ATOM     31  F   UNL A   1      34.229  26.613  24.396  1.00  0.00    -0.167 F 
ENDBRANCH  19  28
ENDBRANCH   6   9
ENDBRANCH   4   5
ENDBRANCH   3   4
ENDBRANCH   2   3
ENDBRANCH   1   2
BRANCH   1  32
ATOM     32  C   UNL A   1      32.392  30.326  26.813  1.00  0.00     0.021 C 
BRANCH  32  33
ATOM     33  C   UNL A   1      33.860  29.989  26.993  1.00  0.00     0.116 C 
BRANCH  33  34
ATOM     34  N   UNL A   1      34.630  30.973  27.741  1.00  0.00    -0.352 N 
ATOM     35  C   UNL A   1      35.940  31.105  28.122  1.00  0.00     0.251 C 
ATOM     36  H   UNL A   1      34.075  31.726  28.047  1.00  0.00     0.163 HD
ATOM     37  O   UNL A   1      36.256  32.195  28.609  1.00  0.00    -0.269 OA
BRANCH  35  38
ATOM     38  C   UNL A   1      36.937  30.002  28.149  1.00  0.00     0.039 A 
ATOM     39  C   UNL A   1      37.095  29.054  29.157  1.00  0.00     0.014 A 
ATOM     40  C   UNL A   1      37.879  30.033  27.109  1.00  0.00     0.014 A 
ATOM     41  C   UNL A   1      38.304  28.359  29.285  1.00  0.00     0.010 A 
ATOM     42  C   UNL A   1      39.059  29.316  27.210  1.00  0.00     0.010 A 
ATOM     43  C   UNL A   1      39.323  28.577  28.363  1.00  0.00    -0.014 A 
BRANCH  43  44
ATOM     44  C   UNL A   1      40.688  28.089  28.532  1.00  0.00     0.031 A 
ATOM     45  C   UNL A   1      41.068  26.735  28.049  1.00  0.00     0.074 A 
ATOM     46  C   UNL A   1      41.615  28.887  29.127  1.00  0.00     0.049 A 
ATOM     47  N   UNL A   1      42.082  26.079  28.502  1.00  0.00    -0.248 NA
ATOM     48  C   UNL A   1      40.317  25.985  27.039  1.00  0.00     0.031 C 
ATOM     49  C   UNL A   1      43.060  28.737  29.064  1.00  0.00     0.029 A 
ATOM     50  N   UNL A   1      41.469  29.985  29.986  1.00  0.00    -0.354 N 
ATOM     51  C   UNL A   1      42.297  25.006  27.665  1.00  0.00     0.074 A 
ATOM     52  C   UNL A   1      41.102  24.912  26.861  1.00  0.00     0.031 C 
ATOM     53  C   UNL A   1      43.626  29.499  30.015  1.00  0.00     0.029 A 
ATOM     54  C   UNL A   1      42.562  29.992  30.870  1.00  0.00     0.049 A 
ATOM     55  H   UNL A   1      40.732  30.637  29.972  1.00  0.00     0.167 HD
ATOM     56  C   UNL A   1      43.538  24.440  27.633  1.00  0.00     0.034 A 
ATOM     57  C   UNL A   1      42.557  29.906  32.245  1.00  0.00     0.034 A 
ATOM     58  C   UNL A   1      44.423  25.083  28.606  1.00  0.00     0.049 A 
ATOM     59  C   UNL A   1      43.402  28.757  32.779  1.00  0.00     0.074 A 
ATOM     60  C   UNL A   1      45.344  26.111  28.490  1.00  0.00     0.029 A 
ATOM     61  N   UNL A   1      44.208  24.907  29.961  1.00  0.00    -0.354 N 
ATOM     62  N   UNL A   1      44.053  27.930  32.020  1.00  0.00    -0.248 NA
ATOM     63  C   UNL A   1      43.408  28.340  34.187  1.00  0.00     0.031 C 
ATOM     64  C   UNL A   1      45.705  26.532  29.794  1.00  0.00     0.029 A 
ATOM     65  C   UNL A   1      45.021  25.749  30.705  1.00  0.00     0.049 A 
ATOM     66  H   UNL A   1      43.564  24.269  30.345  1.00  0.00     0.167 HD
ATOM     67  C   UNL A   1      44.405  26.829  32.746  1.00  0.00     0.074 A 
ATOM     68  C   UNL A   1      43.997  27.136  34.103  1.00  0.00     0.031 C 
ATOM     69  C   UNL A   1      44.945  25.724  32.158  1.00  0.00     0.034 A 
BRANCH  56  70
ATOM     70  C   UNL A   1      44.070  23.522  26.543  1.00  0.00     0.023 A 
ATOM     71  C   UNL A   1      43.982  22.114  26.549  1.00  0.00     0.031 A 
ATOM     72  C   UNL A   1      44.656  24.084  25.381  1.00  0.00     0.131 A 
ATOM     73  C   UNL A   1      44.364  21.353  25.421  1.00  0.00     0.055 A 
ATOM     74  C   UNL A   1      45.055  23.328  24.276  1.00  0.00     0.041 A 
ATOM     75  F   UNL A   1      44.837  25.406  25.242  1.00  0.00    -0.206 F 
ATOM     76  C   UNL A   1      44.893  21.955  24.282  1.00  0.00     0.022 A 
BRANCH  73  77
ATOM     77  S   UNL A   1      44.126  19.552  25.355  1.00  0.00     0.124 S 
ATOM     78  O   UNL A   1      43.778  19.338  23.950  1.00  0.00    -0.237 OA
ATOM     79  O   UNL A   1      45.436  19.043  25.751  1.00  0.00    -0.237 OA
ATOM     80  O   UNL A   1      43.041  19.304  26.300  1.00  0.00    -0.744 OA
ENDBRANCH  73  77
ENDBRANCH  56  70
BRANCH  57  81
ATOM     81  C   UNL A   1      41.270  30.244  32.929  1.00  0.00     0.023 A 
ATOM     82  C   UNL A   1      41.340  31.329  33.810  1.00  0.00     0.031 A 
ATOM     83  C   UNL A   1      40.420  29.174  33.233  1.00  0.00     0.131 A 
ATOM     84  C   UNL A   1      41.036  31.096  35.139  1.00  0.00     0.055 A 
ATOM     85  C   UNL A   1      40.119  28.928  34.559  1.00  0.00     0.041 A 
ATOM     86  F   UNL A   1      40.162  28.222  32.324  1.00  0.00    -0.206 F 
ATOM     87  C   UNL A   1      40.594  29.827  35.514  1.00  0.00     0.022 A 
BRANCH  84  88
ATOM     88  S   UNL A   1      41.391  32.438  36.308  1.00  0.00     0.124 S 
ATOM     89  O   UNL A   1      41.435  31.704  37.568  1.00  0.00    -0.237 OA
ATOM     90  O   UNL A   1      42.688  32.966  35.883  1.00  0.00    -0.237 OA
ATOM     91  O   UNL A   1      40.273  33.340  36.114  1.00  0.00    -0.744 OA
ENDBRANCH  84  88
ENDBRANCH  57  81
BRANCH  69  92
ATOM     92  C   UNL A   1      45.460  24.534  32.915  1.00  0.00     0.023 A 
ATOM     93  C   UNL A   1      46.714  24.594  33.558  1.00  0.00     0.031 A 
ATOM     94  C   UNL A   1      44.681  23.393  33.174  1.00  0.00     0.131 A 
ATOM     95  C   UNL A   1      47.162  23.553  34.377  1.00  0.00     0.055 A 
ATOM     96  C   UNL A   1      45.154  22.325  33.941  1.00  0.00     0.041 A 
ATOM     97  F   UNL A   1      43.409  23.305  32.754  1.00  0.00    -0.206 F 
ATOM     98  C   UNL A   1      46.400  22.402  34.548  1.00  0.00     0.022 A 
BRANCH  95  99
ATOM     99  S   UNL A   1      48.693  23.719  35.332  1.00  0.00     0.124 S 
ATOM    100  O   UNL A   1      48.183  24.101  36.649  1.00  0.00    -0.237 OA
ATOM    101  O   UNL A   1      49.248  22.370  35.247  1.00  0.00    -0.237 OA
ATOM    102  O   UNL A   1      49.441  24.751  34.627  1.00  0.00    -0.744 OA
ENDBRANCH  95  99
ENDBRANCH  69  92
ENDBRANCH  43  44
ENDBRANCH  35  38
ENDBRANCH  33  34
ENDBRANCH  32  33
ENDBRANCH   1  32
TORSDOF 18
ENDMDL
