MODEL 1
REMARK VINA RESULT:     -12.9      0.000      0.000
REMARK SMILES O=C(/C=C\c1ccc(OCc2ccc(Br)cc2)cc1)NCCCCCCNC(=O)c1ccc(-c2c3nc(c(-c4cc(S(=O)(=O)[O-])ccc4F)c4ccc([nH]4)c(-c4cc(S(=O)(=O)[O-])ccc4F)c4nc(c(-c5cc(S(=O)(=O)[O-])ccc5F)c5ccc2[nH]5)C=C4)C=C3)cc1
REMARK SMILES IDX 23 1 22 2 21 3 20 4 1 5 2 6 3 8 4 9 5 10 6 11 19 12 7 13
REMARK SMILES IDX 18 14 8 15 9 16 10 17 11 18 12 19 17 20 13 21 16 22 14 23
REMARK SMILES IDX 15 24 24 25 25 26 26 27 27 28 28 29 29 31 30 32 31 33 92 34
REMARK SMILES IDX 32 35 91 36 33 37 34 38 35 39 85 40 36 41 90 42 84 43 86 44
REMARK SMILES IDX 37 45 89 46 83 47 82 48 38 50 70 51 50 52 69 53 51 54 54 55
REMARK SMILES IDX 68 56 87 57 52 58 53 59 67 61 88 62 55 63 39 64 40 65 48 66
REMARK SMILES IDX 41 67 47 68 49 69 46 70 42 71 43 72 44 73 45 74 71 75 72 76
REMARK SMILES IDX 80 77 73 78 79 79 81 80 78 81 74 82 75 83 76 84 77 85 56 86
REMARK SMILES IDX 57 87 65 88 58 89 64 90 66 91 63 92 59 93 60 94 61 95 62 96
REMARK H PARENT 20 7 27 30 86 49 54 60
REMARK Flexibility Score: inf
ROOT
ATOM      1  C   UNL A   1      33.976  26.346  25.307  1.00  0.00     0.002 C 
ENDROOT
BRANCH   1   2
ATOM      2  C   UNL A   1      33.990  27.405  26.415  1.00  0.00     0.021 C 
BRANCH   2   3
ATOM      3  C   UNL A   1      33.917  28.839  25.891  1.00  0.00     0.116 C 
BRANCH   3   4
ATOM      4  N   UNL A   1      32.841  28.988  24.924  1.00  0.00    -0.353 N 
ATOM      5  O   UNL A   1      31.634  30.467  26.187  1.00  0.00    -0.270 OA
ATOM      6  C   UNL A   1      31.732  29.728  25.211  1.00  0.00     0.243 C 
ATOM      7  H   UNL A   1      32.914  28.547  24.047  1.00  0.00     0.163 HD
BRANCH   6   8
ATOM      8  C   UNL A   1      30.613  29.680  24.236  1.00  0.00     0.072 C 
ATOM      9  C   UNL A   1      30.090  28.691  23.492  1.00  0.00     0.014 C 
BRANCH   9  10
ATOM     10  C   UNL A   1      30.479  27.284  23.375  1.00  0.00    -0.025 A 
ATOM     11  C   UNL A   1      30.138  26.402  24.404  1.00  0.00     0.012 A 
ATOM     12  C   UNL A   1      31.231  26.806  22.298  1.00  0.00     0.012 A 
ATOM     13  C   UNL A   1      30.447  25.043  24.301  1.00  0.00     0.047 A 
ATOM     14  C   UNL A   1      31.532  25.438  22.190  1.00  0.00     0.047 A 
ATOM     15  C   UNL A   1      31.086  24.548  23.165  1.00  0.00     0.119 A 
BRANCH  15  16
ATOM     16  O   UNL A   1      31.183  23.185  23.108  1.00  0.00    -0.489 OA
BRANCH  16  17
ATOM     17  C   UNL A   1      32.499  22.621  23.071  1.00  0.00     0.265 C 
BRANCH  17  18
ATOM     18  C   UNL A   1      32.574  21.190  23.550  1.00  0.00    -0.011 A 
ATOM     19  C   UNL A   1      32.245  19.854  22.391  1.00  0.00     0.008 A 
ATOM     20  C   UNL A   1      32.912  20.806  25.289  1.00  0.00     0.008 A 
ATOM     21  C   UNL A   1      32.307  18.113  22.956  1.00  0.00     0.016 A 
ATOM     22  C   UNL A   1      32.977  19.098  25.840  1.00  0.00     0.016 A 
ATOM     23  C   UNL A   1      32.630  17.750  24.684  1.00  0.00     0.017 A 
ATOM     24  Br  UNL A   1      32.652  15.966  25.293  1.00  0.00    -0.051 Br
ENDBRANCH  17  18
ENDBRANCH  16  17
ENDBRANCH  15  16
ENDBRANCH   9  10
ENDBRANCH   6   8
ENDBRANCH   3   4
ENDBRANCH   2   3
ENDBRANCH   1   2
BRANCH   1  25
ATOM     25  C   UNL A   1      34.049  24.681  25.783  1.00  0.00     0.002 C 
BRANCH  25  26
ATOM     26  C   UNL A   1      35.659  23.210  25.894  1.00  0.00     0.021 C 
BRANCH  26  27
ATOM     27  C   UNL A   1      37.071  22.940  25.008  1.00  0.00     0.116 C 
BRANCH  27  28
ATOM     28  N   UNL A   1      37.798  21.738  25.429  1.00  0.00    -0.352 N 
ATOM     29  C   UNL A   1      38.996  21.689  26.100  1.00  0.00     0.251 C 
ATOM     30  H   UNL A   1      37.383  20.873  25.208  1.00  0.00     0.163 HD
ATOM     31  O   UNL A   1      39.644  20.654  26.169  1.00  0.00    -0.269 OA
BRANCH  29  32
ATOM     32  C   UNL A   1      39.466  22.948  26.709  1.00  0.00     0.039 A 
ATOM     33  C   UNL A   1      40.436  22.920  27.708  1.00  0.00     0.014 A 
ATOM     34  C   UNL A   1      39.041  24.155  26.146  1.00  0.00     0.014 A 
ATOM     35  C   UNL A   1      41.002  24.122  28.123  1.00  0.00     0.010 A 
ATOM     36  C   UNL A   1      39.724  25.319  26.443  1.00  0.00     0.010 A 
ATOM     37  C   UNL A   1      40.668  25.326  27.475  1.00  0.00    -0.014 A 
BRANCH  37  38
ATOM     38  C   UNL A   1      41.222  26.623  27.927  1.00  0.00     0.031 A 
ATOM     39  C   UNL A   1      42.646  26.969  27.574  1.00  0.00     0.074 A 
ATOM     40  C   UNL A   1      40.463  27.460  28.659  1.00  0.00     0.049 A 
ATOM     41  N   UNL A   1      43.332  28.044  27.859  1.00  0.00    -0.248 NA
ATOM     42  C   UNL A   1      43.417  25.952  26.840  1.00  0.00     0.031 C 
ATOM     43  C   UNL A   1      39.090  27.194  29.097  1.00  0.00     0.029 A 
ATOM     44  N   UNL A   1      40.727  28.714  29.144  1.00  0.00    -0.354 N 
ATOM     45  C   UNL A   1      44.610  27.816  27.357  1.00  0.00     0.074 A 
ATOM     46  C   UNL A   1      44.633  26.466  26.849  1.00  0.00     0.031 C 
ATOM     47  C   UNL A   1      38.609  28.283  29.717  1.00  0.00     0.029 A 
ATOM     48  C   UNL A   1      39.653  29.300  29.772  1.00  0.00     0.049 A 
ATOM     49  H   UNL A   1      41.603  29.153  29.052  1.00  0.00     0.167 HD
ATOM     50  C   UNL A   1      45.657  28.672  27.286  1.00  0.00     0.034 A 
ATOM     51  C   UNL A   1      39.531  30.525  30.319  1.00  0.00     0.034 A 
ATOM     52  C   UNL A   1      45.596  30.021  27.785  1.00  0.00     0.049 A 
ATOM     53  C   UNL A   1      40.720  31.451  30.263  1.00  0.00     0.074 A 
ATOM     54  C   UNL A   1      46.563  31.006  27.728  1.00  0.00     0.029 A 
ATOM     55  N   UNL A   1      44.504  30.569  28.449  1.00  0.00    -0.354 N 
ATOM     56  N   UNL A   1      41.903  31.249  29.724  1.00  0.00    -0.248 NA
ATOM     57  C   UNL A   1      40.556  32.772  30.879  1.00  0.00     0.031 C 
ATOM     58  C   UNL A   1      46.093  32.114  28.440  1.00  0.00     0.029 A 
ATOM     59  C   UNL A   1      44.792  31.862  28.849  1.00  0.00     0.049 A 
ATOM     60  H   UNL A   1      43.651  30.105  28.609  1.00  0.00     0.167 HD
ATOM     61  C   UNL A   1      42.610  32.433  29.905  1.00  0.00     0.074 A 
ATOM     62  C   UNL A   1      41.713  33.346  30.587  1.00  0.00     0.031 C 
ATOM     63  C   UNL A   1      43.881  32.745  29.541  1.00  0.00     0.034 A 
BRANCH  50  64
ATOM     64  C   UNL A   1      46.943  28.150  26.685  1.00  0.00     0.023 A 
ATOM     65  C   UNL A   1      47.223  28.263  25.309  1.00  0.00     0.031 A 
ATOM     66  C   UNL A   1      47.872  27.463  27.485  1.00  0.00     0.131 A 
ATOM     67  C   UNL A   1      48.339  27.609  24.764  1.00  0.00     0.055 A 
ATOM     68  C   UNL A   1      49.036  26.905  26.952  1.00  0.00     0.041 A 
ATOM     69  F   UNL A   1      47.650  27.293  28.798  1.00  0.00    -0.206 F 
ATOM     70  C   UNL A   1      49.264  26.957  25.580  1.00  0.00     0.022 A 
BRANCH  67  71
ATOM     71  S   UNL A   1      48.451  27.452  22.958  1.00  0.00     0.124 S 
ATOM     72  O   UNL A   1      47.250  28.163  22.525  1.00  0.00    -0.237 OA
ATOM     73  O   UNL A   1      49.721  28.102  22.663  1.00  0.00    -0.237 OA
ATOM     74  O   UNL A   1      48.422  26.006  22.739  1.00  0.00    -0.744 OA
ENDBRANCH  67  71
ENDBRANCH  50  64
BRANCH  51  75
ATOM     75  C   UNL A   1      38.244  30.957  30.939  1.00  0.00     0.023 A 
ATOM     76  C   UNL A   1      37.257  31.600  30.174  1.00  0.00     0.031 A 
ATOM     77  C   UNL A   1      37.994  30.772  32.310  1.00  0.00     0.131 A 
ATOM     78  C   UNL A   1      36.089  32.076  30.792  1.00  0.00     0.055 A 
ATOM     79  C   UNL A   1      36.804  31.190  32.908  1.00  0.00     0.041 A 
ATOM     80  F   UNL A   1      38.902  30.164  33.091  1.00  0.00    -0.206 F 
ATOM     81  C   UNL A   1      35.848  31.859  32.150  1.00  0.00     0.022 A 
BRANCH  78  82
ATOM     82  S   UNL A   1      34.933  33.073  29.812  1.00  0.00     0.124 S 
ATOM     83  O   UNL A   1      34.042  33.591  30.843  1.00  0.00    -0.237 OA
ATOM     84  O   UNL A   1      35.825  34.042  29.185  1.00  0.00    -0.237 OA
ATOM     85  O   UNL A   1      34.334  32.099  28.901  1.00  0.00    -0.744 OA
ENDBRANCH  78  82
ENDBRANCH  51  75
BRANCH  63  86
ATOM     86  C   UNL A   1      44.353  34.148  29.836  1.00  0.00     0.023 A 
ATOM     87  C   UNL A   1      44.156  35.201  28.927  1.00  0.00     0.031 A 
ATOM     88  C   UNL A   1      45.018  34.429  31.043  1.00  0.00     0.131 A 
ATOM     89  C   UNL A   1      44.684  36.470  29.208  1.00  0.00     0.055 A 
ATOM     90  C   UNL A   1      45.466  35.713  31.353  1.00  0.00     0.041 A 
ATOM     91  F   UNL A   1      45.239  33.460  31.945  1.00  0.00    -0.206 F 
ATOM     92  C   UNL A   1      45.316  36.738  30.424  1.00  0.00     0.022 A 
BRANCH  89  93
ATOM     93  S   UNL A   1      44.647  37.729  27.904  1.00  0.00     0.124 S 
ATOM     94  O   UNL A   1      44.494  38.958  28.675  1.00  0.00    -0.237 OA
ATOM     95  O   UNL A   1      45.939  37.542  27.252  1.00  0.00    -0.237 OA
ATOM     96  O   UNL A   1      43.486  37.353  27.099  1.00  0.00    -0.744 OA
ENDBRANCH  89  93
ENDBRANCH  63  86
ENDBRANCH  37  38
ENDBRANCH  29  32
ENDBRANCH  27  28
ENDBRANCH  26  27
ENDBRANCH  25  26
ENDBRANCH   1  25
TORSDOF 20
ENDMDL
MODEL 2
REMARK VINA RESULT:     -12.9      4.849      9.575
REMARK SMILES O=C(/C=C\c1ccc(OCc2ccc(Br)cc2)cc1)NCCCCCCNC(=O)c1ccc(-c2c3nc(c(-c4cc(S(=O)(=O)[O-])ccc4F)c4ccc([nH]4)c(-c4cc(S(=O)(=O)[O-])ccc4F)c4nc(c(-c5cc(S(=O)(=O)[O-])ccc5F)c5ccc2[nH]5)C=C4)C=C3)cc1
REMARK SMILES IDX 23 1 22 2 21 3 20 4 1 5 2 6 3 8 4 9 5 10 6 11 19 12 7 13
REMARK SMILES IDX 18 14 8 15 9 16 10 17 11 18 12 19 17 20 13 21 16 22 14 23
REMARK SMILES IDX 15 24 24 25 25 26 26 27 27 28 28 29 29 31 30 32 31 33 92 34
REMARK SMILES IDX 32 35 91 36 33 37 34 38 35 39 85 40 36 41 90 42 84 43 86 44
REMARK SMILES IDX 37 45 89 46 83 47 82 48 38 50 70 51 50 52 69 53 51 54 54 55
REMARK SMILES IDX 68 56 87 57 52 58 53 59 67 61 88 62 55 63 39 64 40 65 48 66
REMARK SMILES IDX 41 67 47 68 49 69 46 70 42 71 43 72 44 73 45 74 71 75 72 76
REMARK SMILES IDX 80 77 73 78 79 79 81 80 78 81 74 82 75 83 76 84 77 85 56 86
REMARK SMILES IDX 57 87 65 88 58 89 64 90 66 91 63 92 59 93 60 94 61 95 62 96
REMARK H PARENT 20 7 27 30 86 49 54 60
REMARK Flexibility Score: inf
ROOT
ATOM      1  C   UNL A   1      30.082  25.714  24.629  1.00  0.00     0.002 C 
ENDROOT
BRANCH   1   2
ATOM      2  C   UNL A   1      28.793  26.450  24.249  1.00  0.00     0.021 C 
BRANCH   2   3
ATOM      3  C   UNL A   1      29.036  27.770  23.517  1.00  0.00     0.116 C 
BRANCH   3   4
ATOM      4  N   UNL A   1      30.446  28.124  23.531  1.00  0.00    -0.353 N 
ATOM      5  O   UNL A   1      30.333  29.497  21.704  1.00  0.00    -0.270 OA
ATOM      6  C   UNL A   1      30.991  28.894  22.545  1.00  0.00     0.243 C 
ATOM      7  H   UNL A   1      31.018  27.803  24.265  1.00  0.00     0.163 HD
BRANCH   6   8
ATOM      8  C   UNL A   1      32.467  29.057  22.551  1.00  0.00     0.072 C 
ATOM      9  C   UNL A   1      33.484  28.190  22.693  1.00  0.00     0.014 C 
BRANCH   9  10
ATOM     10  C   UNL A   1      33.470  26.743  22.922  1.00  0.00    -0.025 A 
ATOM     11  C   UNL A   1      32.893  25.912  21.958  1.00  0.00     0.012 A 
ATOM     12  C   UNL A   1      33.964  26.170  24.098  1.00  0.00     0.012 A 
ATOM     13  C   UNL A   1      32.910  24.525  22.119  1.00  0.00     0.047 A 
ATOM     14  C   UNL A   1      33.992  24.774  24.254  1.00  0.00     0.047 A 
ATOM     15  C   UNL A   1      33.518  23.951  23.235  1.00  0.00     0.119 A 
BRANCH  15  16
ATOM     16  O   UNL A   1      33.619  22.587  23.197  1.00  0.00    -0.489 OA
BRANCH  16  17
ATOM     17  C   UNL A   1      32.405  21.843  23.042  1.00  0.00     0.265 C 
BRANCH  17  18
ATOM     18  C   UNL A   1      32.483  20.419  23.541  1.00  0.00    -0.011 A 
ATOM     19  C   UNL A   1      32.604  20.110  25.310  1.00  0.00     0.008 A 
ATOM     20  C   UNL A   1      32.534  19.027  22.382  1.00  0.00     0.008 A 
ATOM     21  C   UNL A   1      32.723  18.392  25.934  1.00  0.00     0.016 A 
ATOM     22  C   UNL A   1      32.646  17.343  22.996  1.00  0.00     0.016 A 
ATOM     23  C   UNL A   1      32.787  17.026  24.772  1.00  0.00     0.017 A 
ATOM     24  Br  UNL A   1      32.956  15.254  25.396  1.00  0.00    -0.051 Br
ENDBRANCH  17  18
ENDBRANCH  16  17
ENDBRANCH  15  16
ENDBRANCH   9  10
ENDBRANCH   6   8
ENDBRANCH   3   4
ENDBRANCH   2   3
ENDBRANCH   1   2
BRANCH   1  25
ATOM     25  C   UNL A   1      30.907  26.223  26.067  1.00  0.00     0.002 C 
BRANCH  25  26
ATOM     26  C   UNL A   1      31.778  28.114  26.720  1.00  0.00     0.021 C 
BRANCH  26  27
ATOM     27  C   UNL A   1      33.353  28.717  26.812  1.00  0.00     0.116 C 
BRANCH  27  28
ATOM     28  N   UNL A   1      33.410  30.179  26.902  1.00  0.00    -0.352 N 
ATOM     29  C   UNL A   1      34.352  30.931  27.562  1.00  0.00     0.251 C 
ATOM     30  H   UNL A   1      32.697  30.676  26.439  1.00  0.00     0.163 HD
ATOM     31  O   UNL A   1      34.166  32.117  27.800  1.00  0.00    -0.269 OA
BRANCH  29  32
ATOM     32  C   UNL A   1      35.580  30.232  27.983  1.00  0.00     0.039 A 
ATOM     33  C   UNL A   1      36.725  30.296  27.193  1.00  0.00     0.014 A 
ATOM     34  C   UNL A   1      35.610  29.657  29.257  1.00  0.00     0.014 A 
ATOM     35  C   UNL A   1      37.920  29.798  27.708  1.00  0.00     0.010 A 
ATOM     36  C   UNL A   1      36.827  29.321  29.821  1.00  0.00     0.010 A 
ATOM     37  C   UNL A   1      37.983  29.331  29.033  1.00  0.00    -0.014 A 
BRANCH  37  38
ATOM     38  C   UNL A   1      39.230  28.755  29.588  1.00  0.00     0.031 A 
ATOM     39  C   UNL A   1      39.739  29.264  30.912  1.00  0.00     0.074 A 
ATOM     40  C   UNL A   1      39.898  27.809  28.902  1.00  0.00     0.049 A 
ATOM     41  N   UNL A   1      40.800  28.904  31.585  1.00  0.00    -0.248 NA
ATOM     42  C   UNL A   1      38.980  30.356  31.544  1.00  0.00     0.031 C 
ATOM     43  C   UNL A   1      39.514  27.287  27.588  1.00  0.00     0.029 A 
ATOM     44  N   UNL A   1      41.025  27.101  29.222  1.00  0.00    -0.354 N 
ATOM     45  C   UNL A   1      40.838  29.737  32.699  1.00  0.00     0.074 A 
ATOM     46  C   UNL A   1      39.761  30.687  32.555  1.00  0.00     0.031 C 
ATOM     47  C   UNL A   1      40.346  26.289  27.252  1.00  0.00     0.029 A 
ATOM     48  C   UNL A   1      41.354  26.138  28.296  1.00  0.00     0.049 A 
ATOM     49  H   UNL A   1      41.551  27.265  30.038  1.00  0.00     0.167 HD
ATOM     50  C   UNL A   1      41.668  29.686  33.768  1.00  0.00     0.034 A 
ATOM     51  C   UNL A   1      42.353  25.234  28.302  1.00  0.00     0.034 A 
ATOM     52  C   UNL A   1      42.721  28.713  33.889  1.00  0.00     0.049 A 
ATOM     53  C   UNL A   1      43.290  25.218  29.483  1.00  0.00     0.074 A 
ATOM     54  C   UNL A   1      43.598  28.518  34.940  1.00  0.00     0.029 A 
ATOM     55  N   UNL A   1      43.049  27.777  32.915  1.00  0.00    -0.354 N 
ATOM     56  N   UNL A   1      43.274  25.967  30.564  1.00  0.00    -0.248 NA
ATOM     57  C   UNL A   1      44.373  24.228  29.450  1.00  0.00     0.031 C 
ATOM     58  C   UNL A   1      44.513  27.531  34.561  1.00  0.00     0.029 A 
ATOM     59  C   UNL A   1      44.145  27.035  33.319  1.00  0.00     0.049 A 
ATOM     60  H   UNL A   1      42.571  27.660  32.062  1.00  0.00     0.167 HD
ATOM     61  C   UNL A   1      44.324  25.512  31.356  1.00  0.00     0.074 A 
ATOM     62  C   UNL A   1      44.937  24.414  30.634  1.00  0.00     0.031 C 
ATOM     63  C   UNL A   1      44.744  25.954  32.570  1.00  0.00     0.034 A 
BRANCH  50  64
ATOM     64  C   UNL A   1      41.481  30.732  34.844  1.00  0.00     0.023 A 
ATOM     65  C   UNL A   1      40.332  30.767  35.658  1.00  0.00     0.031 A 
ATOM     66  C   UNL A   1      42.431  31.754  35.013  1.00  0.00     0.131 A 
ATOM     67  C   UNL A   1      40.114  31.854  36.519  1.00  0.00     0.055 A 
ATOM     68  C   UNL A   1      42.258  32.776  35.949  1.00  0.00     0.041 A 
ATOM     69  F   UNL A   1      43.534  31.795  34.249  1.00  0.00    -0.206 F 
ATOM     70  C   UNL A   1      41.084  32.842  36.693  1.00  0.00     0.022 A 
BRANCH  67  71
ATOM     71  S   UNL A   1      38.465  32.060  37.250  1.00  0.00     0.124 S 
ATOM     72  O   UNL A   1      37.855  30.761  36.973  1.00  0.00    -0.237 OA
ATOM     73  O   UNL A   1      38.771  32.339  38.647  1.00  0.00    -0.237 OA
ATOM     74  O   UNL A   1      37.896  33.178  36.499  1.00  0.00    -0.744 OA
ENDBRANCH  67  71
ENDBRANCH  50  64
BRANCH  51  75
ATOM     75  C   UNL A   1      42.506  24.262  27.180  1.00  0.00     0.023 A 
ATOM     76  C   UNL A   1      41.891  23.000  27.232  1.00  0.00     0.031 A 
ATOM     77  C   UNL A   1      43.298  24.560  26.058  1.00  0.00     0.131 A 
ATOM     78  C   UNL A   1      42.117  22.067  26.208  1.00  0.00     0.055 A 
ATOM     79  C   UNL A   1      43.469  23.652  25.010  1.00  0.00     0.041 A 
ATOM     80  F   UNL A   1      43.911  25.750  25.954  1.00  0.00    -0.206 F 
ATOM     81  C   UNL A   1      42.886  22.391  25.089  1.00  0.00     0.022 A 
BRANCH  78  82
ATOM     82  S   UNL A   1      41.469  20.384  26.409  1.00  0.00     0.124 S 
ATOM     83  O   UNL A   1      42.214  19.657  25.388  1.00  0.00    -0.237 OA
ATOM     84  O   UNL A   1      41.818  20.088  27.794  1.00  0.00    -0.237 OA
ATOM     85  O   UNL A   1      40.039  20.538  26.147  1.00  0.00    -0.744 OA
ENDBRANCH  78  82
ENDBRANCH  51  75
BRANCH  63  86
ATOM     86  C   UNL A   1      45.896  25.214  33.207  1.00  0.00     0.023 A 
ATOM     87  C   UNL A   1      45.695  24.059  33.981  1.00  0.00     0.031 A 
ATOM     88  C   UNL A   1      47.212  25.681  33.041  1.00  0.00     0.131 A 
ATOM     89  C   UNL A   1      46.786  23.452  34.620  1.00  0.00     0.055 A 
ATOM     90  C   UNL A   1      48.302  25.023  33.611  1.00  0.00     0.041 A 
ATOM     91  F   UNL A   1      47.462  26.783  32.317  1.00  0.00    -0.206 F 
ATOM     92  C   UNL A   1      48.089  23.912  34.421  1.00  0.00     0.022 A 
BRANCH  89  93
ATOM     93  S   UNL A   1      46.460  22.133  35.820  1.00  0.00     0.124 S 
ATOM     94  O   UNL A   1      45.895  21.088  34.974  1.00  0.00    -0.237 OA
ATOM     95  O   UNL A   1      47.788  21.867  36.361  1.00  0.00    -0.237 OA
ATOM     96  O   UNL A   1      45.521  22.748  36.757  1.00  0.00    -0.744 OA
ENDBRANCH  89  93
ENDBRANCH  63  86
ENDBRANCH  37  38
ENDBRANCH  29  32
ENDBRANCH  27  28
ENDBRANCH  26  27
ENDBRANCH  25  26
ENDBRANCH   1  25
TORSDOF 20
ENDMDL
MODEL 3
REMARK VINA RESULT:     -12.4      4.836      6.986
REMARK SMILES O=C(/C=C\c1ccc(OCc2ccc(Br)cc2)cc1)NCCCCCCNC(=O)c1ccc(-c2c3nc(c(-c4cc(S(=O)(=O)[O-])ccc4F)c4ccc([nH]4)c(-c4cc(S(=O)(=O)[O-])ccc4F)c4nc(c(-c5cc(S(=O)(=O)[O-])ccc5F)c5ccc2[nH]5)C=C4)C=C3)cc1
REMARK SMILES IDX 23 1 22 2 21 3 20 4 1 5 2 6 3 8 4 9 5 10 6 11 19 12 7 13
REMARK SMILES IDX 18 14 8 15 9 16 10 17 11 18 12 19 17 20 13 21 16 22 14 23
REMARK SMILES IDX 15 24 24 25 25 26 26 27 27 28 28 29 29 31 30 32 31 33 92 34
REMARK SMILES IDX 32 35 91 36 33 37 34 38 35 39 85 40 36 41 90 42 84 43 86 44
REMARK SMILES IDX 37 45 89 46 83 47 82 48 38 50 70 51 50 52 69 53 51 54 54 55
REMARK SMILES IDX 68 56 87 57 52 58 53 59 67 61 88 62 55 63 39 64 40 65 48 66
REMARK SMILES IDX 41 67 47 68 49 69 46 70 42 71 43 72 44 73 45 74 71 75 72 76
REMARK SMILES IDX 80 77 73 78 79 79 81 80 78 81 74 82 75 83 76 84 77 85 56 86
REMARK SMILES IDX 57 87 65 88 58 89 64 90 66 91 63 92 59 93 60 94 61 95 62 96
REMARK H PARENT 20 7 27 30 86 49 54 60
REMARK Flexibility Score: inf
ROOT
ATOM      1  C   UNL A   1      30.137  25.582  24.485  1.00  0.00     0.002 C 
ENDROOT
BRANCH   1   2
ATOM      2  C   UNL A   1      28.758  26.194  24.211  1.00  0.00     0.021 C 
BRANCH   2   3
ATOM      3  C   UNL A   1      28.820  27.539  23.488  1.00  0.00     0.116 C 
BRANCH   3   4
ATOM      4  N   UNL A   1      30.179  28.057  23.461  1.00  0.00    -0.353 N 
ATOM      5  O   UNL A   1      29.851  29.404  21.640  1.00  0.00    -0.270 OA
ATOM      6  C   UNL A   1      30.601  28.883  22.461  1.00  0.00     0.243 C 
ATOM      7  H   UNL A   1      30.807  27.806  24.177  1.00  0.00     0.163 HD
BRANCH   6   8
ATOM      8  C   UNL A   1      32.047  29.218  22.422  1.00  0.00     0.072 C 
ATOM      9  C   UNL A   1      33.162  28.471  22.478  1.00  0.00     0.014 C 
BRANCH   9  10
ATOM     10  C   UNL A   1      33.325  27.023  22.624  1.00  0.00    -0.025 A 
ATOM     11  C   UNL A   1      33.973  26.527  23.759  1.00  0.00     0.012 A 
ATOM     12  C   UNL A   1      32.907  26.122  21.639  1.00  0.00     0.012 A 
ATOM     13  C   UNL A   1      34.099  25.151  23.956  1.00  0.00     0.047 A 
ATOM     14  C   UNL A   1      33.024  24.737  21.844  1.00  0.00     0.047 A 
ATOM     15  C   UNL A   1      33.567  24.252  23.032  1.00  0.00     0.119 A 
BRANCH  15  16
ATOM     16  O   UNL A   1      33.606  22.941  23.416  1.00  0.00    -0.489 OA
BRANCH  16  17
ATOM     17  C   UNL A   1      32.383  22.199  23.348  1.00  0.00     0.265 C 
BRANCH  17  18
ATOM     18  C   UNL A   1      32.510  20.752  23.763  1.00  0.00    -0.011 A 
ATOM     19  C   UNL A   1      32.379  19.462  22.516  1.00  0.00     0.008 A 
ATOM     20  C   UNL A   1      32.717  20.298  25.505  1.00  0.00     0.008 A 
ATOM     21  C   UNL A   1      32.507  17.701  23.001  1.00  0.00     0.016 A 
ATOM     22  C   UNL A   1      32.846  18.570  25.979  1.00  0.00     0.016 A 
ATOM     23  C   UNL A   1      32.697  17.267  24.732  1.00  0.00     0.017 A 
ATOM     24  Br  UNL A   1      32.785  15.457  25.255  1.00  0.00    -0.051 Br
ENDBRANCH  17  18
ENDBRANCH  16  17
ENDBRANCH  15  16
ENDBRANCH   9  10
ENDBRANCH   6   8
ENDBRANCH   3   4
ENDBRANCH   2   3
ENDBRANCH   1   2
BRANCH   1  25
ATOM     25  C   UNL A   1      30.969  26.079  25.922  1.00  0.00     0.002 C 
BRANCH  25  26
ATOM     26  C   UNL A   1      31.758  27.988  26.628  1.00  0.00     0.021 C 
BRANCH  26  27
ATOM     27  C   UNL A   1      32.925  29.065  26.055  1.00  0.00     0.116 C 
BRANCH  27  28
ATOM     28  N   UNL A   1      32.525  30.471  26.172  1.00  0.00    -0.352 N 
ATOM     29  C   UNL A   1      33.062  31.415  27.013  1.00  0.00     0.251 C 
ATOM     30  H   UNL A   1      31.793  30.770  25.586  1.00  0.00     0.163 HD
ATOM     31  O   UNL A   1      32.490  32.476  27.226  1.00  0.00    -0.269 OA
BRANCH  29  32
ATOM     32  C   UNL A   1      34.344  31.076  27.657  1.00  0.00     0.039 A 
ATOM     33  C   UNL A   1      35.306  32.064  27.860  1.00  0.00     0.014 A 
ATOM     34  C   UNL A   1      34.496  29.796  28.199  1.00  0.00     0.014 A 
ATOM     35  C   UNL A   1      36.417  31.763  28.643  1.00  0.00     0.010 A 
ATOM     36  C   UNL A   1      35.511  29.560  29.107  1.00  0.00     0.010 A 
ATOM     37  C   UNL A   1      36.514  30.518  29.292  1.00  0.00    -0.014 A 
BRANCH  37  38
ATOM     38  C   UNL A   1      37.707  30.157  30.092  1.00  0.00     0.031 A 
ATOM     39  C   UNL A   1      38.716  29.204  29.504  1.00  0.00     0.074 A 
ATOM     40  C   UNL A   1      37.863  30.660  31.330  1.00  0.00     0.049 A 
ATOM     41  N   UNL A   1      39.829  28.754  30.020  1.00  0.00    -0.248 NA
ATOM     42  C   UNL A   1      38.411  28.647  28.175  1.00  0.00     0.031 C 
ATOM     43  C   UNL A   1      36.917  31.549  32.009  1.00  0.00     0.029 A 
ATOM     44  N   UNL A   1      38.886  30.517  32.230  1.00  0.00    -0.354 N 
ATOM     45  C   UNL A   1      40.336  27.854  29.088  1.00  0.00     0.074 A 
ATOM     46  C   UNL A   1      39.361  27.741  28.031  1.00  0.00     0.031 C 
ATOM     47  C   UNL A   1      37.440  31.932  33.184  1.00  0.00     0.029 A 
ATOM     48  C   UNL A   1      38.729  31.274  33.368  1.00  0.00     0.049 A 
ATOM     49  H   UNL A   1      39.659  29.928  32.078  1.00  0.00     0.167 HD
ATOM     50  C   UNL A   1      41.530  27.213  29.092  1.00  0.00     0.034 A 
ATOM     51  C   UNL A   1      39.544  31.422  34.431  1.00  0.00     0.034 A 
ATOM     52  C   UNL A   1      42.490  27.362  30.153  1.00  0.00     0.049 A 
ATOM     53  C   UNL A   1      40.851  30.671  34.435  1.00  0.00     0.074 A 
ATOM     54  C   UNL A   1      43.754  26.814  30.256  1.00  0.00     0.029 A 
ATOM     55  N   UNL A   1      42.282  28.108  31.308  1.00  0.00    -0.354 N 
ATOM     56  N   UNL A   1      41.352  29.875  33.515  1.00  0.00    -0.248 NA
ATOM     57  C   UNL A   1      41.708  30.845  35.612  1.00  0.00     0.031 C 
ATOM     58  C   UNL A   1      44.270  27.149  31.511  1.00  0.00     0.029 A 
ATOM     59  C   UNL A   1      43.375  27.994  32.150  1.00  0.00     0.049 A 
ATOM     60  H   UNL A   1      41.475  28.639  31.499  1.00  0.00     0.167 HD
ATOM     61  C   UNL A   1      42.600  29.483  33.990  1.00  0.00     0.074 A 
ATOM     62  C   UNL A   1      42.778  30.146  35.268  1.00  0.00     0.031 C 
ATOM     63  C   UNL A   1      43.519  28.657  33.426  1.00  0.00     0.034 A 
BRANCH  50  64
ATOM     64  C   UNL A   1      41.822  26.280  27.938  1.00  0.00     0.023 A 
ATOM     65  C   UNL A   1      41.484  24.913  27.981  1.00  0.00     0.031 A 
ATOM     66  C   UNL A   1      42.514  26.745  26.808  1.00  0.00     0.131 A 
ATOM     67  C   UNL A   1      41.931  24.047  26.971  1.00  0.00     0.055 A 
ATOM     68  C   UNL A   1      42.864  25.897  25.755  1.00  0.00     0.041 A 
ATOM     69  F   UNL A   1      42.893  28.030  26.719  1.00  0.00    -0.206 F 
ATOM     70  C   UNL A   1      42.592  24.535  25.842  1.00  0.00     0.022 A 
BRANCH  67  71
ATOM     71  S   UNL A   1      41.816  22.257  27.252  1.00  0.00     0.124 S 
ATOM     72  O   UNL A   1      42.645  22.092  28.445  1.00  0.00    -0.237 OA
ATOM     73  O   UNL A   1      40.384  22.058  27.436  1.00  0.00    -0.237 OA
ATOM     74  O   UNL A   1      42.375  21.682  26.030  1.00  0.00    -0.744 OA
ENDBRANCH  67  71
ENDBRANCH  50  64
BRANCH  51  75
ATOM     75  C   UNL A   1      39.169  32.324  35.558  1.00  0.00     0.023 A 
ATOM     76  C   UNL A   1      39.648  33.644  35.614  1.00  0.00     0.031 A 
ATOM     77  C   UNL A   1      38.359  31.876  36.617  1.00  0.00     0.131 A 
ATOM     78  C   UNL A   1      39.354  34.451  36.725  1.00  0.00     0.055 A 
ATOM     79  C   UNL A   1      38.017  32.702  37.689  1.00  0.00     0.041 A 
ATOM     80  F   UNL A   1      37.873  30.624  36.617  1.00  0.00    -0.206 F 
ATOM     81  C   UNL A   1      38.527  33.995  37.753  1.00  0.00     0.022 A 
BRANCH  78  82
ATOM     82  S   UNL A   1      40.153  36.074  36.853  1.00  0.00     0.124 S 
ATOM     83  O   UNL A   1      39.578  36.589  38.090  1.00  0.00    -0.237 OA
ATOM     84  O   UNL A   1      41.566  35.714  36.902  1.00  0.00    -0.237 OA
ATOM     85  O   UNL A   1      39.728  36.759  35.634  1.00  0.00    -0.744 OA
ENDBRANCH  78  82
ENDBRANCH  51  75
BRANCH  63  86
ATOM     86  C   UNL A   1      44.816  28.465  34.173  1.00  0.00     0.023 A 
ATOM     87  C   UNL A   1      44.985  27.433  35.111  1.00  0.00     0.031 A 
ATOM     88  C   UNL A   1      45.896  29.337  33.945  1.00  0.00     0.131 A 
ATOM     89  C   UNL A   1      46.179  27.344  35.840  1.00  0.00     0.055 A 
ATOM     90  C   UNL A   1      47.112  29.190  34.613  1.00  0.00     0.041 A 
ATOM     91  F   UNL A   1      45.790  30.344  33.064  1.00  0.00    -0.206 F 
ATOM     92  C   UNL A   1      47.252  28.199  35.580  1.00  0.00     0.022 A 
BRANCH  89  93
ATOM     93  S   UNL A   1      46.262  26.175  37.223  1.00  0.00     0.124 S 
ATOM     94  O   UNL A   1      45.378  26.800  38.201  1.00  0.00    -0.237 OA
ATOM     95  O   UNL A   1      45.771  24.940  36.619  1.00  0.00    -0.237 OA
ATOM     96  O   UNL A   1      47.679  26.169  37.581  1.00  0.00    -0.744 OA
ENDBRANCH  89  93
ENDBRANCH  63  86
ENDBRANCH  37  38
ENDBRANCH  29  32
ENDBRANCH  27  28
ENDBRANCH  26  27
ENDBRANCH  25  26
ENDBRANCH   1  25
TORSDOF 20
ENDMDL
