MODEL 1
REMARK VINA RESULT:     -12.8      0.000      0.000
REMARK SMILES Cc1ccc(NC(=O)c2ccccc2NC(=O)[C@H]2CCCC[C@H]2C(=O)NCCCCCCNC(=O)c2ccc(-c3c4nc(c(-c5cc(S(=O)(=O)[O-])ccc5F)c5ccc([nH]5)c(-c5cc(S(=O)(=O)[O-])ccc5F)c5nc(c(-c6cc(S(=O)(=O)[O-])ccc6F)c6ccc3[nH]6)C=C5)C=C4)cc2)cc1
REMARK SMILES IDX 29 1 28 2 27 3 26 4 24 5 25 6 23 8 18 9 19 10 20 11 22 12
REMARK SMILES IDX 21 13 16 14 15 15 17 17 14 18 9 19 10 20 11 21 13 22 12 23
REMARK SMILES IDX 7 24 6 25 8 27 5 28 1 29 2 30 3 31 100 32 4 33 99 34 30 35
REMARK SMILES IDX 31 36 32 37 33 38 34 39 35 41 36 42 37 43 98 44 38 45 97 46
REMARK SMILES IDX 39 47 40 48 41 49 91 50 42 51 96 52 90 53 92 54 43 55 95 56
REMARK SMILES IDX 89 57 88 58 44 60 76 61 56 62 75 63 57 64 60 65 74 66 93 67
REMARK SMILES IDX 58 68 59 69 73 71 94 72 61 73 45 74 46 75 54 76 47 77 53 78
REMARK SMILES IDX 55 79 52 80 48 81 49 82 50 83 51 84 77 85 78 86 86 87 79 88
REMARK SMILES IDX 85 89 87 90 84 91 80 92 81 93 82 94 83 95 62 96 63 97 71 98
REMARK SMILES IDX 64 99 70 100 72 101 69 102 65 103 66 104 67 105 68 106
REMARK H PARENT 26 7 15 16 6 26 33 40 92 59 60 70
REMARK Flexibility Score: inf
ROOT
ATOM      1  C   UNL A   1      39.610  20.712  25.929  1.00  0.00     0.002 C 
ENDROOT
BRANCH   1   2
ATOM      2  C   UNL A   1      38.770  19.586  25.317  1.00  0.00     0.021 C 
BRANCH   2   3
ATOM      3  C   UNL A   1      37.467  20.025  24.643  1.00  0.00     0.116 C 
BRANCH   3   4
ATOM      4  N   UNL A   1      37.282  21.466  24.688  1.00  0.00    -0.356 N 
ATOM      5  C   UNL A   1      36.264  22.265  25.081  1.00  0.00     0.223 C 
ATOM      6  O   UNL A   1      36.467  23.486  25.024  1.00  0.00    -0.275 OA
ATOM      7  H   UNL A   1      38.065  21.967  24.364  1.00  0.00     0.163 HD
BRANCH   5   8
ATOM      8  C   UNL A   1      34.879  21.786  25.528  1.00  0.00     0.091 C 
ATOM      9  C   UNL A   1      33.903  22.951  25.789  1.00  0.00     0.091 C 
ATOM     10  C   UNL A   1      32.582  22.451  26.403  1.00  0.00     0.014 C 
ATOM     11  C   UNL A   1      31.995  21.225  25.694  1.00  0.00     0.001 C 
ATOM     12  C   UNL A   1      34.279  20.568  24.827  1.00  0.00     0.014 C 
ATOM     13  C   UNL A   1      33.013  20.098  25.545  1.00  0.00     0.001 C 
BRANCH   9  14
ATOM     14  C   UNL A   1      33.593  23.735  24.535  1.00  0.00     0.228 C 
ATOM     15  N   UNL A   1      33.340  25.064  24.508  1.00  0.00    -0.325 N 
ATOM     16  H   UNL A   1      33.455  25.423  23.599  1.00  0.00     0.169 HD
ATOM     17  O   UNL A   1      33.588  23.152  23.443  1.00  0.00    -0.274 OA
BRANCH  15  18
ATOM     18  C   UNL A   1      32.959  26.084  25.403  1.00  0.00     0.054 A 
ATOM     19  C   UNL A   1      31.590  26.230  25.745  1.00  0.00     0.063 A 
ATOM     20  C   UNL A   1      31.180  27.300  26.568  1.00  0.00     0.016 A 
ATOM     21  C   UNL A   1      32.103  28.198  27.088  1.00  0.00     0.001 A 
ATOM     22  C   UNL A   1      33.876  26.951  26.011  1.00  0.00     0.027 A 
ATOM     23  C   UNL A   1      33.451  28.012  26.823  1.00  0.00     0.002 A 
BRANCH  19  24
ATOM     24  C   UNL A   1      30.456  25.440  25.192  1.00  0.00     0.257 C 
ATOM     25  N   UNL A   1      29.540  25.891  24.272  1.00  0.00    -0.322 N 
ATOM     26  H   UNL A   1      28.786  25.270  24.146  1.00  0.00     0.170 HD
ATOM     27  O   UNL A   1      30.289  24.312  25.665  1.00  0.00    -0.269 OA
BRANCH  25  28
ATOM     28  C   UNL A   1      29.442  27.037  23.473  1.00  0.00     0.041 A 
ATOM     29  C   UNL A   1      29.057  31.056  21.998  1.00  0.00     0.044 C 
ATOM     30  C   UNL A   1      29.153  29.614  22.397  1.00  0.00    -0.051 A 
ATOM     31  C   UNL A   1      30.377  28.935  22.309  1.00  0.00     0.005 A 
ATOM     32  C   UNL A   1      28.049  28.950  22.939  1.00  0.00     0.005 A 
ATOM     33  C   UNL A   1      30.520  27.646  22.837  1.00  0.00     0.026 A 
ATOM     34  C   UNL A   1      28.190  27.662  23.454  1.00  0.00     0.026 A 
ENDBRANCH  25  28
ENDBRANCH  19  24
ENDBRANCH  15  18
ENDBRANCH   9  14
ENDBRANCH   5   8
ENDBRANCH   3   4
ENDBRANCH   2   3
ENDBRANCH   1   2
BRANCH   1  35
ATOM     35  C   UNL A   1      40.767  20.287  26.845  1.00  0.00     0.002 C 
BRANCH  35  36
ATOM     36  C   UNL A   1      41.695  21.409  27.307  1.00  0.00     0.021 C 
BRANCH  36  37
ATOM     37  C   UNL A   1      41.219  22.809  26.926  1.00  0.00     0.116 C 
BRANCH  37  38
ATOM     38  N   UNL A   1      42.162  23.526  26.076  1.00  0.00    -0.352 N 
ATOM     39  C   UNL A   1      42.257  24.885  25.822  1.00  0.00     0.251 C 
ATOM     40  H   UNL A   1      42.826  22.964  25.615  1.00  0.00     0.163 HD
ATOM     41  O   UNL A   1      43.088  25.334  25.055  1.00  0.00    -0.269 OA
BRANCH  39  42
ATOM     42  C   UNL A   1      41.394  25.808  26.597  1.00  0.00     0.039 A 
ATOM     43  C   UNL A   1      40.997  26.995  25.971  1.00  0.00     0.014 A 
ATOM     44  C   UNL A   1      41.156  25.610  27.953  1.00  0.00     0.014 A 
ATOM     45  C   UNL A   1      40.575  28.068  26.749  1.00  0.00     0.010 A 
ATOM     46  C   UNL A   1      40.804  26.695  28.735  1.00  0.00     0.010 A 
ATOM     47  C   UNL A   1      40.587  27.941  28.140  1.00  0.00    -0.014 A 
BRANCH  47  48
ATOM     48  C   UNL A   1      40.550  29.096  29.031  1.00  0.00     0.031 A 
ATOM     49  C   UNL A   1      39.401  30.020  29.045  1.00  0.00     0.074 A 
ATOM     50  C   UNL A   1      41.594  29.338  29.856  1.00  0.00     0.049 A 
ATOM     51  N   UNL A   1      39.500  31.285  29.288  1.00  0.00    -0.248 NA
ATOM     52  C   UNL A   1      38.039  29.588  28.753  1.00  0.00     0.031 C 
ATOM     53  C   UNL A   1      41.660  30.325  30.929  1.00  0.00     0.029 A 
ATOM     54  N   UNL A   1      42.905  28.895  29.707  1.00  0.00    -0.354 N 
ATOM     55  C   UNL A   1      38.226  31.769  29.457  1.00  0.00     0.074 A 
ATOM     56  C   UNL A   1      37.350  30.695  29.045  1.00  0.00     0.031 C 
ATOM     57  C   UNL A   1      42.948  30.614  31.168  1.00  0.00     0.029 A 
ATOM     58  C   UNL A   1      43.746  29.915  30.178  1.00  0.00     0.049 A 
ATOM     59  H   UNL A   1      43.190  28.026  29.339  1.00  0.00     0.167 HD
ATOM     60  C   UNL A   1      38.019  32.970  30.064  1.00  0.00     0.034 A 
ATOM     61  C   UNL A   1      44.686  30.486  29.373  1.00  0.00     0.034 A 
ATOM     62  C   UNL A   1      39.262  33.600  30.489  1.00  0.00     0.049 A 
ATOM     63  C   UNL A   1      44.496  31.976  29.200  1.00  0.00     0.074 A 
ATOM     64  C   UNL A   1      39.911  33.650  31.713  1.00  0.00     0.029 A 
ATOM     65  N   UNL A   1      40.173  34.054  29.541  1.00  0.00    -0.354 N 
ATOM     66  N   UNL A   1      43.382  32.606  29.455  1.00  0.00    -0.248 NA
ATOM     67  C   UNL A   1      45.543  32.867  28.717  1.00  0.00     0.031 C 
ATOM     68  C   UNL A   1      41.240  34.084  31.487  1.00  0.00     0.029 A 
ATOM     69  C   UNL A   1      41.390  34.333  30.133  1.00  0.00     0.049 A 
ATOM     70  H   UNL A   1      39.977  34.161  28.582  1.00  0.00     0.167 HD
ATOM     71  C   UNL A   1      43.536  33.943  29.183  1.00  0.00     0.074 A 
ATOM     72  C   UNL A   1      44.915  34.056  28.740  1.00  0.00     0.031 C 
ATOM     73  C   UNL A   1      42.512  34.836  29.351  1.00  0.00     0.034 A 
BRANCH  60  74
ATOM     74  C   UNL A   1      36.654  33.381  30.550  1.00  0.00     0.023 A 
ATOM     75  C   UNL A   1      35.776  34.070  29.691  1.00  0.00     0.031 A 
ATOM     76  C   UNL A   1      36.190  33.158  31.860  1.00  0.00     0.131 A 
ATOM     77  C   UNL A   1      34.557  34.590  30.160  1.00  0.00     0.055 A 
ATOM     78  C   UNL A   1      35.003  33.720  32.344  1.00  0.00     0.041 A 
ATOM     79  F   UNL A   1      36.876  32.382  32.714  1.00  0.00    -0.206 F 
ATOM     80  C   UNL A   1      34.185  34.455  31.496  1.00  0.00     0.022 A 
BRANCH  77  81
ATOM     81  S   UNL A   1      33.463  35.453  28.998  1.00  0.00     0.124 S 
ATOM     82  O   UNL A   1      32.691  36.321  29.880  1.00  0.00    -0.237 OA
ATOM     83  O   UNL A   1      34.415  36.115  28.112  1.00  0.00    -0.237 OA
ATOM     84  O   UNL A   1      32.700  34.368  28.381  1.00  0.00    -0.744 OA
ENDBRANCH  77  81
ENDBRANCH  60  74
BRANCH  61  85
ATOM     85  C   UNL A   1      45.240  29.554  28.350  1.00  0.00     0.023 A 
ATOM     86  C   UNL A   1      46.261  28.667  28.761  1.00  0.00     0.031 A 
ATOM     87  C   UNL A   1      44.555  29.262  27.164  1.00  0.00     0.131 A 
ATOM     88  C   UNL A   1      46.468  27.460  28.079  1.00  0.00     0.055 A 
ATOM     89  C   UNL A   1      44.803  28.078  26.455  1.00  0.00     0.041 A 
ATOM     90  F   UNL A   1      43.554  30.045  26.741  1.00  0.00    -0.206 F 
ATOM     91  C   UNL A   1      45.731  27.153  26.935  1.00  0.00     0.022 A 
BRANCH  88  92
ATOM     92  S   UNL A   1      47.515  26.176  28.831  1.00  0.00     0.124 S 
ATOM     93  O   UNL A   1      47.903  26.796  30.092  1.00  0.00    -0.237 OA
ATOM     94  O   UNL A   1      46.614  25.032  28.937  1.00  0.00    -0.237 OA
ATOM     95  O   UNL A   1      48.587  26.007  27.851  1.00  0.00    -0.744 OA
ENDBRANCH  88  92
ENDBRANCH  61  85
BRANCH  73  96
ATOM     96  C   UNL A   1      42.507  36.287  28.910  1.00  0.00     0.023 A 
ATOM     97  C   UNL A   1      43.155  37.315  29.611  1.00  0.00     0.031 A 
ATOM     98  C   UNL A   1      41.887  36.680  27.695  1.00  0.00     0.131 A 
ATOM     99  C   UNL A   1      43.094  38.652  29.173  1.00  0.00     0.055 A 
ATOM    100  C   UNL A   1      41.896  37.996  27.221  1.00  0.00     0.041 A 
ATOM    101  F   UNL A   1      41.251  35.801  26.906  1.00  0.00    -0.206 F 
ATOM    102  C   UNL A   1      42.487  38.999  27.971  1.00  0.00     0.022 A 
BRANCH  99 103
ATOM    103  S   UNL A   1      43.778  39.939  30.251  1.00  0.00     0.124 S 
ATOM    104  O   UNL A   1      45.002  40.303  29.542  1.00  0.00    -0.237 OA
ATOM    105  O   UNL A   1      42.721  40.945  30.248  1.00  0.00    -0.237 OA
ATOM    106  O   UNL A   1      43.980  39.252  31.524  1.00  0.00    -0.744 OA
ENDBRANCH  99 103
ENDBRANCH  73  96
ENDBRANCH  47  48
ENDBRANCH  39  42
ENDBRANCH  37  38
ENDBRANCH  36  37
ENDBRANCH  35  36
ENDBRANCH   1  35
TORSDOF 20
ENDMDL
MODEL 2
REMARK VINA RESULT:     -12.8      4.094     10.691
REMARK SMILES Cc1ccc(NC(=O)c2ccccc2NC(=O)[C@H]2CCCC[C@H]2C(=O)NCCCCCCNC(=O)c2ccc(-c3c4nc(c(-c5cc(S(=O)(=O)[O-])ccc5F)c5ccc([nH]5)c(-c5cc(S(=O)(=O)[O-])ccc5F)c5nc(c(-c6cc(S(=O)(=O)[O-])ccc6F)c6ccc3[nH]6)C=C5)C=C4)cc2)cc1
REMARK SMILES IDX 29 1 28 2 27 3 26 4 24 5 25 6 23 8 18 9 19 10 20 11 22 12
REMARK SMILES IDX 21 13 16 14 15 15 17 17 14 18 9 19 10 20 11 21 13 22 12 23
REMARK SMILES IDX 7 24 6 25 8 27 5 28 1 29 2 30 3 31 100 32 4 33 99 34 30 35
REMARK SMILES IDX 31 36 32 37 33 38 34 39 35 41 36 42 37 43 98 44 38 45 97 46
REMARK SMILES IDX 39 47 40 48 41 49 91 50 42 51 96 52 90 53 92 54 43 55 95 56
REMARK SMILES IDX 89 57 88 58 44 60 76 61 56 62 75 63 57 64 60 65 74 66 93 67
REMARK SMILES IDX 58 68 59 69 73 71 94 72 61 73 45 74 46 75 54 76 47 77 53 78
REMARK SMILES IDX 55 79 52 80 48 81 49 82 50 83 51 84 77 85 78 86 86 87 79 88
REMARK SMILES IDX 85 89 87 90 84 91 80 92 81 93 82 94 83 95 62 96 63 97 71 98
REMARK SMILES IDX 64 99 70 100 72 101 69 102 65 103 66 104 67 105 68 106
REMARK H PARENT 26 7 15 16 6 26 33 40 92 59 60 70
REMARK Flexibility Score: inf
ROOT
ATOM      1  C   UNL A   1      34.987  31.351  27.700  1.00  0.00     0.002 C 
ENDROOT
BRANCH   1   2
ATOM      2  C   UNL A   1      33.525  31.661  27.363  1.00  0.00     0.021 C 
BRANCH   2   3
ATOM      3  C   UNL A   1      32.614  30.443  27.188  1.00  0.00     0.116 C 
BRANCH   3   4
ATOM      4  N   UNL A   1      33.368  29.216  26.991  1.00  0.00    -0.356 N 
ATOM      5  C   UNL A   1      33.462  28.331  25.972  1.00  0.00     0.223 C 
ATOM      6  O   UNL A   1      34.256  27.393  26.128  1.00  0.00    -0.275 OA
ATOM      7  H   UNL A   1      33.929  28.978  27.764  1.00  0.00     0.163 HD
BRANCH   5   8
ATOM      8  C   UNL A   1      32.633  28.367  24.684  1.00  0.00     0.091 C 
ATOM      9  C   UNL A   1      32.790  27.085  23.841  1.00  0.00     0.091 C 
ATOM     10  C   UNL A   1      32.090  27.220  22.476  1.00  0.00     0.014 C 
ATOM     11  C   UNL A   1      30.674  27.802  22.563  1.00  0.00     0.001 C 
ATOM     12  C   UNL A   1      31.218  28.939  24.756  1.00  0.00     0.014 C 
ATOM     13  C   UNL A   1      30.629  29.106  23.354  1.00  0.00     0.001 C 
BRANCH   9  14
ATOM     14  C   UNL A   1      32.253  25.862  24.547  1.00  0.00     0.228 C 
ATOM     15  N   UNL A   1      33.009  24.804  24.923  1.00  0.00    -0.325 N 
ATOM     16  H   UNL A   1      32.545  24.270  25.607  1.00  0.00     0.169 HD
ATOM     17  O   UNL A   1      31.050  25.808  24.834  1.00  0.00    -0.274 OA
BRANCH  15  18
ATOM     18  C   UNL A   1      34.267  24.245  24.621  1.00  0.00     0.054 A 
ATOM     19  C   UNL A   1      34.451  23.587  23.377  1.00  0.00     0.063 A 
ATOM     20  C   UNL A   1      35.675  22.944  23.095  1.00  0.00     0.016 A 
ATOM     21  C   UNL A   1      36.727  22.977  24.002  1.00  0.00     0.001 A 
ATOM     22  C   UNL A   1      35.371  24.335  25.477  1.00  0.00     0.027 A 
ATOM     23  C   UNL A   1      36.579  23.687  25.184  1.00  0.00     0.002 A 
BRANCH  19  24
ATOM     24  C   UNL A   1      33.407  23.353  22.342  1.00  0.00     0.257 C 
ATOM     25  N   UNL A   1      32.616  22.234  22.243  1.00  0.00    -0.322 N 
ATOM     26  H   UNL A   1      32.094  22.206  21.408  1.00  0.00     0.170 HD
ATOM     27  O   UNL A   1      33.306  24.209  21.459  1.00  0.00    -0.269 OA
BRANCH  25  28
ATOM     28  C   UNL A   1      32.387  21.124  23.066  1.00  0.00     0.041 A 
ATOM     29  C   UNL A   1      32.681  17.421  25.229  1.00  0.00     0.044 C 
ATOM     30  C   UNL A   1      32.452  18.705  24.489  1.00  0.00    -0.051 A 
ATOM     31  C   UNL A   1      32.530  19.933  25.162  1.00  0.00     0.005 A 
ATOM     32  C   UNL A   1      32.239  18.703  23.108  1.00  0.00     0.005 A 
ATOM     33  C   UNL A   1      32.489  21.140  24.454  1.00  0.00     0.026 A 
ATOM     34  C   UNL A   1      32.186  19.906  22.405  1.00  0.00     0.026 A 
ENDBRANCH  25  28
ENDBRANCH  19  24
ENDBRANCH  15  18
ENDBRANCH   9  14
ENDBRANCH   5   8
ENDBRANCH   3   4
ENDBRANCH   2   3
ENDBRANCH   1   2
BRANCH   1  35
ATOM     35  C   UNL A   1      35.879  32.549  28.057  1.00  0.00     0.002 C 
BRANCH  35  36
ATOM     36  C   UNL A   1      35.464  33.339  29.297  1.00  0.00     0.021 C 
BRANCH  36  37
ATOM     37  C   UNL A   1      35.217  32.478  30.533  1.00  0.00     0.116 C 
BRANCH  37  38
ATOM     38  N   UNL A   1      36.004  32.891  31.689  1.00  0.00    -0.352 N 
ATOM     39  C   UNL A   1      37.207  32.388  32.156  1.00  0.00     0.251 C 
ATOM     40  H   UNL A   1      35.626  33.635  32.212  1.00  0.00     0.163 HD
ATOM     41  O   UNL A   1      37.732  32.823  33.164  1.00  0.00    -0.269 OA
BRANCH  39  42
ATOM     42  C   UNL A   1      37.914  31.375  31.336  1.00  0.00     0.039 A 
ATOM     43  C   UNL A   1      37.920  30.057  31.806  1.00  0.00     0.014 A 
ATOM     44  C   UNL A   1      38.710  31.746  30.256  1.00  0.00     0.014 A 
ATOM     45  C   UNL A   1      38.892  29.174  31.346  1.00  0.00     0.010 A 
ATOM     46  C   UNL A   1      39.719  30.893  29.848  1.00  0.00     0.010 A 
ATOM     47  C   UNL A   1      39.855  29.636  30.446  1.00  0.00    -0.014 A 
BRANCH  47  48
ATOM     48  C   UNL A   1      41.112  28.934  30.217  1.00  0.00     0.031 A 
ATOM     49  C   UNL A   1      41.148  27.619  29.550  1.00  0.00     0.074 A 
ATOM     50  C   UNL A   1      42.274  29.487  30.633  1.00  0.00     0.049 A 
ATOM     51  N   UNL A   1      42.013  26.699  29.820  1.00  0.00    -0.248 NA
ATOM     52  C   UNL A   1      40.179  27.225  28.533  1.00  0.00     0.031 C 
ATOM     53  C   UNL A   1      43.626  29.025  30.339  1.00  0.00     0.029 A 
ATOM     54  N   UNL A   1      42.440  30.444  31.630  1.00  0.00    -0.354 N 
ATOM     55  C   UNL A   1      41.898  25.731  28.853  1.00  0.00     0.074 A 
ATOM     56  C   UNL A   1      40.699  26.066  28.117  1.00  0.00     0.031 C 
ATOM     57  C   UNL A   1      44.455  29.485  31.290  1.00  0.00     0.029 A 
ATOM     58  C   UNL A   1      43.644  30.154  32.290  1.00  0.00     0.049 A 
ATOM     59  H   UNL A   1      41.827  31.188  31.834  1.00  0.00     0.167 HD
ATOM     60  C   UNL A   1      42.894  24.824  28.662  1.00  0.00     0.034 A 
ATOM     61  C   UNL A   1      43.675  29.904  33.630  1.00  0.00     0.034 A 
ATOM     62  C   UNL A   1      44.020  25.036  29.562  1.00  0.00     0.049 A 
ATOM     63  C   UNL A   1      44.222  28.536  33.966  1.00  0.00     0.074 A 
ATOM     64  C   UNL A   1      45.240  25.674  29.395  1.00  0.00     0.029 A 
ATOM     65  N   UNL A   1      43.870  24.826  30.928  1.00  0.00    -0.354 N 
ATOM     66  N   UNL A   1      44.308  27.552  33.115  1.00  0.00    -0.248 NA
ATOM     67  C   UNL A   1      44.704  28.170  35.293  1.00  0.00     0.031 C 
ATOM     68  C   UNL A   1      45.798  25.896  30.677  1.00  0.00     0.029 A 
ATOM     69  C   UNL A   1      44.937  25.364  31.622  1.00  0.00     0.049 A 
ATOM     70  H   UNL A   1      43.109  24.358  31.343  1.00  0.00     0.167 HD
ATOM     71  C   UNL A   1      44.834  26.447  33.738  1.00  0.00     0.074 A 
ATOM     72  C   UNL A   1      45.081  26.894  35.098  1.00  0.00     0.031 C 
ATOM     73  C   UNL A   1      45.021  25.265  33.074  1.00  0.00     0.034 A 
BRANCH  60  74
ATOM     74  C   UNL A   1      42.951  23.965  27.426  1.00  0.00     0.023 A 
ATOM     75  C   UNL A   1      42.367  22.684  27.428  1.00  0.00     0.031 A 
ATOM     76  C   UNL A   1      43.606  24.346  26.239  1.00  0.00     0.131 A 
ATOM     77  C   UNL A   1      42.529  21.808  26.340  1.00  0.00     0.055 A 
ATOM     78  C   UNL A   1      43.814  23.458  25.177  1.00  0.00     0.041 A 
ATOM     79  F   UNL A   1      44.062  25.597  26.071  1.00  0.00    -0.206 F 
ATOM     80  C   UNL A   1      43.287  22.174  25.230  1.00  0.00     0.022 A 
BRANCH  77  81
ATOM     81  S   UNL A   1      41.737  20.177  26.397  1.00  0.00     0.124 S 
ATOM     82  O   UNL A   1      42.124  19.687  27.716  1.00  0.00    -0.237 OA
ATOM     83  O   UNL A   1      40.327  20.512  26.222  1.00  0.00    -0.237 OA
ATOM     84  O   UNL A   1      42.344  19.465  25.273  1.00  0.00    -0.744 OA
ENDBRANCH  77  81
ENDBRANCH  60  74
BRANCH  61  85
ATOM     85  C   UNL A   1      42.628  30.637  34.397  1.00  0.00     0.023 A 
ATOM     86  C   UNL A   1      42.888  31.986  34.732  1.00  0.00     0.031 A 
ATOM     87  C   UNL A   1      41.301  30.191  34.454  1.00  0.00     0.131 A 
ATOM     88  C   UNL A   1      41.830  32.875  34.962  1.00  0.00     0.055 A 
ATOM     89  C   UNL A   1      40.250  31.074  34.738  1.00  0.00     0.041 A 
ATOM     90  F   UNL A   1      40.986  28.933  34.115  1.00  0.00    -0.206 F 
ATOM     91  C   UNL A   1      40.508  32.428  34.951  1.00  0.00     0.022 A 
BRANCH  88  92
ATOM     92  S   UNL A   1      42.161  34.662  35.021  1.00  0.00     0.124 S 
ATOM     93  O   UNL A   1      41.825  35.083  33.666  1.00  0.00    -0.237 OA
ATOM     94  O   UNL A   1      41.264  35.134  36.073  1.00  0.00    -0.237 OA
ATOM     95  O   UNL A   1      43.580  34.726  35.370  1.00  0.00    -0.744 OA
ENDBRANCH  88  92
ENDBRANCH  61  85
BRANCH  73  96
ATOM     96  C   UNL A   1      45.413  23.938  33.697  1.00  0.00     0.023 A 
ATOM     97  C   UNL A   1      46.708  23.646  34.151  1.00  0.00     0.031 A 
ATOM     98  C   UNL A   1      44.449  22.922  33.922  1.00  0.00     0.131 A 
ATOM     99  C   UNL A   1      47.026  22.387  34.696  1.00  0.00     0.055 A 
ATOM    100  C   UNL A   1      44.750  21.702  34.536  1.00  0.00     0.041 A 
ATOM    101  F   UNL A   1      43.165  23.071  33.563  1.00  0.00    -0.206 F 
ATOM    102  C   UNL A   1      46.052  21.419  34.912  1.00  0.00     0.022 A 
BRANCH  99 103
ATOM    103  S   UNL A   1      48.765  22.025  35.059  1.00  0.00     0.124 S 
ATOM    104  O   UNL A   1      49.442  22.636  33.919  1.00  0.00    -0.237 OA
ATOM    105  O   UNL A   1      48.962  22.688  36.344  1.00  0.00    -0.237 OA
ATOM    106  O   UNL A   1      48.811  20.565  35.099  1.00  0.00    -0.744 OA
ENDBRANCH  99 103
ENDBRANCH  73  96
ENDBRANCH  47  48
ENDBRANCH  39  42
ENDBRANCH  37  38
ENDBRANCH  36  37
ENDBRANCH  35  36
ENDBRANCH   1  35
TORSDOF 20
ENDMDL
MODEL 3
REMARK VINA RESULT:     -12.5      3.253      4.542
REMARK SMILES Cc1ccc(NC(=O)c2ccccc2NC(=O)[C@H]2CCCC[C@H]2C(=O)NCCCCCCNC(=O)c2ccc(-c3c4nc(c(-c5cc(S(=O)(=O)[O-])ccc5F)c5ccc([nH]5)c(-c5cc(S(=O)(=O)[O-])ccc5F)c5nc(c(-c6cc(S(=O)(=O)[O-])ccc6F)c6ccc3[nH]6)C=C5)C=C4)cc2)cc1
REMARK SMILES IDX 29 1 28 2 27 3 26 4 24 5 25 6 23 8 18 9 19 10 20 11 22 12
REMARK SMILES IDX 21 13 16 14 15 15 17 17 14 18 9 19 10 20 11 21 13 22 12 23
REMARK SMILES IDX 7 24 6 25 8 27 5 28 1 29 2 30 3 31 100 32 4 33 99 34 30 35
REMARK SMILES IDX 31 36 32 37 33 38 34 39 35 41 36 42 37 43 98 44 38 45 97 46
REMARK SMILES IDX 39 47 40 48 41 49 91 50 42 51 96 52 90 53 92 54 43 55 95 56
REMARK SMILES IDX 89 57 88 58 44 60 76 61 56 62 75 63 57 64 60 65 74 66 93 67
REMARK SMILES IDX 58 68 59 69 73 71 94 72 61 73 45 74 46 75 54 76 47 77 53 78
REMARK SMILES IDX 55 79 52 80 48 81 49 82 50 83 51 84 77 85 78 86 86 87 79 88
REMARK SMILES IDX 85 89 87 90 84 91 80 92 81 93 82 94 83 95 62 96 63 97 71 98
REMARK SMILES IDX 64 99 70 100 72 101 69 102 65 103 66 104 67 105 68 106
REMARK H PARENT 26 7 15 16 6 26 33 40 92 59 60 70
REMARK Flexibility Score: inf
ROOT
ATOM      1  C   UNL A   1      39.417  20.520  26.049  1.00  0.00     0.002 C 
ENDROOT
BRANCH   1   2
ATOM      2  C   UNL A   1      38.524  20.377  24.811  1.00  0.00     0.021 C 
BRANCH   2   3
ATOM      3  C   UNL A   1      37.033  20.639  25.038  1.00  0.00     0.116 C 
BRANCH   3   4
ATOM      4  N   UNL A   1      36.747  22.049  25.245  1.00  0.00    -0.356 N 
ATOM      5  C   UNL A   1      35.629  22.737  25.574  1.00  0.00     0.223 C 
ATOM      6  O   UNL A   1      35.756  23.961  25.714  1.00  0.00    -0.275 OA
ATOM      7  H   UNL A   1      37.533  22.626  25.118  1.00  0.00     0.163 HD
BRANCH   5   8
ATOM      8  C   UNL A   1      34.229  22.135  25.729  1.00  0.00     0.091 C 
ATOM      9  C   UNL A   1      33.136  23.210  25.902  1.00  0.00     0.091 C 
ATOM     10  C   UNL A   1      31.771  22.577  26.229  1.00  0.00     0.014 C 
ATOM     11  C   UNL A   1      31.410  21.386  25.334  1.00  0.00     0.001 C 
ATOM     12  C   UNL A   1      33.853  20.950  24.839  1.00  0.00     0.014 C 
ATOM     13  C   UNL A   1      32.521  20.341  25.282  1.00  0.00     0.001 C 
BRANCH   9  14
ATOM     14  C   UNL A   1      32.989  24.083  24.677  1.00  0.00     0.228 C 
ATOM     15  N   UNL A   1      32.957  25.436  24.703  1.00  0.00    -0.325 N 
ATOM     16  H   UNL A   1      33.151  25.807  23.813  1.00  0.00     0.169 HD
ATOM     17  O   UNL A   1      32.915  23.553  23.561  1.00  0.00    -0.274 OA
BRANCH  15  18
ATOM     18  C   UNL A   1      32.726  26.468  25.635  1.00  0.00     0.054 A 
ATOM     19  C   UNL A   1      31.425  26.637  26.173  1.00  0.00     0.063 A 
ATOM     20  C   UNL A   1      31.154  27.719  27.037  1.00  0.00     0.016 A 
ATOM     21  C   UNL A   1      32.156  28.607  27.407  1.00  0.00     0.001 A 
ATOM     22  C   UNL A   1      33.734  27.326  26.092  1.00  0.00     0.027 A 
ATOM     23  C   UNL A   1      33.448  28.399  26.948  1.00  0.00     0.002 A 
BRANCH  19  24
ATOM     24  C   UNL A   1      30.210  25.859  25.802  1.00  0.00     0.257 C 
ATOM     25  N   UNL A   1      29.315  26.197  24.814  1.00  0.00    -0.322 N 
ATOM     26  H   UNL A   1      28.506  25.636  24.823  1.00  0.00     0.170 HD
ATOM     27  O   UNL A   1      29.956  24.872  26.496  1.00  0.00    -0.269 OA
BRANCH  25  28
ATOM     28  C   UNL A   1      29.299  27.161  23.799  1.00  0.00     0.041 A 
ATOM     29  C   UNL A   1      29.063  30.801  21.526  1.00  0.00     0.044 C 
ATOM     30  C   UNL A   1      29.120  29.469  22.211  1.00  0.00    -0.051 A 
ATOM     31  C   UNL A   1      30.348  28.815  22.385  1.00  0.00     0.005 A 
ATOM     32  C   UNL A   1      27.967  28.899  22.757  1.00  0.00     0.005 A 
ATOM     33  C   UNL A   1      30.437  27.659  23.169  1.00  0.00     0.026 A 
ATOM     34  C   UNL A   1      28.055  27.741  23.528  1.00  0.00     0.026 A 
ENDBRANCH  25  28
ENDBRANCH  19  24
ENDBRANCH  15  18
ENDBRANCH   9  14
ENDBRANCH   5   8
ENDBRANCH   3   4
ENDBRANCH   2   3
ENDBRANCH   1   2
BRANCH   1  35
ATOM     35  C   UNL A   1      40.608  19.555  26.152  1.00  0.00     0.002 C 
BRANCH  35  36
ATOM     36  C   UNL A   1      41.647  19.897  27.217  1.00  0.00     0.021 C 
BRANCH  36  37
ATOM     37  C   UNL A   1      42.720  20.878  26.751  1.00  0.00     0.116 C 
BRANCH  37  38
ATOM     38  N   UNL A   1      43.407  20.447  25.539  1.00  0.00    -0.352 N 
ATOM     39  C   UNL A   1      44.267  21.159  24.717  1.00  0.00     0.251 C 
ATOM     40  H   UNL A   1      43.236  19.517  25.265  1.00  0.00     0.163 HD
ATOM     41  O   UNL A   1      44.742  20.665  23.712  1.00  0.00    -0.269 OA
BRANCH  39  42
ATOM     42  C   UNL A   1      44.694  22.512  25.148  1.00  0.00     0.039 A 
ATOM     43  C   UNL A   1      45.601  22.591  26.211  1.00  0.00     0.014 A 
ATOM     44  C   UNL A   1      44.072  23.657  24.661  1.00  0.00     0.014 A 
ATOM     45  C   UNL A   1      45.704  23.777  26.932  1.00  0.00     0.010 A 
ATOM     46  C   UNL A   1      44.120  24.815  25.416  1.00  0.00     0.010 A 
ATOM     47  C   UNL A   1      44.876  24.850  26.591  1.00  0.00    -0.014 A 
BRANCH  47  48
ATOM     48  C   UNL A   1      44.624  25.962  27.501  1.00  0.00     0.031 A 
ATOM     49  C   UNL A   1      43.305  26.619  27.565  1.00  0.00     0.074 A 
ATOM     50  C   UNL A   1      45.618  26.414  28.298  1.00  0.00     0.049 A 
ATOM     51  N   UNL A   1      43.139  27.874  27.824  1.00  0.00    -0.248 NA
ATOM     52  C   UNL A   1      42.058  25.908  27.307  1.00  0.00     0.031 C 
ATOM     53  C   UNL A   1      45.508  27.383  29.383  1.00  0.00     0.029 A 
ATOM     54  N   UNL A   1      46.988  26.263  28.101  1.00  0.00    -0.354 N 
ATOM     55  C   UNL A   1      41.798  28.073  28.040  1.00  0.00     0.074 A 
ATOM     56  C   UNL A   1      41.158  26.839  27.638  1.00  0.00     0.031 C 
ATOM     57  C   UNL A   1      46.712  27.939  29.588  1.00  0.00     0.029 A 
ATOM     58  C   UNL A   1      47.607  27.436  28.562  1.00  0.00     0.049 A 
ATOM     59  H   UNL A   1      47.440  25.479  27.712  1.00  0.00     0.167 HD
ATOM     60  C   UNL A   1      41.359  29.196  28.671  1.00  0.00     0.034 A 
ATOM     61  C   UNL A   1      48.377  28.201  27.738  1.00  0.00     0.034 A 
ATOM     62  C   UNL A   1      42.453  30.074  29.068  1.00  0.00     0.049 A 
ATOM     63  C   UNL A   1      47.867  29.617  27.595  1.00  0.00     0.074 A 
ATOM     64  C   UNL A   1      43.117  30.250  30.272  1.00  0.00     0.029 A 
ATOM     65  N   UNL A   1      43.214  30.720  28.100  1.00  0.00    -0.354 N 
ATOM     66  N   UNL A   1      46.654  29.993  27.893  1.00  0.00    -0.248 NA
ATOM     67  C   UNL A   1      48.684  30.716  27.093  1.00  0.00     0.031 C 
ATOM     68  C   UNL A   1      44.314  30.961  30.012  1.00  0.00     0.029 A 
ATOM     69  C   UNL A   1      44.363  31.247  28.658  1.00  0.00     0.049 A 
ATOM     70  H   UNL A   1      42.968  30.791  27.149  1.00  0.00     0.167 HD
ATOM     71  C   UNL A   1      46.510  31.334  27.637  1.00  0.00     0.074 A 
ATOM     72  C   UNL A   1      47.817  31.743  27.154  1.00  0.00     0.031 C 
ATOM     73  C   UNL A   1      45.325  31.986  27.850  1.00  0.00     0.034 A 
BRANCH  60  74
ATOM     74  C   UNL A   1      39.955  29.302  29.205  1.00  0.00     0.023 A 
ATOM     75  C   UNL A   1      39.726  29.320  30.595  1.00  0.00     0.031 A 
ATOM     76  C   UNL A   1      38.809  29.342  28.388  1.00  0.00     0.131 A 
ATOM     77  C   UNL A   1      38.422  29.273  31.118  1.00  0.00     0.055 A 
ATOM     78  C   UNL A   1      37.512  29.243  28.906  1.00  0.00     0.041 A 
ATOM     79  F   UNL A   1      38.913  29.484  27.057  1.00  0.00    -0.206 F 
ATOM     80  C   UNL A   1      37.313  29.192  30.279  1.00  0.00     0.022 A 
BRANCH  77  81
ATOM     81  S   UNL A   1      38.195  29.317  32.917  1.00  0.00     0.124 S 
ATOM     82  O   UNL A   1      39.551  29.097  33.410  1.00  0.00    -0.237 OA
ATOM     83  O   UNL A   1      37.641  30.651  33.127  1.00  0.00    -0.237 OA
ATOM     84  O   UNL A   1      37.263  28.217  33.169  1.00  0.00    -0.744 OA
ENDBRANCH  77  81
ENDBRANCH  60  74
BRANCH  61  85
ATOM     85  C   UNL A   1      49.083  27.419  26.685  1.00  0.00     0.023 A 
ATOM     86  C   UNL A   1      48.506  27.392  25.394  1.00  0.00     0.031 A 
ATOM     87  C   UNL A   1      50.429  27.054  26.808  1.00  0.00     0.131 A 
ATOM     88  C   UNL A   1      49.303  27.157  24.266  1.00  0.00     0.055 A 
ATOM     89  C   UNL A   1      51.211  26.766  25.680  1.00  0.00     0.041 A 
ATOM     90  F   UNL A   1      51.043  27.092  27.999  1.00  0.00    -0.206 F 
ATOM     91  C   UNL A   1      50.660  26.858  24.402  1.00  0.00     0.022 A 
BRANCH  88  92
ATOM     92  S   UNL A   1      48.630  27.492  22.610  1.00  0.00     0.124 S 
ATOM     93  O   UNL A   1      47.307  28.022  22.917  1.00  0.00    -0.237 OA
ATOM     94  O   UNL A   1      49.582  28.447  22.050  1.00  0.00    -0.237 OA
ATOM     95  O   UNL A   1      48.653  26.177  21.970  1.00  0.00    -0.744 OA
ENDBRANCH  88  92
ENDBRANCH  61  85
BRANCH  73  96
ATOM     96  C   UNL A   1      44.995  33.406  27.433  1.00  0.00     0.023 A 
ATOM     97  C   UNL A   1      45.449  34.542  28.118  1.00  0.00     0.031 A 
ATOM     98  C   UNL A   1      44.247  33.667  26.255  1.00  0.00     0.131 A 
ATOM     99  C   UNL A   1      45.089  35.840  27.704  1.00  0.00     0.055 A 
ATOM    100  C   UNL A   1      43.959  34.958  25.801  1.00  0.00     0.041 A 
ATOM    101  F   UNL A   1      43.770  32.679  25.484  1.00  0.00    -0.206 F 
ATOM    102  C   UNL A   1      44.364  36.058  26.537  1.00  0.00     0.022 A 
BRANCH  99 103
ATOM    103  S   UNL A   1      45.543  37.236  28.767  1.00  0.00     0.124 S 
ATOM    104  O   UNL A   1      45.713  36.582  30.062  1.00  0.00    -0.237 OA
ATOM    105  O   UNL A   1      46.766  37.725  28.139  1.00  0.00    -0.237 OA
ATOM    106  O   UNL A   1      44.393  38.132  28.670  1.00  0.00    -0.744 OA
ENDBRANCH  99 103
ENDBRANCH  73  96
ENDBRANCH  47  48
ENDBRANCH  39  42
ENDBRANCH  37  38
ENDBRANCH  36  37
ENDBRANCH  35  36
ENDBRANCH   1  35
TORSDOF 20
ENDMDL
