MODEL 1
REMARK VINA RESULT:     -11.7      0.000      0.000
REMARK SMILES CC[NH+]1CCC2(CC1)OC[C@H](C(=O)NCCCCCCNC(=O)c1ccc(-c3c4nc(c(-c5cc(S(=O)(=O)[O-])ccc5F)c5ccc([nH]5)c(-c5cc(S(=O)(=O)[O-])ccc5F)c5nc(c(-c6cc(S(=O)(=O)[O-])ccc6F)c6ccc3[nH]6)C=C5)C=C4)cc1)N2C(=O)c1ccccc1
REMARK SMILES IDX 18 1 17 2 16 3 15 4 14 5 12 6 13 7 11 9 3 10 4 11 8 12 5 14
REMARK SMILES IDX 7 15 6 16 9 17 87 18 10 19 2 20 1 21 88 22 89 23 90 24 91 25
REMARK SMILES IDX 95 26 92 27 94 28 93 29 19 30 20 31 21 32 22 33 23 35 24 36
REMARK SMILES IDX 25 37 86 38 26 39 85 40 27 41 28 42 29 43 79 44 30 45 84 46
REMARK SMILES IDX 78 47 80 48 31 49 83 50 77 51 76 52 32 54 64 55 44 56 63 57
REMARK SMILES IDX 45 58 48 59 62 60 81 61 46 62 47 63 61 65 82 66 49 67 33 68
REMARK SMILES IDX 34 69 42 70 35 71 41 72 43 73 40 74 36 75 37 76 38 77 39 78
REMARK SMILES IDX 65 79 66 80 74 81 67 82 73 83 75 84 72 85 68 86 69 87 70 88
REMARK SMILES IDX 71 89 50 90 51 91 59 92 52 93 58 94 60 95 57 96 53 97 54 98
REMARK SMILES IDX 55 99 56 100
REMARK H PARENT 14 8 3 13 21 34 80 53 48 64
REMARK Flexibility Score: inf
ROOT
ATOM      1  C   UNL A   1      30.654  30.904  25.185  1.00  0.00     0.002 C 
ENDROOT
BRANCH   1   2
ATOM      2  C   UNL A   1      29.779  30.861  23.927  1.00  0.00     0.002 C 
BRANCH   2   3
ATOM      3  C   UNL A   1      29.792  29.523  23.175  1.00  0.00     0.021 C 
BRANCH   3   4
ATOM      4  C   UNL A   1      30.819  28.531  23.716  1.00  0.00     0.116 C 
BRANCH   4   5
ATOM      5  N   UNL A   1      31.348  27.709  22.651  1.00  0.00    -0.354 N 
ATOM      6  C   UNL A   1      31.408  26.352  22.554  1.00  0.00     0.245 C 
ATOM      7  O   UNL A   1      31.948  25.899  21.539  1.00  0.00    -0.273 OA
ATOM      8  H   UNL A   1      31.721  28.202  21.884  1.00  0.00     0.163 HD
BRANCH   6   9
ATOM      9  C   UNL A   1      30.849  25.449  23.683  1.00  0.00     0.203 C 
ATOM     10  N   UNL A   1      35.233  23.645  25.537  1.00  0.00    -0.335 N 
ATOM     11  C   UNL A   1      35.023  24.580  24.455  1.00  0.00     0.267 C 
ATOM     12  C   UNL A   1      34.132  22.871  26.084  1.00  0.00     0.267 C 
ATOM     13  H   UNL A   1      35.235  24.437  26.180  1.00  0.00     0.348 HD
ATOM     14  C   UNL A   1      33.874  24.226  23.547  1.00  0.00     0.120 C 
ATOM     15  C   UNL A   1      32.821  22.807  25.304  1.00  0.00     0.120 C 
ATOM     16  C   UNL A   1      32.581  23.932  24.303  1.00  0.00     0.155 C 
ATOM     17  O   UNL A   1      31.723  23.307  23.287  1.00  0.00    -0.352 OA
ATOM     18  N   UNL A   1      31.810  25.114  24.733  1.00  0.00    -0.295 N 
ATOM     19  C   UNL A   1      30.529  24.083  23.128  1.00  0.00     0.198 C 
BRANCH  10  20
ATOM     20  C   UNL A   1      36.548  23.055  25.733  1.00  0.00     0.258 C 
ATOM     21  C   UNL A   1      36.910  21.922  24.779  1.00  0.00     0.071 C 
ENDBRANCH  10  20
BRANCH  18  22
ATOM     22  C   UNL A   1      31.661  25.747  25.962  1.00  0.00     0.256 C 
ATOM     23  O   UNL A   1      30.880  25.337  26.823  1.00  0.00    -0.269 OA
BRANCH  22  24
ATOM     24  C   UNL A   1      32.443  26.916  26.380  1.00  0.00     0.040 A 
ATOM     25  C   UNL A   1      31.863  27.832  27.266  1.00  0.00     0.014 A 
ATOM     26  C   UNL A   1      33.651  27.228  25.753  1.00  0.00     0.014 A 
ATOM     27  C   UNL A   1      32.560  28.989  27.627  1.00  0.00     0.001 A 
ATOM     28  C   UNL A   1      34.360  28.370  26.137  1.00  0.00     0.001 A 
ATOM     29  C   UNL A   1      33.821  29.239  27.085  1.00  0.00     0.000 A 
ENDBRANCH  22  24
ENDBRANCH  18  22
ENDBRANCH   6   9
ENDBRANCH   4   5
ENDBRANCH   3   4
ENDBRANCH   2   3
ENDBRANCH   1   2
BRANCH   1  30
ATOM     30  C   UNL A   1      30.770  32.283  25.840  1.00  0.00     0.021 C 
BRANCH  30  31
ATOM     31  C   UNL A   1      31.928  32.413  26.825  1.00  0.00     0.116 C 
BRANCH  31  32
ATOM     32  N   UNL A   1      32.183  33.802  27.176  1.00  0.00    -0.352 N 
ATOM     33  C   UNL A   1      33.135  34.327  28.012  1.00  0.00     0.251 C 
ATOM     34  H   UNL A   1      31.584  34.459  26.753  1.00  0.00     0.163 HD
ATOM     35  O   UNL A   1      33.050  35.500  28.375  1.00  0.00    -0.269 OA
BRANCH  33  36
ATOM     36  C   UNL A   1      34.244  33.476  28.492  1.00  0.00     0.039 A 
ATOM     37  C   UNL A   1      35.559  33.886  28.265  1.00  0.00     0.014 A 
ATOM     38  C   UNL A   1      33.985  32.286  29.179  1.00  0.00     0.014 A 
ATOM     39  C   UNL A   1      36.614  33.142  28.798  1.00  0.00     0.010 A 
ATOM     40  C   UNL A   1      35.034  31.584  29.767  1.00  0.00     0.010 A 
ATOM     41  C   UNL A   1      36.359  32.014  29.596  1.00  0.00    -0.014 A 
BRANCH  41  42
ATOM     42  C   UNL A   1      37.462  31.307  30.299  1.00  0.00     0.031 A 
ATOM     43  C   UNL A   1      37.806  31.651  31.722  1.00  0.00     0.074 A 
ATOM     44  C   UNL A   1      38.197  30.401  29.623  1.00  0.00     0.049 A 
ATOM     45  N   UNL A   1      38.777  31.193  32.470  1.00  0.00    -0.248 NA
ATOM     46  C   UNL A   1      36.962  32.656  32.383  1.00  0.00     0.031 C 
ATOM     47  C   UNL A   1      37.981  30.013  28.226  1.00  0.00     0.029 A 
ATOM     48  N   UNL A   1      39.279  29.648  30.008  1.00  0.00    -0.354 N 
ATOM     49  C   UNL A   1      38.669  31.859  33.685  1.00  0.00     0.074 A 
ATOM     50  C   UNL A   1      37.565  32.788  33.556  1.00  0.00     0.031 C 
ATOM     51  C   UNL A   1      38.885  29.085  27.881  1.00  0.00     0.029 A 
ATOM     52  C   UNL A   1      39.783  28.849  29.007  1.00  0.00     0.049 A 
ATOM     53  H   UNL A   1      39.659  29.678  30.916  1.00  0.00     0.167 HD
ATOM     54  C   UNL A   1      39.411  31.697  34.808  1.00  0.00     0.034 A 
ATOM     55  C   UNL A   1      40.860  28.039  28.986  1.00  0.00     0.034 A 
ATOM     56  C   UNL A   1      40.506  30.762  34.918  1.00  0.00     0.049 A 
ATOM     57  C   UNL A   1      41.697  27.913  30.235  1.00  0.00     0.074 A 
ATOM     58  C   UNL A   1      41.278  30.470  36.029  1.00  0.00     0.029 A 
ATOM     59  N   UNL A   1      40.999  29.982  33.879  1.00  0.00    -0.354 N 
ATOM     60  N   UNL A   1      41.537  28.499  31.399  1.00  0.00    -0.248 NA
ATOM     61  C   UNL A   1      42.855  27.012  30.169  1.00  0.00     0.031 C 
ATOM     62  C   UNL A   1      42.288  29.584  35.642  1.00  0.00     0.029 A 
ATOM     63  C   UNL A   1      42.094  29.249  34.312  1.00  0.00     0.049 A 
ATOM     64  H   UNL A   1      40.626  29.954  32.969  1.00  0.00     0.167 HD
ATOM     65  C   UNL A   1      42.560  28.018  32.209  1.00  0.00     0.074 A 
ATOM     66  C   UNL A   1      43.315  27.076  31.409  1.00  0.00     0.031 C 
ATOM     67  C   UNL A   1      42.852  28.326  33.499  1.00  0.00     0.034 A 
BRANCH  54  68
ATOM     68  C   UNL A   1      39.087  32.569  35.998  1.00  0.00     0.023 A 
ATOM     69  C   UNL A   1      39.558  33.889  36.102  1.00  0.00     0.031 A 
ATOM     70  C   UNL A   1      38.284  32.074  37.041  1.00  0.00     0.131 A 
ATOM     71  C   UNL A   1      39.274  34.647  37.249  1.00  0.00     0.055 A 
ATOM     72  C   UNL A   1      37.940  32.859  38.143  1.00  0.00     0.041 A 
ATOM     73  F   UNL A   1      37.824  30.814  37.009  1.00  0.00    -0.206 F 
ATOM     74  C   UNL A   1      38.445  34.150  38.257  1.00  0.00     0.022 A 
BRANCH  71  75
ATOM     75  S   UNL A   1      40.106  36.244  37.462  1.00  0.00     0.124 S 
ATOM     76  O   UNL A   1      41.435  35.828  37.906  1.00  0.00    -0.237 OA
ATOM     77  O   UNL A   1      40.031  36.821  36.126  1.00  0.00    -0.237 OA
ATOM     78  O   UNL A   1      39.300  36.917  38.480  1.00  0.00    -0.744 OA
ENDBRANCH  71  75
ENDBRANCH  54  68
BRANCH  55  79
ATOM     79  C   UNL A   1      41.239  27.312  27.738  1.00  0.00     0.023 A 
ATOM     80  C   UNL A   1      41.102  25.918  27.639  1.00  0.00     0.031 A 
ATOM     81  C   UNL A   1      41.798  27.996  26.642  1.00  0.00     0.131 A 
ATOM     82  C   UNL A   1      41.569  25.248  26.497  1.00  0.00     0.055 A 
ATOM     83  C   UNL A   1      42.201  27.333  25.483  1.00  0.00     0.041 A 
ATOM     84  F   UNL A   1      41.954  29.330  26.682  1.00  0.00    -0.206 F 
ATOM     85  C   UNL A   1      42.101  25.948  25.412  1.00  0.00     0.022 A 
BRANCH  82  86
ATOM     86  S   UNL A   1      41.570  23.434  26.496  1.00  0.00     0.124 S 
ATOM     87  O   UNL A   1      40.152  23.137  26.329  1.00  0.00    -0.237 OA
ATOM     88  O   UNL A   1      42.429  23.133  25.356  1.00  0.00    -0.237 OA
ATOM     89  O   UNL A   1      42.129  23.095  27.803  1.00  0.00    -0.744 OA
ENDBRANCH  82  86
ENDBRANCH  55  79
BRANCH  67  90
ATOM     90  C   UNL A   1      44.023  27.611  34.128  1.00  0.00     0.023 A 
ATOM     91  C   UNL A   1      43.892  26.327  34.685  1.00  0.00     0.031 A 
ATOM     92  C   UNL A   1      45.287  28.226  34.179  1.00  0.00     0.131 A 
ATOM     93  C   UNL A   1      44.988  25.724  35.319  1.00  0.00     0.055 A 
ATOM     94  C   UNL A   1      46.392  27.592  34.750  1.00  0.00     0.041 A 
ATOM     95  F   UNL A   1      45.471  29.453  33.667  1.00  0.00    -0.206 F 
ATOM     96  C   UNL A   1      46.243  26.339  35.337  1.00  0.00     0.022 A 
BRANCH  93  97
ATOM     97  S   UNL A   1      44.730  24.163  36.208  1.00  0.00     0.124 S 
ATOM     98  O   UNL A   1      46.005  23.483  36.002  1.00  0.00    -0.237 OA
ATOM     99  O   UNL A   1      44.462  24.617  37.567  1.00  0.00    -0.237 OA
ATOM    100  O   UNL A   1      43.588  23.562  35.519  1.00  0.00    -0.744 OA
ENDBRANCH  93  97
ENDBRANCH  67  90
ENDBRANCH  41  42
ENDBRANCH  33  36
ENDBRANCH  31  32
ENDBRANCH  30  31
ENDBRANCH   1  30
TORSDOF 19
ENDMDL
MODEL 2
REMARK VINA RESULT:     -11.6      1.404      7.403
REMARK SMILES CC[NH+]1CCC2(CC1)OC[C@H](C(=O)NCCCCCCNC(=O)c1ccc(-c3c4nc(c(-c5cc(S(=O)(=O)[O-])ccc5F)c5ccc([nH]5)c(-c5cc(S(=O)(=O)[O-])ccc5F)c5nc(c(-c6cc(S(=O)(=O)[O-])ccc6F)c6ccc3[nH]6)C=C5)C=C4)cc1)N2C(=O)c1ccccc1
REMARK SMILES IDX 18 1 17 2 16 3 15 4 14 5 12 6 13 7 11 9 3 10 4 11 8 12 5 14
REMARK SMILES IDX 7 15 6 16 9 17 87 18 10 19 2 20 1 21 88 22 89 23 90 24 91 25
REMARK SMILES IDX 95 26 92 27 94 28 93 29 19 30 20 31 21 32 22 33 23 35 24 36
REMARK SMILES IDX 25 37 86 38 26 39 85 40 27 41 28 42 29 43 79 44 30 45 84 46
REMARK SMILES IDX 78 47 80 48 31 49 83 50 77 51 76 52 32 54 64 55 44 56 63 57
REMARK SMILES IDX 45 58 48 59 62 60 81 61 46 62 47 63 61 65 82 66 49 67 33 68
REMARK SMILES IDX 34 69 42 70 35 71 41 72 43 73 40 74 36 75 37 76 38 77 39 78
REMARK SMILES IDX 65 79 66 80 74 81 67 82 73 83 75 84 72 85 68 86 69 87 70 88
REMARK SMILES IDX 71 89 50 90 51 91 59 92 52 93 58 94 60 95 57 96 53 97 54 98
REMARK SMILES IDX 55 99 56 100
REMARK H PARENT 14 8 3 13 21 34 80 53 48 64
REMARK Flexibility Score: inf
ROOT
ATOM      1  C   UNL A   1      31.008  30.860  25.342  1.00  0.00     0.002 C 
ENDROOT
BRANCH   1   2
ATOM      2  C   UNL A   1      29.937  30.752  24.250  1.00  0.00     0.002 C 
BRANCH   2   3
ATOM      3  C   UNL A   1      30.143  29.604  23.253  1.00  0.00     0.021 C 
BRANCH   3   4
ATOM      4  C   UNL A   1      30.994  28.463  23.806  1.00  0.00     0.116 C 
BRANCH   4   5
ATOM      5  N   UNL A   1      31.475  27.617  22.736  1.00  0.00    -0.354 N 
ATOM      6  C   UNL A   1      31.431  26.261  22.619  1.00  0.00     0.245 C 
ATOM      7  O   UNL A   1      31.951  25.782  21.605  1.00  0.00    -0.273 OA
ATOM      8  H   UNL A   1      31.897  28.090  21.983  1.00  0.00     0.163 HD
BRANCH   6   9
ATOM      9  C   UNL A   1      30.785  25.388  23.724  1.00  0.00     0.203 C 
ATOM     10  N   UNL A   1      34.946  22.986  25.406  1.00  0.00    -0.335 N 
ATOM     11  C   UNL A   1      34.834  23.982  24.366  1.00  0.00     0.267 C 
ATOM     12  C   UNL A   1      33.768  22.331  25.949  1.00  0.00     0.267 C 
ATOM     13  H   UNL A   1      35.057  23.744  26.079  1.00  0.00     0.348 HD
ATOM     14  C   UNL A   1      33.634  23.809  23.472  1.00  0.00     0.120 C 
ATOM     15  C   UNL A   1      32.445  22.460  25.197  1.00  0.00     0.120 C 
ATOM     16  C   UNL A   1      32.328  23.646  24.246  1.00  0.00     0.155 C 
ATOM     17  O   UNL A   1      31.381  23.173  23.226  1.00  0.00    -0.352 OA
ATOM     18  N   UNL A   1      31.716  24.895  24.739  1.00  0.00    -0.295 N 
ATOM     19  C   UNL A   1      30.290  24.095  23.126  1.00  0.00     0.198 C 
BRANCH  10  20
ATOM     20  C   UNL A   1      36.181  22.230  25.549  1.00  0.00     0.258 C 
ATOM     21  C   UNL A   1      36.151  20.808  24.999  1.00  0.00     0.071 C 
ENDBRANCH  10  20
BRANCH  18  22
ATOM     22  C   UNL A   1      31.669  25.490  25.995  1.00  0.00     0.256 C 
ATOM     23  O   UNL A   1      31.080  24.974  26.946  1.00  0.00    -0.269 OA
BRANCH  22  24
ATOM     24  C   UNL A   1      32.350  26.745  26.330  1.00  0.00     0.040 A 
ATOM     25  C   UNL A   1      33.642  26.963  25.837  1.00  0.00     0.014 A 
ATOM     26  C   UNL A   1      31.819  27.613  27.287  1.00  0.00     0.014 A 
ATOM     27  C   UNL A   1      34.340  28.119  26.198  1.00  0.00     0.001 A 
ATOM     28  C   UNL A   1      32.504  28.784  27.624  1.00  0.00     0.001 A 
ATOM     29  C   UNL A   1      33.756  29.043  27.065  1.00  0.00     0.000 A 
ENDBRANCH  22  24
ENDBRANCH  18  22
ENDBRANCH   6   9
ENDBRANCH   4   5
ENDBRANCH   3   4
ENDBRANCH   2   3
ENDBRANCH   1   2
BRANCH   1  30
ATOM     30  C   UNL A   1      31.007  32.181  26.114  1.00  0.00     0.021 C 
BRANCH  30  31
ATOM     31  C   UNL A   1      32.288  32.449  26.900  1.00  0.00     0.116 C 
BRANCH  31  32
ATOM     32  N   UNL A   1      32.326  33.807  27.420  1.00  0.00    -0.352 N 
ATOM     33  C   UNL A   1      33.145  34.349  28.378  1.00  0.00     0.251 C 
ATOM     34  H   UNL A   1      31.668  34.426  27.028  1.00  0.00     0.163 HD
ATOM     35  O   UNL A   1      32.876  35.449  28.861  1.00  0.00    -0.269 OA
BRANCH  33  36
ATOM     36  C   UNL A   1      34.331  33.599  28.842  1.00  0.00     0.039 A 
ATOM     37  C   UNL A   1      35.602  34.101  28.560  1.00  0.00     0.014 A 
ATOM     38  C   UNL A   1      34.187  32.413  29.568  1.00  0.00     0.014 A 
ATOM     39  C   UNL A   1      36.728  33.456  29.076  1.00  0.00     0.010 A 
ATOM     40  C   UNL A   1      35.305  31.811  30.139  1.00  0.00     0.010 A 
ATOM     41  C   UNL A   1      36.587  32.335  29.912  1.00  0.00    -0.014 A 
BRANCH  41  42
ATOM     42  C   UNL A   1      37.763  31.735  30.596  1.00  0.00     0.031 A 
ATOM     43  C   UNL A   1      38.594  30.687  29.909  1.00  0.00     0.074 A 
ATOM     44  C   UNL A   1      38.035  32.091  31.868  1.00  0.00     0.049 A 
ATOM     45  N   UNL A   1      39.607  30.002  30.374  1.00  0.00    -0.248 NA
ATOM     46  C   UNL A   1      38.224  30.349  28.527  1.00  0.00     0.031 C 
ATOM     47  C   UNL A   1      37.274  33.070  32.650  1.00  0.00     0.029 A 
ATOM     48  N   UNL A   1      39.013  31.669  32.733  1.00  0.00    -0.354 N 
ATOM     49  C   UNL A   1      39.993  29.147  29.349  1.00  0.00     0.074 A 
ATOM     50  C   UNL A   1      39.070  29.365  28.253  1.00  0.00     0.031 C 
ATOM     51  C   UNL A   1      37.825  33.187  33.867  1.00  0.00     0.029 A 
ATOM     52  C   UNL A   1      38.940  32.253  33.979  1.00  0.00     0.049 A 
ATOM     53  H   UNL A   1      39.702  31.010  32.487  1.00  0.00     0.167 HD
ATOM     54  C   UNL A   1      41.029  28.273  29.320  1.00  0.00     0.034 A 
ATOM     55  C   UNL A   1      39.670  32.043  35.092  1.00  0.00     0.034 A 
ATOM     56  C   UNL A   1      41.940  28.072  30.421  1.00  0.00     0.049 A 
ATOM     57  C   UNL A   1      40.787  31.030  35.047  1.00  0.00     0.074 A 
ATOM     58  C   UNL A   1      43.062  27.262  30.473  1.00  0.00     0.029 A 
ATOM     59  N   UNL A   1      41.826  28.666  31.673  1.00  0.00    -0.354 N 
ATOM     60  N   UNL A   1      41.181  30.280  34.044  1.00  0.00    -0.248 NA
ATOM     61  C   UNL A   1      41.562  30.842  36.280  1.00  0.00     0.031 C 
ATOM     62  C   UNL A   1      43.572  27.300  31.773  1.00  0.00     0.029 A 
ATOM     63  C   UNL A   1      42.826  28.203  32.514  1.00  0.00     0.049 A 
ATOM     64  H   UNL A   1      41.135  29.321  31.925  1.00  0.00     0.167 HD
ATOM     65  C   UNL A   1      42.264  29.548  34.522  1.00  0.00     0.074 A 
ATOM     66  C   UNL A   1      42.476  29.966  35.892  1.00  0.00     0.031 C 
ATOM     67  C   UNL A   1      43.017  28.613  33.886  1.00  0.00     0.034 A 
BRANCH  54  68
ATOM     68  C   UNL A   1      41.216  27.444  28.071  1.00  0.00     0.023 A 
ATOM     69  C   UNL A   1      40.877  26.081  28.025  1.00  0.00     0.031 A 
ATOM     70  C   UNL A   1      41.732  28.032  26.902  1.00  0.00     0.131 A 
ATOM     71  C   UNL A   1      41.115  25.338  26.859  1.00  0.00     0.055 A 
ATOM     72  C   UNL A   1      41.893  27.306  25.720  1.00  0.00     0.041 A 
ATOM     73  F   UNL A   1      42.094  29.324  26.890  1.00  0.00    -0.206 F 
ATOM     74  C   UNL A   1      41.594  25.948  25.698  1.00  0.00     0.022 A 
BRANCH  71  75
ATOM     75  S   UNL A   1      40.907  23.537  26.919  1.00  0.00     0.124 S 
ATOM     76  O   UNL A   1      39.506  23.389  26.530  1.00  0.00    -0.237 OA
ATOM     77  O   UNL A   1      41.892  23.072  25.950  1.00  0.00    -0.237 OA
ATOM     78  O   UNL A   1      41.197  23.205  28.313  1.00  0.00    -0.744 OA
ENDBRANCH  71  75
ENDBRANCH  54  68
BRANCH  55  79
ATOM     79  C   UNL A   1      39.352  32.770  36.356  1.00  0.00     0.023 A 
ATOM     80  C   UNL A   1      38.614  32.157  37.381  1.00  0.00     0.031 A 
ATOM     81  C   UNL A   1      39.735  34.113  36.536  1.00  0.00     0.131 A 
ATOM     82  C   UNL A   1      38.235  32.900  38.511  1.00  0.00     0.055 A 
ATOM     83  C   UNL A   1      39.411  34.827  37.690  1.00  0.00     0.041 A 
ATOM     84  F   UNL A   1      40.441  34.750  35.588  1.00  0.00    -0.206 F 
ATOM     85  C   UNL A   1      38.643  34.224  38.680  1.00  0.00     0.022 A 
BRANCH  82  86
ATOM     86  S   UNL A   1      37.105  32.138  39.709  1.00  0.00     0.124 S 
ATOM     87  O   UNL A   1      36.640  33.300  40.457  1.00  0.00    -0.237 OA
ATOM     88  O   UNL A   1      36.124  31.501  38.837  1.00  0.00    -0.237 OA
ATOM     89  O   UNL A   1      37.966  31.221  40.453  1.00  0.00    -0.744 OA
ENDBRANCH  82  86
ENDBRANCH  55  79
BRANCH  67  90
ATOM     90  C   UNL A   1      44.158  28.005  34.664  1.00  0.00     0.023 A 
ATOM     91  C   UNL A   1      44.024  26.776  35.333  1.00  0.00     0.031 A 
ATOM     92  C   UNL A   1      45.395  28.669  34.746  1.00  0.00     0.131 A 
ATOM     93  C   UNL A   1      45.088  26.278  36.100  1.00  0.00     0.055 A 
ATOM     94  C   UNL A   1      46.473  28.134  35.453  1.00  0.00     0.041 A 
ATOM     95  F   UNL A   1      45.580  29.848  34.131  1.00  0.00    -0.206 F 
ATOM     96  C   UNL A   1      46.318  26.938  36.148  1.00  0.00     0.022 A 
BRANCH  93  97
ATOM     97  S   UNL A   1      44.812  24.799  37.116  1.00  0.00     0.124 S 
ATOM     98  O   UNL A   1      43.861  24.047  36.304  1.00  0.00    -0.237 OA
ATOM     99  O   UNL A   1      46.152  24.234  37.217  1.00  0.00    -0.237 OA
ATOM    100  O   UNL A   1      44.272  25.338  38.364  1.00  0.00    -0.744 OA
ENDBRANCH  93  97
ENDBRANCH  67  90
ENDBRANCH  41  42
ENDBRANCH  33  36
ENDBRANCH  31  32
ENDBRANCH  30  31
ENDBRANCH   1  30
TORSDOF 19
ENDMDL
MODEL 3
REMARK VINA RESULT:     -11.3      1.972      3.555
REMARK SMILES CC[NH+]1CCC2(CC1)OC[C@H](C(=O)NCCCCCCNC(=O)c1ccc(-c3c4nc(c(-c5cc(S(=O)(=O)[O-])ccc5F)c5ccc([nH]5)c(-c5cc(S(=O)(=O)[O-])ccc5F)c5nc(c(-c6cc(S(=O)(=O)[O-])ccc6F)c6ccc3[nH]6)C=C5)C=C4)cc1)N2C(=O)c1ccccc1
REMARK SMILES IDX 18 1 17 2 16 3 15 4 14 5 12 6 13 7 11 9 3 10 4 11 8 12 5 14
REMARK SMILES IDX 7 15 6 16 9 17 87 18 10 19 2 20 1 21 88 22 89 23 90 24 91 25
REMARK SMILES IDX 95 26 92 27 94 28 93 29 19 30 20 31 21 32 22 33 23 35 24 36
REMARK SMILES IDX 25 37 86 38 26 39 85 40 27 41 28 42 29 43 79 44 30 45 84 46
REMARK SMILES IDX 78 47 80 48 31 49 83 50 77 51 76 52 32 54 64 55 44 56 63 57
REMARK SMILES IDX 45 58 48 59 62 60 81 61 46 62 47 63 61 65 82 66 49 67 33 68
REMARK SMILES IDX 34 69 42 70 35 71 41 72 43 73 40 74 36 75 37 76 38 77 39 78
REMARK SMILES IDX 65 79 66 80 74 81 67 82 73 83 75 84 72 85 68 86 69 87 70 88
REMARK SMILES IDX 71 89 50 90 51 91 59 92 52 93 58 94 60 95 57 96 53 97 54 98
REMARK SMILES IDX 55 99 56 100
REMARK H PARENT 14 8 3 13 21 34 80 53 48 64
REMARK Flexibility Score: inf
ROOT
ATOM      1  C   UNL A   1      33.286  28.777  23.266  1.00  0.00     0.002 C 
ENDROOT
BRANCH   1   2
ATOM      2  C   UNL A   1      33.288  27.289  22.897  1.00  0.00     0.002 C 
BRANCH   2   3
ATOM      3  C   UNL A   1      31.973  26.768  22.303  1.00  0.00     0.021 C 
BRANCH   3   4
ATOM      4  C   UNL A   1      31.623  25.351  22.751  1.00  0.00     0.116 C 
BRANCH   4   5
ATOM      5  N   UNL A   1      31.874  25.184  24.165  1.00  0.00    -0.354 N 
ATOM      6  C   UNL A   1      32.471  24.150  24.822  1.00  0.00     0.245 C 
ATOM      7  O   UNL A   1      32.530  24.244  26.052  1.00  0.00    -0.273 OA
ATOM      8  H   UNL A   1      31.569  25.924  24.738  1.00  0.00     0.163 HD
BRANCH   6   9
ATOM      9  C   UNL A   1      33.010  22.922  24.046  1.00  0.00     0.203 C 
ATOM     10  N   UNL A   1      37.703  22.710  26.006  1.00  0.00    -0.335 N 
ATOM     11  C   UNL A   1      36.634  23.633  26.312  1.00  0.00     0.267 C 
ATOM     12  C   UNL A   1      37.635  21.841  24.843  1.00  0.00     0.267 C 
ATOM     13  H   UNL A   1      37.328  22.085  26.720  1.00  0.00     0.348 HD
ATOM     14  C   UNL A   1      35.863  24.106  25.108  1.00  0.00     0.120 C 
ATOM     15  C   UNL A   1      36.587  22.133  23.770  1.00  0.00     0.120 C 
ATOM     16  C   UNL A   1      35.388  22.964  24.213  1.00  0.00     0.155 C 
ATOM     17  O   UNL A   1      34.972  23.645  22.979  1.00  0.00    -0.352 OA
ATOM     18  N   UNL A   1      34.166  22.268  24.658  1.00  0.00    -0.295 N 
ATOM     19  C   UNL A   1      33.589  23.370  22.727  1.00  0.00     0.198 C 
BRANCH  10  20
ATOM     20  C   UNL A   1      39.051  22.986  26.479  1.00  0.00     0.258 C 
ATOM     21  C   UNL A   1      39.175  24.125  27.486  1.00  0.00     0.071 C 
ENDBRANCH  10  20
BRANCH  18  22
ATOM     22  C   UNL A   1      33.952  21.046  25.285  1.00  0.00     0.256 C 
ATOM     23  O   UNL A   1      33.781  20.951  26.502  1.00  0.00    -0.269 OA
BRANCH  22  24
ATOM     24  C   UNL A   1      33.855  19.767  24.572  1.00  0.00     0.040 A 
ATOM     25  C   UNL A   1      32.660  19.453  23.914  1.00  0.00     0.014 A 
ATOM     26  C   UNL A   1      34.843  18.791  24.716  1.00  0.00     0.014 A 
ATOM     27  C   UNL A   1      32.516  18.213  23.285  1.00  0.00     0.001 A 
ATOM     28  C   UNL A   1      34.711  17.563  24.062  1.00  0.00     0.001 A 
ATOM     29  C   UNL A   1      33.555  17.283  23.333  1.00  0.00     0.000 A 
ENDBRANCH  22  24
ENDBRANCH  18  22
ENDBRANCH   6   9
ENDBRANCH   4   5
ENDBRANCH   3   4
ENDBRANCH   2   3
ENDBRANCH   1   2
BRANCH   1  30
ATOM     30  C   UNL A   1      32.380  29.146  24.443  1.00  0.00     0.021 C 
BRANCH  30  31
ATOM     31  C   UNL A   1      33.128  29.437  25.742  1.00  0.00     0.116 C 
BRANCH  31  32
ATOM     32  N   UNL A   1      32.820  30.763  26.254  1.00  0.00    -0.352 N 
ATOM     33  C   UNL A   1      33.451  31.485  27.235  1.00  0.00     0.251 C 
ATOM     34  H   UNL A   1      32.045  31.206  25.837  1.00  0.00     0.163 HD
ATOM     35  O   UNL A   1      32.909  32.487  27.701  1.00  0.00    -0.269 OA
BRANCH  33  36
ATOM     36  C   UNL A   1      34.767  31.043  27.743  1.00  0.00     0.039 A 
ATOM     37  C   UNL A   1      35.765  31.995  27.955  1.00  0.00     0.014 A 
ATOM     38  C   UNL A   1      35.007  29.695  28.025  1.00  0.00     0.014 A 
ATOM     39  C   UNL A   1      36.979  31.606  28.525  1.00  0.00     0.010 A 
ATOM     40  C   UNL A   1      36.190  29.320  28.657  1.00  0.00     0.010 A 
ATOM     41  C   UNL A   1      37.182  30.275  28.929  1.00  0.00    -0.014 A 
BRANCH  41  42
ATOM     42  C   UNL A   1      38.403  29.879  29.681  1.00  0.00     0.031 A 
ATOM     43  C   UNL A   1      38.671  30.437  31.051  1.00  0.00     0.074 A 
ATOM     44  C   UNL A   1      39.303  29.067  29.090  1.00  0.00     0.049 A 
ATOM     45  N   UNL A   1      39.713  30.263  31.823  1.00  0.00    -0.248 NA
ATOM     46  C   UNL A   1      37.644  31.323  31.618  1.00  0.00     0.031 C 
ATOM     47  C   UNL A   1      39.168  28.495  27.747  1.00  0.00     0.029 A 
ATOM     48  N   UNL A   1      40.511  28.588  29.531  1.00  0.00    -0.354 N 
ATOM     49  C   UNL A   1      39.474  31.023  32.962  1.00  0.00     0.074 A 
ATOM     50  C   UNL A   1      38.209  31.697  32.757  1.00  0.00     0.031 C 
ATOM     51  C   UNL A   1      40.238  27.730  27.484  1.00  0.00     0.029 A 
ATOM     52  C   UNL A   1      41.164  27.799  28.610  1.00  0.00     0.049 A 
ATOM     53  H   UNL A   1      40.878  28.790  30.422  1.00  0.00     0.167 HD
ATOM     54  C   UNL A   1      40.233  31.133  34.080  1.00  0.00     0.034 A 
ATOM     55  C   UNL A   1      42.380  27.219  28.653  1.00  0.00     0.034 A 
ATOM     56  C   UNL A   1      41.490  30.449  34.267  1.00  0.00     0.049 A 
ATOM     57  C   UNL A   1      43.224  27.396  29.891  1.00  0.00     0.074 A 
ATOM     58  C   UNL A   1      42.305  30.437  35.387  1.00  0.00     0.029 A 
ATOM     59  N   UNL A   1      42.129  29.672  33.307  1.00  0.00    -0.354 N 
ATOM     60  N   UNL A   1      42.951  28.063  30.988  1.00  0.00    -0.248 NA
ATOM     61  C   UNL A   1      44.537  26.738  29.898  1.00  0.00     0.031 C 
ATOM     62  C   UNL A   1      43.470  29.730  35.075  1.00  0.00     0.029 A 
ATOM     63  C   UNL A   1      43.347  29.221  33.792  1.00  0.00     0.049 A 
ATOM     64  H   UNL A   1      41.769  29.473  32.413  1.00  0.00     0.167 HD
ATOM     65  C   UNL A   1      44.049  27.883  31.824  1.00  0.00     0.074 A 
ATOM     66  C   UNL A   1      44.975  27.027  31.114  1.00  0.00     0.031 C 
ATOM     67  C   UNL A   1      44.273  28.382  33.067  1.00  0.00     0.034 A 
BRANCH  54  68
ATOM     68  C   UNL A   1      39.743  32.049  35.176  1.00  0.00     0.023 A 
ATOM     69  C   UNL A   1      40.185  33.378  35.288  1.00  0.00     0.031 A 
ATOM     70  C   UNL A   1      38.807  31.586  36.120  1.00  0.00     0.131 A 
ATOM     71  C   UNL A   1      39.740  34.178  36.352  1.00  0.00     0.055 A 
ATOM     72  C   UNL A   1      38.309  32.412  37.130  1.00  0.00     0.041 A 
ATOM     73  F   UNL A   1      38.365  30.320  36.078  1.00  0.00    -0.206 F 
ATOM     74  C   UNL A   1      38.785  33.713  37.257  1.00  0.00     0.022 A 
BRANCH  71  75
ATOM     75  S   UNL A   1      40.524  35.794  36.609  1.00  0.00     0.124 S 
ATOM     76  O   UNL A   1      41.865  35.559  36.078  1.00  0.00    -0.237 OA
ATOM     77  O   UNL A   1      39.674  36.685  35.829  1.00  0.00    -0.237 OA
ATOM     78  O   UNL A   1      40.459  35.978  38.059  1.00  0.00    -0.744 OA
ENDBRANCH  71  75
ENDBRANCH  54  68
BRANCH  55  79
ATOM     79  C   UNL A   1      42.896  26.449  27.483  1.00  0.00     0.023 A 
ATOM     80  C   UNL A   1      42.727  25.058  27.396  1.00  0.00     0.031 A 
ATOM     81  C   UNL A   1      43.617  27.088  26.457  1.00  0.00     0.131 A 
ATOM     82  C   UNL A   1      43.318  24.345  26.341  1.00  0.00     0.055 A 
ATOM     83  C   UNL A   1      44.147  26.383  25.376  1.00  0.00     0.041 A 
ATOM     84  F   UNL A   1      43.811  28.416  26.488  1.00  0.00    -0.206 F 
ATOM     85  C   UNL A   1      44.012  25.000  25.322  1.00  0.00     0.022 A 
BRANCH  82  86
ATOM     86  S   UNL A   1      43.258  22.532  26.379  1.00  0.00     0.124 S 
ATOM     87  O   UNL A   1      42.330  22.243  25.293  1.00  0.00    -0.237 OA
ATOM     88  O   UNL A   1      44.654  22.179  26.143  1.00  0.00    -0.237 OA
ATOM     89  O   UNL A   1      42.760  22.237  27.721  1.00  0.00    -0.744 OA
ENDBRANCH  82  86
ENDBRANCH  55  79
BRANCH  67  90
ATOM     90  C   UNL A   1      45.561  27.983  33.745  1.00  0.00     0.023 A 
ATOM     91  C   UNL A   1      45.654  26.822  34.532  1.00  0.00     0.031 A 
ATOM     92  C   UNL A   1      46.712  28.780  33.608  1.00  0.00     0.131 A 
ATOM     93  C   UNL A   1      46.851  26.522  35.198  1.00  0.00     0.055 A 
ATOM     94  C   UNL A   1      47.920  28.440  34.218  1.00  0.00     0.041 A 
ATOM     95  F   UNL A   1      46.682  29.903  32.873  1.00  0.00    -0.206 F 
ATOM     96  C   UNL A   1      47.991  27.312  35.030  1.00  0.00     0.022 A 
BRANCH  93  97
ATOM     97  S   UNL A   1      46.873  25.135  36.368  1.00  0.00     0.124 S 
ATOM     98  O   UNL A   1      46.242  25.722  37.546  1.00  0.00    -0.237 OA
ATOM     99  O   UNL A   1      46.095  24.121  35.666  1.00  0.00    -0.237 OA
ATOM    100  O   UNL A   1      48.296  24.832  36.514  1.00  0.00    -0.744 OA
ENDBRANCH  93  97
ENDBRANCH  67  90
ENDBRANCH  41  42
ENDBRANCH  33  36
ENDBRANCH  31  32
ENDBRANCH  30  31
ENDBRANCH   1  30
TORSDOF 19
ENDMDL
