MODEL 1
REMARK VINA RESULT:     -10.7      0.000      0.000
REMARK SMILES COc1ccccc1[C@@H]1CN(C(=O)Cc2csc(C)n2)C[C@H]1C(=O)NCCCCCCNC(=O)c1ccc(-c2c3nc(c(-c4cc(S(=O)(=O)[O-])ccc4F)c4ccc([nH]4)c(-c4cc(S(=O)(=O)[O-])ccc4F)c4nc(c(-c5cc(S(=O)(=O)[O-])ccc5F)c5ccc2[nH]5)C=C4)C=C3)cc1
REMARK SMILES IDX 28 1 27 2 26 3 25 4 23 5 24 6 22 8 9 9 10 10 11 11 21 12
REMARK SMILES IDX 8 13 3 14 4 15 5 16 7 17 6 18 2 19 1 20 12 21 13 22 14 23
REMARK SMILES IDX 15 24 16 25 20 26 17 27 18 28 19 29 29 30 30 31 31 32 32 33
REMARK SMILES IDX 33 34 34 36 35 37 36 38 97 39 37 40 96 41 38 42 39 43 40 44
REMARK SMILES IDX 90 45 41 46 95 47 89 48 91 49 42 50 94 51 88 52 87 53 43 55
REMARK SMILES IDX 75 56 55 57 74 58 56 59 59 60 73 61 92 62 57 63 58 64 72 66
REMARK SMILES IDX 93 67 60 68 44 69 45 70 53 71 46 72 52 73 54 74 51 75 47 76
REMARK SMILES IDX 48 77 49 78 50 79 76 80 77 81 85 82 78 83 84 84 86 85 83 86
REMARK SMILES IDX 79 87 80 88 81 89 82 90 61 91 62 92 70 93 63 94 69 95 71 96
REMARK SMILES IDX 68 97 64 98 65 99 66 100 67 101
REMARK H PARENT 25 7 32 35 91 54 59 65
REMARK Flexibility Score: inf
ROOT
ATOM      1  C   UNL A   1      39.262  23.020  26.232  1.00  0.00     0.002 C 
ENDROOT
BRANCH   1   2
ATOM      2  C   UNL A   1      37.998  23.880  26.334  1.00  0.00     0.021 C 
BRANCH   2   3
ATOM      3  C   UNL A   1      36.801  23.298  25.588  1.00  0.00     0.116 C 
BRANCH   3   4
ATOM      4  N   UNL A   1      35.982  22.504  26.483  1.00  0.00    -0.356 N 
ATOM      5  C   UNL A   1      34.637  22.402  26.600  1.00  0.00     0.225 C 
ATOM      6  O   UNL A   1      34.197  21.698  27.514  1.00  0.00    -0.275 OA
ATOM      7  H   UNL A   1      36.491  21.942  27.111  1.00  0.00     0.163 HD
BRANCH   5   8
ATOM      8  C   UNL A   1      33.683  23.101  25.652  1.00  0.00     0.107 C 
ATOM      9  C   UNL A   1      32.327  22.399  25.466  1.00  0.00     0.057 C 
ATOM     10  C   UNL A   1      31.320  23.535  25.344  1.00  0.00     0.128 C 
ATOM     11  N   UNL A   1      31.914  24.659  26.029  1.00  0.00    -0.341 N 
ATOM     12  C   UNL A   1      33.362  24.531  26.096  1.00  0.00     0.133 C 
BRANCH   9  13
ATOM     13  C   UNL A   1      32.222  21.364  24.366  1.00  0.00    -0.000 A 
ATOM     14  C   UNL A   1      32.301  19.973  24.550  1.00  0.00     0.122 A 
ATOM     15  C   UNL A   1      32.249  19.105  23.453  1.00  0.00     0.047 A 
ATOM     16  C   UNL A   1      32.141  19.605  22.157  1.00  0.00     0.004 A 
ATOM     17  C   UNL A   1      32.116  21.846  23.043  1.00  0.00     0.008 A 
ATOM     18  C   UNL A   1      32.092  20.979  21.951  1.00  0.00     0.001 A 
BRANCH  14  19
ATOM     19  O   UNL A   1      32.667  19.408  25.743  1.00  0.00    -0.496 OA
ATOM     20  C   UNL A   1      32.760  17.989  25.717  1.00  0.00     0.278 C 
ENDBRANCH  14  19
ENDBRANCH   9  13
BRANCH  11  21
ATOM     21  C   UNL A   1      31.270  25.811  26.444  1.00  0.00     0.228 C 
ATOM     22  O   UNL A   1      30.050  25.807  26.628  1.00  0.00    -0.274 OA
BRANCH  21  23
ATOM     23  C   UNL A   1      32.081  27.096  26.550  1.00  0.00     0.157 C 
BRANCH  23  24
ATOM     24  C   UNL A   1      32.279  27.824  25.255  1.00  0.00     0.061 A 
ATOM     25  C   UNL A   1      33.468  28.017  24.573  1.00  0.00     0.091 A 
ATOM     26  N   UNL A   1      31.161  28.260  24.556  1.00  0.00    -0.246 NA
ATOM     27  S   UNL A   1      33.200  28.835  23.097  1.00  0.00    -0.127 S 
ATOM     28  C   UNL A   1      31.513  28.765  23.393  1.00  0.00     0.090 A 
ATOM     29  C   UNL A   1      30.562  29.234  22.351  1.00  0.00     0.079 C 
ENDBRANCH  23  24
ENDBRANCH  21  23
ENDBRANCH  11  21
ENDBRANCH   5   8
ENDBRANCH   3   4
ENDBRANCH   2   3
ENDBRANCH   1   2
BRANCH   1  30
ATOM     30  C   UNL A   1      40.161  23.064  27.471  1.00  0.00     0.002 C 
BRANCH  30  31
ATOM     31  C   UNL A   1      40.975  21.790  27.713  1.00  0.00     0.021 C 
BRANCH  31  32
ATOM     32  C   UNL A   1      42.482  21.985  27.608  1.00  0.00     0.116 C 
BRANCH  32  33
ATOM     33  N   UNL A   1      42.927  21.962  26.226  1.00  0.00    -0.352 N 
ATOM     34  C   UNL A   1      43.271  23.014  25.415  1.00  0.00     0.251 C 
ATOM     35  H   UNL A   1      42.993  21.068  25.816  1.00  0.00     0.163 HD
ATOM     36  O   UNL A   1      43.380  22.846  24.207  1.00  0.00    -0.269 OA
BRANCH  34  37
ATOM     37  C   UNL A   1      43.482  24.348  26.016  1.00  0.00     0.039 A 
ATOM     38  C   UNL A   1      43.061  25.479  25.314  1.00  0.00     0.014 A 
ATOM     39  C   UNL A   1      44.074  24.474  27.277  1.00  0.00     0.014 A 
ATOM     40  C   UNL A   1      43.180  26.737  25.908  1.00  0.00     0.010 A 
ATOM     41  C   UNL A   1      44.124  25.720  27.894  1.00  0.00     0.010 A 
ATOM     42  C   UNL A   1      43.673  26.864  27.217  1.00  0.00    -0.014 A 
BRANCH  42  43
ATOM     43  C   UNL A   1      43.696  28.183  27.900  1.00  0.00     0.031 A 
ATOM     44  C   UNL A   1      42.423  28.782  28.436  1.00  0.00     0.074 A 
ATOM     45  C   UNL A   1      44.858  28.863  27.983  1.00  0.00     0.049 A 
ATOM     46  N   UNL A   1      42.236  29.941  29.012  1.00  0.00    -0.248 NA
ATOM     47  C   UNL A   1      41.196  27.981  28.290  1.00  0.00     0.031 C 
ATOM     48  C   UNL A   1      46.147  28.398  27.464  1.00  0.00     0.029 A 
ATOM     49  N   UNL A   1      45.149  30.089  28.527  1.00  0.00    -0.354 N 
ATOM     50  C   UNL A   1      40.875  30.017  29.284  1.00  0.00     0.074 A 
ATOM     51  C   UNL A   1      40.275  28.805  28.769  1.00  0.00     0.031 C 
ATOM     52  C   UNL A   1      47.090  29.312  27.737  1.00  0.00     0.029 A 
ATOM     53  C   UNL A   1      46.470  30.455  28.398  1.00  0.00     0.049 A 
ATOM     54  H   UNL A   1      44.475  30.656  28.968  1.00  0.00     0.167 HD
ATOM     55  C   UNL A   1      40.195  31.003  29.918  1.00  0.00     0.034 A 
ATOM     56  C   UNL A   1      47.105  31.590  28.754  1.00  0.00     0.034 A 
ATOM     57  C   UNL A   1      40.814  32.195  30.441  1.00  0.00     0.049 A 
ATOM     58  C   UNL A   1      46.309  32.684  29.427  1.00  0.00     0.074 A 
ATOM     59  C   UNL A   1      40.228  33.217  31.170  1.00  0.00     0.029 A 
ATOM     60  N   UNL A   1      42.150  32.538  30.283  1.00  0.00    -0.354 N 
ATOM     61  N   UNL A   1      45.035  32.701  29.746  1.00  0.00    -0.248 NA
ATOM     62  C   UNL A   1      47.038  33.904  29.796  1.00  0.00     0.031 C 
ATOM     63  C   UNL A   1      41.185  34.213  31.376  1.00  0.00     0.029 A 
ATOM     64  C   UNL A   1      42.393  33.777  30.857  1.00  0.00     0.049 A 
ATOM     65  H   UNL A   1      42.825  31.983  29.830  1.00  0.00     0.167 HD
ATOM     66  C   UNL A   1      44.823  33.921  30.383  1.00  0.00     0.074 A 
ATOM     67  C   UNL A   1      46.102  34.597  30.425  1.00  0.00     0.031 C 
ATOM     68  C   UNL A   1      43.674  34.441  30.885  1.00  0.00     0.034 A 
BRANCH  55  69
ATOM     69  C   UNL A   1      38.700  30.857  30.059  1.00  0.00     0.023 A 
ATOM     70  C   UNL A   1      37.803  31.460  29.161  1.00  0.00     0.031 A 
ATOM     71  C   UNL A   1      38.166  30.063  31.091  1.00  0.00     0.131 A 
ATOM     72  C   UNL A   1      36.420  31.291  29.334  1.00  0.00     0.055 A 
ATOM     73  C   UNL A   1      36.794  29.843  31.216  1.00  0.00     0.041 A 
ATOM     74  F   UNL A   1      38.973  29.482  31.993  1.00  0.00    -0.206 F 
ATOM     75  C   UNL A   1      35.912  30.464  30.338  1.00  0.00     0.022 A 
BRANCH  72  76
ATOM     76  S   UNL A   1      35.290  32.246  28.286  1.00  0.00     0.124 S 
ATOM     77  O   UNL A   1      34.392  32.832  29.278  1.00  0.00    -0.237 OA
ATOM     78  O   UNL A   1      36.190  33.174  27.612  1.00  0.00    -0.237 OA
ATOM     79  O   UNL A   1      34.681  31.232  27.427  1.00  0.00    -0.744 OA
ENDBRANCH  72  76
ENDBRANCH  55  69
BRANCH  56  80
ATOM     80  C   UNL A   1      48.557  31.785  28.460  1.00  0.00     0.023 A 
ATOM     81  C   UNL A   1      48.975  32.623  27.414  1.00  0.00     0.031 A 
ATOM     82  C   UNL A   1      49.544  31.067  29.159  1.00  0.00     0.131 A 
ATOM     83  C   UNL A   1      50.329  32.659  27.043  1.00  0.00     0.055 A 
ATOM     84  C   UNL A   1      50.898  31.165  28.836  1.00  0.00     0.041 A 
ATOM     85  F   UNL A   1      49.205  30.248  30.169  1.00  0.00    -0.206 F 
ATOM     86  C   UNL A   1      51.295  31.948  27.757  1.00  0.00     0.022 A 
BRANCH  83  87
ATOM     87  S   UNL A   1      50.784  33.536  25.521  1.00  0.00     0.124 S 
ATOM     88  O   UNL A   1      49.537  34.213  25.188  1.00  0.00    -0.237 OA
ATOM     89  O   UNL A   1      51.876  34.389  25.980  1.00  0.00    -0.237 OA
ATOM     90  O   UNL A   1      51.174  32.459  24.613  1.00  0.00    -0.744 OA
ENDBRANCH  83  87
ENDBRANCH  56  80
BRANCH  68  91
ATOM     91  C   UNL A   1      43.766  35.787  31.561  1.00  0.00     0.023 A 
ATOM     92  C   UNL A   1      43.767  36.985  30.826  1.00  0.00     0.031 A 
ATOM     93  C   UNL A   1      43.869  35.871  32.961  1.00  0.00     0.131 A 
ATOM     94  C   UNL A   1      43.930  38.212  31.487  1.00  0.00     0.055 A 
ATOM     95  C   UNL A   1      43.961  37.098  33.619  1.00  0.00     0.041 A 
ATOM     96  F   UNL A   1      43.878  34.760  33.715  1.00  0.00    -0.206 F 
ATOM     97  C   UNL A   1      44.007  38.277  32.881  1.00  0.00     0.022 A 
BRANCH  94  98
ATOM     98  S   UNL A   1      44.141  39.714  30.494  1.00  0.00     0.124 S 
ATOM     99  O   UNL A   1      44.425  39.165  29.172  1.00  0.00    -0.237 OA
ATOM    100  O   UNL A   1      42.848  40.373  30.646  1.00  0.00    -0.237 OA
ATOM    101  O   UNL A   1      45.262  40.396  31.137  1.00  0.00    -0.744 OA
ENDBRANCH  94  98
ENDBRANCH  68  91
ENDBRANCH  42  43
ENDBRANCH  34  37
ENDBRANCH  32  33
ENDBRANCH  31  32
ENDBRANCH  30  31
ENDBRANCH   1  30
TORSDOF 21
ENDMDL
MODEL 2
REMARK VINA RESULT:     -10.5      8.202     14.412
REMARK SMILES COc1ccccc1[C@@H]1CN(C(=O)Cc2csc(C)n2)C[C@H]1C(=O)NCCCCCCNC(=O)c1ccc(-c2c3nc(c(-c4cc(S(=O)(=O)[O-])ccc4F)c4ccc([nH]4)c(-c4cc(S(=O)(=O)[O-])ccc4F)c4nc(c(-c5cc(S(=O)(=O)[O-])ccc5F)c5ccc2[nH]5)C=C4)C=C3)cc1
REMARK SMILES IDX 28 1 27 2 26 3 25 4 23 5 24 6 22 8 9 9 10 10 11 11 21 12
REMARK SMILES IDX 8 13 3 14 4 15 5 16 7 17 6 18 2 19 1 20 12 21 13 22 14 23
REMARK SMILES IDX 15 24 16 25 20 26 17 27 18 28 19 29 29 30 30 31 31 32 32 33
REMARK SMILES IDX 33 34 34 36 35 37 36 38 97 39 37 40 96 41 38 42 39 43 40 44
REMARK SMILES IDX 90 45 41 46 95 47 89 48 91 49 42 50 94 51 88 52 87 53 43 55
REMARK SMILES IDX 75 56 55 57 74 58 56 59 59 60 73 61 92 62 57 63 58 64 72 66
REMARK SMILES IDX 93 67 60 68 44 69 45 70 53 71 46 72 52 73 54 74 51 75 47 76
REMARK SMILES IDX 48 77 49 78 50 79 76 80 77 81 85 82 78 83 84 84 86 85 83 86
REMARK SMILES IDX 79 87 80 88 81 89 82 90 61 91 62 92 70 93 63 94 69 95 71 96
REMARK SMILES IDX 68 97 64 98 65 99 66 100 67 101
REMARK H PARENT 25 7 32 35 91 54 59 65
REMARK Flexibility Score: inf
ROOT
ATOM      1  C   UNL A   1      48.387  37.799  33.171  1.00  0.00     0.002 C 
ENDROOT
BRANCH   1   2
ATOM      2  C   UNL A   1      47.086  38.163  32.450  1.00  0.00     0.021 C 
BRANCH   2   3
ATOM      3  C   UNL A   1      47.128  37.908  30.946  1.00  0.00     0.116 C 
BRANCH   3   4
ATOM      4  N   UNL A   1      47.191  39.160  30.220  1.00  0.00    -0.356 N 
ATOM      5  C   UNL A   1      46.214  39.907  29.650  1.00  0.00     0.225 C 
ATOM      6  O   UNL A   1      46.560  40.908  29.015  1.00  0.00    -0.275 OA
ATOM      7  H   UNL A   1      48.097  39.533  30.126  1.00  0.00     0.163 HD
BRANCH   5   8
ATOM      8  C   UNL A   1      44.745  39.559  29.781  1.00  0.00     0.107 C 
ATOM      9  C   UNL A   1      43.932  40.515  30.670  1.00  0.00     0.057 C 
ATOM     10  C   UNL A   1      42.575  40.615  29.987  1.00  0.00     0.128 C 
ATOM     11  N   UNL A   1      42.815  40.313  28.595  1.00  0.00    -0.341 N 
ATOM     12  C   UNL A   1      44.029  39.529  28.427  1.00  0.00     0.133 C 
BRANCH   9  13
ATOM     13  C   UNL A   1      43.855  40.196  32.149  1.00  0.00    -0.000 A 
ATOM     14  C   UNL A   1      44.176  41.085  33.189  1.00  0.00     0.122 A 
ATOM     15  C   UNL A   1      44.124  40.667  34.525  1.00  0.00     0.047 A 
ATOM     16  C   UNL A   1      43.775  39.356  34.844  1.00  0.00     0.004 A 
ATOM     17  C   UNL A   1      43.507  38.873  32.499  1.00  0.00     0.008 A 
ATOM     18  C   UNL A   1      43.482  38.454  33.829  1.00  0.00     0.001 A 
BRANCH  14  19
ATOM     19  O   UNL A   1      44.776  42.295  32.964  1.00  0.00    -0.496 OA
ATOM     20  C   UNL A   1      46.185  42.227  32.782  1.00  0.00     0.278 C 
ENDBRANCH  14  19
ENDBRANCH   9  13
BRANCH  11  21
ATOM     21  C   UNL A   1      41.963  40.564  27.535  1.00  0.00     0.228 C 
ATOM     22  O   UNL A   1      40.811  40.953  27.743  1.00  0.00    -0.274 OA
BRANCH  21  23
ATOM     23  C   UNL A   1      42.443  40.234  26.127  1.00  0.00     0.157 C 
BRANCH  23  24
ATOM     24  C   UNL A   1      42.708  41.425  25.257  1.00  0.00     0.061 A 
ATOM     25  C   UNL A   1      43.772  42.307  25.342  1.00  0.00     0.091 A 
ATOM     26  N   UNL A   1      41.898  41.637  24.149  1.00  0.00    -0.246 NA
ATOM     27  S   UNL A   1      43.706  43.467  24.089  1.00  0.00    -0.127 S 
ATOM     28  C   UNL A   1      42.347  42.649  23.437  1.00  0.00     0.090 A 
ATOM     29  C   UNL A   1      41.778  43.086  22.136  1.00  0.00     0.079 C 
ENDBRANCH  23  24
ENDBRANCH  21  23
ENDBRANCH  11  21
ENDBRANCH   5   8
ENDBRANCH   3   4
ENDBRANCH   2   3
ENDBRANCH   1   2
BRANCH   1  30
ATOM     30  C   UNL A   1      48.815  36.337  33.009  1.00  0.00     0.002 C 
BRANCH  30  31
ATOM     31  C   UNL A   1      50.107  35.966  33.742  1.00  0.00     0.021 C 
BRANCH  31  32
ATOM     32  C   UNL A   1      50.038  34.645  34.496  1.00  0.00     0.116 C 
BRANCH  32  33
ATOM     33  N   UNL A   1      50.133  34.845  35.931  1.00  0.00    -0.352 N 
ATOM     34  C   UNL A   1      49.140  35.160  36.824  1.00  0.00     0.251 C 
ATOM     35  H   UNL A   1      51.034  34.740  36.316  1.00  0.00     0.163 HD
ATOM     36  O   UNL A   1      49.427  35.541  37.951  1.00  0.00    -0.269 OA
BRANCH  34  37
ATOM     37  C   UNL A   1      47.728  35.054  36.397  1.00  0.00     0.039 A 
ATOM     38  C   UNL A   1      46.987  36.224  36.223  1.00  0.00     0.014 A 
ATOM     39  C   UNL A   1      47.150  33.804  36.153  1.00  0.00     0.014 A 
ATOM     40  C   UNL A   1      45.679  36.141  35.741  1.00  0.00     0.010 A 
ATOM     41  C   UNL A   1      45.874  33.729  35.604  1.00  0.00     0.010 A 
ATOM     42  C   UNL A   1      45.127  34.898  35.388  1.00  0.00    -0.014 A 
BRANCH  42  43
ATOM     43  C   UNL A   1      43.780  34.809  34.767  1.00  0.00     0.031 A 
ATOM     44  C   UNL A   1      42.567  34.552  35.619  1.00  0.00     0.074 A 
ATOM     45  C   UNL A   1      43.665  34.905  33.427  1.00  0.00     0.049 A 
ATOM     46  N   UNL A   1      41.322  34.388  35.254  1.00  0.00    -0.248 NA
ATOM     47  C   UNL A   1      42.783  34.443  37.072  1.00  0.00     0.031 C 
ATOM     48  C   UNL A   1      44.778  35.115  32.496  1.00  0.00     0.029 A 
ATOM     49  N   UNL A   1      42.565  34.832  32.608  1.00  0.00    -0.354 N 
ATOM     50  C   UNL A   1      40.609  34.146  36.423  1.00  0.00     0.074 A 
ATOM     51  C   UNL A   1      41.568  34.139  37.506  1.00  0.00     0.031 C 
ATOM     52  C   UNL A   1      44.301  35.181  31.244  1.00  0.00     0.029 A 
ATOM     53  C   UNL A   1      42.859  34.961  31.269  1.00  0.00     0.049 A 
ATOM     54  H   UNL A   1      41.650  34.701  32.947  1.00  0.00     0.167 HD
ATOM     55  C   UNL A   1      39.275  33.962  36.575  1.00  0.00     0.034 A 
ATOM     56  C   UNL A   1      42.061  34.889  30.185  1.00  0.00     0.034 A 
ATOM     57  C   UNL A   1      38.332  33.993  35.485  1.00  0.00     0.049 A 
ATOM     58  C   UNL A   1      40.584  34.646  30.388  1.00  0.00     0.074 A 
ATOM     59  C   UNL A   1      36.952  33.897  35.541  1.00  0.00     0.029 A 
ATOM     60  N   UNL A   1      38.665  34.113  34.142  1.00  0.00    -0.354 N 
ATOM     61  N   UNL A   1      39.919  34.498  31.511  1.00  0.00    -0.248 NA
ATOM     62  C   UNL A   1      39.751  34.572  29.181  1.00  0.00     0.031 C 
ATOM     63  C   UNL A   1      36.460  33.872  34.234  1.00  0.00     0.029 A 
ATOM     64  C   UNL A   1      37.522  34.044  33.361  1.00  0.00     0.049 A 
ATOM     65  H   UNL A   1      39.580  34.229  33.796  1.00  0.00     0.167 HD
ATOM     66  C   UNL A   1      38.584  34.347  31.141  1.00  0.00     0.074 A 
ATOM     67  C   UNL A   1      38.539  34.448  29.698  1.00  0.00     0.031 C 
ATOM     68  C   UNL A   1      37.493  34.139  31.921  1.00  0.00     0.034 A 
BRANCH  55  69
ATOM     69  C   UNL A   1      38.751  33.682  37.961  1.00  0.00     0.023 A 
ATOM     70  C   UNL A   1      38.793  34.645  38.983  1.00  0.00     0.031 A 
ATOM     71  C   UNL A   1      38.160  32.438  38.251  1.00  0.00     0.131 A 
ATOM     72  C   UNL A   1      38.290  34.337  40.257  1.00  0.00     0.055 A 
ATOM     73  C   UNL A   1      37.598  32.163  39.498  1.00  0.00     0.041 A 
ATOM     74  F   UNL A   1      38.112  31.471  37.321  1.00  0.00    -0.206 F 
ATOM     75  C   UNL A   1      37.667  33.113  40.512  1.00  0.00     0.022 A 
BRANCH  72  76
ATOM     76  S   UNL A   1      38.546  35.523  41.604  1.00  0.00     0.124 S 
ATOM     77  O   UNL A   1      39.839  35.096  42.131  1.00  0.00    -0.237 OA
ATOM     78  O   UNL A   1      38.530  36.803  40.907  1.00  0.00    -0.237 OA
ATOM     79  O   UNL A   1      37.409  35.283  42.492  1.00  0.00    -0.744 OA
ENDBRANCH  72  76
ENDBRANCH  55  69
BRANCH  56  80
ATOM     80  C   UNL A   1      42.623  35.008  28.806  1.00  0.00     0.023 A 
ATOM     81  C   UNL A   1      43.368  33.962  28.237  1.00  0.00     0.031 A 
ATOM     82  C   UNL A   1      42.504  36.202  28.071  1.00  0.00     0.131 A 
ATOM     83  C   UNL A   1      44.031  34.157  27.015  1.00  0.00     0.055 A 
ATOM     84  C   UNL A   1      43.103  36.364  26.821  1.00  0.00     0.041 A 
ATOM     85  F   UNL A   1      41.806  37.238  28.564  1.00  0.00    -0.206 F 
ATOM     86  C   UNL A   1      43.890  35.345  26.296  1.00  0.00     0.022 A 
BRANCH  83  87
ATOM     87  S   UNL A   1      45.198  32.887  26.453  1.00  0.00     0.124 S 
ATOM     88  O   UNL A   1      44.312  31.955  25.766  1.00  0.00    -0.237 OA
ATOM     89  O   UNL A   1      46.100  33.660  25.606  1.00  0.00    -0.237 OA
ATOM     90  O   UNL A   1      45.784  32.391  27.697  1.00  0.00    -0.744 OA
ENDBRANCH  83  87
ENDBRANCH  56  80
BRANCH  68  91
ATOM     91  C   UNL A   1      36.157  34.053  31.225  1.00  0.00     0.023 A 
ATOM     92  C   UNL A   1      35.224  35.102  31.284  1.00  0.00     0.031 A 
ATOM     93  C   UNL A   1      35.807  32.898  30.503  1.00  0.00     0.131 A 
ATOM     94  C   UNL A   1      33.964  34.953  30.686  1.00  0.00     0.055 A 
ATOM     95  C   UNL A   1      34.579  32.783  29.851  1.00  0.00     0.041 A 
ATOM     96  F   UNL A   1      36.657  31.862  30.415  1.00  0.00    -0.206 F 
ATOM     97  C   UNL A   1      33.644  33.807  29.953  1.00  0.00     0.022 A 
BRANCH  94  98
ATOM     98  S   UNL A   1      32.712  36.234  30.964  1.00  0.00     0.124 S 
ATOM     99  O   UNL A   1      33.517  37.339  31.476  1.00  0.00    -0.237 OA
ATOM    100  O   UNL A   1      32.153  36.420  29.628  1.00  0.00    -0.237 OA
ATOM    101  O   UNL A   1      31.806  35.624  31.934  1.00  0.00    -0.744 OA
ENDBRANCH  94  98
ENDBRANCH  68  91
ENDBRANCH  42  43
ENDBRANCH  34  37
ENDBRANCH  32  33
ENDBRANCH  31  32
ENDBRANCH  30  31
ENDBRANCH   1  30
TORSDOF 21
ENDMDL
MODEL 3
REMARK VINA RESULT:      -9.8      1.963      2.234
REMARK SMILES COc1ccccc1[C@@H]1CN(C(=O)Cc2csc(C)n2)C[C@H]1C(=O)NCCCCCCNC(=O)c1ccc(-c2c3nc(c(-c4cc(S(=O)(=O)[O-])ccc4F)c4ccc([nH]4)c(-c4cc(S(=O)(=O)[O-])ccc4F)c4nc(c(-c5cc(S(=O)(=O)[O-])ccc5F)c5ccc2[nH]5)C=C4)C=C3)cc1
REMARK SMILES IDX 28 1 27 2 26 3 25 4 23 5 24 6 22 8 9 9 10 10 11 11 21 12
REMARK SMILES IDX 8 13 3 14 4 15 5 16 7 17 6 18 2 19 1 20 12 21 13 22 14 23
REMARK SMILES IDX 15 24 16 25 20 26 17 27 18 28 19 29 29 30 30 31 31 32 32 33
REMARK SMILES IDX 33 34 34 36 35 37 36 38 97 39 37 40 96 41 38 42 39 43 40 44
REMARK SMILES IDX 90 45 41 46 95 47 89 48 91 49 42 50 94 51 88 52 87 53 43 55
REMARK SMILES IDX 75 56 55 57 74 58 56 59 59 60 73 61 92 62 57 63 58 64 72 66
REMARK SMILES IDX 93 67 60 68 44 69 45 70 53 71 46 72 52 73 54 74 51 75 47 76
REMARK SMILES IDX 48 77 49 78 50 79 76 80 77 81 85 82 78 83 84 84 86 85 83 86
REMARK SMILES IDX 79 87 80 88 81 89 82 90 61 91 62 92 70 93 63 94 69 95 71 96
REMARK SMILES IDX 68 97 64 98 65 99 66 100 67 101
REMARK H PARENT 25 7 32 35 91 54 59 65
REMARK Flexibility Score: inf
ROOT
ATOM      1  C   UNL A   1      39.293  23.420  26.247  1.00  0.00     0.002 C 
ENDROOT
BRANCH   1   2
ATOM      2  C   UNL A   1      37.957  24.112  26.533  1.00  0.00     0.021 C 
BRANCH   2   3
ATOM      3  C   UNL A   1      36.846  23.719  25.563  1.00  0.00     0.116 C 
BRANCH   3   4
ATOM      4  N   UNL A   1      36.762  22.277  25.445  1.00  0.00    -0.356 N 
ATOM      5  C   UNL A   1      35.728  21.472  25.101  1.00  0.00     0.225 C 
ATOM      6  O   UNL A   1      35.914  20.253  25.156  1.00  0.00    -0.275 OA
ATOM      7  H   UNL A   1      37.600  21.801  25.647  1.00  0.00     0.163 HD
BRANCH   5   8
ATOM      8  C   UNL A   1      34.390  22.018  24.648  1.00  0.00     0.107 C 
ATOM      9  C   UNL A   1      33.182  21.126  24.980  1.00  0.00     0.057 C 
ATOM     10  C   UNL A   1      32.066  22.102  25.328  1.00  0.00     0.128 C 
ATOM     11  N   UNL A   1      32.726  23.305  25.778  1.00  0.00    -0.341 N 
ATOM     12  C   UNL A   1      34.081  23.390  25.257  1.00  0.00     0.133 C 
BRANCH   9  13
ATOM     13  C   UNL A   1      32.787  20.078  23.960  1.00  0.00    -0.000 A 
ATOM     14  C   UNL A   1      32.930  18.690  24.124  1.00  0.00     0.122 A 
ATOM     15  C   UNL A   1      32.585  17.810  23.091  1.00  0.00     0.047 A 
ATOM     16  C   UNL A   1      32.114  18.297  21.873  1.00  0.00     0.004 A 
ATOM     17  C   UNL A   1      32.311  20.546  22.716  1.00  0.00     0.008 A 
ATOM     18  C   UNL A   1      31.993  19.668  21.679  1.00  0.00     0.001 A 
BRANCH  14  19
ATOM     19  O   UNL A   1      33.621  18.140  25.171  1.00  0.00    -0.496 OA
ATOM     20  C   UNL A   1      33.809  16.733  25.077  1.00  0.00     0.278 C 
ENDBRANCH  14  19
ENDBRANCH   9  13
BRANCH  11  21
ATOM     21  C   UNL A   1      32.152  24.353  26.474  1.00  0.00     0.228 C 
ATOM     22  O   UNL A   1      31.269  24.135  27.308  1.00  0.00    -0.274 OA
BRANCH  21  23
ATOM     23  C   UNL A   1      32.551  25.776  26.101  1.00  0.00     0.157 C 
BRANCH  23  24
ATOM     24  C   UNL A   1      31.667  26.430  25.082  1.00  0.00     0.061 A 
ATOM     25  C   UNL A   1      30.759  25.815  24.238  1.00  0.00     0.091 A 
ATOM     26  N   UNL A   1      31.622  27.817  25.030  1.00  0.00    -0.246 NA
ATOM     27  S   UNL A   1      29.915  26.969  23.302  1.00  0.00    -0.127 S 
ATOM     28  C   UNL A   1      30.711  28.217  24.169  1.00  0.00     0.090 A 
ATOM     29  C   UNL A   1      30.331  29.634  23.936  1.00  0.00     0.079 C 
ENDBRANCH  23  24
ENDBRANCH  21  23
ENDBRANCH  11  21
ENDBRANCH   5   8
ENDBRANCH   3   4
ENDBRANCH   2   3
ENDBRANCH   1   2
BRANCH   1  30
ATOM     30  C   UNL A   1      40.063  22.985  27.497  1.00  0.00     0.002 C 
BRANCH  30  31
ATOM     31  C   UNL A   1      40.835  21.672  27.346  1.00  0.00     0.021 C 
BRANCH  31  32
ATOM     32  C   UNL A   1      42.347  21.841  27.284  1.00  0.00     0.116 C 
BRANCH  32  33
ATOM     33  N   UNL A   1      42.831  21.804  25.915  1.00  0.00    -0.352 N 
ATOM     34  C   UNL A   1      43.240  22.844  25.118  1.00  0.00     0.251 C 
ATOM     35  H   UNL A   1      42.872  20.910  25.503  1.00  0.00     0.163 HD
ATOM     36  O   UNL A   1      43.378  22.675  23.914  1.00  0.00    -0.269 OA
BRANCH  34  37
ATOM     37  C   UNL A   1      43.487  24.167  25.731  1.00  0.00     0.039 A 
ATOM     38  C   UNL A   1      43.100  25.314  25.038  1.00  0.00     0.014 A 
ATOM     39  C   UNL A   1      44.080  24.266  26.994  1.00  0.00     0.014 A 
ATOM     40  C   UNL A   1      43.252  26.564  25.642  1.00  0.00     0.010 A 
ATOM     41  C   UNL A   1      44.163  25.505  27.622  1.00  0.00     0.010 A 
ATOM     42  C   UNL A   1      43.746  26.666  26.953  1.00  0.00    -0.014 A 
BRANCH  42  43
ATOM     43  C   UNL A   1      43.805  27.979  27.647  1.00  0.00     0.031 A 
ATOM     44  C   UNL A   1      42.562  28.571  28.255  1.00  0.00     0.074 A 
ATOM     45  C   UNL A   1      44.969  28.658  27.676  1.00  0.00     0.049 A 
ATOM     46  N   UNL A   1      42.405  29.724  28.851  1.00  0.00    -0.248 NA
ATOM     47  C   UNL A   1      41.329  27.772  28.165  1.00  0.00     0.031 C 
ATOM     48  C   UNL A   1      46.229  28.199  27.086  1.00  0.00     0.029 A 
ATOM     49  N   UNL A   1      45.288  29.879  28.216  1.00  0.00    -0.354 N 
ATOM     50  C   UNL A   1      41.059  29.797  29.194  1.00  0.00     0.074 A 
ATOM     51  C   UNL A   1      40.434  28.590  28.700  1.00  0.00     0.031 C 
ATOM     52  C   UNL A   1      47.186  29.111  27.319  1.00  0.00     0.029 A 
ATOM     53  C   UNL A   1      46.601  30.247  28.023  1.00  0.00     0.049 A 
ATOM     54  H   UNL A   1      44.638  30.441  28.698  1.00  0.00     0.167 HD
ATOM     55  C   UNL A   1      40.413  30.776  29.873  1.00  0.00     0.034 A 
ATOM     56  C   UNL A   1      47.254  31.379  28.356  1.00  0.00     0.034 A 
ATOM     57  C   UNL A   1      41.058  31.963  30.375  1.00  0.00     0.049 A 
ATOM     58  C   UNL A   1      46.494  32.465  29.080  1.00  0.00     0.074 A 
ATOM     59  C   UNL A   1      40.511  32.978  31.143  1.00  0.00     0.029 A 
ATOM     60  N   UNL A   1      42.385  32.309  30.151  1.00  0.00    -0.354 N 
ATOM     61  N   UNL A   1      45.238  32.479  29.465  1.00  0.00    -0.248 NA
ATOM     62  C   UNL A   1      47.241  33.683  29.423  1.00  0.00     0.031 C 
ATOM     63  C   UNL A   1      41.478  33.972  31.309  1.00  0.00     0.029 A 
ATOM     64  C   UNL A   1      42.657  33.542  30.723  1.00  0.00     0.049 A 
ATOM     65  H   UNL A   1      43.035  31.759  29.657  1.00  0.00     0.167 HD
ATOM     66  C   UNL A   1      45.059  33.692  30.125  1.00  0.00     0.074 A 
ATOM     67  C   UNL A   1      46.339  34.369  30.107  1.00  0.00     0.031 C 
ATOM     68  C   UNL A   1      43.938  34.207  30.691  1.00  0.00     0.034 A 
BRANCH  55  69
ATOM     69  C   UNL A   1      38.927  30.627  30.091  1.00  0.00     0.023 A 
ATOM     70  C   UNL A   1      37.985  31.198  29.218  1.00  0.00     0.031 A 
ATOM     71  C   UNL A   1      38.449  29.864  31.171  1.00  0.00     0.131 A 
ATOM     72  C   UNL A   1      36.613  31.029  29.463  1.00  0.00     0.055 A 
ATOM     73  C   UNL A   1      37.086  29.642  31.369  1.00  0.00     0.041 A 
ATOM     74  F   UNL A   1      39.302  29.315  32.050  1.00  0.00    -0.206 F 
ATOM     75  C   UNL A   1      36.159  30.231  30.515  1.00  0.00     0.022 A 
BRANCH  72  76
ATOM     76  S   UNL A   1      35.428  31.945  28.441  1.00  0.00     0.124 S 
ATOM     77  O   UNL A   1      34.382  32.257  29.412  1.00  0.00    -0.237 OA
ATOM     78  O   UNL A   1      36.221  33.074  27.971  1.00  0.00    -0.237 OA
ATOM     79  O   UNL A   1      35.046  30.980  27.412  1.00  0.00    -0.744 OA
ENDBRANCH  72  76
ENDBRANCH  55  69
BRANCH  56  80
ATOM     80  C   UNL A   1      48.688  31.578  27.989  1.00  0.00     0.023 A 
ATOM     81  C   UNL A   1      49.716  31.026  28.771  1.00  0.00     0.031 A 
ATOM     82  C   UNL A   1      49.056  32.398  26.907  1.00  0.00     0.131 A 
ATOM     83  C   UNL A   1      51.053  31.365  28.510  1.00  0.00     0.055 A 
ATOM     84  C   UNL A   1      50.391  32.671  26.606  1.00  0.00     0.041 A 
ATOM     85  F   UNL A   1      48.116  32.954  26.125  1.00  0.00    -0.206 F 
ATOM     86  C   UNL A   1      51.399  32.171  27.424  1.00  0.00     0.022 A 
BRANCH  83  87
ATOM     87  S   UNL A   1      52.321  30.856  29.703  1.00  0.00     0.124 S 
ATOM     88  O   UNL A   1      52.896  29.690  29.043  1.00  0.00    -0.237 OA
ATOM     89  O   UNL A   1      53.170  32.041  29.766  1.00  0.00    -0.237 OA
ATOM     90  O   UNL A   1      51.554  30.574  30.915  1.00  0.00    -0.744 OA
ENDBRANCH  83  87
ENDBRANCH  56  80
BRANCH  68  91
ATOM     91  C   UNL A   1      44.065  35.546  31.375  1.00  0.00     0.023 A 
ATOM     92  C   UNL A   1      44.351  35.651  32.747  1.00  0.00     0.031 A 
ATOM     93  C   UNL A   1      43.886  36.735  30.644  1.00  0.00     0.131 A 
ATOM     94  C   UNL A   1      44.388  36.913  33.359  1.00  0.00     0.055 A 
ATOM     95  C   UNL A   1      43.993  37.990  31.244  1.00  0.00     0.041 A 
ATOM     96  F   UNL A   1      43.608  36.696  29.331  1.00  0.00    -0.206 F 
ATOM     97  C   UNL A   1      44.230  38.084  32.612  1.00  0.00     0.022 A 
BRANCH  94  98
ATOM     98  S   UNL A   1      44.544  37.000  35.163  1.00  0.00     0.124 S 
ATOM     99  O   UNL A   1      43.938  35.740  35.581  1.00  0.00    -0.237 OA
ATOM    100  O   UNL A   1      45.988  37.103  35.347  1.00  0.00    -0.237 OA
ATOM    101  O   UNL A   1      43.788  38.200  35.516  1.00  0.00    -0.744 OA
ENDBRANCH  94  98
ENDBRANCH  68  91
ENDBRANCH  42  43
ENDBRANCH  34  37
ENDBRANCH  32  33
ENDBRANCH  31  32
ENDBRANCH  30  31
ENDBRANCH   1  30
TORSDOF 21
ENDMDL
