MODEL 1
REMARK VINA RESULT:     -12.6      0.000      0.000
REMARK SMILES C[C@H]1OCC[C@@H]1C(=O)Nc1sc2c(c1C(=O)NCCCCCCNC(=O)c1ccc(-c3c4nc(c(-c5cc(S(=O)(=O)[O-])ccc5F)c5ccc([nH]5)c(-c5cc(S(=O)(=O)[O-])ccc5F)c5nc(c(-c6cc(S(=O)(=O)[O-])ccc6F)c6ccc3[nH]6)C=C5)C=C4)cc1)CCC2
REMARK SMILES IDX 21 1 20 2 19 3 18 4 17 5 15 6 16 7 14 9 10 10 11 11 12 12
REMARK SMILES IDX 13 13 92 14 90 15 91 16 9 17 7 18 8 19 6 21 1 22 2 23 3 24
REMARK SMILES IDX 4 25 5 26 22 27 23 28 24 29 25 30 26 32 27 33 28 34 89 35
REMARK SMILES IDX 29 36 88 37 30 38 31 39 32 40 82 41 33 42 87 43 81 44 83 45
REMARK SMILES IDX 34 46 86 47 80 48 79 49 35 51 67 52 47 53 66 54 48 55 51 56
REMARK SMILES IDX 65 57 84 58 49 59 50 60 64 62 85 63 52 64 36 65 37 66 45 67
REMARK SMILES IDX 38 68 44 69 46 70 43 71 39 72 40 73 41 74 42 75 68 76 69 77
REMARK SMILES IDX 77 78 70 79 76 80 78 81 75 82 71 83 72 84 73 85 74 86 53 87
REMARK SMILES IDX 54 88 62 89 55 90 61 91 63 92 60 93 56 94 57 95 58 96 59 97
REMARK H PARENT 17 8 9 20 24 31 83 50 51 61
REMARK Flexibility Score: inf
ROOT
ATOM      1  C   UNL A   1      34.935  28.870  26.833  1.00  0.00     0.002 C 
ENDROOT
BRANCH   1   2
ATOM      2  C   UNL A   1      33.683  28.162  26.286  1.00  0.00     0.002 C 
BRANCH   2   3
ATOM      3  C   UNL A   1      32.493  28.134  27.251  1.00  0.00     0.021 C 
BRANCH   3   4
ATOM      4  C   UNL A   1      31.185  27.707  26.591  1.00  0.00     0.116 C 
BRANCH   4   5
ATOM      5  N   UNL A   1      30.801  26.347  26.840  1.00  0.00    -0.352 N 
ATOM      6  C   UNL A   1      31.355  25.145  26.489  1.00  0.00     0.254 C 
ATOM      7  O   UNL A   1      31.045  24.216  27.244  1.00  0.00    -0.269 OA
ATOM      8  H   UNL A   1      29.974  26.261  27.367  1.00  0.00     0.163 HD
BRANCH   6   9
ATOM      9  C   UNL A   1      32.231  24.903  25.330  1.00  0.00     0.078 A 
ATOM     10  C   UNL A   1      33.416  24.170  25.505  1.00  0.00     0.108 A 
ATOM     11  S   UNL A   1      34.593  24.455  24.290  1.00  0.00    -0.122 S 
ATOM     12  C   UNL A   1      33.446  25.212  23.358  1.00  0.00     0.011 A 
ATOM     13  C   UNL A   1      32.219  25.363  23.962  1.00  0.00    -0.019 A 
ATOM     14  C   UNL A   1      33.568  25.808  22.008  1.00  0.00     0.047 C 
ATOM     15  C   UNL A   1      31.323  26.086  23.009  1.00  0.00     0.038 C 
ATOM     16  C   UNL A   1      32.081  26.028  21.654  1.00  0.00     0.010 C 
BRANCH  10  17
ATOM     17  N   UNL A   1      33.943  23.405  26.518  1.00  0.00    -0.317 N 
ATOM     18  C   UNL A   1      33.852  22.075  26.774  1.00  0.00     0.230 C 
ATOM     19  O   UNL A   1      34.416  21.683  27.809  1.00  0.00    -0.274 OA
ATOM     20  H   UNL A   1      34.478  23.911  27.172  1.00  0.00     0.170 HD
BRANCH  18  21
ATOM     21  C   UNL A   1      33.251  21.016  25.853  1.00  0.00     0.110 C 
ATOM     22  C   UNL A   1      34.307  19.071  24.626  1.00  0.00     0.039 C 
ATOM     23  C   UNL A   1      34.154  20.591  24.704  1.00  0.00     0.127 C 
ATOM     24  O   UNL A   1      33.516  21.049  23.505  1.00  0.00    -0.378 OA
ATOM     25  C   UNL A   1      32.113  21.113  23.751  1.00  0.00     0.161 C 
ATOM     26  C   UNL A   1      31.915  21.334  25.232  1.00  0.00     0.044 C 
ENDBRANCH  18  21
ENDBRANCH  10  17
ENDBRANCH   6   9
ENDBRANCH   4   5
ENDBRANCH   3   4
ENDBRANCH   2   3
ENDBRANCH   1   2
BRANCH   1  27
ATOM     27  C   UNL A   1      34.711  30.298  27.358  1.00  0.00     0.021 C 
BRANCH  27  28
ATOM     28  C   UNL A   1      35.935  30.882  28.049  1.00  0.00     0.116 C 
BRANCH  28  29
ATOM     29  N   UNL A   1      35.852  30.701  29.490  1.00  0.00    -0.352 N 
ATOM     30  C   UNL A   1      36.520  29.798  30.285  1.00  0.00     0.251 C 
ATOM     31  H   UNL A   1      35.233  31.306  29.959  1.00  0.00     0.163 HD
ATOM     32  O   UNL A   1      36.055  29.495  31.374  1.00  0.00    -0.269 OA
BRANCH  30  33
ATOM     33  C   UNL A   1      37.789  29.207  29.814  1.00  0.00     0.039 A 
ATOM     34  C   UNL A   1      38.319  29.592  28.579  1.00  0.00     0.014 A 
ATOM     35  C   UNL A   1      38.428  28.235  30.586  1.00  0.00     0.014 A 
ATOM     36  C   UNL A   1      39.527  29.043  28.158  1.00  0.00     0.010 A 
ATOM     37  C   UNL A   1      39.666  27.756  30.213  1.00  0.00     0.010 A 
ATOM     38  C   UNL A   1      40.207  28.138  28.989  1.00  0.00    -0.014 A 
BRANCH  38  39
ATOM     39  C   UNL A   1      41.586  27.754  28.690  1.00  0.00     0.031 A 
ATOM     40  C   UNL A   1      41.684  26.480  27.931  1.00  0.00     0.074 A 
ATOM     41  C   UNL A   1      42.657  28.560  28.872  1.00  0.00     0.049 A 
ATOM     42  N   UNL A   1      42.136  25.353  28.369  1.00  0.00    -0.248 NA
ATOM     43  C   UNL A   1      41.035  26.379  26.613  1.00  0.00     0.031 C 
ATOM     44  C   UNL A   1      42.666  29.928  29.392  1.00  0.00     0.029 A 
ATOM     45  N   UNL A   1      43.963  28.365  28.525  1.00  0.00    -0.354 N 
ATOM     46  C   UNL A   1      42.090  24.478  27.291  1.00  0.00     0.074 A 
ATOM     47  C   UNL A   1      41.195  25.082  26.343  1.00  0.00     0.031 C 
ATOM     48  C   UNL A   1      43.854  30.511  29.113  1.00  0.00     0.029 A 
ATOM     49  C   UNL A   1      44.739  29.526  28.509  1.00  0.00     0.049 A 
ATOM     50  H   UNL A   1      44.327  27.478  28.303  1.00  0.00     0.167 HD
ATOM     51  C   UNL A   1      43.010  23.480  27.172  1.00  0.00     0.034 A 
ATOM     52  C   UNL A   1      46.003  29.681  28.018  1.00  0.00     0.034 A 
ATOM     53  C   UNL A   1      43.718  23.293  28.425  1.00  0.00     0.049 A 
ATOM     54  C   UNL A   1      46.626  28.333  28.040  1.00  0.00     0.074 A 
ATOM     55  C   UNL A   1      43.324  23.028  29.724  1.00  0.00     0.029 A 
ATOM     56  N   UNL A   1      45.002  23.790  28.524  1.00  0.00    -0.354 N 
ATOM     57  N   UNL A   1      46.883  27.694  29.150  1.00  0.00    -0.248 NA
ATOM     58  C   UNL A   1      46.490  27.489  26.862  1.00  0.00     0.031 C 
ATOM     59  C   UNL A   1      44.161  23.849  30.534  1.00  0.00     0.029 A 
ATOM     60  C   UNL A   1      45.094  24.478  29.708  1.00  0.00     0.049 A 
ATOM     61  H   UNL A   1      45.721  23.672  27.862  1.00  0.00     0.167 HD
ATOM     62  C   UNL A   1      46.466  26.394  28.911  1.00  0.00     0.074 A 
ATOM     63  C   UNL A   1      46.342  26.300  27.456  1.00  0.00     0.031 C 
ATOM     64  C   UNL A   1      45.970  25.617  29.920  1.00  0.00     0.034 A 
BRANCH  51  65
ATOM     65  C   UNL A   1      43.570  22.959  25.864  1.00  0.00     0.023 A 
ATOM     66  C   UNL A   1      43.641  21.559  25.727  1.00  0.00     0.031 A 
ATOM     67  C   UNL A   1      44.299  23.701  24.908  1.00  0.00     0.131 A 
ATOM     68  C   UNL A   1      44.518  20.963  24.807  1.00  0.00     0.055 A 
ATOM     69  C   UNL A   1      45.115  23.102  23.943  1.00  0.00     0.041 A 
ATOM     70  F   UNL A   1      44.339  25.037  24.896  1.00  0.00    -0.206 F 
ATOM     71  C   UNL A   1      45.262  21.726  23.915  1.00  0.00     0.022 A 
BRANCH  68  72
ATOM     72  S   UNL A   1      44.818  19.185  24.952  1.00  0.00     0.124 S 
ATOM     73  O   UNL A   1      43.649  18.762  25.715  1.00  0.00    -0.237 OA
ATOM     74  O   UNL A   1      44.858  18.774  23.553  1.00  0.00    -0.237 OA
ATOM     75  O   UNL A   1      46.091  19.114  25.662  1.00  0.00    -0.744 OA
ENDBRANCH  68  72
ENDBRANCH  51  65
BRANCH  52  76
ATOM     76  C   UNL A   1      46.610  30.861  27.323  1.00  0.00     0.023 A 
ATOM     77  C   UNL A   1      45.840  31.902  26.743  1.00  0.00     0.031 A 
ATOM     78  C   UNL A   1      47.996  31.112  27.445  1.00  0.00     0.131 A 
ATOM     79  C   UNL A   1      46.456  33.113  26.332  1.00  0.00     0.055 A 
ATOM     80  C   UNL A   1      48.596  32.307  27.038  1.00  0.00     0.041 A 
ATOM     81  F   UNL A   1      48.814  30.238  28.052  1.00  0.00    -0.206 F 
ATOM     82  C   UNL A   1      47.827  33.319  26.492  1.00  0.00     0.022 A 
BRANCH  79  83
ATOM     83  S   UNL A   1      45.469  34.505  25.676  1.00  0.00     0.124 S 
ATOM     84  O   UNL A   1      44.459  34.685  26.713  1.00  0.00    -0.237 OA
ATOM     85  O   UNL A   1      46.461  35.565  25.543  1.00  0.00    -0.237 OA
ATOM     86  O   UNL A   1      44.956  33.990  24.405  1.00  0.00    -0.744 OA
ENDBRANCH  79  83
ENDBRANCH  52  76
BRANCH  64  87
ATOM     87  C   UNL A   1      46.163  26.069  31.355  1.00  0.00     0.023 A 
ATOM     88  C   UNL A   1      45.154  26.613  32.183  1.00  0.00     0.031 A 
ATOM     89  C   UNL A   1      47.414  25.809  31.944  1.00  0.00     0.131 A 
ATOM     90  C   UNL A   1      45.424  26.887  33.540  1.00  0.00     0.055 A 
ATOM     91  C   UNL A   1      47.669  26.053  33.291  1.00  0.00     0.041 A 
ATOM     92  F   UNL A   1      48.409  25.269  31.219  1.00  0.00    -0.206 F 
ATOM     93  C   UNL A   1      46.676  26.599  34.094  1.00  0.00     0.022 A 
BRANCH  90  94
ATOM     94  S   UNL A   1      44.158  27.642  34.610  1.00  0.00     0.124 S 
ATOM     95  O   UNL A   1      44.201  29.054  34.247  1.00  0.00    -0.237 OA
ATOM     96  O   UNL A   1      42.947  26.921  34.229  1.00  0.00    -0.237 OA
ATOM     97  O   UNL A   1      44.637  27.348  35.963  1.00  0.00    -0.744 OA
ENDBRANCH  90  94
ENDBRANCH  64  87
ENDBRANCH  38  39
ENDBRANCH  30  33
ENDBRANCH  28  29
ENDBRANCH  27  28
ENDBRANCH   1  27
TORSDOF 18
ENDMDL
MODEL 2
REMARK VINA RESULT:     -12.3      4.075      5.382
REMARK SMILES C[C@H]1OCC[C@@H]1C(=O)Nc1sc2c(c1C(=O)NCCCCCCNC(=O)c1ccc(-c3c4nc(c(-c5cc(S(=O)(=O)[O-])ccc5F)c5ccc([nH]5)c(-c5cc(S(=O)(=O)[O-])ccc5F)c5nc(c(-c6cc(S(=O)(=O)[O-])ccc6F)c6ccc3[nH]6)C=C5)C=C4)cc1)CCC2
REMARK SMILES IDX 21 1 20 2 19 3 18 4 17 5 15 6 16 7 14 9 10 10 11 11 12 12
REMARK SMILES IDX 13 13 92 14 90 15 91 16 9 17 7 18 8 19 6 21 1 22 2 23 3 24
REMARK SMILES IDX 4 25 5 26 22 27 23 28 24 29 25 30 26 32 27 33 28 34 89 35
REMARK SMILES IDX 29 36 88 37 30 38 31 39 32 40 82 41 33 42 87 43 81 44 83 45
REMARK SMILES IDX 34 46 86 47 80 48 79 49 35 51 67 52 47 53 66 54 48 55 51 56
REMARK SMILES IDX 65 57 84 58 49 59 50 60 64 62 85 63 52 64 36 65 37 66 45 67
REMARK SMILES IDX 38 68 44 69 46 70 43 71 39 72 40 73 41 74 42 75 68 76 69 77
REMARK SMILES IDX 77 78 70 79 76 80 78 81 75 82 71 83 72 84 73 85 74 86 53 87
REMARK SMILES IDX 54 88 62 89 55 90 61 91 63 92 60 93 56 94 57 95 58 96 59 97
REMARK H PARENT 17 8 9 20 24 31 83 50 51 61
REMARK Flexibility Score: inf
ROOT
ATOM      1  C   UNL A   1      31.546  30.241  26.126  1.00  0.00     0.002 C 
ENDROOT
BRANCH   1   2
ATOM      2  C   UNL A   1      32.732  29.478  26.744  1.00  0.00     0.002 C 
BRANCH   2   3
ATOM      3  C   UNL A   1      32.615  27.951  26.670  1.00  0.00     0.021 C 
BRANCH   3   4
ATOM      4  C   UNL A   1      31.177  27.457  26.540  1.00  0.00     0.116 C 
BRANCH   4   5
ATOM      5  N   UNL A   1      30.988  26.068  26.846  1.00  0.00    -0.352 N 
ATOM      6  C   UNL A   1      31.600  24.926  26.402  1.00  0.00     0.254 C 
ATOM      7  O   UNL A   1      31.523  23.981  27.196  1.00  0.00    -0.269 OA
ATOM      8  H   UNL A   1      30.276  25.903  27.507  1.00  0.00     0.163 HD
BRANCH   6   9
ATOM      9  C   UNL A   1      32.288  24.761  25.111  1.00  0.00     0.078 A 
ATOM     10  C   UNL A   1      33.470  24.006  25.053  1.00  0.00     0.108 A 
ATOM     11  S   UNL A   1      34.458  24.367  23.699  1.00  0.00    -0.122 S 
ATOM     12  C   UNL A   1      33.200  25.202  23.005  1.00  0.00     0.011 A 
ATOM     13  C   UNL A   1      32.081  25.320  23.796  1.00  0.00    -0.019 A 
ATOM     14  C   UNL A   1      33.132  25.894  21.698  1.00  0.00     0.047 C 
ATOM     15  C   UNL A   1      31.068  26.120  23.043  1.00  0.00     0.038 C 
ATOM     16  C   UNL A   1      31.614  26.154  21.588  1.00  0.00     0.010 C 
BRANCH  10  17
ATOM     17  N   UNL A   1      34.126  23.164  25.919  1.00  0.00    -0.317 N 
ATOM     18  C   UNL A   1      34.313  21.819  25.889  1.00  0.00     0.230 C 
ATOM     19  O   UNL A   1      34.926  21.336  26.856  1.00  0.00    -0.274 OA
ATOM     20  H   UNL A   1      34.531  23.615  26.695  1.00  0.00     0.170 HD
BRANCH  18  21
ATOM     21  C   UNL A   1      33.965  20.883  24.735  1.00  0.00     0.110 C 
ATOM     22  C   UNL A   1      32.118  20.973  23.007  1.00  0.00     0.039 C 
ATOM     23  C   UNL A   1      32.474  20.728  24.474  1.00  0.00     0.127 C 
ATOM     24  O   UNL A   1      32.150  19.371  24.803  1.00  0.00    -0.378 OA
ATOM     25  C   UNL A   1      33.323  18.582  24.613  1.00  0.00     0.161 C 
ATOM     26  C   UNL A   1      34.520  19.484  24.803  1.00  0.00     0.044 C 
ENDBRANCH  18  21
ENDBRANCH  10  17
ENDBRANCH   6   9
ENDBRANCH   4   5
ENDBRANCH   3   4
ENDBRANCH   2   3
ENDBRANCH   1   2
BRANCH   1  27
ATOM     27  C   UNL A   1      31.453  31.730  26.497  1.00  0.00     0.021 C 
BRANCH  27  28
ATOM     28  C   UNL A   1      32.747  32.287  27.073  1.00  0.00     0.116 C 
BRANCH  28  29
ATOM     29  N   UNL A   1      32.538  33.616  27.626  1.00  0.00    -0.352 N 
ATOM     30  C   UNL A   1      33.195  34.229  28.668  1.00  0.00     0.251 C 
ATOM     31  H   UNL A   1      31.830  34.148  27.197  1.00  0.00     0.163 HD
ATOM     32  O   UNL A   1      32.651  35.145  29.268  1.00  0.00    -0.269 OA
BRANCH  30  33
ATOM     33  C   UNL A   1      34.547  33.773  29.050  1.00  0.00     0.039 A 
ATOM     34  C   UNL A   1      34.709  32.912  30.138  1.00  0.00     0.014 A 
ATOM     35  C   UNL A   1      35.659  34.241  28.346  1.00  0.00     0.014 A 
ATOM     36  C   UNL A   1      35.987  32.473  30.472  1.00  0.00     0.010 A 
ATOM     37  C   UNL A   1      36.913  33.739  28.618  1.00  0.00     0.010 A 
ATOM     38  C   UNL A   1      37.086  32.875  29.695  1.00  0.00    -0.014 A 
BRANCH  38  39
ATOM     39  C   UNL A   1      38.386  32.226  29.864  1.00  0.00     0.031 A 
ATOM     40  C   UNL A   1      38.397  30.814  29.400  1.00  0.00     0.074 A 
ATOM     41  C   UNL A   1      39.524  32.878  30.192  1.00  0.00     0.049 A 
ATOM     42  N   UNL A   1      38.486  29.759  30.138  1.00  0.00    -0.248 NA
ATOM     43  C   UNL A   1      38.077  30.520  27.993  1.00  0.00     0.031 C 
ATOM     44  C   UNL A   1      39.692  34.310  30.445  1.00  0.00     0.029 A 
ATOM     45  N   UNL A   1      40.805  32.411  30.262  1.00  0.00    -0.354 N 
ATOM     46  C   UNL A   1      38.520  28.682  29.261  1.00  0.00     0.074 A 
ATOM     47  C   UNL A   1      38.025  29.187  28.011  1.00  0.00     0.031 C 
ATOM     48  C   UNL A   1      41.007  34.625  30.409  1.00  0.00     0.029 A 
ATOM     49  C   UNL A   1      41.787  33.406  30.259  1.00  0.00     0.049 A 
ATOM     50  H   UNL A   1      41.020  31.452  30.310  1.00  0.00     0.167 HD
ATOM     51  C   UNL A   1      39.214  27.553  29.581  1.00  0.00     0.034 A 
ATOM     52  C   UNL A   1      43.136  33.250  30.120  1.00  0.00     0.034 A 
ATOM     53  C   UNL A   1      39.545  27.547  30.994  1.00  0.00     0.049 A 
ATOM     54  C   UNL A   1      43.440  31.863  30.552  1.00  0.00     0.074 A 
ATOM     55  C   UNL A   1      38.803  27.644  32.158  1.00  0.00     0.029 A 
ATOM     56  N   UNL A   1      40.841  27.850  31.358  1.00  0.00    -0.354 N 
ATOM     57  N   UNL A   1      43.285  31.458  31.784  1.00  0.00    -0.248 NA
ATOM     58  C   UNL A   1      43.420  30.807  29.550  1.00  0.00     0.031 C 
ATOM     59  C   UNL A   1      39.572  28.488  33.011  1.00  0.00     0.029 A 
ATOM     60  C   UNL A   1      40.786  28.764  32.380  1.00  0.00     0.049 A 
ATOM     61  H   UNL A   1      41.658  27.477  30.954  1.00  0.00     0.167 HD
ATOM     62  C   UNL A   1      42.676  30.218  31.671  1.00  0.00     0.074 A 
ATOM     63  C   UNL A   1      42.890  29.819  30.280  1.00  0.00     0.031 C 
ATOM     64  C   UNL A   1      41.802  29.773  32.623  1.00  0.00     0.034 A 
BRANCH  51  65
ATOM     65  C   UNL A   1      39.951  26.671  28.594  1.00  0.00     0.023 A 
ATOM     66  C   UNL A   1      41.103  27.224  28.000  1.00  0.00     0.031 A 
ATOM     67  C   UNL A   1      39.455  25.499  27.982  1.00  0.00     0.131 A 
ATOM     68  C   UNL A   1      41.602  26.727  26.786  1.00  0.00     0.055 A 
ATOM     69  C   UNL A   1      40.002  24.963  26.812  1.00  0.00     0.041 A 
ATOM     70  F   UNL A   1      38.371  24.850  28.419  1.00  0.00    -0.206 F 
ATOM     71  C   UNL A   1      41.056  25.601  26.182  1.00  0.00     0.022 A 
BRANCH  68  72
ATOM     72  S   UNL A   1      42.842  27.715  25.913  1.00  0.00     0.124 S 
ATOM     73  O   UNL A   1      42.944  28.878  26.787  1.00  0.00    -0.237 OA
ATOM     74  O   UNL A   1      43.988  26.813  25.902  1.00  0.00    -0.237 OA
ATOM     75  O   UNL A   1      42.225  27.959  24.612  1.00  0.00    -0.744 OA
ENDBRANCH  68  72
ENDBRANCH  51  65
BRANCH  52  76
ATOM     76  C   UNL A   1      44.123  34.137  29.424  1.00  0.00     0.023 A 
ATOM     77  C   UNL A   1      44.801  33.764  28.236  1.00  0.00     0.031 A 
ATOM     78  C   UNL A   1      44.226  35.498  29.793  1.00  0.00     0.131 A 
ATOM     79  C   UNL A   1      45.520  34.727  27.481  1.00  0.00     0.055 A 
ATOM     80  C   UNL A   1      44.936  36.441  29.046  1.00  0.00     0.041 A 
ATOM     81  F   UNL A   1      43.561  35.987  30.851  1.00  0.00    -0.206 F 
ATOM     82  C   UNL A   1      45.574  36.064  27.879  1.00  0.00     0.022 A 
BRANCH  79  83
ATOM     83  S   UNL A   1      46.315  34.290  25.895  1.00  0.00     0.124 S 
ATOM     84  O   UNL A   1      46.722  32.908  26.121  1.00  0.00    -0.237 OA
ATOM     85  O   UNL A   1      45.244  34.504  24.930  1.00  0.00    -0.237 OA
ATOM     86  O   UNL A   1      47.422  35.244  25.795  1.00  0.00    -0.744 OA
ENDBRANCH  79  83
ENDBRANCH  52  76
BRANCH  64  87
ATOM     87  C   UNL A   1      41.733  30.501  33.952  1.00  0.00     0.023 A 
ATOM     88  C   UNL A   1      40.928  31.632  34.223  1.00  0.00     0.031 A 
ATOM     89  C   UNL A   1      42.431  29.929  35.031  1.00  0.00     0.131 A 
ATOM     90  C   UNL A   1      40.858  32.152  35.532  1.00  0.00     0.055 A 
ATOM     91  C   UNL A   1      42.336  30.426  36.328  1.00  0.00     0.041 A 
ATOM     92  F   UNL A   1      43.194  28.838  34.846  1.00  0.00    -0.206 F 
ATOM     93  C   UNL A   1      41.553  31.545  36.583  1.00  0.00     0.022 A 
BRANCH  90  94
ATOM     94  S   UNL A   1      39.875  33.642  35.893  1.00  0.00     0.124 S 
ATOM     95  O   UNL A   1      40.705  34.730  35.389  1.00  0.00    -0.237 OA
ATOM     96  O   UNL A   1      38.636  33.392  35.162  1.00  0.00    -0.237 OA
ATOM     97  O   UNL A   1      39.733  33.612  37.351  1.00  0.00    -0.744 OA
ENDBRANCH  90  94
ENDBRANCH  64  87
ENDBRANCH  38  39
ENDBRANCH  30  33
ENDBRANCH  28  29
ENDBRANCH  27  28
ENDBRANCH   1  27
TORSDOF 18
ENDMDL
MODEL 3
REMARK VINA RESULT:     -12.3      2.733      8.200
REMARK SMILES C[C@H]1OCC[C@@H]1C(=O)Nc1sc2c(c1C(=O)NCCCCCCNC(=O)c1ccc(-c3c4nc(c(-c5cc(S(=O)(=O)[O-])ccc5F)c5ccc([nH]5)c(-c5cc(S(=O)(=O)[O-])ccc5F)c5nc(c(-c6cc(S(=O)(=O)[O-])ccc6F)c6ccc3[nH]6)C=C5)C=C4)cc1)CCC2
REMARK SMILES IDX 21 1 20 2 19 3 18 4 17 5 15 6 16 7 14 9 10 10 11 11 12 12
REMARK SMILES IDX 13 13 92 14 90 15 91 16 9 17 7 18 8 19 6 21 1 22 2 23 3 24
REMARK SMILES IDX 4 25 5 26 22 27 23 28 24 29 25 30 26 32 27 33 28 34 89 35
REMARK SMILES IDX 29 36 88 37 30 38 31 39 32 40 82 41 33 42 87 43 81 44 83 45
REMARK SMILES IDX 34 46 86 47 80 48 79 49 35 51 67 52 47 53 66 54 48 55 51 56
REMARK SMILES IDX 65 57 84 58 49 59 50 60 64 62 85 63 52 64 36 65 37 66 45 67
REMARK SMILES IDX 38 68 44 69 46 70 43 71 39 72 40 73 41 74 42 75 68 76 69 77
REMARK SMILES IDX 77 78 70 79 76 80 78 81 75 82 71 83 72 84 73 85 74 86 53 87
REMARK SMILES IDX 54 88 62 89 55 90 61 91 63 92 60 93 56 94 57 95 58 96 59 97
REMARK H PARENT 17 8 9 20 24 31 83 50 51 61
REMARK Flexibility Score: inf
ROOT
ATOM      1  C   UNL A   1      36.386  20.565  25.029  1.00  0.00     0.002 C 
ENDROOT
BRANCH   1   2
ATOM      2  C   UNL A   1      36.457  22.074  24.734  1.00  0.00     0.002 C 
BRANCH   2   3
ATOM      3  C   UNL A   1      36.340  22.971  25.972  1.00  0.00     0.021 C 
BRANCH   3   4
ATOM      4  C   UNL A   1      35.723  24.335  25.677  1.00  0.00     0.116 C 
BRANCH   4   5
ATOM      5  N   UNL A   1      35.139  24.463  24.372  1.00  0.00    -0.352 N 
ATOM      6  C   UNL A   1      34.212  25.323  23.848  1.00  0.00     0.254 C 
ATOM      7  O   UNL A   1      34.293  25.453  22.621  1.00  0.00    -0.269 OA
ATOM      8  H   UNL A   1      35.470  23.798  23.725  1.00  0.00     0.163 HD
BRANCH   6   9
ATOM      9  C   UNL A   1      33.180  26.048  24.608  1.00  0.00     0.078 A 
ATOM     10  C   UNL A   1      31.824  25.791  24.346  1.00  0.00     0.108 A 
ATOM     11  S   UNL A   1      30.772  27.056  24.827  1.00  0.00    -0.122 S 
ATOM     12  C   UNL A   1      32.005  27.747  25.701  1.00  0.00     0.011 A 
ATOM     13  C   UNL A   1      33.225  27.126  25.568  1.00  0.00    -0.019 A 
ATOM     14  C   UNL A   1      32.000  28.967  26.541  1.00  0.00     0.047 C 
ATOM     15  C   UNL A   1      34.220  27.886  26.383  1.00  0.00     0.038 C 
ATOM     16  C   UNL A   1      33.351  28.818  27.274  1.00  0.00     0.010 C 
BRANCH  10  17
ATOM     17  N   UNL A   1      31.139  24.840  23.627  1.00  0.00    -0.317 N 
ATOM     18  C   UNL A   1      30.803  23.560  23.931  1.00  0.00     0.230 C 
ATOM     19  O   UNL A   1      30.207  22.931  23.041  1.00  0.00    -0.274 OA
ATOM     20  H   UNL A   1      30.841  25.140  22.738  1.00  0.00     0.170 HD
BRANCH  18  21
ATOM     21  C   UNL A   1      30.965  22.881  25.288  1.00  0.00     0.110 C 
ATOM     22  C   UNL A   1      29.397  22.699  27.267  1.00  0.00     0.039 C 
ATOM     23  C   UNL A   1      30.305  23.616  26.447  1.00  0.00     0.127 C 
ATOM     24  O   UNL A   1      31.372  24.075  27.288  1.00  0.00    -0.378 OA
ATOM     25  C   UNL A   1      32.477  23.189  27.117  1.00  0.00     0.161 C 
ATOM     26  C   UNL A   1      32.373  22.584  25.737  1.00  0.00     0.044 C 
ENDBRANCH  18  21
ENDBRANCH  10  17
ENDBRANCH   6   9
ENDBRANCH   4   5
ENDBRANCH   3   4
ENDBRANCH   2   3
ENDBRANCH   1   2
BRANCH   1  27
ATOM     27  C   UNL A   1      37.706  19.796  24.862  1.00  0.00     0.021 C 
BRANCH  27  28
ATOM     28  C   UNL A   1      38.823  20.320  25.753  1.00  0.00     0.116 C 
BRANCH  28  29
ATOM     29  N   UNL A   1      39.938  19.388  25.790  1.00  0.00    -0.352 N 
ATOM     30  C   UNL A   1      41.281  19.654  25.934  1.00  0.00     0.251 C 
ATOM     31  H   UNL A   1      39.700  18.437  25.698  1.00  0.00     0.163 HD
ATOM     32  O   UNL A   1      42.103  18.840  25.540  1.00  0.00    -0.269 OA
BRANCH  30  33
ATOM     33  C   UNL A   1      41.712  20.920  26.560  1.00  0.00     0.039 A 
ATOM     34  C   UNL A   1      42.095  21.998  25.758  1.00  0.00     0.014 A 
ATOM     35  C   UNL A   1      41.774  21.017  27.952  1.00  0.00     0.014 A 
ATOM     36  C   UNL A   1      42.477  23.193  26.362  1.00  0.00     0.010 A 
ATOM     37  C   UNL A   1      42.066  22.224  28.551  1.00  0.00     0.010 A 
ATOM     38  C   UNL A   1      42.442  23.307  27.762  1.00  0.00    -0.014 A 
BRANCH  38  39
ATOM     39  C   UNL A   1      42.585  24.615  28.399  1.00  0.00     0.031 A 
ATOM     40  C   UNL A   1      41.384  25.475  28.240  1.00  0.00     0.074 A 
ATOM     41  C   UNL A   1      43.593  24.947  29.237  1.00  0.00     0.049 A 
ATOM     42  N   UNL A   1      41.288  26.542  27.521  1.00  0.00    -0.248 NA
ATOM     43  C   UNL A   1      40.091  25.005  28.767  1.00  0.00     0.031 C 
ATOM     44  C   UNL A   1      44.714  24.107  29.663  1.00  0.00     0.029 A 
ATOM     45  N   UNL A   1      43.771  26.079  29.980  1.00  0.00    -0.354 N 
ATOM     46  C   UNL A   1      40.006  27.033  27.734  1.00  0.00     0.074 A 
ATOM     47  C   UNL A   1      39.262  25.938  28.292  1.00  0.00     0.031 C 
ATOM     48  C   UNL A   1      45.311  24.660  30.743  1.00  0.00     0.029 A 
ATOM     49  C   UNL A   1      44.703  25.955  31.014  1.00  0.00     0.049 A 
ATOM     50  H   UNL A   1      43.282  26.914  29.801  1.00  0.00     0.167 HD
ATOM     51  C   UNL A   1      39.763  28.373  27.686  1.00  0.00     0.034 A 
ATOM     52  C   UNL A   1      44.946  26.832  32.031  1.00  0.00     0.034 A 
ATOM     53  C   UNL A   1      40.877  29.067  27.067  1.00  0.00     0.049 A 
ATOM     54  C   UNL A   1      44.497  28.162  31.549  1.00  0.00     0.074 A 
ATOM     55  C   UNL A   1      41.529  28.954  25.853  1.00  0.00     0.029 A 
ATOM     56  N   UNL A   1      41.746  29.757  27.888  1.00  0.00    -0.354 N 
ATOM     57  N   UNL A   1      45.077  28.786  30.559  1.00  0.00    -0.248 NA
ATOM     58  C   UNL A   1      43.121  28.561  31.805  1.00  0.00     0.031 C 
ATOM     59  C   UNL A   1      42.911  29.106  26.164  1.00  0.00     0.029 A 
ATOM     60  C   UNL A   1      43.025  29.422  27.520  1.00  0.00     0.049 A 
ATOM     61  H   UNL A   1      41.493  30.378  28.609  1.00  0.00     0.167 HD
ATOM     62  C   UNL A   1      44.032  29.271  29.789  1.00  0.00     0.074 A 
ATOM     63  C   UNL A   1      42.859  29.204  30.661  1.00  0.00     0.031 C 
ATOM     64  C   UNL A   1      44.153  29.393  28.433  1.00  0.00     0.034 A 
BRANCH  51  65
ATOM     65  C   UNL A   1      38.751  29.109  28.541  1.00  0.00     0.023 A 
ATOM     66  C   UNL A   1      39.037  29.192  29.918  1.00  0.00     0.031 A 
ATOM     67  C   UNL A   1      37.429  29.447  28.174  1.00  0.00     0.131 A 
ATOM     68  C   UNL A   1      38.021  29.428  30.857  1.00  0.00     0.055 A 
ATOM     69  C   UNL A   1      36.437  29.756  29.109  1.00  0.00     0.041 A 
ATOM     70  F   UNL A   1      36.993  29.421  26.910  1.00  0.00    -0.206 F 
ATOM     71  C   UNL A   1      36.718  29.706  30.463  1.00  0.00     0.022 A 
BRANCH  68  72
ATOM     72  S   UNL A   1      38.403  29.152  32.604  1.00  0.00     0.124 S 
ATOM     73  O   UNL A   1      38.426  30.521  33.108  1.00  0.00    -0.237 OA
ATOM     74  O   UNL A   1      37.278  28.327  33.029  1.00  0.00    -0.237 OA
ATOM     75  O   UNL A   1      39.696  28.475  32.564  1.00  0.00    -0.744 OA
ENDBRANCH  68  72
ENDBRANCH  51  65
BRANCH  52  76
ATOM     76  C   UNL A   1      45.318  26.549  33.454  1.00  0.00     0.023 A 
ATOM     77  C   UNL A   1      44.385  26.578  34.522  1.00  0.00     0.031 A 
ATOM     78  C   UNL A   1      46.581  25.986  33.751  1.00  0.00     0.131 A 
ATOM     79  C   UNL A   1      44.729  26.053  35.796  1.00  0.00     0.055 A 
ATOM     80  C   UNL A   1      46.913  25.472  35.008  1.00  0.00     0.041 A 
ATOM     81  F   UNL A   1      47.516  25.828  32.803  1.00  0.00    -0.206 F 
ATOM     82  C   UNL A   1      45.984  25.490  36.033  1.00  0.00     0.022 A 
BRANCH  79  83
ATOM     83  S   UNL A   1      43.510  25.988  37.156  1.00  0.00     0.124 S 
ATOM     84  O   UNL A   1      43.587  27.336  37.708  1.00  0.00    -0.237 OA
ATOM     85  O   UNL A   1      42.276  25.638  36.464  1.00  0.00    -0.237 OA
ATOM     86  O   UNL A   1      44.033  24.938  38.032  1.00  0.00    -0.744 OA
ENDBRANCH  79  83
ENDBRANCH  52  76
BRANCH  64  87
ATOM     87  C   UNL A   1      45.532  29.290  27.809  1.00  0.00     0.023 A 
ATOM     88  C   UNL A   1      46.488  30.331  27.766  1.00  0.00     0.031 A 
ATOM     89  C   UNL A   1      45.933  28.022  27.352  1.00  0.00     0.131 A 
ATOM     90  C   UNL A   1      47.783  30.080  27.265  1.00  0.00     0.055 A 
ATOM     91  C   UNL A   1      47.221  27.770  26.886  1.00  0.00     0.041 A 
ATOM     92  F   UNL A   1      45.080  26.983  27.390  1.00  0.00    -0.206 F 
ATOM     93  C   UNL A   1      48.151  28.802  26.834  1.00  0.00     0.022 A 
BRANCH  90  94
ATOM     94  S   UNL A   1      49.012  31.420  27.144  1.00  0.00     0.124 S 
ATOM     95  O   UNL A   1      48.311  32.462  26.403  1.00  0.00    -0.237 OA
ATOM     96  O   UNL A   1      49.301  31.715  28.545  1.00  0.00    -0.237 OA
ATOM     97  O   UNL A   1      50.121  30.799  26.416  1.00  0.00    -0.744 OA
ENDBRANCH  90  94
ENDBRANCH  64  87
ENDBRANCH  38  39
ENDBRANCH  30  33
ENDBRANCH  28  29
ENDBRANCH  27  28
ENDBRANCH   1  27
TORSDOF 18
ENDMDL
