MODEL 1
REMARK VINA RESULT:     -11.1      0.000      0.000
REMARK SMILES O=C(NCCCCCCNC(=O)[C@H]1CS[C@@H](c2cccc(OCc3ccc(Cl)cc3Cl)c2)[NH2+]1)c1ccc(-c2c3nc(c(-c4cc(S(=O)(=O)[O-])ccc4F)c4ccc([nH]4)c(-c4cc(S(=O)(=O)[O-])ccc4F)c4nc(c(-c5cc(S(=O)(=O)[O-])ccc5F)c5ccc2[nH]5)C=C4)C=C3)cc1
REMARK SMILES IDX 7 1 6 2 5 3 4 4 3 5 1 6 2 7 34 9 35 10 96 11 36 12 95 13
REMARK SMILES IDX 37 14 38 15 39 16 89 17 40 18 94 19 88 20 90 21 41 22 93 23
REMARK SMILES IDX 87 24 86 25 42 27 74 28 54 29 73 30 55 31 58 32 72 33 91 34
REMARK SMILES IDX 56 35 57 36 71 38 92 39 59 40 43 41 44 42 52 43 45 44 51 45
REMARK SMILES IDX 53 46 50 47 46 48 47 49 48 50 49 51 75 52 76 53 84 54 77 55
REMARK SMILES IDX 83 56 85 57 82 58 78 59 79 60 80 61 81 62 60 63 61 64 69 65
REMARK SMILES IDX 62 66 68 67 70 68 67 69 63 70 64 71 65 72 66 73 8 74 9 75
REMARK SMILES IDX 10 76 11 77 12 79 13 80 14 81 33 82 15 83 16 84 17 87 18 88
REMARK SMILES IDX 32 89 19 90 21 91 20 92 22 93 23 94 24 95 25 96 30 97 26 98
REMARK SMILES IDX 29 99 31 100 27 101 28 102
REMARK H PARENT 3 8 90 26 58 37 10 78 33 85 33 86
REMARK Flexibility Score: inf
ROOT
ATOM      1  C   UNL A   1      38.259  23.404  26.388  1.00  0.00     0.002 C 
ENDROOT
BRANCH   1   2
ATOM      2  C   UNL A   1      39.614  22.707  26.220  1.00  0.00     0.002 C 
BRANCH   2   3
ATOM      3  C   UNL A   1      39.660  21.239  26.647  1.00  0.00     0.021 C 
BRANCH   3   4
ATOM      4  C   UNL A   1      39.692  20.232  25.503  1.00  0.00     0.116 C 
BRANCH   4   5
ATOM      5  N   UNL A   1      40.667  19.173  25.713  1.00  0.00    -0.352 N 
ATOM      6  O   UNL A   1      42.710  18.270  26.025  1.00  0.00    -0.269 OA
ATOM      7  C   UNL A   1      42.001  19.272  26.035  1.00  0.00     0.251 C 
ATOM      8  H   UNL A   1      40.323  18.256  25.611  1.00  0.00     0.163 HD
BRANCH   7   9
ATOM      9  C   UNL A   1      42.581  20.592  26.366  1.00  0.00     0.039 A 
ATOM     10  C   UNL A   1      42.673  21.017  27.693  1.00  0.00     0.014 A 
ATOM     11  C   UNL A   1      43.030  21.420  25.333  1.00  0.00     0.014 A 
ATOM     12  C   UNL A   1      43.064  22.322  27.974  1.00  0.00     0.010 A 
ATOM     13  C   UNL A   1      43.503  22.704  25.626  1.00  0.00     0.010 A 
ATOM     14  C   UNL A   1      43.485  23.182  26.946  1.00  0.00    -0.014 A 
BRANCH  14  15
ATOM     15  C   UNL A   1      43.911  24.567  27.285  1.00  0.00     0.031 A 
ATOM     16  C   UNL A   1      45.332  25.016  27.071  1.00  0.00     0.074 A 
ATOM     17  C   UNL A   1      42.991  25.437  27.747  1.00  0.00     0.049 A 
ATOM     18  N   UNL A   1      45.864  26.196  27.267  1.00  0.00    -0.248 NA
ATOM     19  C   UNL A   1      46.282  24.005  26.584  1.00  0.00     0.031 C 
ATOM     20  C   UNL A   1      41.585  25.113  28.004  1.00  0.00     0.029 A 
ATOM     21  N   UNL A   1      43.086  26.769  28.057  1.00  0.00    -0.354 N 
ATOM     22  C   UNL A   1      47.213  26.067  26.950  1.00  0.00     0.074 A 
ATOM     23  C   UNL A   1      47.422  24.682  26.581  1.00  0.00     0.031 C 
ATOM     24  C   UNL A   1      40.939  26.228  28.377  1.00  0.00     0.029 A 
ATOM     25  C   UNL A   1      41.892  27.330  28.447  1.00  0.00     0.049 A 
ATOM     26  H   UNL A   1      43.929  27.276  28.004  1.00  0.00     0.167 HD
ATOM     27  C   UNL A   1      48.183  27.017  26.958  1.00  0.00     0.034 A 
ATOM     28  C   UNL A   1      41.597  28.587  28.827  1.00  0.00     0.034 A 
ATOM     29  C   UNL A   1      47.956  28.398  27.318  1.00  0.00     0.049 A 
ATOM     30  C   UNL A   1      42.692  29.618  28.838  1.00  0.00     0.074 A 
ATOM     31  C   UNL A   1      48.859  29.448  27.329  1.00  0.00     0.029 A 
ATOM     32  N   UNL A   1      46.739  28.922  27.739  1.00  0.00    -0.354 N 
ATOM     33  N   UNL A   1      43.958  29.483  28.514  1.00  0.00    -0.248 NA
ATOM     34  C   UNL A   1      42.316  30.974  29.258  1.00  0.00     0.031 C 
ATOM     35  C   UNL A   1      48.207  30.588  27.813  1.00  0.00     0.029 A 
ATOM     36  C   UNL A   1      46.877  30.272  28.035  1.00  0.00     0.049 A 
ATOM     37  H   UNL A   1      45.901  28.411  27.815  1.00  0.00     0.167 HD
ATOM     38  C   UNL A   1      44.523  30.745  28.668  1.00  0.00     0.074 A 
ATOM     39  C   UNL A   1      43.455  31.628  29.093  1.00  0.00     0.031 C 
ATOM     40  C   UNL A   1      45.807  31.140  28.472  1.00  0.00     0.034 A 
BRANCH  27  41
ATOM     41  C   UNL A   1      49.588  26.580  26.608  1.00  0.00     0.023 A 
ATOM     42  C   UNL A   1      50.232  27.018  25.438  1.00  0.00     0.031 A 
ATOM     43  C   UNL A   1      50.282  25.689  27.446  1.00  0.00     0.131 A 
ATOM     44  C   UNL A   1      51.497  26.507  25.100  1.00  0.00     0.055 A 
ATOM     45  C   UNL A   1      51.573  25.247  27.146  1.00  0.00     0.041 A 
ATOM     46  F   UNL A   1      49.713  25.221  28.568  1.00  0.00    -0.206 F 
ATOM     47  C   UNL A   1      52.181  25.643  25.957  1.00  0.00     0.022 A 
BRANCH  44  48
ATOM     48  S   UNL A   1      52.168  26.875  23.455  1.00  0.00     0.124 S 
ATOM     49  O   UNL A   1      52.606  28.261  23.616  1.00  0.00    -0.237 OA
ATOM     50  O   UNL A   1      53.228  25.884  23.316  1.00  0.00    -0.237 OA
ATOM     51  O   UNL A   1      51.020  26.693  22.568  1.00  0.00    -0.744 OA
ENDBRANCH  44  48
ENDBRANCH  27  41
BRANCH  28  52
ATOM     52  C   UNL A   1      40.208  28.938  29.239  1.00  0.00     0.023 A 
ATOM     53  C   UNL A   1      39.814  28.878  30.585  1.00  0.00     0.031 A 
ATOM     54  C   UNL A   1      39.247  29.316  28.285  1.00  0.00     0.131 A 
ATOM     55  C   UNL A   1      38.484  29.152  30.936  1.00  0.00     0.055 A 
ATOM     56  C   UNL A   1      37.938  29.638  28.645  1.00  0.00     0.041 A 
ATOM     57  F   UNL A   1      39.575  29.396  26.986  1.00  0.00    -0.206 F 
ATOM     58  C   UNL A   1      37.547  29.545  29.977  1.00  0.00     0.022 A 
BRANCH  55  59
ATOM     59  S   UNL A   1      37.975  28.916  32.660  1.00  0.00     0.124 S 
ATOM     60  O   UNL A   1      38.954  29.728  33.373  1.00  0.00    -0.237 OA
ATOM     61  O   UNL A   1      36.608  29.426  32.644  1.00  0.00    -0.237 OA
ATOM     62  O   UNL A   1      38.097  27.473  32.857  1.00  0.00    -0.744 OA
ENDBRANCH  55  59
ENDBRANCH  28  52
BRANCH  40  63
ATOM     63  C   UNL A   1      46.104  32.605  28.674  1.00  0.00     0.023 A 
ATOM     64  C   UNL A   1      45.908  33.548  27.650  1.00  0.00     0.031 A 
ATOM     65  C   UNL A   1      46.630  33.055  29.897  1.00  0.00     0.131 A 
ATOM     66  C   UNL A   1      46.298  34.882  27.845  1.00  0.00     0.055 A 
ATOM     67  C   UNL A   1      46.959  34.395  30.107  1.00  0.00     0.041 A 
ATOM     68  F   UNL A   1      46.839  32.197  30.909  1.00  0.00    -0.206 F 
ATOM     69  C   UNL A   1      46.809  35.314  29.073  1.00  0.00     0.022 A 
BRANCH  66  70
ATOM     70  S   UNL A   1      46.233  36.024  26.437  1.00  0.00     0.124 S 
ATOM     71  O   UNL A   1      46.342  35.113  25.301  1.00  0.00    -0.237 OA
ATOM     72  O   UNL A   1      44.935  36.666  26.617  1.00  0.00    -0.237 OA
ATOM     73  O   UNL A   1      47.389  36.894  26.647  1.00  0.00    -0.744 OA
ENDBRANCH  66  70
ENDBRANCH  40  63
ENDBRANCH  14  15
ENDBRANCH   7   9
ENDBRANCH   4   5
ENDBRANCH   3   4
ENDBRANCH   2   3
ENDBRANCH   1   2
BRANCH   1  74
ATOM     74  C   UNL A   1      37.195  23.047  25.344  1.00  0.00     0.021 C 
BRANCH  74  75
ATOM     75  C   UNL A   1      36.084  22.131  25.853  1.00  0.00     0.116 C 
BRANCH  75  76
ATOM     76  N   UNL A   1      36.225  20.782  25.326  1.00  0.00    -0.351 N 
ATOM     77  C   UNL A   1      35.292  19.862  24.938  1.00  0.00     0.279 C 
ATOM     78  H   UNL A   1      37.156  20.479  25.232  1.00  0.00     0.163 HD
ATOM     79  O   UNL A   1      35.696  18.733  24.646  1.00  0.00    -0.268 OA
BRANCH  77  80
ATOM     80  C   UNL A   1      33.796  20.211  24.848  1.00  0.00     0.283 C 
ATOM     81  C   UNL A   1      33.192  20.569  26.202  1.00  0.00     0.151 C 
ATOM     82  N   UNL A   1      33.584  21.260  23.829  1.00  0.00    -0.321 N 
ATOM     83  S   UNL A   1      32.154  22.022  25.923  1.00  0.00    -0.088 SA
ATOM     84  C   UNL A   1      32.344  21.975  24.132  1.00  0.00     0.274 C 
ATOM     85  H   UNL A   1      33.515  20.830  22.907  1.00  0.00     0.348 HD
ATOM     86  H   UNL A   1      34.369  21.910  23.837  1.00  0.00     0.348 HD
BRANCH  84  87
ATOM     87  C   UNL A   1      32.357  23.305  23.399  1.00  0.00     0.024 A 
ATOM     88  C   UNL A   1      33.190  23.605  22.309  1.00  0.00     0.011 A 
ATOM     89  C   UNL A   1      31.353  24.235  23.743  1.00  0.00     0.057 A 
ATOM     90  C   UNL A   1      33.030  24.796  21.598  1.00  0.00     0.004 A 
ATOM     91  C   UNL A   1      31.144  25.390  22.990  1.00  0.00     0.120 A 
ATOM     92  C   UNL A   1      32.007  25.681  21.935  1.00  0.00     0.046 A 
BRANCH  91  93
ATOM     93  O   UNL A   1      30.075  26.235  23.107  1.00  0.00    -0.489 OA
BRANCH  93  94
ATOM     94  C   UNL A   1      29.795  26.842  24.373  1.00  0.00     0.267 C 
BRANCH  94  95
ATOM     95  C   UNL A   1      30.951  27.553  25.068  1.00  0.00     0.008 A 
ATOM     96  C   UNL A   1      31.455  27.124  26.309  1.00  0.00     0.010 A 
ATOM     97  C   UNL A   1      31.584  28.650  24.454  1.00  0.00     0.049 A 
ATOM     98  C   UNL A   1      32.569  27.733  26.893  1.00  0.00     0.021 A 
ATOM     99  C   UNL A   1      32.683  29.281  25.049  1.00  0.00     0.041 A 
ATOM    100  Cl  UNL A   1      31.044  29.278  22.933  1.00  0.00    -0.084 Cl
ATOM    101  C   UNL A   1      33.177  28.809  26.260  1.00  0.00     0.042 A 
ATOM    102  Cl  UNL A   1      34.547  29.564  26.979  1.00  0.00    -0.084 Cl
ENDBRANCH  94  95
ENDBRANCH  93  94
ENDBRANCH  91  93
ENDBRANCH  84  87
ENDBRANCH  77  80
ENDBRANCH  75  76
ENDBRANCH  74  75
ENDBRANCH   1  74
TORSDOF 20
ENDMDL
MODEL 2
REMARK VINA RESULT:     -10.9      6.150     11.803
REMARK SMILES O=C(NCCCCCCNC(=O)[C@H]1CS[C@@H](c2cccc(OCc3ccc(Cl)cc3Cl)c2)[NH2+]1)c1ccc(-c2c3nc(c(-c4cc(S(=O)(=O)[O-])ccc4F)c4ccc([nH]4)c(-c4cc(S(=O)(=O)[O-])ccc4F)c4nc(c(-c5cc(S(=O)(=O)[O-])ccc5F)c5ccc2[nH]5)C=C4)C=C3)cc1
REMARK SMILES IDX 7 1 6 2 5 3 4 4 3 5 1 6 2 7 34 9 35 10 96 11 36 12 95 13
REMARK SMILES IDX 37 14 38 15 39 16 89 17 40 18 94 19 88 20 90 21 41 22 93 23
REMARK SMILES IDX 87 24 86 25 42 27 74 28 54 29 73 30 55 31 58 32 72 33 91 34
REMARK SMILES IDX 56 35 57 36 71 38 92 39 59 40 43 41 44 42 52 43 45 44 51 45
REMARK SMILES IDX 53 46 50 47 46 48 47 49 48 50 49 51 75 52 76 53 84 54 77 55
REMARK SMILES IDX 83 56 85 57 82 58 78 59 79 60 80 61 81 62 60 63 61 64 69 65
REMARK SMILES IDX 62 66 68 67 70 68 67 69 63 70 64 71 65 72 66 73 8 74 9 75
REMARK SMILES IDX 10 76 11 77 12 79 13 80 14 81 33 82 15 83 16 84 17 87 18 88
REMARK SMILES IDX 32 89 19 90 21 91 20 92 22 93 23 94 24 95 25 96 30 97 26 98
REMARK SMILES IDX 29 99 31 100 27 101 28 102
REMARK H PARENT 3 8 90 26 58 37 10 78 33 85 33 86
REMARK Flexibility Score: inf
ROOT
ATOM      1  C   UNL A   1      34.012  31.517  28.398  1.00  0.00     0.002 C 
ENDROOT
BRANCH   1   2
ATOM      2  C   UNL A   1      33.816  32.934  27.847  1.00  0.00     0.002 C 
BRANCH   2   3
ATOM      3  C   UNL A   1      34.876  33.957  28.261  1.00  0.00     0.021 C 
BRANCH   3   4
ATOM      4  C   UNL A   1      34.386  35.397  28.351  1.00  0.00     0.116 C 
BRANCH   4   5
ATOM      5  N   UNL A   1      33.349  35.578  29.355  1.00  0.00    -0.352 N 
ATOM      6  O   UNL A   1      32.278  35.240  31.311  1.00  0.00    -0.269 OA
ATOM      7  C   UNL A   1      33.306  35.118  30.651  1.00  0.00     0.251 C 
ATOM      8  H   UNL A   1      32.568  36.104  29.066  1.00  0.00     0.163 HD
BRANCH   7   9
ATOM      9  C   UNL A   1      34.492  34.454  31.235  1.00  0.00     0.039 A 
ATOM     10  C   UNL A   1      35.694  35.150  31.388  1.00  0.00     0.014 A 
ATOM     11  C   UNL A   1      34.404  33.115  31.626  1.00  0.00     0.014 A 
ATOM     12  C   UNL A   1      36.841  34.468  31.781  1.00  0.00     0.010 A 
ATOM     13  C   UNL A   1      35.541  32.453  32.102  1.00  0.00     0.010 A 
ATOM     14  C   UNL A   1      36.780  33.112  32.144  1.00  0.00    -0.014 A 
BRANCH  14  15
ATOM     15  C   UNL A   1      38.024  32.418  32.575  1.00  0.00     0.031 A 
ATOM     16  C   UNL A   1      38.637  32.688  33.923  1.00  0.00     0.074 A 
ATOM     17  C   UNL A   1      38.575  31.500  31.755  1.00  0.00     0.049 A 
ATOM     18  N   UNL A   1      39.689  32.141  34.477  1.00  0.00    -0.248 NA
ATOM     19  C   UNL A   1      37.991  33.715  34.752  1.00  0.00     0.031 C 
ATOM     20  C   UNL A   1      38.075  31.160  30.419  1.00  0.00     0.029 A 
ATOM     21  N   UNL A   1      39.652  30.670  31.926  1.00  0.00    -0.354 N 
ATOM     22  C   UNL A   1      39.846  32.769  35.709  1.00  0.00     0.074 A 
ATOM     23  C   UNL A   1      38.798  33.765  35.803  1.00  0.00     0.031 C 
ATOM     24  C   UNL A   1      38.809  30.155  29.919  1.00  0.00     0.029 A 
ATOM     25  C   UNL A   1      39.867  29.821  30.865  1.00  0.00     0.049 A 
ATOM     26  H   UNL A   1      40.217  30.680  32.732  1.00  0.00     0.167 HD
ATOM     27  C   UNL A   1      40.772  32.532  36.672  1.00  0.00     0.034 A 
ATOM     28  C   UNL A   1      40.814  28.885  30.669  1.00  0.00     0.034 A 
ATOM     29  C   UNL A   1      41.805  31.527  36.568  1.00  0.00     0.049 A 
ATOM     30  C   UNL A   1      41.836  28.649  31.748  1.00  0.00     0.074 A 
ATOM     31  C   UNL A   1      42.772  31.182  37.497  1.00  0.00     0.029 A 
ATOM     32  N   UNL A   1      42.012  30.708  35.464  1.00  0.00    -0.354 N 
ATOM     33  N   UNL A   1      41.956  29.239  32.916  1.00  0.00    -0.248 NA
ATOM     34  C   UNL A   1      42.844  27.615  31.486  1.00  0.00     0.031 C 
ATOM     35  C   UNL A   1      43.598  30.202  36.934  1.00  0.00     0.029 A 
ATOM     36  C   UNL A   1      43.104  29.880  35.680  1.00  0.00     0.049 A 
ATOM     37  H   UNL A   1      41.462  30.714  34.647  1.00  0.00     0.167 HD
ATOM     38  C   UNL A   1      43.040  28.627  33.537  1.00  0.00     0.074 A 
ATOM     39  C   UNL A   1      43.523  27.612  32.623  1.00  0.00     0.031 C 
ATOM     40  C   UNL A   1      43.585  28.879  34.755  1.00  0.00     0.034 A 
BRANCH  27  41
ATOM     41  C   UNL A   1      40.735  33.408  37.904  1.00  0.00     0.023 A 
ATOM     42  C   UNL A   1      39.855  33.152  38.971  1.00  0.00     0.031 A 
ATOM     43  C   UNL A   1      41.572  34.533  38.000  1.00  0.00     0.131 A 
ATOM     44  C   UNL A   1      39.781  34.049  40.050  1.00  0.00     0.055 A 
ATOM     45  C   UNL A   1      41.551  35.378  39.112  1.00  0.00     0.041 A 
ATOM     46  F   UNL A   1      42.420  34.841  37.006  1.00  0.00    -0.206 F 
ATOM     47  C   UNL A   1      40.639  35.147  40.139  1.00  0.00     0.022 A 
BRANCH  44  48
ATOM     48  S   UNL A   1      38.446  33.839  41.260  1.00  0.00     0.124 S 
ATOM     49  O   UNL A   1      39.114  33.073  42.310  1.00  0.00    -0.237 OA
ATOM     50  O   UNL A   1      38.103  35.216  41.596  1.00  0.00    -0.237 OA
ATOM     51  O   UNL A   1      37.423  33.104  40.517  1.00  0.00    -0.744 OA
ENDBRANCH  44  48
ENDBRANCH  27  41
BRANCH  28  52
ATOM     52  C   UNL A   1      40.848  28.108  29.398  1.00  0.00     0.023 A 
ATOM     53  C   UNL A   1      41.770  28.416  28.385  1.00  0.00     0.031 A 
ATOM     54  C   UNL A   1      39.939  27.061  29.168  1.00  0.00     0.131 A 
ATOM     55  C   UNL A   1      41.737  27.711  27.173  1.00  0.00     0.055 A 
ATOM     56  C   UNL A   1      39.943  26.327  27.981  1.00  0.00     0.041 A 
ATOM     57  F   UNL A   1      39.042  26.722  30.107  1.00  0.00    -0.206 F 
ATOM     58  C   UNL A   1      40.840  26.659  26.970  1.00  0.00     0.022 A 
BRANCH  55  59
ATOM     59  S   UNL A   1      42.840  28.235  25.833  1.00  0.00     0.124 S 
ATOM     60  O   UNL A   1      42.673  29.684  25.861  1.00  0.00    -0.237 OA
ATOM     61  O   UNL A   1      44.130  27.729  26.287  1.00  0.00    -0.237 OA
ATOM     62  O   UNL A   1      42.289  27.565  24.657  1.00  0.00    -0.744 OA
ENDBRANCH  55  59
ENDBRANCH  28  52
BRANCH  40  63
ATOM     63  C   UNL A   1      44.738  28.002  35.176  1.00  0.00     0.023 A 
ATOM     64  C   UNL A   1      44.533  26.734  35.748  1.00  0.00     0.031 A 
ATOM     65  C   UNL A   1      46.060  28.461  35.039  1.00  0.00     0.131 A 
ATOM     66  C   UNL A   1      45.629  25.997  36.223  1.00  0.00     0.055 A 
ATOM     67  C   UNL A   1      47.150  27.697  35.458  1.00  0.00     0.041 A 
ATOM     68  F   UNL A   1      46.313  29.665  34.502  1.00  0.00    -0.206 F 
ATOM     69  C   UNL A   1      46.937  26.464  36.068  1.00  0.00     0.022 A 
BRANCH  66  70
ATOM     70  S   UNL A   1      45.315  24.468  37.147  1.00  0.00     0.124 S 
ATOM     71  O   UNL A   1      44.751  24.976  38.393  1.00  0.00    -0.237 OA
ATOM     72  O   UNL A   1      44.388  23.759  36.270  1.00  0.00    -0.237 OA
ATOM     73  O   UNL A   1      46.640  23.861  37.267  1.00  0.00    -0.744 OA
ENDBRANCH  66  70
ENDBRANCH  40  63
ENDBRANCH  14  15
ENDBRANCH   7   9
ENDBRANCH   4   5
ENDBRANCH   3   4
ENDBRANCH   2   3
ENDBRANCH   1   2
BRANCH   1  74
ATOM     74  C   UNL A   1      35.054  30.661  27.672  1.00  0.00     0.021 C 
BRANCH  74  75
ATOM     75  C   UNL A   1      34.485  29.451  26.935  1.00  0.00     0.116 C 
BRANCH  75  76
ATOM     76  N   UNL A   1      33.345  28.887  27.640  1.00  0.00    -0.351 N 
ATOM     77  C   UNL A   1      32.115  28.489  27.198  1.00  0.00     0.279 C 
ATOM     78  H   UNL A   1      33.484  28.771  28.608  1.00  0.00     0.163 HD
ATOM     79  O   UNL A   1      31.283  28.162  28.050  1.00  0.00    -0.268 OA
BRANCH  77  80
ATOM     80  C   UNL A   1      31.771  28.432  25.698  1.00  0.00     0.283 C 
ATOM     81  C   UNL A   1      32.666  29.332  24.853  1.00  0.00     0.151 C 
ATOM     82  N   UNL A   1      31.768  27.029  25.237  1.00  0.00    -0.321 N 
ATOM     83  S   UNL A   1      33.121  28.366  23.395  1.00  0.00    -0.088 SA
ATOM     84  C   UNL A   1      32.015  27.000  23.795  1.00  0.00     0.274 C 
ATOM     85  H   UNL A   1      30.862  26.605  25.437  1.00  0.00     0.348 HD
ATOM     86  H   UNL A   1      32.496  26.505  25.723  1.00  0.00     0.348 HD
BRANCH  84  87
ATOM     87  C   UNL A   1      32.467  25.603  23.405  1.00  0.00     0.024 A 
ATOM     88  C   UNL A   1      32.672  25.173  22.085  1.00  0.00     0.011 A 
ATOM     89  C   UNL A   1      32.854  24.741  24.453  1.00  0.00     0.057 A 
ATOM     90  C   UNL A   1      33.235  23.922  21.824  1.00  0.00     0.004 A 
ATOM     91  C   UNL A   1      33.482  23.523  24.196  1.00  0.00     0.120 A 
ATOM     92  C   UNL A   1      33.641  23.103  22.877  1.00  0.00     0.046 A 
BRANCH  91  93
ATOM     93  O   UNL A   1      34.082  22.724  25.129  1.00  0.00    -0.489 OA
BRANCH  93  94
ATOM     94  C   UNL A   1      35.144  21.851  24.727  1.00  0.00     0.267 C 
BRANCH  94  95
ATOM     95  C   UNL A   1      36.542  22.187  25.233  1.00  0.00     0.008 A 
ATOM     96  C   UNL A   1      36.890  23.479  25.668  1.00  0.00     0.010 A 
ATOM     97  C   UNL A   1      37.528  21.186  25.320  1.00  0.00     0.049 A 
ATOM     98  C   UNL A   1      38.149  23.752  26.209  1.00  0.00     0.021 A 
ATOM     99  C   UNL A   1      38.800  21.462  25.834  1.00  0.00     0.041 A 
ATOM    100  Cl  UNL A   1      37.223  19.563  24.801  1.00  0.00    -0.084 Cl
ATOM    101  C   UNL A   1      39.099  22.742  26.288  1.00  0.00     0.042 A 
ATOM    102  Cl  UNL A   1      40.653  23.075  26.948  1.00  0.00    -0.084 Cl
ENDBRANCH  94  95
ENDBRANCH  93  94
ENDBRANCH  91  93
ENDBRANCH  84  87
ENDBRANCH  77  80
ENDBRANCH  75  76
ENDBRANCH  74  75
ENDBRANCH   1  74
TORSDOF 20
ENDMDL
MODEL 3
REMARK VINA RESULT:     -10.8      5.582     13.337
REMARK SMILES O=C(NCCCCCCNC(=O)[C@H]1CS[C@@H](c2cccc(OCc3ccc(Cl)cc3Cl)c2)[NH2+]1)c1ccc(-c2c3nc(c(-c4cc(S(=O)(=O)[O-])ccc4F)c4ccc([nH]4)c(-c4cc(S(=O)(=O)[O-])ccc4F)c4nc(c(-c5cc(S(=O)(=O)[O-])ccc5F)c5ccc2[nH]5)C=C4)C=C3)cc1
REMARK SMILES IDX 7 1 6 2 5 3 4 4 3 5 1 6 2 7 34 9 35 10 96 11 36 12 95 13
REMARK SMILES IDX 37 14 38 15 39 16 89 17 40 18 94 19 88 20 90 21 41 22 93 23
REMARK SMILES IDX 87 24 86 25 42 27 74 28 54 29 73 30 55 31 58 32 72 33 91 34
REMARK SMILES IDX 56 35 57 36 71 38 92 39 59 40 43 41 44 42 52 43 45 44 51 45
REMARK SMILES IDX 53 46 50 47 46 48 47 49 48 50 49 51 75 52 76 53 84 54 77 55
REMARK SMILES IDX 83 56 85 57 82 58 78 59 79 60 80 61 81 62 60 63 61 64 69 65
REMARK SMILES IDX 62 66 68 67 70 68 67 69 63 70 64 71 65 72 66 73 8 74 9 75
REMARK SMILES IDX 10 76 11 77 12 79 13 80 14 81 33 82 15 83 16 84 17 87 18 88
REMARK SMILES IDX 32 89 19 90 21 91 20 92 22 93 23 94 24 95 25 96 30 97 26 98
REMARK SMILES IDX 29 99 31 100 27 101 28 102
REMARK H PARENT 3 8 90 26 58 37 10 78 33 85 33 86
REMARK Flexibility Score: inf
ROOT
ATOM      1  C   UNL A   1      48.722  37.097  27.953  1.00  0.00     0.002 C 
ENDROOT
BRANCH   1   2
ATOM      2  C   UNL A   1      50.193  37.465  28.179  1.00  0.00     0.002 C 
BRANCH   2   3
ATOM      3  C   UNL A   1      51.157  36.285  28.318  1.00  0.00     0.021 C 
BRANCH   3   4
ATOM      4  C   UNL A   1      50.603  35.081  29.070  1.00  0.00     0.116 C 
BRANCH   4   5
ATOM      5  N   UNL A   1      50.736  35.208  30.513  1.00  0.00    -0.352 N 
ATOM      6  O   UNL A   1      50.351  34.717  32.680  1.00  0.00    -0.269 OA
ATOM      7  C   UNL A   1      50.277  34.373  31.504  1.00  0.00     0.251 C 
ATOM      8  H   UNL A   1      51.224  36.005  30.823  1.00  0.00     0.163 HD
BRANCH   7   9
ATOM      9  C   UNL A   1      49.671  33.071  31.146  1.00  0.00     0.039 A 
ATOM     10  C   UNL A   1      50.375  31.881  31.338  1.00  0.00     0.014 A 
ATOM     11  C   UNL A   1      48.384  33.042  30.601  1.00  0.00     0.014 A 
ATOM     12  C   UNL A   1      49.861  30.687  30.843  1.00  0.00     0.010 A 
ATOM     13  C   UNL A   1      47.833  31.827  30.182  1.00  0.00     0.010 A 
ATOM     14  C   UNL A   1      48.583  30.643  30.260  1.00  0.00    -0.014 A 
BRANCH  14  15
ATOM     15  C   UNL A   1      48.058  29.345  29.755  1.00  0.00     0.031 A 
ATOM     16  C   UNL A   1      47.205  28.462  30.626  1.00  0.00     0.074 A 
ATOM     17  C   UNL A   1      48.318  28.989  28.481  1.00  0.00     0.049 A 
ATOM     18  N   UNL A   1      46.627  27.325  30.334  1.00  0.00    -0.248 NA
ATOM     19  C   UNL A   1      46.981  28.909  32.008  1.00  0.00     0.031 C 
ATOM     20  C   UNL A   1      49.142  29.759  27.545  1.00  0.00     0.029 A 
ATOM     21  N   UNL A   1      47.903  27.909  27.745  1.00  0.00    -0.354 N 
ATOM     22  C   UNL A   1      45.989  26.907  31.498  1.00  0.00     0.074 A 
ATOM     23  C   UNL A   1      46.283  27.900  32.511  1.00  0.00     0.031 C 
ATOM     24  C   UNL A   1      49.123  29.158  26.346  1.00  0.00     0.029 A 
ATOM     25  C   UNL A   1      48.342  27.930  26.442  1.00  0.00     0.049 A 
ATOM     26  H   UNL A   1      47.342  27.189  28.114  1.00  0.00     0.167 HD
ATOM     27  C   UNL A   1      45.224  25.804  31.700  1.00  0.00     0.034 A 
ATOM     28  C   UNL A   1      48.147  27.057  25.437  1.00  0.00     0.034 A 
ATOM     29  C   UNL A   1      44.931  24.827  30.676  1.00  0.00     0.049 A 
ATOM     30  C   UNL A   1      47.304  25.836  25.690  1.00  0.00     0.074 A 
ATOM     31  C   UNL A   1      44.143  23.692  30.764  1.00  0.00     0.029 A 
ATOM     32  N   UNL A   1      45.421  24.865  29.375  1.00  0.00    -0.354 N 
ATOM     33  N   UNL A   1      46.692  25.468  26.792  1.00  0.00    -0.248 NA
ATOM     34  C   UNL A   1      47.121  24.916  24.560  1.00  0.00     0.031 C 
ATOM     35  C   UNL A   1      44.205  23.014  29.541  1.00  0.00     0.029 A 
ATOM     36  C   UNL A   1      44.972  23.762  28.663  1.00  0.00     0.049 A 
ATOM     37  H   UNL A   1      46.001  25.573  29.012  1.00  0.00     0.167 HD
ATOM     38  C   UNL A   1      46.029  24.286  26.478  1.00  0.00     0.074 A 
ATOM     39  C   UNL A   1      46.301  24.016  25.080  1.00  0.00     0.031 C 
ATOM     40  C   UNL A   1      45.261  23.496  27.272  1.00  0.00     0.034 A 
BRANCH  27  41
ATOM     41  C   UNL A   1      44.690  25.573  33.096  1.00  0.00     0.023 A 
ATOM     42  C   UNL A   1      43.519  26.201  33.556  1.00  0.00     0.031 A 
ATOM     43  C   UNL A   1      45.379  24.734  33.989  1.00  0.00     0.131 A 
ATOM     44  C   UNL A   1      43.115  26.040  34.892  1.00  0.00     0.055 A 
ATOM     45  C   UNL A   1      44.928  24.513  35.292  1.00  0.00     0.041 A 
ATOM     46  F   UNL A   1      46.513  24.120  33.615  1.00  0.00    -0.206 F 
ATOM     47  C   UNL A   1      43.798  25.182  35.756  1.00  0.00     0.022 A 
BRANCH  44  48
ATOM     48  S   UNL A   1      41.770  27.082  35.521  1.00  0.00     0.124 S 
ATOM     49  O   UNL A   1      42.508  28.209  36.089  1.00  0.00    -0.237 OA
ATOM     50  O   UNL A   1      41.001  27.369  34.316  1.00  0.00    -0.237 OA
ATOM     51  O   UNL A   1      41.104  26.227  36.501  1.00  0.00    -0.744 OA
ENDBRANCH  44  48
ENDBRANCH  27  41
BRANCH  28  52
ATOM     52  C   UNL A   1      48.767  27.297  24.103  1.00  0.00     0.023 A 
ATOM     53  C   UNL A   1      50.120  27.003  23.870  1.00  0.00     0.031 A 
ATOM     54  C   UNL A   1      48.020  27.850  23.049  1.00  0.00     0.131 A 
ATOM     55  C   UNL A   1      50.694  27.300  22.625  1.00  0.00     0.055 A 
ATOM     56  C   UNL A   1      48.581  28.096  21.796  1.00  0.00     0.041 A 
ATOM     57  F   UNL A   1      46.721  28.143  23.219  1.00  0.00    -0.206 F 
ATOM     58  C   UNL A   1      49.930  27.831  21.582  1.00  0.00     0.022 A 
BRANCH  55  59
ATOM     59  S   UNL A   1      52.477  27.049  22.409  1.00  0.00     0.124 S 
ATOM     60  O   UNL A   1      52.512  26.124  21.281  1.00  0.00    -0.237 OA
ATOM     61  O   UNL A   1      52.943  28.405  22.141  1.00  0.00    -0.237 OA
ATOM     62  O   UNL A   1      52.900  26.488  23.690  1.00  0.00    -0.744 OA
ENDBRANCH  55  59
ENDBRANCH  28  52
BRANCH  40  63
ATOM     63  C   UNL A   1      44.628  22.292  26.620  1.00  0.00     0.023 A 
ATOM     64  C   UNL A   1      45.401  21.272  26.038  1.00  0.00     0.031 A 
ATOM     65  C   UNL A   1      43.227  22.186  26.546  1.00  0.00     0.131 A 
ATOM     66  C   UNL A   1      44.770  20.225  25.349  1.00  0.00     0.055 A 
ATOM     67  C   UNL A   1      42.605  21.110  25.913  1.00  0.00     0.041 A 
ATOM     68  F   UNL A   1      42.440  23.132  27.084  1.00  0.00    -0.206 F 
ATOM     69  C   UNL A   1      43.376  20.129  25.296  1.00  0.00     0.022 A 
BRANCH  66  70
ATOM     70  S   UNL A   1      45.797  19.047  24.428  1.00  0.00     0.124 S 
ATOM     71  O   UNL A   1      47.039  19.794  24.257  1.00  0.00    -0.237 OA
ATOM     72  O   UNL A   1      45.858  17.909  25.339  1.00  0.00    -0.237 OA
ATOM     73  O   UNL A   1      45.037  18.817  23.199  1.00  0.00    -0.744 OA
ENDBRANCH  66  70
ENDBRANCH  40  63
ENDBRANCH  14  15
ENDBRANCH   7   9
ENDBRANCH   4   5
ENDBRANCH   3   4
ENDBRANCH   2   3
ENDBRANCH   1   2
BRANCH   1  74
ATOM     74  C   UNL A   1      48.294  36.950  26.489  1.00  0.00     0.021 C 
BRANCH  74  75
ATOM     75  C   UNL A   1      48.473  35.548  25.910  1.00  0.00     0.116 C 
BRANCH  75  76
ATOM     76  N   UNL A   1      47.317  35.146  25.125  1.00  0.00    -0.351 N 
ATOM     77  C   UNL A   1      46.060  34.760  25.499  1.00  0.00     0.279 C 
ATOM     78  H   UNL A   1      47.465  35.152  24.152  1.00  0.00     0.163 HD
ATOM     79  O   UNL A   1      45.307  34.344  24.614  1.00  0.00    -0.268 OA
BRANCH  77  80
ATOM     80  C   UNL A   1      45.585  34.851  26.961  1.00  0.00     0.283 C 
ATOM     81  C   UNL A   1      44.190  35.451  27.091  1.00  0.00     0.151 C 
ATOM     82  N   UNL A   1      45.706  33.530  27.611  1.00  0.00    -0.321 N 
ATOM     83  S   UNL A   1      43.311  34.430  28.296  1.00  0.00    -0.088 SA
ATOM     84  C   UNL A   1      44.768  33.464  28.734  1.00  0.00     0.274 C 
ATOM     85  H   UNL A   1      46.658  33.403  27.953  1.00  0.00     0.348 HD
ATOM     86  H   UNL A   1      45.492  32.794  26.938  1.00  0.00     0.348 HD
BRANCH  84  87
ATOM     87  C   UNL A   1      44.552  32.007  29.102  1.00  0.00     0.024 A 
ATOM     88  C   UNL A   1      44.170  31.557  30.376  1.00  0.00     0.011 A 
ATOM     89  C   UNL A   1      44.585  31.069  28.048  1.00  0.00     0.057 A 
ATOM     90  C   UNL A   1      43.843  30.215  30.588  1.00  0.00     0.004 A 
ATOM     91  C   UNL A   1      44.190  29.746  28.241  1.00  0.00     0.120 A 
ATOM     92  C   UNL A   1      43.849  29.316  29.523  1.00  0.00     0.046 A 
BRANCH  91  93
ATOM     93  O   UNL A   1      43.981  28.824  27.253  1.00  0.00    -0.489 OA
BRANCH  93  94
ATOM     94  C   UNL A   1      43.887  27.437  27.595  1.00  0.00     0.267 C 
BRANCH  94  95
ATOM     95  C   UNL A   1      42.555  26.748  27.321  1.00  0.00     0.008 A 
ATOM     96  C   UNL A   1      42.141  26.409  26.019  1.00  0.00     0.010 A 
ATOM     97  C   UNL A   1      41.707  26.388  28.385  1.00  0.00     0.049 A 
ATOM     98  C   UNL A   1      40.958  25.702  25.791  1.00  0.00     0.021 A 
ATOM     99  C   UNL A   1      40.506  25.705  28.158  1.00  0.00     0.041 A 
ATOM    100  Cl  UNL A   1      42.100  26.765  30.028  1.00  0.00    -0.084 Cl
ATOM    101  C   UNL A   1      40.145  25.354  26.862  1.00  0.00     0.042 A 
ATOM    102  Cl  UNL A   1      38.684  24.488  26.584  1.00  0.00    -0.084 Cl
ENDBRANCH  94  95
ENDBRANCH  93  94
ENDBRANCH  91  93
ENDBRANCH  84  87
ENDBRANCH  77  80
ENDBRANCH  75  76
ENDBRANCH  74  75
ENDBRANCH   1  74
TORSDOF 20
ENDMDL
