MODEL 1
REMARK VINA RESULT:     -11.7      0.000      0.000
REMARK SMILES Cc1ccc(NS(=O)(=O)c2cc(C(=O)Nc3ccccc3C(=O)NCCCCCCNC(=O)c3ccc(-c4c5nc(c(-c6cc(S(=O)(=O)[O-])ccc6F)c6ccc([nH]6)c(-c6cc(S(=O)(=O)[O-])ccc6F)c6nc(c(-c7cc(S(=O)(=O)[O-])ccc7F)c7ccc4[nH]7)C=C6)C=C5)cc3)ccc2Br)cc1
REMARK SMILES IDX 26 1 25 2 24 3 22 4 23 5 21 7 16 8 17 9 18 10 20 11 19 12
REMARK SMILES IDX 15 13 13 14 14 15 12 17 10 18 11 19 99 20 98 21 100 22 97 23
REMARK SMILES IDX 7 24 8 25 9 26 6 27 5 29 1 30 2 31 3 32 102 33 4 34 101 35
REMARK SMILES IDX 27 36 28 37 29 38 30 39 31 40 32 41 33 43 34 44 35 45 96 46
REMARK SMILES IDX 36 47 95 48 37 49 38 50 39 51 89 52 40 53 94 54 88 55 90 56
REMARK SMILES IDX 41 57 93 58 87 59 86 60 42 62 74 63 54 64 73 65 55 66 58 67
REMARK SMILES IDX 72 68 91 69 56 70 57 71 71 73 92 74 59 75 43 76 44 77 52 78
REMARK SMILES IDX 45 79 51 80 53 81 50 82 46 83 47 84 48 85 49 86 75 87 76 88
REMARK SMILES IDX 84 89 77 90 83 91 85 92 82 93 78 94 79 95 80 96 81 97 60 98
REMARK SMILES IDX 61 99 69 100 62 101 68 102 70 103 67 104 63 105 64 106
REMARK SMILES IDX 65 107 66 108
REMARK H PARENT 24 6 15 16 6 28 31 42 90 61 58 72
REMARK Flexibility Score: inf
ROOT
ATOM      1  C   UNL A   1      37.323  30.528  32.054  1.00  0.00     0.021 C 
ENDROOT
BRANCH   1   2
ATOM      2  C   UNL A   1      36.236  30.251  31.045  1.00  0.00     0.116 C 
BRANCH   2   3
ATOM      3  N   UNL A   1      36.611  29.682  29.779  1.00  0.00    -0.352 N 
ATOM      4  C   UNL A   1      36.672  30.363  28.585  1.00  0.00     0.253 C 
ATOM      5  O   UNL A   1      37.241  29.895  27.607  1.00  0.00    -0.269 OA
ATOM      6  H   UNL A   1      36.845  28.725  29.765  1.00  0.00     0.163 HD
BRANCH   4   7
ATOM      7  C   UNL A   1      35.903  31.627  28.465  1.00  0.00     0.063 A 
ATOM      8  C   UNL A   1      34.152  31.548  27.993  1.00  0.00     0.054 A 
ATOM      9  C   UNL A   1      33.174  33.320  27.832  1.00  0.00     0.027 A 
ATOM     10  C   UNL A   1      34.034  34.843  28.283  1.00  0.00     0.002 A 
ATOM     11  C   UNL A   1      36.618  33.204  28.838  1.00  0.00     0.016 A 
ATOM     12  C   UNL A   1      35.714  34.735  28.774  1.00  0.00     0.001 A 
BRANCH   8  13
ATOM     13  N   UNL A   1      33.729  30.096  27.908  1.00  0.00    -0.321 N 
ATOM     14  C   UNL A   1      32.794  29.366  27.136  1.00  0.00     0.255 C 
ATOM     15  O   UNL A   1      32.770  28.139  27.283  1.00  0.00    -0.269 OA
ATOM     16  H   UNL A   1      34.220  29.525  28.542  1.00  0.00     0.170 HD
BRANCH  14  17
ATOM     17  C   UNL A   1      31.940  29.929  26.033  1.00  0.00     0.041 A 
ATOM     18  C   UNL A   1      30.785  29.310  23.970  1.00  0.00     0.102 A 
ATOM     19  C   UNL A   1      31.799  29.204  24.886  1.00  0.00     0.037 A 
ATOM     20  C   UNL A   1      30.055  30.477  23.976  1.00  0.00     0.038 A 
ATOM     21  C   UNL A   1      30.290  31.398  25.022  1.00  0.00     0.018 A 
ATOM     22  Br  UNL A   1      28.847  30.931  22.601  1.00  0.00    -0.049 Br
ATOM     23  C   UNL A   1      31.174  31.088  26.090  1.00  0.00     0.015 A 
BRANCH  18  24
ATOM     24  S   UNL A   1      30.396  27.784  23.134  1.00  0.00     0.263 S 
ATOM     25  O   UNL A   1      30.206  28.090  21.732  1.00  0.00    -0.201 OA
ATOM     26  O   UNL A   1      29.385  27.112  23.917  1.00  0.00    -0.201 OA
BRANCH  24  27
ATOM     27  N   UNL A   1      31.804  26.784  23.131  1.00  0.00    -0.280 N 
ATOM     28  H   UNL A   1      32.552  27.121  22.588  1.00  0.00     0.180 HD
BRANCH  27  29
ATOM     29  C   UNL A   1      32.067  25.460  23.841  1.00  0.00     0.049 A 
ATOM     30  C   UNL A   1      33.787  20.834  25.202  1.00  0.00     0.044 C 
ATOM     31  C   UNL A   1      33.316  22.244  24.990  1.00  0.00    -0.051 A 
ATOM     32  C   UNL A   1      34.406  23.474  24.304  1.00  0.00     0.005 A 
ATOM     33  C   UNL A   1      31.603  22.480  25.198  1.00  0.00     0.005 A 
ATOM     34  C   UNL A   1      33.842  25.062  23.741  1.00  0.00     0.027 A 
ATOM     35  C   UNL A   1      30.895  24.033  24.681  1.00  0.00     0.027 A 
ENDBRANCH  27  29
ENDBRANCH  24  27
ENDBRANCH  18  24
ENDBRANCH  14  17
ENDBRANCH   8  13
ENDBRANCH   4   7
ENDBRANCH   2   3
ENDBRANCH   1   2
BRANCH   1  36
ATOM     36  C   UNL A   1      38.150  31.769  31.801  1.00  0.00     0.002 C 
BRANCH  36  37
ATOM     37  C   UNL A   1      39.435  31.533  31.010  1.00  0.00     0.002 C 
BRANCH  37  38
ATOM     38  C   UNL A   1      40.689  32.196  31.565  1.00  0.00     0.021 C 
BRANCH  38  39
ATOM     39  C   UNL A   1      41.669  31.245  32.197  1.00  0.00     0.116 C 
BRANCH  39  40
ATOM     40  N   UNL A   1      41.243  30.757  33.485  1.00  0.00    -0.352 N 
ATOM     41  C   UNL A   1      40.614  29.564  33.779  1.00  0.00     0.251 C 
ATOM     42  H   UNL A   1      41.423  31.349  34.250  1.00  0.00     0.163 HD
ATOM     43  O   UNL A   1      39.964  29.429  34.815  1.00  0.00    -0.269 OA
BRANCH  41  44
ATOM     44  C   UNL A   1      40.936  28.355  32.964  1.00  0.00     0.039 A 
ATOM     45  C   UNL A   1      42.287  27.976  33.009  1.00  0.00     0.014 A 
ATOM     46  C   UNL A   1      40.176  28.032  31.852  1.00  0.00     0.014 A 
ATOM     47  C   UNL A   1      42.936  27.667  31.827  1.00  0.00     0.010 A 
ATOM     48  C   UNL A   1      40.823  27.949  30.658  1.00  0.00     0.010 A 
ATOM     49  C   UNL A   1      42.209  27.829  30.656  1.00  0.00    -0.014 A 
BRANCH  49  50
ATOM     50  C   UNL A   1      42.709  27.601  29.326  1.00  0.00     0.031 A 
ATOM     51  C   UNL A   1      43.087  26.184  29.137  1.00  0.00     0.074 A 
ATOM     52  C   UNL A   1      42.476  28.617  28.457  1.00  0.00     0.049 A 
ATOM     53  N   UNL A   1      43.931  25.732  28.292  1.00  0.00    -0.248 NA
ATOM     54  C   UNL A   1      42.593  25.101  30.018  1.00  0.00     0.031 C 
ATOM     55  C   UNL A   1      42.485  28.692  27.001  1.00  0.00     0.029 A 
ATOM     56  N   UNL A   1      42.360  29.967  28.830  1.00  0.00    -0.354 N 
ATOM     57  C   UNL A   1      43.679  24.374  28.186  1.00  0.00     0.074 A 
ATOM     58  C   UNL A   1      43.022  23.998  29.399  1.00  0.00     0.031 C 
ATOM     59  C   UNL A   1      42.781  29.957  26.630  1.00  0.00     0.029 A 
ATOM     60  C   UNL A   1      43.039  30.714  27.846  1.00  0.00     0.049 A 
ATOM     61  H   UNL A   1      41.895  30.320  29.623  1.00  0.00     0.167 HD
ATOM     62  C   UNL A   1      43.823  23.797  26.962  1.00  0.00     0.034 A 
ATOM     63  C   UNL A   1      44.234  31.287  28.190  1.00  0.00     0.034 A 
ATOM     64  C   UNL A   1      44.212  24.842  26.017  1.00  0.00     0.049 A 
ATOM     65  C   UNL A   1      45.357  30.491  27.545  1.00  0.00     0.074 A 
ATOM     66  C   UNL A   1      43.468  25.643  25.166  1.00  0.00     0.029 A 
ATOM     67  N   UNL A   1      45.407  25.505  26.239  1.00  0.00    -0.354 N 
ATOM     68  N   UNL A   1      45.308  29.205  27.287  1.00  0.00    -0.248 NA
ATOM     69  C   UNL A   1      46.525  31.144  26.966  1.00  0.00     0.031 C 
ATOM     70  C   UNL A   1      44.209  26.845  24.961  1.00  0.00     0.029 A 
ATOM     71  C   UNL A   1      45.380  26.774  25.700  1.00  0.00     0.049 A 
ATOM     72  H   UNL A   1      46.176  25.121  26.720  1.00  0.00     0.167 HD
ATOM     73  C   UNL A   1      46.337  28.877  26.438  1.00  0.00     0.074 A 
ATOM     74  C   UNL A   1      47.061  30.131  26.270  1.00  0.00     0.031 C 
ATOM     75  C   UNL A   1      46.533  27.641  25.875  1.00  0.00     0.034 A 
BRANCH  62  76
ATOM     76  C   UNL A   1      43.341  22.440  26.524  1.00  0.00     0.023 A 
ATOM     77  C   UNL A   1      44.258  21.625  25.829  1.00  0.00     0.031 A 
ATOM     78  C   UNL A   1      42.078  21.867  26.759  1.00  0.00     0.131 A 
ATOM     79  C   UNL A   1      43.923  20.340  25.380  1.00  0.00     0.055 A 
ATOM     80  C   UNL A   1      41.732  20.584  26.293  1.00  0.00     0.041 A 
ATOM     81  F   UNL A   1      41.138  22.491  27.480  1.00  0.00    -0.206 F 
ATOM     82  C   UNL A   1      42.658  19.812  25.601  1.00  0.00     0.022 A 
BRANCH  79  83
ATOM     83  S   UNL A   1      45.200  19.374  24.533  1.00  0.00     0.124 S 
ATOM     84  O   UNL A   1      44.683  19.313  23.169  1.00  0.00    -0.237 OA
ATOM     85  O   UNL A   1      46.392  20.191  24.735  1.00  0.00    -0.237 OA
ATOM     86  O   UNL A   1      45.196  18.102  25.252  1.00  0.00    -0.744 OA
ENDBRANCH  79  83
ENDBRANCH  62  76
BRANCH  63  87
ATOM     87  C   UNL A   1      44.157  31.839  29.590  1.00  0.00     0.023 A 
ATOM     88  C   UNL A   1      44.999  31.208  30.549  1.00  0.00     0.031 A 
ATOM     89  C   UNL A   1      43.800  33.172  29.823  1.00  0.00     0.131 A 
ATOM     90  C   UNL A   1      45.679  31.984  31.504  1.00  0.00     0.055 A 
ATOM     91  C   UNL A   1      44.410  33.912  30.845  1.00  0.00     0.041 A 
ATOM     92  F   UNL A   1      42.998  33.827  28.971  1.00  0.00    -0.206 F 
ATOM     93  C   UNL A   1      45.414  33.345  31.632  1.00  0.00     0.022 A 
BRANCH  90  94
ATOM     94  S   UNL A   1      47.127  31.273  32.347  1.00  0.00     0.124 S 
ATOM     95  O   UNL A   1      46.740  31.346  33.750  1.00  0.00    -0.237 OA
ATOM     96  O   UNL A   1      47.198  29.928  31.780  1.00  0.00    -0.237 OA
ATOM     97  O   UNL A   1      48.227  32.152  31.948  1.00  0.00    -0.744 OA
ENDBRANCH  90  94
ENDBRANCH  63  87
BRANCH  75  98
ATOM     98  C   UNL A   1      47.874  27.156  25.363  1.00  0.00     0.023 A 
ATOM     99  C   UNL A   1      48.703  26.356  26.146  1.00  0.00     0.031 A 
ATOM    100  C   UNL A   1      48.340  27.392  24.044  1.00  0.00     0.131 A 
ATOM    101  C   UNL A   1      49.982  25.991  25.721  1.00  0.00     0.055 A 
ATOM    102  C   UNL A   1      49.550  26.890  23.563  1.00  0.00     0.041 A 
ATOM    103  F   UNL A   1      47.644  28.100  23.143  1.00  0.00    -0.206 F 
ATOM    104  C   UNL A   1      50.406  26.221  24.420  1.00  0.00     0.022 A 
BRANCH 101 105
ATOM    105  S   UNL A   1      51.092  25.331  26.980  1.00  0.00     0.124 S 
ATOM    106  O   UNL A   1      51.440  26.538  27.726  1.00  0.00    -0.237 OA
ATOM    107  O   UNL A   1      50.239  24.379  27.685  1.00  0.00    -0.237 OA
ATOM    108  O   UNL A   1      52.178  24.742  26.201  1.00  0.00    -0.744 OA
ENDBRANCH 101 105
ENDBRANCH  75  98
ENDBRANCH  49  50
ENDBRANCH  41  44
ENDBRANCH  39  40
ENDBRANCH  38  39
ENDBRANCH  37  38
ENDBRANCH  36  37
ENDBRANCH   1  36
TORSDOF 21
ENDMDL
MODEL 2
REMARK VINA RESULT:     -11.3      3.976      7.114
REMARK SMILES Cc1ccc(NS(=O)(=O)c2cc(C(=O)Nc3ccccc3C(=O)NCCCCCCNC(=O)c3ccc(-c4c5nc(c(-c6cc(S(=O)(=O)[O-])ccc6F)c6ccc([nH]6)c(-c6cc(S(=O)(=O)[O-])ccc6F)c6nc(c(-c7cc(S(=O)(=O)[O-])ccc7F)c7ccc4[nH]7)C=C6)C=C5)cc3)ccc2Br)cc1
REMARK SMILES IDX 26 1 25 2 24 3 22 4 23 5 21 7 16 8 17 9 18 10 20 11 19 12
REMARK SMILES IDX 15 13 13 14 14 15 12 17 10 18 11 19 99 20 98 21 100 22 97 23
REMARK SMILES IDX 7 24 8 25 9 26 6 27 5 29 1 30 2 31 3 32 102 33 4 34 101 35
REMARK SMILES IDX 27 36 28 37 29 38 30 39 31 40 32 41 33 43 34 44 35 45 96 46
REMARK SMILES IDX 36 47 95 48 37 49 38 50 39 51 89 52 40 53 94 54 88 55 90 56
REMARK SMILES IDX 41 57 93 58 87 59 86 60 42 62 74 63 54 64 73 65 55 66 58 67
REMARK SMILES IDX 72 68 91 69 56 70 57 71 71 73 92 74 59 75 43 76 44 77 52 78
REMARK SMILES IDX 45 79 51 80 53 81 50 82 46 83 47 84 48 85 49 86 75 87 76 88
REMARK SMILES IDX 84 89 77 90 83 91 85 92 82 93 78 94 79 95 80 96 81 97 60 98
REMARK SMILES IDX 61 99 69 100 62 101 68 102 70 103 67 104 63 105 64 106
REMARK SMILES IDX 65 107 66 108
REMARK H PARENT 24 6 15 16 6 28 31 42 90 61 58 72
REMARK Flexibility Score: inf
ROOT
ATOM      1  C   UNL A   1      32.912  29.863  27.153  1.00  0.00     0.021 C 
ENDROOT
BRANCH   1   2
ATOM      2  C   UNL A   1      32.445  30.179  25.754  1.00  0.00     0.116 C 
BRANCH   2   3
ATOM      3  N   UNL A   1      33.226  29.692  24.649  1.00  0.00    -0.352 N 
ATOM      4  C   UNL A   1      32.724  29.071  23.529  1.00  0.00     0.253 C 
ATOM      5  O   UNL A   1      33.402  28.917  22.521  1.00  0.00    -0.269 OA
ATOM      6  H   UNL A   1      34.203  29.814  24.698  1.00  0.00     0.163 HD
BRANCH   4   7
ATOM      7  C   UNL A   1      31.374  28.459  23.619  1.00  0.00     0.063 A 
ATOM      8  C   UNL A   1      31.187  26.870  24.478  1.00  0.00     0.054 A 
ATOM      9  C   UNL A   1      29.314  26.089  24.543  1.00  0.00     0.027 A 
ATOM     10  C   UNL A   1      27.937  27.050  23.876  1.00  0.00     0.002 A 
ATOM     11  C   UNL A   1      29.931  29.261  22.979  1.00  0.00     0.016 A 
ATOM     12  C   UNL A   1      28.288  28.596  23.127  1.00  0.00     0.001 A 
BRANCH   8  13
ATOM     13  N   UNL A   1      32.516  26.481  25.091  1.00  0.00    -0.321 N 
ATOM     14  C   UNL A   1      33.334  25.326  25.064  1.00  0.00     0.255 C 
ATOM     15  O   UNL A   1      34.429  25.391  25.634  1.00  0.00    -0.269 OA
ATOM     16  H   UNL A   1      32.902  27.202  25.639  1.00  0.00     0.170 HD
BRANCH  14  17
ATOM     17  C   UNL A   1      33.066  24.082  24.262  1.00  0.00     0.041 A 
ATOM     18  C   UNL A   1      33.488  21.675  24.221  1.00  0.00     0.102 A 
ATOM     19  C   UNL A   1      33.821  22.974  24.510  1.00  0.00     0.037 A 
ATOM     20  C   UNL A   1      32.513  21.475  23.270  1.00  0.00     0.038 A 
ATOM     21  C   UNL A   1      31.817  22.607  22.790  1.00  0.00     0.018 A 
ATOM     22  Br  UNL A   1      32.154  19.783  22.518  1.00  0.00    -0.049 Br
ATOM     23  C   UNL A   1      32.039  23.896  23.343  1.00  0.00     0.015 A 
BRANCH  18  24
ATOM     24  S   UNL A   1      34.167  20.479  25.356  1.00  0.00     0.263 S 
ATOM     25  O   UNL A   1      33.592  19.192  25.030  1.00  0.00    -0.201 OA
ATOM     26  O   UNL A   1      34.078  21.048  26.681  1.00  0.00    -0.201 OA
BRANCH  24  27
ATOM     27  N   UNL A   1      35.842  20.265  24.992  1.00  0.00    -0.280 N 
ATOM     28  H   UNL A   1      36.052  19.467  24.456  1.00  0.00     0.180 HD
BRANCH  27  29
ATOM     29  C   UNL A   1      37.045  21.122  25.372  1.00  0.00     0.049 A 
ATOM     30  C   UNL A   1      41.384  22.934  27.397  1.00  0.00     0.044 C 
ATOM     31  C   UNL A   1      40.182  22.464  26.629  1.00  0.00    -0.051 A 
ATOM     32  C   UNL A   1      40.033  20.761  26.127  1.00  0.00     0.005 A 
ATOM     33  C   UNL A   1      38.880  23.616  26.534  1.00  0.00     0.005 A 
ATOM     34  C   UNL A   1      38.524  20.067  25.497  1.00  0.00     0.027 A 
ATOM     35  C   UNL A   1      37.304  23.060  25.913  1.00  0.00     0.027 A 
ENDBRANCH  27  29
ENDBRANCH  24  27
ENDBRANCH  18  24
ENDBRANCH  14  17
ENDBRANCH   8  13
ENDBRANCH   4   7
ENDBRANCH   2   3
ENDBRANCH   1   2
BRANCH   1  36
ATOM     36  C   UNL A   1      34.069  28.895  27.254  1.00  0.00     0.002 C 
BRANCH  36  37
ATOM     37  C   UNL A   1      35.451  29.545  27.256  1.00  0.00     0.002 C 
BRANCH  37  38
ATOM     38  C   UNL A   1      35.560  30.874  27.991  1.00  0.00     0.021 C 
BRANCH  38  39
ATOM     39  C   UNL A   1      35.906  30.751  29.451  1.00  0.00     0.116 C 
BRANCH  39  40
ATOM     40  N   UNL A   1      36.854  31.741  29.898  1.00  0.00    -0.352 N 
ATOM     41  C   UNL A   1      38.145  31.544  30.346  1.00  0.00     0.251 C 
ATOM     42  H   UNL A   1      36.542  32.674  29.882  1.00  0.00     0.163 HD
ATOM     43  O   UNL A   1      38.707  32.382  31.049  1.00  0.00    -0.269 OA
BRANCH  41  44
ATOM     44  C   UNL A   1      38.952  30.430  29.763  1.00  0.00     0.039 A 
ATOM     45  C   UNL A   1      38.739  29.186  30.377  1.00  0.00     0.014 A 
ATOM     46  C   UNL A   1      40.167  30.688  29.149  1.00  0.00     0.014 A 
ATOM     47  C   UNL A   1      39.834  28.412  30.718  1.00  0.00     0.010 A 
ATOM     48  C   UNL A   1      41.265  30.066  29.658  1.00  0.00     0.010 A 
ATOM     49  C   UNL A   1      41.085  28.967  30.492  1.00  0.00    -0.014 A 
BRANCH  49  50
ATOM     50  C   UNL A   1      42.344  28.346  30.811  1.00  0.00     0.031 A 
ATOM     51  C   UNL A   1      42.608  27.194  29.922  1.00  0.00     0.074 A 
ATOM     52  C   UNL A   1      43.138  29.077  31.633  1.00  0.00     0.049 A 
ATOM     53  N   UNL A   1      43.359  26.195  30.180  1.00  0.00    -0.248 NA
ATOM     54  C   UNL A   1      41.915  27.010  28.626  1.00  0.00     0.031 C 
ATOM     55  C   UNL A   1      44.563  29.021  31.935  1.00  0.00     0.029 A 
ATOM     56  N   UNL A   1      42.660  29.989  32.590  1.00  0.00    -0.354 N 
ATOM     57  C   UNL A   1      43.628  25.590  28.964  1.00  0.00     0.074 A 
ATOM     58  C   UNL A   1      42.565  25.976  28.087  1.00  0.00     0.031 C 
ATOM     59  C   UNL A   1      44.766  29.505  33.181  1.00  0.00     0.029 A 
ATOM     60  C   UNL A   1      43.459  29.821  33.739  1.00  0.00     0.049 A 
ATOM     61  H   UNL A   1      41.914  30.622  32.478  1.00  0.00     0.167 HD
ATOM     62  C   UNL A   1      44.867  25.058  28.781  1.00  0.00     0.034 A 
ATOM     63  C   UNL A   1      42.892  29.217  34.829  1.00  0.00     0.034 A 
ATOM     64  C   UNL A   1      45.642  25.299  29.996  1.00  0.00     0.049 A 
ATOM     65  C   UNL A   1      43.438  27.803  34.940  1.00  0.00     0.074 A 
ATOM     66  C   UNL A   1      46.513  26.317  30.350  1.00  0.00     0.029 A 
ATOM     67  N   UNL A   1      45.186  24.741  31.179  1.00  0.00    -0.354 N 
ATOM     68  N   UNL A   1      43.820  27.067  33.922  1.00  0.00    -0.248 NA
ATOM     69  C   UNL A   1      43.775  27.210  36.229  1.00  0.00     0.031 C 
ATOM     70  C   UNL A   1      46.494  26.415  31.773  1.00  0.00     0.029 A 
ATOM     71  C   UNL A   1      45.601  25.476  32.269  1.00  0.00     0.049 A 
ATOM     72  H   UNL A   1      44.635  23.927  31.234  1.00  0.00     0.167 HD
ATOM     73  C   UNL A   1      44.536  25.992  34.387  1.00  0.00     0.074 A 
ATOM     74  C   UNL A   1      44.478  26.137  35.836  1.00  0.00     0.031 C 
ATOM     75  C   UNL A   1      45.179  25.070  33.598  1.00  0.00     0.034 A 
BRANCH  62  76
ATOM     76  C   UNL A   1      45.496  24.618  27.487  1.00  0.00     0.023 A 
ATOM     77  C   UNL A   1      44.997  23.440  26.895  1.00  0.00     0.031 A 
ATOM     78  C   UNL A   1      46.515  25.271  26.769  1.00  0.00     0.131 A 
ATOM     79  C   UNL A   1      45.501  22.940  25.686  1.00  0.00     0.055 A 
ATOM     80  C   UNL A   1      47.037  24.762  25.565  1.00  0.00     0.041 A 
ATOM     81  F   UNL A   1      47.024  26.444  27.168  1.00  0.00    -0.206 F 
ATOM     82  C   UNL A   1      46.528  23.591  25.016  1.00  0.00     0.022 A 
BRANCH  79  83
ATOM     83  S   UNL A   1      44.750  21.438  25.007  1.00  0.00     0.124 S 
ATOM     84  O   UNL A   1      44.181  21.920  23.753  1.00  0.00    -0.237 OA
ATOM     85  O   UNL A   1      45.897  20.543  24.894  1.00  0.00    -0.237 OA
ATOM     86  O   UNL A   1      43.771  21.059  26.024  1.00  0.00    -0.744 OA
ENDBRANCH  79  83
ENDBRANCH  62  76
BRANCH  63  87
ATOM     87  C   UNL A   1      41.472  29.693  35.001  1.00  0.00     0.023 A 
ATOM     88  C   UNL A   1      41.321  31.025  35.477  1.00  0.00     0.031 A 
ATOM     89  C   UNL A   1      40.434  29.164  34.226  1.00  0.00     0.131 A 
ATOM     90  C   UNL A   1      40.328  31.857  34.932  1.00  0.00     0.055 A 
ATOM     91  C   UNL A   1      39.389  29.979  33.770  1.00  0.00     0.041 A 
ATOM     92  F   UNL A   1      40.499  27.910  33.754  1.00  0.00    -0.206 F 
ATOM     93  C   UNL A   1      39.380  31.346  34.049  1.00  0.00     0.022 A 
BRANCH  90  94
ATOM     94  S   UNL A   1      40.480  33.660  35.135  1.00  0.00     0.124 S 
ATOM     95  O   UNL A   1      39.797  34.167  33.951  1.00  0.00    -0.237 OA
ATOM     96  O   UNL A   1      39.801  33.897  36.407  1.00  0.00    -0.237 OA
ATOM     97  O   UNL A   1      41.926  33.883  35.174  1.00  0.00    -0.744 OA
ENDBRANCH  90  94
ENDBRANCH  63  87
BRANCH  75  98
ATOM     98  C   UNL A   1      45.532  23.672  34.063  1.00  0.00     0.023 A 
ATOM     99  C   UNL A   1      46.837  23.335  34.419  1.00  0.00     0.031 A 
ATOM    100  C   UNL A   1      44.573  22.646  34.260  1.00  0.00     0.131 A 
ATOM    101  C   UNL A   1      47.189  22.025  34.751  1.00  0.00     0.055 A 
ATOM    102  C   UNL A   1      44.901  21.380  34.746  1.00  0.00     0.041 A 
ATOM    103  F   UNL A   1      43.266  22.817  34.014  1.00  0.00    -0.206 F 
ATOM    104  C   UNL A   1      46.228  21.045  34.952  1.00  0.00     0.022 A 
BRANCH 101 105
ATOM    105  S   UNL A   1      48.952  21.646  34.772  1.00  0.00     0.124 S 
ATOM    106  O   UNL A   1      49.056  20.800  35.959  1.00  0.00    -0.237 OA
ATOM    107  O   UNL A   1      49.143  20.965  33.495  1.00  0.00    -0.237 OA
ATOM    108  O   UNL A   1      49.581  22.959  34.883  1.00  0.00    -0.744 OA
ENDBRANCH 101 105
ENDBRANCH  75  98
ENDBRANCH  49  50
ENDBRANCH  41  44
ENDBRANCH  39  40
ENDBRANCH  38  39
ENDBRANCH  37  38
ENDBRANCH  36  37
ENDBRANCH   1  36
TORSDOF 21
ENDMDL
MODEL 3
REMARK VINA RESULT:     -10.3      5.082      8.421
REMARK SMILES Cc1ccc(NS(=O)(=O)c2cc(C(=O)Nc3ccccc3C(=O)NCCCCCCNC(=O)c3ccc(-c4c5nc(c(-c6cc(S(=O)(=O)[O-])ccc6F)c6ccc([nH]6)c(-c6cc(S(=O)(=O)[O-])ccc6F)c6nc(c(-c7cc(S(=O)(=O)[O-])ccc7F)c7ccc4[nH]7)C=C6)C=C5)cc3)ccc2Br)cc1
REMARK SMILES IDX 26 1 25 2 24 3 22 4 23 5 21 7 16 8 17 9 18 10 20 11 19 12
REMARK SMILES IDX 15 13 13 14 14 15 12 17 10 18 11 19 99 20 98 21 100 22 97 23
REMARK SMILES IDX 7 24 8 25 9 26 6 27 5 29 1 30 2 31 3 32 102 33 4 34 101 35
REMARK SMILES IDX 27 36 28 37 29 38 30 39 31 40 32 41 33 43 34 44 35 45 96 46
REMARK SMILES IDX 36 47 95 48 37 49 38 50 39 51 89 52 40 53 94 54 88 55 90 56
REMARK SMILES IDX 41 57 93 58 87 59 86 60 42 62 74 63 54 64 73 65 55 66 58 67
REMARK SMILES IDX 72 68 91 69 56 70 57 71 71 73 92 74 59 75 43 76 44 77 52 78
REMARK SMILES IDX 45 79 51 80 53 81 50 82 46 83 47 84 48 85 49 86 75 87 76 88
REMARK SMILES IDX 84 89 77 90 83 91 85 92 82 93 78 94 79 95 80 96 81 97 60 98
REMARK SMILES IDX 61 99 69 100 62 101 68 102 70 103 67 104 63 105 64 106
REMARK SMILES IDX 65 107 66 108
REMARK H PARENT 24 6 15 16 6 28 31 42 90 61 58 72
REMARK Flexibility Score: inf
ROOT
ATOM      1  C   UNL A   1      40.139  29.465  27.569  1.00  0.00     0.021 C 
ENDROOT
BRANCH   1   2
ATOM      2  C   UNL A   1      38.657  29.492  27.847  1.00  0.00     0.116 C 
BRANCH   2   3
ATOM      3  N   UNL A   1      38.199  29.060  29.141  1.00  0.00    -0.352 N 
ATOM      4  C   UNL A   1      37.077  29.524  29.786  1.00  0.00     0.253 C 
ATOM      5  O   UNL A   1      36.603  28.940  30.752  1.00  0.00    -0.269 OA
ATOM      6  H   UNL A   1      38.735  28.374  29.603  1.00  0.00     0.163 HD
BRANCH   4   7
ATOM      7  C   UNL A   1      36.529  30.840  29.370  1.00  0.00     0.063 A 
ATOM      8  C   UNL A   1      35.173  30.885  28.163  1.00  0.00     0.054 A 
ATOM      9  C   UNL A   1      34.491  32.722  27.632  1.00  0.00     0.027 A 
ATOM     10  C   UNL A   1      35.159  34.181  28.461  1.00  0.00     0.002 A 
ATOM     11  C   UNL A   1      37.105  32.363  30.066  1.00  0.00     0.016 A 
ATOM     12  C   UNL A   1      36.430  33.955  29.647  1.00  0.00     0.001 A 
BRANCH   8  13
ATOM     13  N   UNL A   1      34.736  29.467  27.859  1.00  0.00    -0.321 N 
ATOM     14  C   UNL A   1      33.700  28.877  27.097  1.00  0.00     0.255 C 
ATOM     15  O   UNL A   1      33.691  27.644  27.005  1.00  0.00    -0.269 OA
ATOM     16  H   UNL A   1      35.309  28.796  28.297  1.00  0.00     0.170 HD
BRANCH  14  17
ATOM     17  C   UNL A   1      32.703  29.622  26.251  1.00  0.00     0.041 A 
ATOM     18  C   UNL A   1      31.215  29.362  24.330  1.00  0.00     0.102 A 
ATOM     19  C   UNL A   1      32.357  29.098  25.040  1.00  0.00     0.037 A 
ATOM     20  C   UNL A   1      30.537  30.518  24.642  1.00  0.00     0.038 A 
ATOM     21  C   UNL A   1      30.967  31.252  25.770  1.00  0.00     0.018 A 
ATOM     22  Br  UNL A   1      29.144  31.204  23.571  1.00  0.00    -0.049 Br
ATOM     23  C   UNL A   1      31.996  30.762  26.617  1.00  0.00     0.015 A 
BRANCH  18  24
ATOM     24  S   UNL A   1      30.646  27.998  23.331  1.00  0.00     0.263 S 
ATOM     25  O   UNL A   1      30.392  28.508  22.001  1.00  0.00    -0.201 OA
ATOM     26  O   UNL A   1      29.635  27.303  24.094  1.00  0.00    -0.201 OA
BRANCH  24  27
ATOM     27  N   UNL A   1      31.963  26.906  23.091  1.00  0.00    -0.280 N 
ATOM     28  H   UNL A   1      32.676  27.238  22.500  1.00  0.00     0.180 HD
BRANCH  27  29
ATOM     29  C   UNL A   1      32.190  25.507  23.652  1.00  0.00     0.049 A 
ATOM     30  C   UNL A   1      33.249  20.536  24.266  1.00  0.00     0.044 C 
ATOM     31  C   UNL A   1      33.054  22.024  24.244  1.00  0.00    -0.051 A 
ATOM     32  C   UNL A   1      34.020  23.051  23.154  1.00  0.00     0.005 A 
ATOM     33  C   UNL A   1      31.665  22.592  25.126  1.00  0.00     0.005 A 
ATOM     34  C   UNL A   1      33.641  24.759  22.846  1.00  0.00     0.027 A 
ATOM     35  C   UNL A   1      31.169  24.293  24.918  1.00  0.00     0.027 A 
ENDBRANCH  27  29
ENDBRANCH  24  27
ENDBRANCH  18  24
ENDBRANCH  14  17
ENDBRANCH   8  13
ENDBRANCH   4   7
ENDBRANCH   2   3
ENDBRANCH   1   2
BRANCH   1  36
ATOM     36  C   UNL A   1      40.542  28.913  26.221  1.00  0.00     0.002 C 
BRANCH  36  37
ATOM     37  C   UNL A   1      41.933  28.283  26.175  1.00  0.00     0.002 C 
BRANCH  37  38
ATOM     38  C   UNL A   1      43.038  29.059  26.878  1.00  0.00     0.021 C 
BRANCH  38  39
ATOM     39  C   UNL A   1      44.387  28.393  26.841  1.00  0.00     0.116 C 
BRANCH  39  40
ATOM     40  N   UNL A   1      44.858  28.132  25.503  1.00  0.00    -0.352 N 
ATOM     41  C   UNL A   1      46.155  27.919  25.082  1.00  0.00     0.251 C 
ATOM     42  H   UNL A   1      44.168  28.101  24.802  1.00  0.00     0.163 HD
ATOM     43  O   UNL A   1      46.477  28.093  23.908  1.00  0.00    -0.269 OA
BRANCH  41  44
ATOM     44  C   UNL A   1      47.111  27.230  26.001  1.00  0.00     0.039 A 
ATOM     45  C   UNL A   1      46.651  25.997  26.487  1.00  0.00     0.014 A 
ATOM     46  C   UNL A   1      48.019  27.961  26.749  1.00  0.00     0.014 A 
ATOM     47  C   UNL A   1      46.773  25.721  27.837  1.00  0.00     0.010 A 
ATOM     48  C   UNL A   1      47.963  27.824  28.102  1.00  0.00     0.010 A 
ATOM     49  C   UNL A   1      47.284  26.734  28.636  1.00  0.00    -0.014 A 
BRANCH  49  50
ATOM     50  C   UNL A   1      47.455  26.665  30.064  1.00  0.00     0.031 A 
ATOM     51  C   UNL A   1      48.622  25.827  30.418  1.00  0.00     0.074 A 
ATOM     52  C   UNL A   1      46.724  27.570  30.761  1.00  0.00     0.049 A 
ATOM     53  N   UNL A   1      48.805  25.212  31.521  1.00  0.00    -0.248 NA
ATOM     54  C   UNL A   1      49.699  25.507  29.453  1.00  0.00     0.031 C 
ATOM     55  C   UNL A   1      46.826  28.082  32.122  1.00  0.00     0.029 A 
ATOM     56  N   UNL A   1      45.493  28.094  30.329  1.00  0.00    -0.354 N 
ATOM     57  C   UNL A   1      50.154  24.905  31.573  1.00  0.00     0.074 A 
ATOM     58  C   UNL A   1      50.610  24.901  30.217  1.00  0.00     0.031 C 
ATOM     59  C   UNL A   1      45.599  28.473  32.535  1.00  0.00     0.029 A 
ATOM     60  C   UNL A   1      44.663  28.155  31.467  1.00  0.00     0.049 A 
ATOM     61  H   UNL A   1      45.259  28.366  29.412  1.00  0.00     0.167 HD
ATOM     62  C   UNL A   1      50.770  24.960  32.785  1.00  0.00     0.034 A 
ATOM     63  C   UNL A   1      43.631  27.260  31.554  1.00  0.00     0.034 A 
ATOM     64  C   UNL A   1      49.777  25.374  33.774  1.00  0.00     0.049 A 
ATOM     65  C   UNL A   1      43.993  26.199  32.580  1.00  0.00     0.074 A 
ATOM     66  C   UNL A   1      49.440  26.620  34.280  1.00  0.00     0.029 A 
ATOM     67  N   UNL A   1      48.677  24.557  33.971  1.00  0.00    -0.354 N 
ATOM     68  N   UNL A   1      45.216  25.801  32.844  1.00  0.00    -0.248 NA
ATOM     69  C   UNL A   1      43.008  25.670  33.516  1.00  0.00     0.031 C 
ATOM     70  C   UNL A   1      48.077  26.551  34.698  1.00  0.00     0.029 A 
ATOM     71  C   UNL A   1      47.595  25.280  34.426  1.00  0.00     0.049 A 
ATOM     72  H   UNL A   1      48.669  23.586  33.807  1.00  0.00     0.167 HD
ATOM     73  C   UNL A   1      45.213  25.080  34.012  1.00  0.00     0.074 A 
ATOM     74  C   UNL A   1      43.805  25.035  34.389  1.00  0.00     0.031 C 
ATOM     75  C   UNL A   1      46.331  24.598  34.646  1.00  0.00     0.034 A 
BRANCH  62  76
ATOM     76  C   UNL A   1      52.248  24.961  33.065  1.00  0.00     0.023 A 
ATOM     77  C   UNL A   1      52.747  23.939  33.897  1.00  0.00     0.031 A 
ATOM     78  C   UNL A   1      53.212  25.853  32.559  1.00  0.00     0.131 A 
ATOM     79  C   UNL A   1      54.108  23.835  34.220  1.00  0.00     0.055 A 
ATOM     80  C   UNL A   1      54.575  25.764  32.896  1.00  0.00     0.041 A 
ATOM     81  F   UNL A   1      52.895  26.821  31.688  1.00  0.00    -0.206 F 
ATOM     82  C   UNL A   1      55.031  24.749  33.729  1.00  0.00     0.022 A 
BRANCH  79  83
ATOM     83  S   UNL A   1      54.632  22.454  35.269  1.00  0.00     0.124 S 
ATOM     84  O   UNL A   1      53.635  22.483  36.334  1.00  0.00    -0.237 OA
ATOM     85  O   UNL A   1      54.562  21.323  34.350  1.00  0.00    -0.237 OA
ATOM     86  O   UNL A   1      55.984  22.833  35.677  1.00  0.00    -0.744 OA
ENDBRANCH  79  83
ENDBRANCH  62  76
BRANCH  63  87
ATOM     87  C   UNL A   1      42.991  27.079  30.201  1.00  0.00     0.023 A 
ATOM     88  C   UNL A   1      43.525  26.031  29.400  1.00  0.00     0.031 A 
ATOM     89  C   UNL A   1      41.659  27.447  29.977  1.00  0.00     0.131 A 
ATOM     90  C   UNL A   1      42.663  25.211  28.651  1.00  0.00     0.055 A 
ATOM     91  C   UNL A   1      40.831  26.680  29.146  1.00  0.00     0.041 A 
ATOM     92  F   UNL A   1      41.092  28.436  30.684  1.00  0.00    -0.206 F 
ATOM     93  C   UNL A   1      41.307  25.512  28.550  1.00  0.00     0.022 A 
BRANCH  90  94
ATOM     94  S   UNL A   1      43.264  23.590  28.083  1.00  0.00     0.124 S 
ATOM     95  O   UNL A   1      44.366  23.325  28.999  1.00  0.00    -0.237 OA
ATOM     96  O   UNL A   1      42.087  22.738  28.246  1.00  0.00    -0.237 OA
ATOM     97  O   UNL A   1      43.644  23.829  26.690  1.00  0.00    -0.744 OA
ENDBRANCH  90  94
ENDBRANCH  63  87
BRANCH  75  98
ATOM     98  C   UNL A   1      46.308  23.435  35.617  1.00  0.00     0.023 A 
ATOM     99  C   UNL A   1      46.190  23.639  36.990  1.00  0.00     0.031 A 
ATOM    100  C   UNL A   1      46.305  22.076  35.210  1.00  0.00     0.131 A 
ATOM    101  C   UNL A   1      46.270  22.580  37.897  1.00  0.00     0.055 A 
ATOM    102  C   UNL A   1      46.223  21.012  36.110  1.00  0.00     0.041 A 
ATOM    103  F   UNL A   1      46.363  21.702  33.924  1.00  0.00    -0.206 F 
ATOM    104  C   UNL A   1      46.251  21.259  37.471  1.00  0.00     0.022 A 
BRANCH 101 105
ATOM    105  S   UNL A   1      46.530  23.018  39.627  1.00  0.00     0.124 S 
ATOM    106  O   UNL A   1      46.716  24.464  39.539  1.00  0.00    -0.237 OA
ATOM    107  O   UNL A   1      45.287  22.579  40.253  1.00  0.00    -0.237 OA
ATOM    108  O   UNL A   1      47.720  22.256  39.995  1.00  0.00    -0.744 OA
ENDBRANCH 101 105
ENDBRANCH  75  98
ENDBRANCH  49  50
ENDBRANCH  41  44
ENDBRANCH  39  40
ENDBRANCH  38  39
ENDBRANCH  37  38
ENDBRANCH  36  37
ENDBRANCH   1  36
TORSDOF 21
ENDMDL
