MODEL 1
REMARK VINA RESULT:     -10.9      0.000      0.000
REMARK SMILES C[C@H](NC(=O)c1cc(S(=O)(=O)N(C)C)cs1)C(=O)NCCCCCCNC(=O)c1ccc(-c2c3nc(c(-c4cc(S(=O)(=O)[O-])ccc4F)c4ccc([nH]4)c(-c4cc(S(=O)(=O)[O-])ccc4F)c4nc(c(-c5cc(S(=O)(=O)[O-])ccc5F)c5ccc2[nH]5)C=C4)C=C3)cc1
REMARK SMILES IDX 22 1 21 2 20 3 19 4 17 5 18 6 2 8 1 9 3 10 4 11 5 13 6 14
REMARK SMILES IDX 7 15 16 16 8 17 15 18 9 19 10 20 11 21 12 22 13 23 14 24
REMARK SMILES IDX 23 25 24 26 25 27 26 28 27 29 28 31 29 32 30 33 91 34 31 35
REMARK SMILES IDX 90 36 32 37 33 38 34 39 84 40 35 41 89 42 83 43 85 44 36 45
REMARK SMILES IDX 88 46 82 47 81 48 37 50 69 51 49 52 68 53 50 54 53 55 67 56
REMARK SMILES IDX 86 57 51 58 52 59 66 61 87 62 54 63 38 64 39 65 47 66 40 67
REMARK SMILES IDX 46 68 48 69 45 70 41 71 42 72 43 73 44 74 70 75 71 76 79 77
REMARK SMILES IDX 72 78 78 79 80 80 77 81 73 82 74 83 75 84 76 85 55 86 56 87
REMARK SMILES IDX 64 88 57 89 63 90 65 91 62 92 58 93 59 94 60 95 61 96
REMARK H PARENT 19 7 3 12 26 30 85 49 53 60
REMARK Flexibility Score: inf
ROOT
ATOM      1  C   UNL A   1      36.216  22.451  24.865  1.00  0.00     0.002 C 
ENDROOT
BRANCH   1   2
ATOM      2  C   UNL A   1      35.519  22.621  23.510  1.00  0.00     0.021 C 
BRANCH   2   3
ATOM      3  C   UNL A   1      34.016  22.876  23.595  1.00  0.00     0.116 C 
BRANCH   3   4
ATOM      4  N   UNL A   1      33.289  21.656  23.887  1.00  0.00    -0.354 N 
ATOM      5  C   UNL A   1      32.669  21.235  25.021  1.00  0.00     0.242 C 
ATOM      6  O   UNL A   1      32.107  20.135  24.992  1.00  0.00    -0.273 OA
ATOM      7  H   UNL A   1      33.235  21.023  23.134  1.00  0.00     0.163 HD
BRANCH   5   8
ATOM      8  C   UNL A   1      32.645  22.087  26.299  1.00  0.00     0.168 C 
ATOM      9  C   UNL A   1      33.547  21.548  27.402  1.00  0.00     0.041 C 
BRANCH   8  10
ATOM     10  N   UNL A   1      31.276  22.320  26.766  1.00  0.00    -0.340 N 
ATOM     11  C   UNL A   1      30.543  23.483  26.747  1.00  0.00     0.262 C 
ATOM     12  H   UNL A   1      30.818  21.537  27.146  1.00  0.00     0.164 HD
ATOM     13  O   UNL A   1      29.499  23.510  27.396  1.00  0.00    -0.268 OA
BRANCH  11  14
ATOM     14  C   UNL A   1      31.023  24.587  25.943  1.00  0.00     0.093 A 
ATOM     15  C   UNL A   1      31.814  25.651  26.331  1.00  0.00     0.047 A 
ATOM     16  S   UNL A   1      30.641  24.663  24.278  1.00  0.00    -0.137 S 
ATOM     17  C   UNL A   1      32.031  26.576  25.273  1.00  0.00     0.094 A 
ATOM     18  C   UNL A   1      31.438  26.168  24.098  1.00  0.00     0.087 A 
BRANCH  17  19
ATOM     19  S   UNL A   1      32.887  28.070  25.451  1.00  0.00     0.243 S 
ATOM     20  O   UNL A   1      33.871  27.805  26.472  1.00  0.00    -0.207 OA
ATOM     21  O   UNL A   1      33.263  28.392  24.087  1.00  0.00    -0.207 OA
BRANCH  19  22
ATOM     22  N   UNL A   1      31.821  29.274  26.020  1.00  0.00    -0.204 NA
ATOM     23  C   UNL A   1      32.337  30.103  27.131  1.00  0.00     0.124 C 
ATOM     24  C   UNL A   1      31.241  30.108  24.946  1.00  0.00     0.124 C 
ENDBRANCH  19  22
ENDBRANCH  17  19
ENDBRANCH  11  14
ENDBRANCH   8  10
ENDBRANCH   5   8
ENDBRANCH   3   4
ENDBRANCH   2   3
ENDBRANCH   1   2
BRANCH   1  25
ATOM     25  C   UNL A   1      36.336  21.008  25.364  1.00  0.00     0.002 C 
BRANCH  25  26
ATOM     26  C   UNL A   1      37.597  20.263  24.922  1.00  0.00     0.021 C 
BRANCH  26  27
ATOM     27  C   UNL A   1      38.895  20.756  25.553  1.00  0.00     0.116 C 
BRANCH  27  28
ATOM     28  N   UNL A   1      39.831  19.675  25.814  1.00  0.00    -0.352 N 
ATOM     29  C   UNL A   1      41.157  19.740  26.162  1.00  0.00     0.251 C 
ATOM     30  H   UNL A   1      39.460  18.766  25.728  1.00  0.00     0.163 HD
ATOM     31  O   UNL A   1      41.834  18.716  26.177  1.00  0.00    -0.269 OA
BRANCH  29  32
ATOM     32  C   UNL A   1      41.771  21.048  26.484  1.00  0.00     0.039 A 
ATOM     33  C   UNL A   1      42.085  21.921  25.441  1.00  0.00     0.014 A 
ATOM     34  C   UNL A   1      42.026  21.414  27.810  1.00  0.00     0.014 A 
ATOM     35  C   UNL A   1      42.589  23.191  25.728  1.00  0.00     0.010 A 
ATOM     36  C   UNL A   1      42.469  22.703  28.098  1.00  0.00     0.010 A 
ATOM     37  C   UNL A   1      42.750  23.606  27.061  1.00  0.00    -0.014 A 
BRANCH  37  38
ATOM     38  C   UNL A   1      43.192  24.986  27.387  1.00  0.00     0.031 A 
ATOM     39  C   UNL A   1      42.236  25.961  28.015  1.00  0.00     0.074 A 
ATOM     40  C   UNL A   1      44.433  25.381  27.045  1.00  0.00     0.049 A 
ATOM     41  N   UNL A   1      42.410  27.227  28.300  1.00  0.00    -0.248 NA
ATOM     42  C   UNL A   1      40.897  25.449  28.335  1.00  0.00     0.031 C 
ATOM     43  C   UNL A   1      45.434  24.542  26.382  1.00  0.00     0.029 A 
ATOM     44  N   UNL A   1      45.061  26.593  27.189  1.00  0.00    -0.354 N 
ATOM     45  C   UNL A   1      41.201  27.665  28.828  1.00  0.00     0.074 A 
ATOM     46  C   UNL A   1      40.286  26.545  28.757  1.00  0.00     0.031 C 
ATOM     47  C   UNL A   1      46.549  25.262  26.183  1.00  0.00     0.029 A 
ATOM     48  C   UNL A   1      46.332  26.621  26.668  1.00  0.00     0.049 A 
ATOM     49  H   UNL A   1      44.640  27.369  27.625  1.00  0.00     0.167 HD
ATOM     50  C   UNL A   1      40.892  28.881  29.347  1.00  0.00     0.034 A 
ATOM     51  C   UNL A   1      47.219  27.631  26.572  1.00  0.00     0.034 A 
ATOM     52  C   UNL A   1      41.817  29.987  29.404  1.00  0.00     0.049 A 
ATOM     53  C   UNL A   1      46.851  28.981  27.127  1.00  0.00     0.074 A 
ATOM     54  C   UNL A   1      41.633  31.241  29.962  1.00  0.00     0.029 A 
ATOM     55  N   UNL A   1      43.100  29.979  28.869  1.00  0.00    -0.354 N 
ATOM     56  N   UNL A   1      45.725  29.365  27.682  1.00  0.00    -0.248 NA
ATOM     57  C   UNL A   1      47.877  30.028  27.053  1.00  0.00     0.031 C 
ATOM     58  C   UNL A   1      42.776  32.009  29.706  1.00  0.00     0.029 A 
ATOM     59  C   UNL A   1      43.705  31.215  29.051  1.00  0.00     0.049 A 
ATOM     60  H   UNL A   1      43.521  29.207  28.426  1.00  0.00     0.167 HD
ATOM     61  C   UNL A   1      45.911  30.698  28.035  1.00  0.00     0.074 A 
ATOM     62  C   UNL A   1      47.265  31.043  27.648  1.00  0.00     0.031 C 
ATOM     63  C   UNL A   1      45.043  31.557  28.629  1.00  0.00     0.034 A 
BRANCH  50  64
ATOM     64  C   UNL A   1      39.483  29.069  29.864  1.00  0.00     0.023 A 
ATOM     65  C   UNL A   1      38.521  29.783  29.128  1.00  0.00     0.031 A 
ATOM     66  C   UNL A   1      39.112  28.581  31.128  1.00  0.00     0.131 A 
ATOM     67  C   UNL A   1      37.273  30.076  29.700  1.00  0.00     0.055 A 
ATOM     68  C   UNL A   1      37.835  28.796  31.655  1.00  0.00     0.041 A 
ATOM     69  F   UNL A   1      39.989  27.906  31.887  1.00  0.00    -0.206 F 
ATOM     70  C   UNL A   1      36.915  29.566  30.950  1.00  0.00     0.022 A 
BRANCH  67  71
ATOM     71  S   UNL A   1      36.201  31.276  28.864  1.00  0.00     0.124 S 
ATOM     72  O   UNL A   1      35.781  30.525  27.683  1.00  0.00    -0.237 OA
ATOM     73  O   UNL A   1      35.169  31.527  29.863  1.00  0.00    -0.237 OA
ATOM     74  O   UNL A   1      37.094  32.402  28.591  1.00  0.00    -0.744 OA
ENDBRANCH  67  71
ENDBRANCH  50  64
BRANCH  51  75
ATOM     75  C   UNL A   1      48.529  27.407  25.901  1.00  0.00     0.023 A 
ATOM     76  C   UNL A   1      48.665  27.532  24.510  1.00  0.00     0.031 A 
ATOM     77  C   UNL A   1      49.667  27.060  26.651  1.00  0.00     0.131 A 
ATOM     78  C   UNL A   1      49.908  27.283  23.907  1.00  0.00     0.055 A 
ATOM     79  C   UNL A   1      50.911  26.854  26.051  1.00  0.00     0.041 A 
ATOM     80  F   UNL A   1      49.590  26.940  27.986  1.00  0.00    -0.206 F 
ATOM     81  C   UNL A   1      51.034  26.958  24.669  1.00  0.00     0.022 A 
BRANCH  78  82
ATOM     82  S   UNL A   1      50.027  27.351  22.099  1.00  0.00     0.124 S 
ATOM     83  O   UNL A   1      49.804  28.769  21.839  1.00  0.00    -0.237 OA
ATOM     84  O   UNL A   1      51.382  26.862  21.866  1.00  0.00    -0.237 OA
ATOM     85  O   UNL A   1      48.959  26.458  21.654  1.00  0.00    -0.744 OA
ENDBRANCH  78  82
ENDBRANCH  51  75
BRANCH  63  86
ATOM     86  C   UNL A   1      45.549  32.950  28.906  1.00  0.00     0.023 A 
ATOM     87  C   UNL A   1      45.266  34.023  28.041  1.00  0.00     0.031 A 
ATOM     88  C   UNL A   1      46.341  33.207  30.039  1.00  0.00     0.131 A 
ATOM     89  C   UNL A   1      45.812  35.290  28.295  1.00  0.00     0.055 A 
ATOM     90  C   UNL A   1      46.834  34.482  30.318  1.00  0.00     0.041 A 
ATOM     91  F   UNL A   1      46.645  32.220  30.897  1.00  0.00    -0.206 F 
ATOM     92  C   UNL A   1      46.581  35.530  29.437  1.00  0.00     0.022 A 
BRANCH  89  93
ATOM     93  S   UNL A   1      45.573  36.604  27.069  1.00  0.00     0.124 S 
ATOM     94  O   UNL A   1      44.185  36.397  26.668  1.00  0.00    -0.237 OA
ATOM     95  O   UNL A   1      45.839  37.810  27.847  1.00  0.00    -0.237 OA
ATOM     96  O   UNL A   1      46.568  36.301  26.041  1.00  0.00    -0.744 OA
ENDBRANCH  89  93
ENDBRANCH  63  86
ENDBRANCH  37  38
ENDBRANCH  29  32
ENDBRANCH  27  28
ENDBRANCH  26  27
ENDBRANCH  25  26
ENDBRANCH   1  25
TORSDOF 20
ENDMDL
MODEL 2
REMARK VINA RESULT:     -10.8      1.492      1.883
REMARK SMILES C[C@H](NC(=O)c1cc(S(=O)(=O)N(C)C)cs1)C(=O)NCCCCCCNC(=O)c1ccc(-c2c3nc(c(-c4cc(S(=O)(=O)[O-])ccc4F)c4ccc([nH]4)c(-c4cc(S(=O)(=O)[O-])ccc4F)c4nc(c(-c5cc(S(=O)(=O)[O-])ccc5F)c5ccc2[nH]5)C=C4)C=C3)cc1
REMARK SMILES IDX 22 1 21 2 20 3 19 4 17 5 18 6 2 8 1 9 3 10 4 11 5 13 6 14
REMARK SMILES IDX 7 15 16 16 8 17 15 18 9 19 10 20 11 21 12 22 13 23 14 24
REMARK SMILES IDX 23 25 24 26 25 27 26 28 27 29 28 31 29 32 30 33 91 34 31 35
REMARK SMILES IDX 90 36 32 37 33 38 34 39 84 40 35 41 89 42 83 43 85 44 36 45
REMARK SMILES IDX 88 46 82 47 81 48 37 50 69 51 49 52 68 53 50 54 53 55 67 56
REMARK SMILES IDX 86 57 51 58 52 59 66 61 87 62 54 63 38 64 39 65 47 66 40 67
REMARK SMILES IDX 46 68 48 69 45 70 41 71 42 72 43 73 44 74 70 75 71 76 79 77
REMARK SMILES IDX 72 78 78 79 80 80 77 81 73 82 74 83 75 84 76 85 55 86 56 87
REMARK SMILES IDX 64 88 57 89 63 90 65 91 62 92 58 93 59 94 60 95 61 96
REMARK H PARENT 19 7 3 12 26 30 85 49 53 60
REMARK Flexibility Score: inf
ROOT
ATOM      1  C   UNL A   1      37.358  22.035  24.496  1.00  0.00     0.002 C 
ENDROOT
BRANCH   1   2
ATOM      2  C   UNL A   1      36.408  22.680  23.481  1.00  0.00     0.021 C 
BRANCH   2   3
ATOM      3  C   UNL A   1      35.066  23.124  24.057  1.00  0.00     0.116 C 
BRANCH   3   4
ATOM      4  N   UNL A   1      34.098  22.045  24.033  1.00  0.00    -0.354 N 
ATOM      5  C   UNL A   1      33.235  21.598  24.984  1.00  0.00     0.242 C 
ATOM      6  O   UNL A   1      32.501  20.648  24.690  1.00  0.00    -0.273 OA
ATOM      7  H   UNL A   1      34.057  21.552  23.182  1.00  0.00     0.163 HD
BRANCH   5   8
ATOM      8  C   UNL A   1      33.153  22.242  26.377  1.00  0.00     0.168 C 
ATOM      9  C   UNL A   1      34.051  21.571  27.408  1.00  0.00     0.041 C 
BRANCH   8  10
ATOM     10  N   UNL A   1      31.767  22.356  26.836  1.00  0.00    -0.340 N 
ATOM     11  C   UNL A   1      30.904  23.419  26.724  1.00  0.00     0.262 C 
ATOM     12  H   UNL A   1      31.404  21.561  27.288  1.00  0.00     0.164 HD
ATOM     13  O   UNL A   1      29.864  23.382  27.380  1.00  0.00    -0.268 OA
BRANCH  11  14
ATOM     14  C   UNL A   1      31.251  24.497  25.822  1.00  0.00     0.093 A 
ATOM     15  C   UNL A   1      31.953  25.654  26.097  1.00  0.00     0.047 A 
ATOM     16  S   UNL A   1      30.807  24.408  24.173  1.00  0.00    -0.137 S 
ATOM     17  C   UNL A   1      32.046  26.510  24.966  1.00  0.00     0.094 A 
ATOM     18  C   UNL A   1      31.454  25.961  23.849  1.00  0.00     0.087 A 
BRANCH  17  19
ATOM     19  S   UNL A   1      32.765  28.085  24.998  1.00  0.00     0.243 S 
ATOM     20  O   UNL A   1      34.013  27.929  24.292  1.00  0.00    -0.207 OA
ATOM     21  O   UNL A   1      31.701  28.936  24.499  1.00  0.00    -0.207 OA
BRANCH  19  22
ATOM     22  N   UNL A   1      33.103  28.525  26.611  1.00  0.00    -0.204 NA
ATOM     23  C   UNL A   1      34.390  29.223  26.821  1.00  0.00     0.124 C 
ATOM     24  C   UNL A   1      31.989  29.232  27.279  1.00  0.00     0.124 C 
ENDBRANCH  19  22
ENDBRANCH  17  19
ENDBRANCH  11  14
ENDBRANCH   8  10
ENDBRANCH   5   8
ENDBRANCH   3   4
ENDBRANCH   2   3
ENDBRANCH   1   2
BRANCH   1  25
ATOM     25  C   UNL A   1      37.014  20.597  24.895  1.00  0.00     0.002 C 
BRANCH  25  26
ATOM     26  C   UNL A   1      38.209  19.650  25.032  1.00  0.00     0.021 C 
BRANCH  26  27
ATOM     27  C   UNL A   1      39.279  20.096  26.023  1.00  0.00     0.116 C 
BRANCH  27  28
ATOM     28  N   UNL A   1      40.465  19.258  25.973  1.00  0.00    -0.352 N 
ATOM     29  C   UNL A   1      41.787  19.618  26.054  1.00  0.00     0.251 C 
ATOM     30  H   UNL A   1      40.295  18.293  25.865  1.00  0.00     0.163 HD
ATOM     31  O   UNL A   1      42.660  18.787  25.822  1.00  0.00    -0.269 OA
BRANCH  29  32
ATOM     32  C   UNL A   1      42.151  21.013  26.387  1.00  0.00     0.039 A 
ATOM     33  C   UNL A   1      42.396  21.345  27.721  1.00  0.00     0.014 A 
ATOM     34  C   UNL A   1      42.261  21.986  25.388  1.00  0.00     0.014 A 
ATOM     35  C   UNL A   1      42.820  22.636  28.048  1.00  0.00     0.010 A 
ATOM     36  C   UNL A   1      42.745  23.253  25.707  1.00  0.00     0.010 A 
ATOM     37  C   UNL A   1      43.034  23.589  27.039  1.00  0.00    -0.014 A 
BRANCH  37  38
ATOM     38  C   UNL A   1      43.577  24.934  27.356  1.00  0.00     0.031 A 
ATOM     39  C   UNL A   1      42.670  26.017  27.868  1.00  0.00     0.074 A 
ATOM     40  C   UNL A   1      44.874  25.199  27.110  1.00  0.00     0.049 A 
ATOM     41  N   UNL A   1      42.939  27.272  28.125  1.00  0.00    -0.248 NA
ATOM     42  C   UNL A   1      41.266  25.644  28.089  1.00  0.00     0.031 C 
ATOM     43  C   UNL A   1      45.842  24.245  26.563  1.00  0.00     0.029 A 
ATOM     44  N   UNL A   1      45.601  26.353  27.267  1.00  0.00    -0.354 N 
ATOM     45  C   UNL A   1      41.738  27.841  28.533  1.00  0.00     0.074 A 
ATOM     46  C   UNL A   1      40.730  26.808  28.420  1.00  0.00     0.031 C 
ATOM     47  C   UNL A   1      47.033  24.850  26.436  1.00  0.00     0.029 A 
ATOM     48  C   UNL A   1      46.907  26.243  26.856  1.00  0.00     0.049 A 
ATOM     49  H   UNL A   1      45.221  27.182  27.640  1.00  0.00     0.167 HD
ATOM     50  C   UNL A   1      41.504  29.100  28.983  1.00  0.00     0.034 A 
ATOM     51  C   UNL A   1      47.891  27.162  26.803  1.00  0.00     0.034 A 
ATOM     52  C   UNL A   1      42.523  30.118  29.083  1.00  0.00     0.049 A 
ATOM     53  C   UNL A   1      47.609  28.561  27.281  1.00  0.00     0.074 A 
ATOM     54  C   UNL A   1      42.414  31.405  29.581  1.00  0.00     0.029 A 
ATOM     55  N   UNL A   1      43.839  29.970  28.661  1.00  0.00    -0.354 N 
ATOM     56  N   UNL A   1      46.482  29.069  27.724  1.00  0.00    -0.248 NA
ATOM     57  C   UNL A   1      48.732  29.506  27.260  1.00  0.00     0.031 C 
ATOM     58  C   UNL A   1      43.642  32.054  29.400  1.00  0.00     0.029 A 
ATOM     59  C   UNL A   1      44.541  31.152  28.853  1.00  0.00     0.049 A 
ATOM     60  H   UNL A   1      44.219  29.145  28.281  1.00  0.00     0.167 HD
ATOM     61  C   UNL A   1      46.764  30.393  28.048  1.00  0.00     0.074 A 
ATOM     62  C   UNL A   1      48.173  30.596  27.767  1.00  0.00     0.031 C 
ATOM     63  C   UNL A   1      45.936  31.351  28.536  1.00  0.00     0.034 A 
BRANCH  50  64
ATOM     64  C   UNL A   1      40.082  29.438  29.370  1.00  0.00     0.023 A 
ATOM     65  C   UNL A   1      39.701  29.572  30.717  1.00  0.00     0.031 A 
ATOM     66  C   UNL A   1      39.084  29.572  28.391  1.00  0.00     0.131 A 
ATOM     67  C   UNL A   1      38.347  29.730  31.052  1.00  0.00     0.055 A 
ATOM     68  C   UNL A   1      37.750  29.820  28.726  1.00  0.00     0.041 A 
ATOM     69  F   UNL A   1      39.380  29.437  27.088  1.00  0.00    -0.206 F 
ATOM     70  C   UNL A   1      37.372  29.879  30.064  1.00  0.00     0.022 A 
BRANCH  67  71
ATOM     71  S   UNL A   1      37.863  29.558  32.792  1.00  0.00     0.124 S 
ATOM     72  O   UNL A   1      39.095  29.938  33.481  1.00  0.00    -0.237 OA
ATOM     73  O   UNL A   1      36.752  30.496  32.904  1.00  0.00    -0.237 OA
ATOM     74  O   UNL A   1      37.503  28.146  32.910  1.00  0.00    -0.744 OA
ENDBRANCH  67  71
ENDBRANCH  50  64
BRANCH  51  75
ATOM     75  C   UNL A   1      49.225  26.791  26.256  1.00  0.00     0.023 A 
ATOM     76  C   UNL A   1      49.637  27.226  24.987  1.00  0.00     0.031 A 
ATOM     77  C   UNL A   1      50.107  25.988  27.001  1.00  0.00     0.131 A 
ATOM     78  C   UNL A   1      50.888  26.832  24.488  1.00  0.00     0.055 A 
ATOM     79  C   UNL A   1      51.367  25.633  26.517  1.00  0.00     0.041 A 
ATOM     80  F   UNL A   1      49.763  25.557  28.225  1.00  0.00    -0.206 F 
ATOM     81  C   UNL A   1      51.761  26.050  25.250  1.00  0.00     0.022 A 
BRANCH  78  82
ATOM     82  S   UNL A   1      51.348  27.325  22.804  1.00  0.00     0.124 S 
ATOM     83  O   UNL A   1      50.077  27.198  22.100  1.00  0.00    -0.237 OA
ATOM     84  O   UNL A   1      51.835  28.684  23.009  1.00  0.00    -0.237 OA
ATOM     85  O   UNL A   1      52.370  26.348  22.431  1.00  0.00    -0.744 OA
ENDBRANCH  78  82
ENDBRANCH  51  75
BRANCH  63  86
ATOM     86  C   UNL A   1      46.548  32.703  28.809  1.00  0.00     0.023 A 
ATOM     87  C   UNL A   1      46.729  33.650  27.786  1.00  0.00     0.031 A 
ATOM     88  C   UNL A   1      46.973  33.041  30.106  1.00  0.00     0.131 A 
ATOM     89  C   UNL A   1      47.364  34.869  28.065  1.00  0.00     0.055 A 
ATOM     90  C   UNL A   1      47.554  34.278  30.390  1.00  0.00     0.041 A 
ATOM     91  F   UNL A   1      46.829  32.174  31.120  1.00  0.00    -0.206 F 
ATOM     92  C   UNL A   1      47.763  35.196  29.365  1.00  0.00     0.022 A 
BRANCH  89  93
ATOM     93  S   UNL A   1      47.739  35.993  26.692  1.00  0.00     0.124 S 
ATOM     94  O   UNL A   1      48.213  37.181  27.393  1.00  0.00    -0.237 OA
ATOM     95  O   UNL A   1      48.748  35.248  25.945  1.00  0.00    -0.237 OA
ATOM     96  O   UNL A   1      46.454  36.145  26.011  1.00  0.00    -0.744 OA
ENDBRANCH  89  93
ENDBRANCH  63  86
ENDBRANCH  37  38
ENDBRANCH  29  32
ENDBRANCH  27  28
ENDBRANCH  26  27
ENDBRANCH  25  26
ENDBRANCH   1  25
TORSDOF 20
ENDMDL
MODEL 3
REMARK VINA RESULT:     -10.7      2.059      2.482
REMARK SMILES C[C@H](NC(=O)c1cc(S(=O)(=O)N(C)C)cs1)C(=O)NCCCCCCNC(=O)c1ccc(-c2c3nc(c(-c4cc(S(=O)(=O)[O-])ccc4F)c4ccc([nH]4)c(-c4cc(S(=O)(=O)[O-])ccc4F)c4nc(c(-c5cc(S(=O)(=O)[O-])ccc5F)c5ccc2[nH]5)C=C4)C=C3)cc1
REMARK SMILES IDX 22 1 21 2 20 3 19 4 17 5 18 6 2 8 1 9 3 10 4 11 5 13 6 14
REMARK SMILES IDX 7 15 16 16 8 17 15 18 9 19 10 20 11 21 12 22 13 23 14 24
REMARK SMILES IDX 23 25 24 26 25 27 26 28 27 29 28 31 29 32 30 33 91 34 31 35
REMARK SMILES IDX 90 36 32 37 33 38 34 39 84 40 35 41 89 42 83 43 85 44 36 45
REMARK SMILES IDX 88 46 82 47 81 48 37 50 69 51 49 52 68 53 50 54 53 55 67 56
REMARK SMILES IDX 86 57 51 58 52 59 66 61 87 62 54 63 38 64 39 65 47 66 40 67
REMARK SMILES IDX 46 68 48 69 45 70 41 71 42 72 43 73 44 74 70 75 71 76 79 77
REMARK SMILES IDX 72 78 78 79 80 80 77 81 73 82 74 83 75 84 76 85 55 86 56 87
REMARK SMILES IDX 64 88 57 89 63 90 65 91 62 92 58 93 59 94 60 95 61 96
REMARK H PARENT 19 7 3 12 26 30 85 49 53 60
REMARK Flexibility Score: inf
ROOT
ATOM      1  C   UNL A   1      37.308  21.902  25.089  1.00  0.00     0.002 C 
ENDROOT
BRANCH   1   2
ATOM      2  C   UNL A   1      36.807  22.889  24.029  1.00  0.00     0.021 C 
BRANCH   2   3
ATOM      3  C   UNL A   1      35.445  23.509  24.327  1.00  0.00     0.116 C 
BRANCH   3   4
ATOM      4  N   UNL A   1      34.368  22.584  24.033  1.00  0.00    -0.354 N 
ATOM      5  C   UNL A   1      33.376  22.089  24.819  1.00  0.00     0.242 C 
ATOM      6  O   UNL A   1      32.570  21.308  24.300  1.00  0.00    -0.273 OA
ATOM      7  H   UNL A   1      34.352  22.260  23.103  1.00  0.00     0.163 HD
BRANCH   5   8
ATOM      8  C   UNL A   1      33.237  22.481  26.298  1.00  0.00     0.168 C 
ATOM      9  C   UNL A   1      34.069  21.614  27.235  1.00  0.00     0.041 C 
BRANCH   8  10
ATOM     10  N   UNL A   1      31.832  22.550  26.707  1.00  0.00    -0.340 N 
ATOM     11  C   UNL A   1      30.973  23.622  26.667  1.00  0.00     0.262 C 
ATOM     12  H   UNL A   1      31.452  21.715  27.061  1.00  0.00     0.164 HD
ATOM     13  O   UNL A   1      29.906  23.522  27.270  1.00  0.00    -0.268 OA
BRANCH  11  14
ATOM     14  C   UNL A   1      31.356  24.785  25.895  1.00  0.00     0.093 A 
ATOM     15  C   UNL A   1      31.104  25.052  24.563  1.00  0.00     0.047 A 
ATOM     16  S   UNL A   1      32.208  26.066  26.642  1.00  0.00    -0.137 S 
ATOM     17  C   UNL A   1      31.693  26.274  24.137  1.00  0.00     0.094 A 
ATOM     18  C   UNL A   1      32.336  26.926  25.166  1.00  0.00     0.087 A 
BRANCH  17  19
ATOM     19  S   UNL A   1      31.660  26.849  22.505  1.00  0.00     0.243 S 
ATOM     20  O   UNL A   1      32.870  27.621  22.367  1.00  0.00    -0.207 OA
ATOM     21  O   UNL A   1      31.431  25.637  21.739  1.00  0.00    -0.207 OA
BRANCH  19  22
ATOM     22  N   UNL A   1      30.323  27.887  22.292  1.00  0.00    -0.204 NA
ATOM     23  C   UNL A   1      29.190  27.659  23.216  1.00  0.00     0.124 C 
ATOM     24  C   UNL A   1      30.688  29.318  22.226  1.00  0.00     0.124 C 
ENDBRANCH  19  22
ENDBRANCH  17  19
ENDBRANCH  11  14
ENDBRANCH   8  10
ENDBRANCH   5   8
ENDBRANCH   3   4
ENDBRANCH   2   3
ENDBRANCH   1   2
BRANCH   1  25
ATOM     25  C   UNL A   1      37.074  20.423  24.772  1.00  0.00     0.002 C 
BRANCH  25  26
ATOM     26  C   UNL A   1      38.265  19.498  25.037  1.00  0.00     0.021 C 
BRANCH  26  27
ATOM     27  C   UNL A   1      39.333  20.068  25.965  1.00  0.00     0.116 C 
BRANCH  27  28
ATOM     28  N   UNL A   1      40.524  19.237  26.015  1.00  0.00    -0.352 N 
ATOM     29  C   UNL A   1      41.838  19.611  26.155  1.00  0.00     0.251 C 
ATOM     30  H   UNL A   1      40.367  18.267  25.936  1.00  0.00     0.163 HD
ATOM     31  O   UNL A   1      42.727  18.778  26.006  1.00  0.00    -0.269 OA
BRANCH  29  32
ATOM     32  C   UNL A   1      42.175  21.021  26.453  1.00  0.00     0.039 A 
ATOM     33  C   UNL A   1      42.385  21.397  27.781  1.00  0.00     0.014 A 
ATOM     34  C   UNL A   1      42.293  21.964  25.427  1.00  0.00     0.014 A 
ATOM     35  C   UNL A   1      42.784  22.704  28.076  1.00  0.00     0.010 A 
ATOM     36  C   UNL A   1      42.752  23.247  25.716  1.00  0.00     0.010 A 
ATOM     37  C   UNL A   1      43.006  23.628  27.043  1.00  0.00    -0.014 A 
BRANCH  37  38
ATOM     38  C   UNL A   1      43.523  24.990  27.330  1.00  0.00     0.031 A 
ATOM     39  C   UNL A   1      42.599  26.063  27.834  1.00  0.00     0.074 A 
ATOM     40  C   UNL A   1      44.811  25.279  27.062  1.00  0.00     0.049 A 
ATOM     41  N   UNL A   1      42.844  27.328  28.065  1.00  0.00    -0.248 NA
ATOM     42  C   UNL A   1      41.206  25.663  28.079  1.00  0.00     0.031 C 
ATOM     43  C   UNL A   1      45.793  24.337  26.519  1.00  0.00     0.029 A 
ATOM     44  N   UNL A   1      45.514  26.452  27.190  1.00  0.00    -0.354 N 
ATOM     45  C   UNL A   1      41.635  27.877  28.479  1.00  0.00     0.074 A 
ATOM     46  C   UNL A   1      40.648  26.820  28.397  1.00  0.00     0.031 C 
ATOM     47  C   UNL A   1      46.968  24.966  26.367  1.00  0.00     0.029 A 
ATOM     48  C   UNL A   1      46.817  26.363  26.764  1.00  0.00     0.049 A 
ATOM     49  H   UNL A   1      45.120  27.278  27.553  1.00  0.00     0.167 HD
ATOM     50  C   UNL A   1      41.379  29.138  28.910  1.00  0.00     0.034 A 
ATOM     51  C   UNL A   1      47.779  27.303  26.683  1.00  0.00     0.034 A 
ATOM     52  C   UNL A   1      42.376  30.180  28.979  1.00  0.00     0.049 A 
ATOM     53  C   UNL A   1      47.472  28.703  27.139  1.00  0.00     0.074 A 
ATOM     54  C   UNL A   1      42.244  31.473  29.456  1.00  0.00     0.029 A 
ATOM     55  N   UNL A   1      43.690  30.053  28.543  1.00  0.00    -0.354 N 
ATOM     56  N   UNL A   1      46.340  29.195  27.588  1.00  0.00    -0.248 NA
ATOM     57  C   UNL A   1      48.574  29.672  27.088  1.00  0.00     0.031 C 
ATOM     58  C   UNL A   1      43.455  32.145  29.248  1.00  0.00     0.029 A 
ATOM     59  C   UNL A   1      44.368  31.254  28.705  1.00  0.00     0.049 A 
ATOM     60  H   UNL A   1      44.083  29.231  28.172  1.00  0.00     0.167 HD
ATOM     61  C   UNL A   1      46.597  30.529  27.885  1.00  0.00     0.074 A 
ATOM     62  C   UNL A   1      47.997  30.759  27.583  1.00  0.00     0.031 C 
ATOM     63  C   UNL A   1      45.754  31.478  28.367  1.00  0.00     0.034 A 
BRANCH  50  64
ATOM     64  C   UNL A   1      39.955  29.451  29.309  1.00  0.00     0.023 A 
ATOM     65  C   UNL A   1      39.571  29.525  30.660  1.00  0.00     0.031 A 
ATOM     66  C   UNL A   1      38.957  29.622  28.335  1.00  0.00     0.131 A 
ATOM     67  C   UNL A   1      38.216  29.661  31.000  1.00  0.00     0.055 A 
ATOM     68  C   UNL A   1      37.621  29.849  28.679  1.00  0.00     0.041 A 
ATOM     69  F   UNL A   1      39.255  29.547  27.028  1.00  0.00    -0.206 F 
ATOM     70  C   UNL A   1      37.241  29.848  30.018  1.00  0.00     0.022 A 
BRANCH  67  71
ATOM     71  S   UNL A   1      37.730  29.410  32.730  1.00  0.00     0.124 S 
ATOM     72  O   UNL A   1      36.437  30.088  32.775  1.00  0.00    -0.237 OA
ATOM     73  O   UNL A   1      37.695  27.957  32.840  1.00  0.00    -0.237 OA
ATOM     74  O   UNL A   1      38.796  30.069  33.484  1.00  0.00    -0.744 OA
ENDBRANCH  67  71
ENDBRANCH  50  64
BRANCH  51  75
ATOM     75  C   UNL A   1      49.114  26.951  26.125  1.00  0.00     0.023 A 
ATOM     76  C   UNL A   1      49.491  27.352  24.834  1.00  0.00     0.031 A 
ATOM     77  C   UNL A   1      50.033  26.203  26.882  1.00  0.00     0.131 A 
ATOM     78  C   UNL A   1      50.746  26.978  24.327  1.00  0.00     0.055 A 
ATOM     79  C   UNL A   1      51.295  25.868  26.388  1.00  0.00     0.041 A 
ATOM     80  F   UNL A   1      49.723  25.807  28.127  1.00  0.00    -0.206 F 
ATOM     81  C   UNL A   1      51.654  26.250  25.100  1.00  0.00     0.022 A 
BRANCH  78  82
ATOM     82  S   UNL A   1      51.161  27.422  22.618  1.00  0.00     0.124 S 
ATOM     83  O   UNL A   1      50.091  26.770  21.872  1.00  0.00    -0.237 OA
ATOM     84  O   UNL A   1      51.115  28.879  22.665  1.00  0.00    -0.237 OA
ATOM     85  O   UNL A   1      52.493  26.848  22.431  1.00  0.00    -0.744 OA
ENDBRANCH  78  82
ENDBRANCH  51  75
BRANCH  63  86
ATOM     86  C   UNL A   1      46.339  32.847  28.609  1.00  0.00     0.023 A 
ATOM     87  C   UNL A   1      46.848  33.220  29.866  1.00  0.00     0.031 A 
ATOM     88  C   UNL A   1      46.372  33.798  27.574  1.00  0.00     0.131 A 
ATOM     89  C   UNL A   1      47.321  34.524  30.071  1.00  0.00     0.055 A 
ATOM     90  C   UNL A   1      46.896  35.078  27.768  1.00  0.00     0.041 A 
ATOM     91  F   UNL A   1      45.897  33.499  26.355  1.00  0.00    -0.206 F 
ATOM     92  C   UNL A   1      47.363  35.451  29.025  1.00  0.00     0.022 A 
BRANCH  89  93
ATOM     93  S   UNL A   1      47.805  35.024  31.746  1.00  0.00     0.124 S 
ATOM     94  O   UNL A   1      46.733  35.944  32.109  1.00  0.00    -0.237 OA
ATOM     95  O   UNL A   1      47.822  33.751  32.459  1.00  0.00    -0.237 OA
ATOM     96  O   UNL A   1      49.116  35.643  31.554  1.00  0.00    -0.744 OA
ENDBRANCH  89  93
ENDBRANCH  63  86
ENDBRANCH  37  38
ENDBRANCH  29  32
ENDBRANCH  27  28
ENDBRANCH  26  27
ENDBRANCH  25  26
ENDBRANCH   1  25
TORSDOF 20
ENDMDL
