MODEL 1
REMARK VINA RESULT:     -12.2      0.000      0.000
REMARK SMILES Cc1cc2c(c(C)c1Br)C=C(C(=O)NCCCCCCNC(=O)c1ccc(-c3c4nc(c(-c5cc(S(=O)(=O)[O-])ccc5F)c5ccc([nH]5)c(-c5cc(S(=O)(=O)[O-])ccc5F)c5nc(c(-c6cc(S(=O)(=O)[O-])ccc6F)c6ccc3[nH]6)C=C5)C=C4)cc1)[C@@H](C(F)(F)F)O2
REMARK SMILES IDX 18 1 17 2 16 3 15 4 14 5 12 6 13 7 11 9 1 10 2 11 3 12 8 13
REMARK SMILES IDX 4 14 6 15 9 16 5 17 92 18 7 19 10 20 87 21 88 22 89 23 90 24
REMARK SMILES IDX 91 25 19 26 20 27 21 28 22 29 23 31 24 32 25 33 86 34 26 35
REMARK SMILES IDX 85 36 27 37 28 38 29 39 79 40 30 41 84 42 78 43 80 44 31 45
REMARK SMILES IDX 83 46 77 47 76 48 32 50 64 51 44 52 63 53 45 54 48 55 62 56
REMARK SMILES IDX 81 57 46 58 47 59 61 61 82 62 49 63 33 64 34 65 42 66 35 67
REMARK SMILES IDX 41 68 43 69 40 70 36 71 37 72 38 73 39 74 65 75 66 76 74 77
REMARK SMILES IDX 67 78 73 79 75 80 72 81 68 82 69 83 70 84 71 85 50 86 51 87
REMARK SMILES IDX 59 88 52 89 58 90 60 91 57 92 53 93 54 94 55 95 56 96
REMARK H PARENT 14 8 21 30 80 49 48 60
REMARK Flexibility Score: inf
ROOT
ATOM      1  C   UNL A   1      31.564  30.833  26.215  1.00  0.00     0.002 C 
ENDROOT
BRANCH   1   2
ATOM      2  C   UNL A   1      32.382  29.989  27.202  1.00  0.00     0.002 C 
BRANCH   2   3
ATOM      3  C   UNL A   1      31.734  28.664  27.611  1.00  0.00     0.021 C 
BRANCH   3   4
ATOM      4  C   UNL A   1      32.497  27.436  27.126  1.00  0.00     0.116 C 
BRANCH   4   5
ATOM      5  N   UNL A   1      33.075  27.647  25.812  1.00  0.00    -0.352 N 
ATOM      6  C   UNL A   1      33.466  26.881  24.767  1.00  0.00     0.251 C 
ATOM      7  O   UNL A   1      33.907  27.504  23.795  1.00  0.00    -0.270 OA
ATOM      8  H   UNL A   1      33.224  28.604  25.632  1.00  0.00     0.163 HD
BRANCH   6   9
ATOM      9  C   UNL A   1      33.397  25.389  24.718  1.00  0.00     0.067 C 
ATOM     10  C   UNL A   1      34.391  18.956  24.728  1.00  0.00     0.046 C 
ATOM     11  C   UNL A   1      34.523  20.455  24.745  1.00  0.00    -0.033 A 
ATOM     12  C   UNL A   1      33.351  21.211  24.776  1.00  0.00     0.051 A 
ATOM     13  C   UNL A   1      35.765  21.126  24.742  1.00  0.00     0.024 A 
ATOM     14  C   UNL A   1      33.402  22.599  24.790  1.00  0.00     0.128 A 
ATOM     15  C   UNL A   1      35.831  22.545  24.762  1.00  0.00    -0.026 A 
ATOM     16  Br  UNL A   1      37.361  20.069  24.727  1.00  0.00    -0.050 Br
ATOM     17  C   UNL A   1      34.620  23.281  24.792  1.00  0.00     0.021 A 
ATOM     18  O   UNL A   1      32.188  23.213  24.848  1.00  0.00    -0.475 OA
ATOM     19  C   UNL A   1      37.143  23.296  24.754  1.00  0.00     0.046 C 
ATOM     20  C   UNL A   1      34.570  24.746  24.862  1.00  0.00     0.026 C 
ATOM     21  C   UNL A   1      32.136  24.613  24.482  1.00  0.00     0.314 C 
BRANCH  21  22
ATOM     22  C   UNL A   1      31.615  24.738  23.040  1.00  0.00     0.429 C 
ATOM     23  F   UNL A   1      32.550  24.307  22.157  1.00  0.00    -0.167 F 
ATOM     24  F   UNL A   1      30.507  23.995  22.817  1.00  0.00    -0.167 F 
ATOM     25  F   UNL A   1      31.305  26.013  22.713  1.00  0.00    -0.167 F 
ENDBRANCH  21  22
ENDBRANCH   6   9
ENDBRANCH   4   5
ENDBRANCH   3   4
ENDBRANCH   2   3
ENDBRANCH   1   2
BRANCH   1  26
ATOM     26  C   UNL A   1      31.593  32.344  26.467  1.00  0.00     0.021 C 
BRANCH  26  27
ATOM     27  C   UNL A   1      32.766  32.819  27.318  1.00  0.00     0.116 C 
BRANCH  27  28
ATOM     28  N   UNL A   1      32.603  34.205  27.720  1.00  0.00    -0.352 N 
ATOM     29  C   UNL A   1      33.196  34.879  28.754  1.00  0.00     0.251 C 
ATOM     30  H   UNL A   1      31.980  34.734  27.173  1.00  0.00     0.163 HD
ATOM     31  O   UNL A   1      32.745  35.970  29.110  1.00  0.00    -0.269 OA
BRANCH  29  32
ATOM     32  C   UNL A   1      34.365  34.293  29.439  1.00  0.00     0.039 A 
ATOM     33  C   UNL A   1      35.637  34.485  28.897  1.00  0.00     0.014 A 
ATOM     34  C   UNL A   1      34.199  33.529  30.600  1.00  0.00     0.014 A 
ATOM     35  C   UNL A   1      36.750  33.937  29.538  1.00  0.00     0.010 A 
ATOM     36  C   UNL A   1      35.314  33.043  31.274  1.00  0.00     0.010 A 
ATOM     37  C   UNL A   1      36.597  33.226  30.738  1.00  0.00    -0.014 A 
BRANCH  37  38
ATOM     38  C   UNL A   1      37.760  32.603  31.417  1.00  0.00     0.031 A 
ATOM     39  C   UNL A   1      38.448  31.431  30.773  1.00  0.00     0.074 A 
ATOM     40  C   UNL A   1      38.174  33.068  32.611  1.00  0.00     0.049 A 
ATOM     41  N   UNL A   1      39.412  30.680  31.238  1.00  0.00    -0.248 NA
ATOM     42  C   UNL A   1      37.972  31.037  29.436  1.00  0.00     0.031 C 
ATOM     43  C   UNL A   1      37.584  34.199  33.329  1.00  0.00     0.029 A 
ATOM     44  N   UNL A   1      39.187  32.645  33.433  1.00  0.00    -0.354 N 
ATOM     45  C   UNL A   1      39.654  29.726  30.257  1.00  0.00     0.074 A 
ATOM     46  C   UNL A   1      38.696  29.955  29.197  1.00  0.00     0.031 C 
ATOM     47  C   UNL A   1      38.268  34.400  34.469  1.00  0.00     0.029 A 
ATOM     48  C   UNL A   1      39.309  33.383  34.586  1.00  0.00     0.049 A 
ATOM     49  H   UNL A   1      39.775  31.884  33.216  1.00  0.00     0.167 HD
ATOM     50  C   UNL A   1      40.606  28.763  30.230  1.00  0.00     0.034 A 
ATOM     51  C   UNL A   1      40.156  33.247  35.626  1.00  0.00     0.034 A 
ATOM     52  C   UNL A   1      41.569  28.560  31.281  1.00  0.00     0.049 A 
ATOM     53  C   UNL A   1      41.166  32.129  35.600  1.00  0.00     0.074 A 
ATOM     54  C   UNL A   1      42.594  27.633  31.341  1.00  0.00     0.029 A 
ATOM     55  N   UNL A   1      41.630  29.299  32.455  1.00  0.00    -0.354 N 
ATOM     56  N   UNL A   1      41.377  31.228  34.668  1.00  0.00    -0.248 NA
ATOM     57  C   UNL A   1      42.047  32.006  36.768  1.00  0.00     0.031 C 
ATOM     58  C   UNL A   1      43.235  27.770  32.575  1.00  0.00     0.029 A 
ATOM     59  C   UNL A   1      42.655  28.827  33.259  1.00  0.00     0.049 A 
ATOM     60  H   UNL A   1      41.032  30.047  32.683  1.00  0.00     0.167 HD
ATOM     61  C   UNL A   1      42.425  30.441  35.132  1.00  0.00     0.074 A 
ATOM     62  C   UNL A   1      42.815  30.982  36.419  1.00  0.00     0.031 C 
ATOM     63  C   UNL A   1      43.013  29.366  34.548  1.00  0.00     0.034 A 
BRANCH  50  64
ATOM     64  C   UNL A   1      40.645  27.852  29.031  1.00  0.00     0.023 A 
ATOM     65  C   UNL A   1      41.582  28.039  27.999  1.00  0.00     0.031 A 
ATOM     66  C   UNL A   1      39.744  26.779  28.922  1.00  0.00     0.131 A 
ATOM     67  C   UNL A   1      41.568  27.192  26.883  1.00  0.00     0.055 A 
ATOM     68  C   UNL A   1      39.777  25.900  27.839  1.00  0.00     0.041 A 
ATOM     69  F   UNL A   1      38.816  26.569  29.868  1.00  0.00    -0.206 F 
ATOM     70  C   UNL A   1      40.689  26.108  26.807  1.00  0.00     0.022 A 
BRANCH  67  71
ATOM     71  S   UNL A   1      42.661  27.574  25.488  1.00  0.00     0.124 S 
ATOM     72  O   UNL A   1      41.987  28.726  24.895  1.00  0.00    -0.237 OA
ATOM     73  O   UNL A   1      43.933  27.847  26.147  1.00  0.00    -0.237 OA
ATOM     74  O   UNL A   1      42.626  26.356  24.681  1.00  0.00    -0.744 OA
ENDBRANCH  67  71
ENDBRANCH  50  64
BRANCH  51  75
ATOM     75  C   UNL A   1      40.079  34.182  36.782  1.00  0.00     0.023 A 
ATOM     76  C   UNL A   1      39.471  33.789  37.985  1.00  0.00     0.031 A 
ATOM     77  C   UNL A   1      40.602  35.485  36.698  1.00  0.00     0.131 A 
ATOM     78  C   UNL A   1      39.379  34.699  39.049  1.00  0.00     0.055 A 
ATOM     79  C   UNL A   1      40.543  36.372  37.774  1.00  0.00     0.041 A 
ATOM     80  F   UNL A   1      41.198  35.905  35.571  1.00  0.00    -0.206 F 
ATOM     81  C   UNL A   1      39.922  35.982  38.957  1.00  0.00     0.022 A 
BRANCH  78  82
ATOM     82  S   UNL A   1      38.503  34.190  40.554  1.00  0.00     0.124 S 
ATOM     83  O   UNL A   1      38.299  35.469  41.225  1.00  0.00    -0.237 OA
ATOM     84  O   UNL A   1      37.310  33.550  40.012  1.00  0.00    -0.237 OA
ATOM     85  O   UNL A   1      39.449  33.286  41.207  1.00  0.00    -0.744 OA
ENDBRANCH  78  82
ENDBRANCH  51  75
BRANCH  63  86
ATOM     86  C   UNL A   1      44.145  28.709  35.294  1.00  0.00     0.023 A 
ATOM     87  C   UNL A   1      43.906  27.686  36.226  1.00  0.00     0.031 A 
ATOM     88  C   UNL A   1      45.476  29.089  35.047  1.00  0.00     0.131 A 
ATOM     89  C   UNL A   1      44.982  27.097  36.905  1.00  0.00     0.055 A 
ATOM     90  C   UNL A   1      46.546  28.464  35.687  1.00  0.00     0.041 A 
ATOM     91  F   UNL A   1      45.756  30.060  34.164  1.00  0.00    -0.206 F 
ATOM     92  C   UNL A   1      46.302  27.467  36.629  1.00  0.00     0.022 A 
BRANCH  89  93
ATOM     93  S   UNL A   1      44.631  25.874  38.196  1.00  0.00     0.124 S 
ATOM     94  O   UNL A   1      43.731  26.614  39.075  1.00  0.00    -0.237 OA
ATOM     95  O   UNL A   1      44.026  24.782  37.439  1.00  0.00    -0.237 OA
ATOM     96  O   UNL A   1      45.948  25.582  38.759  1.00  0.00    -0.744 OA
ENDBRANCH  89  93
ENDBRANCH  63  86
ENDBRANCH  37  38
ENDBRANCH  29  32
ENDBRANCH  27  28
ENDBRANCH  26  27
ENDBRANCH   1  26
TORSDOF 17
ENDMDL
MODEL 2
REMARK VINA RESULT:     -12.0      0.719      7.656
REMARK SMILES Cc1cc2c(c(C)c1Br)C=C(C(=O)NCCCCCCNC(=O)c1ccc(-c3c4nc(c(-c5cc(S(=O)(=O)[O-])ccc5F)c5ccc([nH]5)c(-c5cc(S(=O)(=O)[O-])ccc5F)c5nc(c(-c6cc(S(=O)(=O)[O-])ccc6F)c6ccc3[nH]6)C=C5)C=C4)cc1)[C@@H](C(F)(F)F)O2
REMARK SMILES IDX 18 1 17 2 16 3 15 4 14 5 12 6 13 7 11 9 1 10 2 11 3 12 8 13
REMARK SMILES IDX 4 14 6 15 9 16 5 17 92 18 7 19 10 20 87 21 88 22 89 23 90 24
REMARK SMILES IDX 91 25 19 26 20 27 21 28 22 29 23 31 24 32 25 33 86 34 26 35
REMARK SMILES IDX 85 36 27 37 28 38 29 39 79 40 30 41 84 42 78 43 80 44 31 45
REMARK SMILES IDX 83 46 77 47 76 48 32 50 64 51 44 52 63 53 45 54 48 55 62 56
REMARK SMILES IDX 81 57 46 58 47 59 61 61 82 62 49 63 33 64 34 65 42 66 35 67
REMARK SMILES IDX 41 68 43 69 40 70 36 71 37 72 38 73 39 74 65 75 66 76 74 77
REMARK SMILES IDX 67 78 73 79 75 80 72 81 68 82 69 83 70 84 71 85 50 86 51 87
REMARK SMILES IDX 59 88 52 89 58 90 60 91 57 92 53 93 54 94 55 95 56 96
REMARK H PARENT 14 8 21 30 80 49 48 60
REMARK Flexibility Score: inf
ROOT
ATOM      1  C   UNL A   1      31.393  31.347  26.172  1.00  0.00     0.002 C 
ENDROOT
BRANCH   1   2
ATOM      2  C   UNL A   1      32.465  30.378  26.689  1.00  0.00     0.002 C 
BRANCH   2   3
ATOM      3  C   UNL A   1      31.931  29.043  27.214  1.00  0.00     0.021 C 
BRANCH   3   4
ATOM      4  C   UNL A   1      32.804  27.848  26.846  1.00  0.00     0.116 C 
BRANCH   4   5
ATOM      5  N   UNL A   1      33.296  27.942  25.484  1.00  0.00    -0.352 N 
ATOM      6  C   UNL A   1      33.564  27.092  24.466  1.00  0.00     0.251 C 
ATOM      7  O   UNL A   1      33.969  27.625  23.427  1.00  0.00    -0.270 OA
ATOM      8  H   UNL A   1      33.487  28.875  25.232  1.00  0.00     0.163 HD
BRANCH   6   9
ATOM      9  C   UNL A   1      33.402  25.606  24.518  1.00  0.00     0.067 C 
ATOM     10  C   UNL A   1      34.004  19.139  24.939  1.00  0.00     0.046 C 
ATOM     11  C   UNL A   1      34.228  20.625  24.853  1.00  0.00    -0.033 A 
ATOM     12  C   UNL A   1      33.104  21.452  24.858  1.00  0.00     0.051 A 
ATOM     13  C   UNL A   1      35.508  21.216  24.779  1.00  0.00     0.024 A 
ATOM     14  C   UNL A   1      33.240  22.832  24.778  1.00  0.00     0.128 A 
ATOM     15  C   UNL A   1      35.660  22.625  24.702  1.00  0.00    -0.026 A 
ATOM     16  Br  UNL A   1      37.036  20.062  24.802  1.00  0.00    -0.050 Br
ATOM     17  C   UNL A   1      34.497  23.436  24.708  1.00  0.00     0.021 A 
ATOM     18  O   UNL A   1      32.067  23.524  24.819  1.00  0.00    -0.475 OA
ATOM     19  C   UNL A   1      37.014  23.292  24.617  1.00  0.00     0.046 C 
ATOM     20  C   UNL A   1      34.537  24.903  24.681  1.00  0.00     0.026 C 
ATOM     21  C   UNL A   1      32.091  24.897  24.362  1.00  0.00     0.314 C 
BRANCH  21  22
ATOM     22  C   UNL A   1      31.543  24.959  22.926  1.00  0.00     0.429 C 
ATOM     23  F   UNL A   1      31.199  26.230  22.603  1.00  0.00    -0.167 F 
ATOM     24  F   UNL A   1      32.450  24.562  22.002  1.00  0.00    -0.167 F 
ATOM     25  F   UNL A   1      30.447  24.185  22.758  1.00  0.00    -0.167 F 
ENDBRANCH  21  22
ENDBRANCH   6   9
ENDBRANCH   4   5
ENDBRANCH   3   4
ENDBRANCH   2   3
ENDBRANCH   1   2
BRANCH   1  26
ATOM     26  C   UNL A   1      31.412  32.741  26.807  1.00  0.00     0.021 C 
BRANCH  26  27
ATOM     27  C   UNL A   1      32.741  33.125  27.446  1.00  0.00     0.116 C 
BRANCH  27  28
ATOM     28  N   UNL A   1      32.697  34.468  27.999  1.00  0.00    -0.352 N 
ATOM     29  C   UNL A   1      33.351  34.973  29.091  1.00  0.00     0.251 C 
ATOM     30  H   UNL A   1      32.116  35.102  27.523  1.00  0.00     0.163 HD
ATOM     31  O   UNL A   1      32.995  36.051  29.570  1.00  0.00    -0.269 OA
BRANCH  29  32
ATOM     32  C   UNL A   1      34.473  34.223  29.689  1.00  0.00     0.039 A 
ATOM     33  C   UNL A   1      35.767  34.437  29.210  1.00  0.00     0.014 A 
ATOM     34  C   UNL A   1      34.241  33.285  30.701  1.00  0.00     0.014 A 
ATOM     35  C   UNL A   1      36.835  33.735  29.770  1.00  0.00     0.010 A 
ATOM     36  C   UNL A   1      35.313  32.637  31.303  1.00  0.00     0.010 A 
ATOM     37  C   UNL A   1      36.617  32.841  30.830  1.00  0.00    -0.014 A 
BRANCH  37  38
ATOM     38  C   UNL A   1      37.731  32.056  31.416  1.00  0.00     0.031 A 
ATOM     39  C   UNL A   1      38.244  32.412  32.784  1.00  0.00     0.074 A 
ATOM     40  C   UNL A   1      38.294  31.054  30.713  1.00  0.00     0.049 A 
ATOM     41  N   UNL A   1      39.267  31.925  33.436  1.00  0.00    -0.248 NA
ATOM     42  C   UNL A   1      37.523  33.475  33.504  1.00  0.00     0.031 C 
ATOM     43  C   UNL A   1      37.878  30.619  29.379  1.00  0.00     0.029 A 
ATOM     44  N   UNL A   1      39.337  30.220  31.025  1.00  0.00    -0.354 N 
ATOM     45  C   UNL A   1      39.314  32.622  34.638  1.00  0.00     0.074 A 
ATOM     46  C   UNL A   1      38.255  33.607  34.599  1.00  0.00     0.031 C 
ATOM     47  C   UNL A   1      38.638  29.577  29.001  1.00  0.00     0.029 A 
ATOM     48  C   UNL A   1      39.626  29.304  30.041  1.00  0.00     0.049 A 
ATOM     49  H   UNL A   1      39.833  30.271  31.874  1.00  0.00     0.167 HD
ATOM     50  C   UNL A   1      40.149  32.439  35.689  1.00  0.00     0.034 A 
ATOM     51  C   UNL A   1      40.586  28.359  29.981  1.00  0.00     0.034 A 
ATOM     52  C   UNL A   1      41.184  31.439  35.725  1.00  0.00     0.049 A 
ATOM     53  C   UNL A   1      41.540  28.217  31.137  1.00  0.00     0.074 A 
ATOM     54  C   UNL A   1      42.066  31.151  36.751  1.00  0.00     0.029 A 
ATOM     55  N   UNL A   1      41.476  30.561  34.689  1.00  0.00    -0.354 N 
ATOM     56  N   UNL A   1      41.578  28.890  32.264  1.00  0.00    -0.248 NA
ATOM     57  C   UNL A   1      42.586  27.193  31.011  1.00  0.00     0.031 C 
ATOM     58  C   UNL A   1      42.928  30.141  36.315  1.00  0.00     0.029 A 
ATOM     59  C   UNL A   1      42.544  29.752  35.041  1.00  0.00     0.049 A 
ATOM     60  H   UNL A   1      40.995  30.520  33.831  1.00  0.00     0.167 HD
ATOM     61  C   UNL A   1      42.642  28.360  32.987  1.00  0.00     0.074 A 
ATOM     62  C   UNL A   1      43.209  27.301  32.177  1.00  0.00     0.031 C 
ATOM     63  C   UNL A   1      43.108  28.717  34.210  1.00  0.00     0.034 A 
BRANCH  50  64
ATOM     64  C   UNL A   1      39.980  33.345  36.880  1.00  0.00     0.023 A 
ATOM     65  C   UNL A   1      39.248  32.941  38.010  1.00  0.00     0.031 A 
ATOM     66  C   UNL A   1      40.566  34.622  36.893  1.00  0.00     0.131 A 
ATOM     67  C   UNL A   1      39.084  33.822  39.088  1.00  0.00     0.055 A 
ATOM     68  C   UNL A   1      40.454  35.471  37.995  1.00  0.00     0.041 A 
ATOM     69  F   UNL A   1      41.257  35.066  35.831  1.00  0.00    -0.206 F 
ATOM     70  C   UNL A   1      39.703  35.075  39.099  1.00  0.00     0.022 A 
BRANCH  67  71
ATOM     71  S   UNL A   1      37.980  33.342  40.443  1.00  0.00     0.124 S 
ATOM     72  O   UNL A   1      38.849  32.478  41.238  1.00  0.00    -0.237 OA
ATOM     73  O   UNL A   1      37.636  34.627  41.042  1.00  0.00    -0.237 OA
ATOM     74  O   UNL A   1      36.882  32.657  39.764  1.00  0.00    -0.744 OA
ENDBRANCH  67  71
ENDBRANCH  50  64
BRANCH  51  75
ATOM     75  C   UNL A   1      40.701  27.484  28.781  1.00  0.00     0.023 A 
ATOM     76  C   UNL A   1      41.663  27.743  27.793  1.00  0.00     0.031 A 
ATOM     77  C   UNL A   1      39.844  26.384  28.600  1.00  0.00     0.131 A 
ATOM     78  C   UNL A   1      41.731  26.926  26.654  1.00  0.00     0.055 A 
ATOM     79  C   UNL A   1      39.942  25.551  27.485  1.00  0.00     0.041 A 
ATOM     80  F   UNL A   1      38.912  26.092  29.520  1.00  0.00    -0.206 F 
ATOM     81  C   UNL A   1      40.886  25.824  26.499  1.00  0.00     0.022 A 
BRANCH  78  82
ATOM     82  S   UNL A   1      42.923  27.345  25.352  1.00  0.00     0.124 S 
ATOM     83  O   UNL A   1      44.088  27.743  26.135  1.00  0.00    -0.237 OA
ATOM     84  O   UNL A   1      43.036  26.086  24.625  1.00  0.00    -0.237 OA
ATOM     85  O   UNL A   1      42.262  28.425  24.622  1.00  0.00    -0.744 OA
ENDBRANCH  78  82
ENDBRANCH  51  75
BRANCH  63  86
ATOM     86  C   UNL A   1      44.287  27.949  34.749  1.00  0.00     0.023 A 
ATOM     87  C   UNL A   1      44.117  26.716  35.400  1.00  0.00     0.031 A 
ATOM     88  C   UNL A   1      45.594  28.440  34.581  1.00  0.00     0.131 A 
ATOM     89  C   UNL A   1      45.236  26.029  35.892  1.00  0.00     0.055 A 
ATOM     90  C   UNL A   1      46.706  27.726  35.027  1.00  0.00     0.041 A 
ATOM     91  F   UNL A   1      45.809  29.612  33.963  1.00  0.00    -0.206 F 
ATOM     92  C   UNL A   1      46.530  26.517  35.694  1.00  0.00     0.022 A 
BRANCH  89  93
ATOM     93  S   UNL A   1      44.972  24.509  36.844  1.00  0.00     0.124 S 
ATOM     94  O   UNL A   1      44.240  25.003  38.005  1.00  0.00    -0.237 OA
ATOM     95  O   UNL A   1      44.207  23.684  35.913  1.00  0.00    -0.237 OA
ATOM     96  O   UNL A   1      46.327  24.037  37.119  1.00  0.00    -0.744 OA
ENDBRANCH  89  93
ENDBRANCH  63  86
ENDBRANCH  37  38
ENDBRANCH  29  32
ENDBRANCH  27  28
ENDBRANCH  26  27
ENDBRANCH   1  26
TORSDOF 17
ENDMDL
MODEL 3
REMARK VINA RESULT:     -12.0      6.008     11.421
REMARK SMILES Cc1cc2c(c(C)c1Br)C=C(C(=O)NCCCCCCNC(=O)c1ccc(-c3c4nc(c(-c5cc(S(=O)(=O)[O-])ccc5F)c5ccc([nH]5)c(-c5cc(S(=O)(=O)[O-])ccc5F)c5nc(c(-c6cc(S(=O)(=O)[O-])ccc6F)c6ccc3[nH]6)C=C5)C=C4)cc1)[C@@H](C(F)(F)F)O2
REMARK SMILES IDX 18 1 17 2 16 3 15 4 14 5 12 6 13 7 11 9 1 10 2 11 3 12 8 13
REMARK SMILES IDX 4 14 6 15 9 16 5 17 92 18 7 19 10 20 87 21 88 22 89 23 90 24
REMARK SMILES IDX 91 25 19 26 20 27 21 28 22 29 23 31 24 32 25 33 86 34 26 35
REMARK SMILES IDX 85 36 27 37 28 38 29 39 79 40 30 41 84 42 78 43 80 44 31 45
REMARK SMILES IDX 83 46 77 47 76 48 32 50 64 51 44 52 63 53 45 54 48 55 62 56
REMARK SMILES IDX 81 57 46 58 47 59 61 61 82 62 49 63 33 64 34 65 42 66 35 67
REMARK SMILES IDX 41 68 43 69 40 70 36 71 37 72 38 73 39 74 65 75 66 76 74 77
REMARK SMILES IDX 67 78 73 79 75 80 72 81 68 82 69 83 70 84 71 85 50 86 51 87
REMARK SMILES IDX 59 88 52 89 58 90 60 91 57 92 53 93 54 94 55 95 56 96
REMARK H PARENT 14 8 21 30 80 49 48 60
REMARK Flexibility Score: inf
ROOT
ATOM      1  C   UNL A   1      39.821  22.261  27.012  1.00  0.00     0.002 C 
ENDROOT
BRANCH   1   2
ATOM      2  C   UNL A   1      39.491  23.490  26.154  1.00  0.00     0.002 C 
BRANCH   2   3
ATOM      3  C   UNL A   1      38.167  24.178  26.492  1.00  0.00     0.021 C 
BRANCH   3   4
ATOM      4  C   UNL A   1      36.940  23.410  26.015  1.00  0.00     0.116 C 
BRANCH   4   5
ATOM      5  N   UNL A   1      36.989  23.153  24.587  1.00  0.00    -0.352 N 
ATOM      6  C   UNL A   1      36.130  23.200  23.542  1.00  0.00     0.251 C 
ATOM      7  O   UNL A   1      36.619  22.904  22.446  1.00  0.00    -0.270 OA
ATOM      8  H   UNL A   1      37.887  22.867  24.302  1.00  0.00     0.163 HD
BRANCH   6   9
ATOM      9  C   UNL A   1      34.686  23.577  23.629  1.00  0.00     0.067 C 
ATOM     10  C   UNL A   1      28.851  26.450  23.891  1.00  0.00     0.046 C 
ATOM     11  C   UNL A   1      30.320  26.128  23.842  1.00  0.00    -0.033 A 
ATOM     12  C   UNL A   1      30.688  24.791  23.688  1.00  0.00     0.051 A 
ATOM     13  C   UNL A   1      31.335  27.106  23.932  1.00  0.00     0.024 A 
ATOM     14  C   UNL A   1      32.027  24.424  23.638  1.00  0.00     0.128 A 
ATOM     15  C   UNL A   1      32.707  26.745  23.876  1.00  0.00    -0.026 A 
ATOM     16  Br  UNL A   1      30.807  28.937  24.114  1.00  0.00    -0.050 Br
ATOM     17  C   UNL A   1      33.044  25.377  23.721  1.00  0.00     0.021 A 
ATOM     18  O   UNL A   1      32.247  23.092  23.459  1.00  0.00    -0.475 OA
ATOM     19  C   UNL A   1      33.818  27.765  23.974  1.00  0.00     0.046 C 
ATOM     20  C   UNL A   1      34.426  24.896  23.604  1.00  0.00     0.026 C 
ATOM     21  C   UNL A   1      33.567  22.591  23.778  1.00  0.00     0.314 C 
BRANCH  21  22
ATOM     22  C   UNL A   1      33.533  21.928  25.166  1.00  0.00     0.429 C 
ATOM     23  F   UNL A   1      33.669  22.859  26.142  1.00  0.00    -0.167 F 
ATOM     24  F   UNL A   1      32.367  21.286  25.410  1.00  0.00    -0.167 F 
ATOM     25  F   UNL A   1      34.522  21.020  25.328  1.00  0.00    -0.167 F 
ENDBRANCH  21  22
ENDBRANCH   6   9
ENDBRANCH   4   5
ENDBRANCH   3   4
ENDBRANCH   2   3
ENDBRANCH   1   2
BRANCH   1  26
ATOM     26  C   UNL A   1      40.008  20.953  26.236  1.00  0.00     0.021 C 
BRANCH  26  27
ATOM     27  C   UNL A   1      40.817  19.892  26.974  1.00  0.00     0.116 C 
BRANCH  27  28
ATOM     28  N   UNL A   1      41.874  19.352  26.137  1.00  0.00    -0.352 N 
ATOM     29  C   UNL A   1      42.907  20.006  25.523  1.00  0.00     0.251 C 
ATOM     30  H   UNL A   1      41.843  18.379  25.991  1.00  0.00     0.163 HD
ATOM     31  O   UNL A   1      43.553  19.436  24.641  1.00  0.00    -0.269 OA
BRANCH  29  32
ATOM     32  C   UNL A   1      43.239  21.390  25.915  1.00  0.00     0.039 A 
ATOM     33  C   UNL A   1      43.166  22.404  24.958  1.00  0.00     0.014 A 
ATOM     34  C   UNL A   1      43.652  21.679  27.221  1.00  0.00     0.014 A 
ATOM     35  C   UNL A   1      43.475  23.716  25.319  1.00  0.00     0.010 A 
ATOM     36  C   UNL A   1      43.893  22.996  27.595  1.00  0.00     0.010 A 
ATOM     37  C   UNL A   1      43.826  24.024  26.643  1.00  0.00    -0.014 A 
BRANCH  37  38
ATOM     38  C   UNL A   1      44.195  25.404  27.041  1.00  0.00     0.031 A 
ATOM     39  C   UNL A   1      43.136  26.321  27.588  1.00  0.00     0.074 A 
ATOM     40  C   UNL A   1      45.460  25.838  26.884  1.00  0.00     0.049 A 
ATOM     41  N   UNL A   1      43.219  27.587  27.900  1.00  0.00    -0.248 NA
ATOM     42  C   UNL A   1      41.798  25.740  27.789  1.00  0.00     0.031 C 
ATOM     43  C   UNL A   1      46.571  25.037  26.364  1.00  0.00     0.029 A 
ATOM     44  N   UNL A   1      46.026  27.059  27.145  1.00  0.00    -0.354 N 
ATOM     45  C   UNL A   1      41.949  27.955  28.329  1.00  0.00     0.074 A 
ATOM     46  C   UNL A   1      41.099  26.794  28.180  1.00  0.00     0.031 C 
ATOM     47  C   UNL A   1      47.690  25.780  26.377  1.00  0.00     0.029 A 
ATOM     48  C   UNL A   1      47.369  27.121  26.855  1.00  0.00     0.049 A 
ATOM     49  H   UNL A   1      45.518  27.822  27.509  1.00  0.00     0.167 HD
ATOM     50  C   UNL A   1      41.536  29.145  28.828  1.00  0.00     0.034 A 
ATOM     51  C   UNL A   1      48.238  28.147  26.952  1.00  0.00     0.034 A 
ATOM     52  C   UNL A   1      42.398  30.286  28.993  1.00  0.00     0.049 A 
ATOM     53  C   UNL A   1      47.739  29.478  27.452  1.00  0.00     0.074 A 
ATOM     54  C   UNL A   1      42.088  31.529  29.514  1.00  0.00     0.029 A 
ATOM     55  N   UNL A   1      43.741  30.324  28.642  1.00  0.00    -0.354 N 
ATOM     56  N   UNL A   1      46.532  29.812  27.845  1.00  0.00    -0.248 NA
ATOM     57  C   UNL A   1      48.718  30.571  27.513  1.00  0.00     0.031 C 
ATOM     58  C   UNL A   1      43.226  32.336  29.424  1.00  0.00     0.029 A 
ATOM     59  C   UNL A   1      44.265  31.579  28.909  1.00  0.00     0.049 A 
ATOM     60  H   UNL A   1      44.247  29.570  28.262  1.00  0.00     0.167 HD
ATOM     61  C   UNL A   1      46.611  31.151  28.215  1.00  0.00     0.074 A 
ATOM     62  C   UNL A   1      47.987  31.558  28.014  1.00  0.00     0.031 C 
ATOM     63  C   UNL A   1      45.634  31.971  28.679  1.00  0.00     0.034 A 
BRANCH  50  64
ATOM     64  C   UNL A   1      40.087  29.273  29.220  1.00  0.00     0.023 A 
ATOM     65  C   UNL A   1      39.690  29.261  30.568  1.00  0.00     0.031 A 
ATOM     66  C   UNL A   1      39.093  29.419  28.237  1.00  0.00     0.131 A 
ATOM     67  C   UNL A   1      38.330  29.349  30.896  1.00  0.00     0.055 A 
ATOM     68  C   UNL A   1      37.747  29.572  28.572  1.00  0.00     0.041 A 
ATOM     69  F   UNL A   1      39.416  29.415  26.935  1.00  0.00    -0.206 F 
ATOM     70  C   UNL A   1      37.358  29.530  29.908  1.00  0.00     0.022 A 
BRANCH  67  71
ATOM     71  S   UNL A   1      37.838  29.141  32.628  1.00  0.00     0.124 S 
ATOM     72  O   UNL A   1      37.811  27.686  32.752  1.00  0.00    -0.237 OA
ATOM     73  O   UNL A   1      38.907  29.825  33.346  1.00  0.00    -0.237 OA
ATOM     74  O   UNL A   1      36.530  29.791  32.693  1.00  0.00    -0.744 OA
ENDBRANCH  67  71
ENDBRANCH  50  64
BRANCH  51  75
ATOM     75  C   UNL A   1      49.662  27.962  26.559  1.00  0.00     0.023 A 
ATOM     76  C   UNL A   1      50.075  28.175  25.235  1.00  0.00     0.031 A 
ATOM     77  C   UNL A   1      50.628  27.558  27.498  1.00  0.00     0.131 A 
ATOM     78  C   UNL A   1      51.415  27.961  24.879  1.00  0.00     0.055 A 
ATOM     79  C   UNL A   1      51.967  27.386  27.147  1.00  0.00     0.041 A 
ATOM     80  F   UNL A   1      50.283  27.348  28.778  1.00  0.00    -0.206 F 
ATOM     81  C   UNL A   1      52.367  27.581  25.828  1.00  0.00     0.022 A 
BRANCH  78  82
ATOM     82  S   UNL A   1      51.895  28.154  23.140  1.00  0.00     0.124 S 
ATOM     83  O   UNL A   1      53.096  28.975  23.254  1.00  0.00    -0.237 OA
ATOM     84  O   UNL A   1      52.099  26.771  22.724  1.00  0.00    -0.237 OA
ATOM     85  O   UNL A   1      50.738  28.818  22.541  1.00  0.00    -0.744 OA
ENDBRANCH  78  82
ENDBRANCH  51  75
BRANCH  63  86
ATOM     86  C   UNL A   1      46.022  33.389  29.007  1.00  0.00     0.023 A 
ATOM     87  C   UNL A   1      45.918  34.412  28.051  1.00  0.00     0.031 A 
ATOM     88  C   UNL A   1      46.470  33.725  30.297  1.00  0.00     0.131 A 
ATOM     89  C   UNL A   1      46.290  35.721  28.388  1.00  0.00     0.055 A 
ATOM     90  C   UNL A   1      46.789  35.038  30.641  1.00  0.00     0.041 A 
ATOM     91  F   UNL A   1      46.584  32.783  31.247  1.00  0.00    -0.206 F 
ATOM     92  C   UNL A   1      46.708  36.044  29.682  1.00  0.00     0.022 A 
BRANCH  89  93
ATOM     93  S   UNL A   1      46.271  36.990  27.094  1.00  0.00     0.124 S 
ATOM     94  O   UNL A   1      46.599  36.213  25.904  1.00  0.00    -0.237 OA
ATOM     95  O   UNL A   1      44.903  37.495  27.168  1.00  0.00    -0.237 OA
ATOM     96  O   UNL A   1      47.302  37.933  27.523  1.00  0.00    -0.744 OA
ENDBRANCH  89  93
ENDBRANCH  63  86
ENDBRANCH  37  38
ENDBRANCH  29  32
ENDBRANCH  27  28
ENDBRANCH  26  27
ENDBRANCH   1  26
TORSDOF 17
ENDMDL
