MODEL 1
REMARK VINA RESULT:     -10.4      0.000      0.000
REMARK SMILES CCc1ccc(C(=O)NCCCCCCNC(=O)c2ccc(-c3c4nc(c(-c5cc(S(=O)(=O)[O-])ccc5F)c5ccc([nH]5)c(-c5cc(S(=O)(=O)[O-])ccc5F)c5nc(c(-c6cc(S(=O)(=O)[O-])ccc6F)c6ccc3[nH]6)C=C5)C=C4)cc2)cc1S(=O)(=O)C(CC)CC
REMARK SMILES IDX 12 1 11 2 10 3 9 4 7 5 8 6 6 8 3 9 4 10 83 11 5 12 82 13
REMARK SMILES IDX 2 14 1 15 84 16 85 17 86 18 87 19 88 20 89 21 90 22 91 23
REMARK SMILES IDX 13 24 14 25 15 26 16 27 17 28 18 30 19 31 20 32 81 33 21 34
REMARK SMILES IDX 80 35 22 36 23 37 24 38 74 39 25 40 79 41 73 42 75 43 26 44
REMARK SMILES IDX 78 45 72 46 71 47 27 49 59 50 39 51 58 52 40 53 43 54 57 55
REMARK SMILES IDX 76 56 41 57 42 58 56 60 77 61 44 62 28 63 29 64 37 65 30 66
REMARK SMILES IDX 36 67 38 68 35 69 31 70 32 71 33 72 34 73 60 74 61 75 69 76
REMARK SMILES IDX 62 77 68 78 70 79 67 80 63 81 64 82 65 83 66 84 45 85 46 86
REMARK SMILES IDX 54 87 47 88 53 89 55 90 52 91 48 92 49 93 50 94 51 95
REMARK H PARENT 9 7 16 29 75 48 43 59
REMARK Flexibility Score: inf
ROOT
ATOM      1  C   UNL A   1      31.404  28.560  22.388  1.00  0.00     0.002 C 
ENDROOT
BRANCH   1   2
ATOM      2  C   UNL A   1      30.169  28.038  23.138  1.00  0.00     0.021 C 
BRANCH   2   3
ATOM      3  C   UNL A   1      30.258  26.542  23.461  1.00  0.00     0.116 C 
BRANCH   3   4
ATOM      4  N   UNL A   1      29.891  26.302  24.849  1.00  0.00    -0.352 N 
ATOM      5  C   UNL A   1      30.183  25.309  25.750  1.00  0.00     0.251 C 
ATOM      6  O   UNL A   1      29.703  25.406  26.880  1.00  0.00    -0.269 OA
ATOM      7  H   UNL A   1      29.307  27.001  25.222  1.00  0.00     0.163 HD
BRANCH   5   8
ATOM      8  C   UNL A   1      31.071  24.151  25.452  1.00  0.00     0.041 A 
ATOM      9  C   UNL A   1      32.670  21.860  24.838  1.00  0.00    -0.030 A 
ATOM     10  C   UNL A   1      31.424  21.750  25.500  1.00  0.00     0.006 A 
ATOM     11  C   UNL A   1      33.161  23.153  24.625  1.00  0.00     0.071 A 
ATOM     12  C   UNL A   1      30.656  22.874  25.830  1.00  0.00     0.014 A 
ATOM     13  C   UNL A   1      32.289  24.252  24.802  1.00  0.00     0.034 A 
BRANCH   9  14
ATOM     14  C   UNL A   1      33.180  20.589  24.204  1.00  0.00     0.033 C 
ATOM     15  C   UNL A   1      32.726  19.266  24.804  1.00  0.00     0.009 C 
ENDBRANCH   9  14
BRANCH  11  16
ATOM     16  S   UNL A   1      34.806  23.749  24.252  1.00  0.00     0.181 S 
ATOM     17  O   UNL A   1      34.881  23.718  22.804  1.00  0.00    -0.223 OA
ATOM     18  O   UNL A   1      34.850  25.057  24.898  1.00  0.00    -0.223 OA
BRANCH  16  19
ATOM     19  C   UNL A   1      36.183  22.881  24.932  1.00  0.00     0.113 C 
BRANCH  19  20
ATOM     20  C   UNL A   1      36.355  21.386  24.547  1.00  0.00     0.017 C 
ATOM     21  C   UNL A   1      37.572  20.594  25.005  1.00  0.00     0.005 C 
ENDBRANCH  19  20
BRANCH  19  22
ATOM     22  C   UNL A   1      37.517  23.632  25.096  1.00  0.00     0.017 C 
ATOM     23  C   UNL A   1      37.857  24.092  26.507  1.00  0.00     0.005 C 
ENDBRANCH  19  22
ENDBRANCH  16  19
ENDBRANCH  11  16
ENDBRANCH   5   8
ENDBRANCH   3   4
ENDBRANCH   2   3
ENDBRANCH   1   2
BRANCH   1  24
ATOM     24  C   UNL A   1      32.727  27.900  22.797  1.00  0.00     0.002 C 
BRANCH  24  25
ATOM     25  C   UNL A   1      33.714  28.830  23.509  1.00  0.00     0.021 C 
BRANCH  25  26
ATOM     26  C   UNL A   1      33.525  28.892  25.021  1.00  0.00     0.116 C 
BRANCH  26  27
ATOM     27  N   UNL A   1      32.804  30.094  25.417  1.00  0.00    -0.352 N 
ATOM     28  C   UNL A   1      32.946  30.845  26.558  1.00  0.00     0.251 C 
ATOM     29  H   UNL A   1      32.123  30.411  24.781  1.00  0.00     0.163 HD
ATOM     30  O   UNL A   1      32.088  31.672  26.861  1.00  0.00    -0.269 OA
BRANCH  28  31
ATOM     31  C   UNL A   1      34.126  30.636  27.420  1.00  0.00     0.039 A 
ATOM     32  C   UNL A   1      34.332  29.390  28.014  1.00  0.00     0.014 A 
ATOM     33  C   UNL A   1      35.035  31.677  27.628  1.00  0.00     0.014 A 
ATOM     34  C   UNL A   1      35.486  29.168  28.770  1.00  0.00     0.010 A 
ATOM     35  C   UNL A   1      36.217  31.434  28.318  1.00  0.00     0.010 A 
ATOM     36  C   UNL A   1      36.453  30.178  28.899  1.00  0.00    -0.014 A 
BRANCH  36  37
ATOM     37  C   UNL A   1      37.717  29.958  29.649  1.00  0.00     0.031 A 
ATOM     38  C   UNL A   1      38.763  29.033  29.089  1.00  0.00     0.074 A 
ATOM     39  C   UNL A   1      37.887  30.524  30.860  1.00  0.00     0.049 A 
ATOM     40  N   UNL A   1      39.869  28.602  29.638  1.00  0.00    -0.248 NA
ATOM     41  C   UNL A   1      38.510  28.498  27.742  1.00  0.00     0.031 C 
ATOM     42  C   UNL A   1      36.934  31.421  31.515  1.00  0.00     0.029 A 
ATOM     43  N   UNL A   1      38.914  30.415  31.764  1.00  0.00    -0.354 N 
ATOM     44  C   UNL A   1      40.437  27.733  28.713  1.00  0.00     0.074 A 
ATOM     45  C   UNL A   1      39.519  27.653  27.595  1.00  0.00     0.031 C 
ATOM     46  C   UNL A   1      37.428  31.795  32.706  1.00  0.00     0.029 A 
ATOM     47  C   UNL A   1      38.704  31.121  32.927  1.00  0.00     0.049 A 
ATOM     48  H   UNL A   1      39.724  29.882  31.597  1.00  0.00     0.167 HD
ATOM     49  C   UNL A   1      41.623  27.079  28.781  1.00  0.00     0.034 A 
ATOM     50  C   UNL A   1      39.444  31.197  34.052  1.00  0.00     0.034 A 
ATOM     51  C   UNL A   1      42.526  27.179  29.901  1.00  0.00     0.049 A 
ATOM     52  C   UNL A   1      40.735  30.420  34.128  1.00  0.00     0.074 A 
ATOM     53  C   UNL A   1      43.772  26.599  30.057  1.00  0.00     0.029 A 
ATOM     54  N   UNL A   1      42.275  27.899  31.063  1.00  0.00    -0.354 N 
ATOM     55  N   UNL A   1      41.277  29.629  33.231  1.00  0.00    -0.248 NA
ATOM     56  C   UNL A   1      41.517  30.550  35.365  1.00  0.00     0.031 C 
ATOM     57  C   UNL A   1      44.241  26.904  31.339  1.00  0.00     0.029 A 
ATOM     58  C   UNL A   1      43.329  27.748  31.953  1.00  0.00     0.049 A 
ATOM     59  H   UNL A   1      41.468  28.437  31.231  1.00  0.00     0.167 HD
ATOM     60  C   UNL A   1      42.482  29.200  33.781  1.00  0.00     0.074 A 
ATOM     61  C   UNL A   1      42.589  29.821  35.084  1.00  0.00     0.031 C 
ATOM     62  C   UNL A   1      43.421  28.374  33.251  1.00  0.00     0.034 A 
BRANCH  49  63
ATOM     63  C   UNL A   1      41.989  26.180  27.624  1.00  0.00     0.023 A 
ATOM     64  C   UNL A   1      41.678  24.808  27.626  1.00  0.00     0.031 A 
ATOM     65  C   UNL A   1      42.686  26.692  26.515  1.00  0.00     0.131 A 
ATOM     66  C   UNL A   1      42.131  23.984  26.586  1.00  0.00     0.055 A 
ATOM     67  C   UNL A   1      43.057  25.882  25.439  1.00  0.00     0.041 A 
ATOM     68  F   UNL A   1      43.031  27.988  26.462  1.00  0.00    -0.206 F 
ATOM     69  C   UNL A   1      42.795  24.516  25.478  1.00  0.00     0.022 A 
BRANCH  66  70
ATOM     70  S   UNL A   1      41.979  22.187  26.779  1.00  0.00     0.124 S 
ATOM     71  O   UNL A   1      41.217  21.826  25.585  1.00  0.00    -0.237 OA
ATOM     72  O   UNL A   1      43.371  21.753  26.805  1.00  0.00    -0.237 OA
ATOM     73  O   UNL A   1      41.254  22.038  28.040  1.00  0.00    -0.744 OA
ENDBRANCH  66  70
ENDBRANCH  49  63
BRANCH  50  74
ATOM     74  C   UNL A   1      38.981  32.022  35.206  1.00  0.00     0.023 A 
ATOM     75  C   UNL A   1      38.438  31.420  36.353  1.00  0.00     0.031 A 
ATOM     76  C   UNL A   1      39.034  33.427  35.162  1.00  0.00     0.131 A 
ATOM     77  C   UNL A   1      37.928  32.220  37.388  1.00  0.00     0.055 A 
ATOM     78  C   UNL A   1      38.579  34.216  36.220  1.00  0.00     0.041 A 
ATOM     79  F   UNL A   1      39.542  34.056  34.091  1.00  0.00    -0.206 F 
ATOM     80  C   UNL A   1      38.009  33.613  37.336  1.00  0.00     0.022 A 
BRANCH  77  81
ATOM     81  S   UNL A   1      37.069  31.410  38.765  1.00  0.00     0.124 S 
ATOM     82  O   UNL A   1      36.925  30.048  38.264  1.00  0.00    -0.237 OA
ATOM     83  O   UNL A   1      38.013  31.595  39.862  1.00  0.00    -0.237 OA
ATOM     84  O   UNL A   1      35.824  32.168  38.881  1.00  0.00    -0.744 OA
ENDBRANCH  77  81
ENDBRANCH  50  74
BRANCH  62  85
ATOM     85  C   UNL A   1      44.678  28.147  34.054  1.00  0.00     0.023 A 
ATOM     86  C   UNL A   1      44.805  27.073  34.953  1.00  0.00     0.031 A 
ATOM     87  C   UNL A   1      45.775  29.012  33.897  1.00  0.00     0.131 A 
ATOM     88  C   UNL A   1      45.990  26.916  35.688  1.00  0.00     0.055 A 
ATOM     89  C   UNL A   1      46.971  28.817  34.586  1.00  0.00     0.041 A 
ATOM     90  F   UNL A   1      45.707  30.056  33.054  1.00  0.00    -0.206 F 
ATOM     91  C   UNL A   1      47.080  27.770  35.495  1.00  0.00     0.022 A 
BRANCH  88  92
ATOM     92  S   UNL A   1      46.068  25.620  36.955  1.00  0.00     0.124 S 
ATOM     93  O   UNL A   1      44.854  24.858  36.684  1.00  0.00    -0.237 OA
ATOM     94  O   UNL A   1      47.326  24.950  36.641  1.00  0.00    -0.237 OA
ATOM     95  O   UNL A   1      46.063  26.368  38.211  1.00  0.00    -0.744 OA
ENDBRANCH  88  92
ENDBRANCH  62  85
ENDBRANCH  36  37
ENDBRANCH  28  31
ENDBRANCH  26  27
ENDBRANCH  25  26
ENDBRANCH  24  25
ENDBRANCH   1  24
TORSDOF 21
ENDMDL
MODEL 2
REMARK VINA RESULT:     -10.4      1.916      2.263
REMARK SMILES CCc1ccc(C(=O)NCCCCCCNC(=O)c2ccc(-c3c4nc(c(-c5cc(S(=O)(=O)[O-])ccc5F)c5ccc([nH]5)c(-c5cc(S(=O)(=O)[O-])ccc5F)c5nc(c(-c6cc(S(=O)(=O)[O-])ccc6F)c6ccc3[nH]6)C=C5)C=C4)cc2)cc1S(=O)(=O)C(CC)CC
REMARK SMILES IDX 12 1 11 2 10 3 9 4 7 5 8 6 6 8 3 9 4 10 83 11 5 12 82 13
REMARK SMILES IDX 2 14 1 15 84 16 85 17 86 18 87 19 88 20 89 21 90 22 91 23
REMARK SMILES IDX 13 24 14 25 15 26 16 27 17 28 18 30 19 31 20 32 81 33 21 34
REMARK SMILES IDX 80 35 22 36 23 37 24 38 74 39 25 40 79 41 73 42 75 43 26 44
REMARK SMILES IDX 78 45 72 46 71 47 27 49 59 50 39 51 58 52 40 53 43 54 57 55
REMARK SMILES IDX 76 56 41 57 42 58 56 60 77 61 44 62 28 63 29 64 37 65 30 66
REMARK SMILES IDX 36 67 38 68 35 69 31 70 32 71 33 72 34 73 60 74 61 75 69 76
REMARK SMILES IDX 62 77 68 78 70 79 67 80 63 81 64 82 65 83 66 84 45 85 46 86
REMARK SMILES IDX 54 87 47 88 53 89 55 90 52 91 48 92 49 93 50 94 51 95
REMARK H PARENT 9 7 16 29 75 48 43 59
REMARK Flexibility Score: inf
ROOT
ATOM      1  C   UNL A   1      31.571  28.568  22.469  1.00  0.00     0.002 C 
ENDROOT
BRANCH   1   2
ATOM      2  C   UNL A   1      30.269  28.051  23.101  1.00  0.00     0.021 C 
BRANCH   2   3
ATOM      3  C   UNL A   1      30.313  26.550  23.407  1.00  0.00     0.116 C 
BRANCH   3   4
ATOM      4  N   UNL A   1      29.967  26.309  24.801  1.00  0.00    -0.352 N 
ATOM      5  C   UNL A   1      30.252  25.303  25.689  1.00  0.00     0.251 C 
ATOM      6  O   UNL A   1      29.796  25.404  26.829  1.00  0.00    -0.269 OA
ATOM      7  H   UNL A   1      29.408  27.020  25.190  1.00  0.00     0.163 HD
BRANCH   5   8
ATOM      8  C   UNL A   1      31.104  24.125  25.366  1.00  0.00     0.041 A 
ATOM      9  C   UNL A   1      32.633  21.799  24.709  1.00  0.00    -0.030 A 
ATOM     10  C   UNL A   1      31.415  21.719  25.424  1.00  0.00     0.006 A 
ATOM     11  C   UNL A   1      33.139  23.080  24.461  1.00  0.00     0.071 A 
ATOM     12  C   UNL A   1      30.682  22.861  25.775  1.00  0.00     0.014 A 
ATOM     13  C   UNL A   1      32.295  24.197  24.664  1.00  0.00     0.034 A 
BRANCH   9  14
ATOM     14  C   UNL A   1      33.091  20.512  24.067  1.00  0.00     0.033 C 
ATOM     15  C   UNL A   1      32.948  19.229  24.871  1.00  0.00     0.009 C 
ENDBRANCH   9  14
BRANCH  11  16
ATOM     16  S   UNL A   1      34.777  23.641  24.013  1.00  0.00     0.181 S 
ATOM     17  O   UNL A   1      34.887  23.337  22.600  1.00  0.00    -0.223 OA
ATOM     18  O   UNL A   1      34.774  25.049  24.398  1.00  0.00    -0.223 OA
BRANCH  16  19
ATOM     19  C   UNL A   1      36.158  22.958  24.872  1.00  0.00     0.113 C 
BRANCH  19  20
ATOM     20  C   UNL A   1      36.684  23.725  26.116  1.00  0.00     0.017 C 
ATOM     21  C   UNL A   1      38.156  24.095  26.243  1.00  0.00     0.005 C 
ENDBRANCH  19  20
BRANCH  19  22
ATOM     22  C   UNL A   1      36.258  21.428  25.004  1.00  0.00     0.017 C 
ATOM     23  C   UNL A   1      37.651  20.832  24.850  1.00  0.00     0.005 C 
ENDBRANCH  19  22
ENDBRANCH  16  19
ENDBRANCH  11  16
ENDBRANCH   5   8
ENDBRANCH   3   4
ENDBRANCH   2   3
ENDBRANCH   1   2
BRANCH   1  24
ATOM     24  C   UNL A   1      32.838  27.831  22.921  1.00  0.00     0.002 C 
BRANCH  24  25
ATOM     25  C   UNL A   1      33.875  28.712  23.624  1.00  0.00     0.021 C 
BRANCH  25  26
ATOM     26  C   UNL A   1      33.670  28.826  25.131  1.00  0.00     0.116 C 
BRANCH  26  27
ATOM     27  N   UNL A   1      32.974  30.056  25.481  1.00  0.00    -0.352 N 
ATOM     28  C   UNL A   1      33.142  30.854  26.585  1.00  0.00     0.251 C 
ATOM     29  H   UNL A   1      32.292  30.356  24.839  1.00  0.00     0.163 HD
ATOM     30  O   UNL A   1      32.302  31.708  26.860  1.00  0.00    -0.269 OA
BRANCH  28  31
ATOM     31  C   UNL A   1      34.328  30.663  27.443  1.00  0.00     0.039 A 
ATOM     32  C   UNL A   1      34.523  29.439  28.086  1.00  0.00     0.014 A 
ATOM     33  C   UNL A   1      35.254  31.699  27.600  1.00  0.00     0.014 A 
ATOM     34  C   UNL A   1      35.681  29.231  28.838  1.00  0.00     0.010 A 
ATOM     35  C   UNL A   1      36.439  31.467  28.288  1.00  0.00     0.010 A 
ATOM     36  C   UNL A   1      36.664  30.232  28.917  1.00  0.00    -0.014 A 
BRANCH  36  37
ATOM     37  C   UNL A   1      37.933  30.024  29.662  1.00  0.00     0.031 A 
ATOM     38  C   UNL A   1      38.974  29.089  29.112  1.00  0.00     0.074 A 
ATOM     39  C   UNL A   1      38.110  30.611  30.862  1.00  0.00     0.049 A 
ATOM     40  N   UNL A   1      40.083  28.667  29.662  1.00  0.00    -0.248 NA
ATOM     41  C   UNL A   1      38.712  28.530  27.776  1.00  0.00     0.031 C 
ATOM     42  C   UNL A   1      37.162  31.520  31.508  1.00  0.00     0.029 A 
ATOM     43  N   UNL A   1      39.143  30.517  31.762  1.00  0.00    -0.354 N 
ATOM     44  C   UNL A   1      40.645  27.781  28.749  1.00  0.00     0.074 A 
ATOM     45  C   UNL A   1      39.720  27.682  27.638  1.00  0.00     0.031 C 
ATOM     46  C   UNL A   1      37.664  31.914  32.689  1.00  0.00     0.029 A 
ATOM     47  C   UNL A   1      38.941  31.243  32.913  1.00  0.00     0.049 A 
ATOM     48  H   UNL A   1      39.952  29.981  31.599  1.00  0.00     0.167 HD
ATOM     49  C   UNL A   1      41.831  27.128  28.820  1.00  0.00     0.034 A 
ATOM     50  C   UNL A   1      39.687  31.338  34.033  1.00  0.00     0.034 A 
ATOM     51  C   UNL A   1      42.741  27.247  29.933  1.00  0.00     0.049 A 
ATOM     52  C   UNL A   1      40.978  30.562  34.114  1.00  0.00     0.074 A 
ATOM     53  C   UNL A   1      43.988  26.669  30.091  1.00  0.00     0.029 A 
ATOM     54  N   UNL A   1      42.498  27.987  31.084  1.00  0.00    -0.354 N 
ATOM     55  N   UNL A   1      41.514  29.755  33.227  1.00  0.00    -0.248 NA
ATOM     56  C   UNL A   1      41.769  30.713  35.344  1.00  0.00     0.031 C 
ATOM     57  C   UNL A   1      44.465  26.995  31.365  1.00  0.00     0.029 A 
ATOM     58  C   UNL A   1      43.557  27.851  31.969  1.00  0.00     0.049 A 
ATOM     59  H   UNL A   1      41.692  28.528  31.248  1.00  0.00     0.167 HD
ATOM     60  C   UNL A   1      42.723  29.335  33.777  1.00  0.00     0.074 A 
ATOM     61  C   UNL A   1      42.838  29.979  35.068  1.00  0.00     0.031 C 
ATOM     62  C   UNL A   1      43.658  28.500  33.256  1.00  0.00     0.034 A 
BRANCH  49  63
ATOM     63  C   UNL A   1      42.190  26.209  27.677  1.00  0.00     0.023 A 
ATOM     64  C   UNL A   1      41.901  24.833  27.716  1.00  0.00     0.031 A 
ATOM     65  C   UNL A   1      42.856  26.706  26.543  1.00  0.00     0.131 A 
ATOM     66  C   UNL A   1      42.347  23.992  26.686  1.00  0.00     0.055 A 
ATOM     67  C   UNL A   1      43.220  25.878  25.479  1.00  0.00     0.041 A 
ATOM     68  F   UNL A   1      43.179  28.007  26.455  1.00  0.00    -0.206 F 
ATOM     69  C   UNL A   1      42.981  24.509  25.554  1.00  0.00     0.022 A 
BRANCH  66  70
ATOM     70  S   UNL A   1      42.228  22.198  26.922  1.00  0.00     0.124 S 
ATOM     71  O   UNL A   1      40.798  21.969  26.728  1.00  0.00    -0.237 OA
ATOM     72  O   UNL A   1      43.106  21.683  25.878  1.00  0.00    -0.237 OA
ATOM     73  O   UNL A   1      42.702  22.000  28.291  1.00  0.00    -0.744 OA
ENDBRANCH  66  70
ENDBRANCH  49  63
BRANCH  50  74
ATOM     74  C   UNL A   1      39.232  32.184  35.175  1.00  0.00     0.023 A 
ATOM     75  C   UNL A   1      39.669  33.512  35.310  1.00  0.00     0.031 A 
ATOM     76  C   UNL A   1      38.388  31.664  36.173  1.00  0.00     0.131 A 
ATOM     77  C   UNL A   1      39.299  34.259  36.439  1.00  0.00     0.055 A 
ATOM     78  C   UNL A   1      37.976  32.431  37.264  1.00  0.00     0.041 A 
ATOM     79  F   UNL A   1      37.940  30.401  36.095  1.00  0.00    -0.206 F 
ATOM     80  C   UNL A   1      38.443  33.734  37.408  1.00  0.00     0.022 A 
BRANCH  77  81
ATOM     81  S   UNL A   1      40.033  35.902  36.669  1.00  0.00     0.124 S 
ATOM     82  O   UNL A   1      39.685  36.559  35.414  1.00  0.00    -0.237 OA
ATOM     83  O   UNL A   1      39.338  36.380  37.859  1.00  0.00    -0.237 OA
ATOM     84  O   UNL A   1      41.455  35.616  36.851  1.00  0.00    -0.744 OA
ENDBRANCH  77  81
ENDBRANCH  50  74
BRANCH  62  85
ATOM     85  C   UNL A   1      44.919  28.285  34.055  1.00  0.00     0.023 A 
ATOM     86  C   UNL A   1      46.036  29.131  33.930  1.00  0.00     0.031 A 
ATOM     87  C   UNL A   1      44.993  27.224  34.976  1.00  0.00     0.131 A 
ATOM     88  C   UNL A   1      47.191  28.877  34.685  1.00  0.00     0.055 A 
ATOM     89  C   UNL A   1      46.122  27.013  35.766  1.00  0.00     0.041 A 
ATOM     90  F   UNL A   1      43.957  26.384  35.134  1.00  0.00    -0.206 F 
ATOM     91  C   UNL A   1      47.233  27.836  35.616  1.00  0.00     0.022 A 
BRANCH  88  92
ATOM     92  S   UNL A   1      48.669  29.885  34.387  1.00  0.00     0.124 S 
ATOM     93  O   UNL A   1      48.328  30.563  33.141  1.00  0.00    -0.237 OA
ATOM     94  O   UNL A   1      48.720  30.727  35.578  1.00  0.00    -0.237 OA
ATOM     95  O   UNL A   1      49.742  28.898  34.282  1.00  0.00    -0.744 OA
ENDBRANCH  88  92
ENDBRANCH  62  85
ENDBRANCH  36  37
ENDBRANCH  28  31
ENDBRANCH  26  27
ENDBRANCH  25  26
ENDBRANCH  24  25
ENDBRANCH   1  24
TORSDOF 21
ENDMDL
MODEL 3
REMARK VINA RESULT:     -10.3      5.213      7.781
REMARK SMILES CCc1ccc(C(=O)NCCCCCCNC(=O)c2ccc(-c3c4nc(c(-c5cc(S(=O)(=O)[O-])ccc5F)c5ccc([nH]5)c(-c5cc(S(=O)(=O)[O-])ccc5F)c5nc(c(-c6cc(S(=O)(=O)[O-])ccc6F)c6ccc3[nH]6)C=C5)C=C4)cc2)cc1S(=O)(=O)C(CC)CC
REMARK SMILES IDX 12 1 11 2 10 3 9 4 7 5 8 6 6 8 3 9 4 10 83 11 5 12 82 13
REMARK SMILES IDX 2 14 1 15 84 16 85 17 86 18 87 19 88 20 89 21 90 22 91 23
REMARK SMILES IDX 13 24 14 25 15 26 16 27 17 28 18 30 19 31 20 32 81 33 21 34
REMARK SMILES IDX 80 35 22 36 23 37 24 38 74 39 25 40 79 41 73 42 75 43 26 44
REMARK SMILES IDX 78 45 72 46 71 47 27 49 59 50 39 51 58 52 40 53 43 54 57 55
REMARK SMILES IDX 76 56 41 57 42 58 56 60 77 61 44 62 28 63 29 64 37 65 30 66
REMARK SMILES IDX 36 67 38 68 35 69 31 70 32 71 33 72 34 73 60 74 61 75 69 76
REMARK SMILES IDX 62 77 68 78 70 79 67 80 63 81 64 82 65 83 66 84 45 85 46 86
REMARK SMILES IDX 54 87 47 88 53 89 55 90 52 91 48 92 49 93 50 94 51 95
REMARK H PARENT 9 7 16 29 75 48 43 59
REMARK Flexibility Score: inf
ROOT
ATOM      1  C   UNL A   1      34.463  20.832  25.860  1.00  0.00     0.002 C 
ENDROOT
BRANCH   1   2
ATOM      2  C   UNL A   1      33.668  19.651  25.283  1.00  0.00     0.021 C 
BRANCH   2   3
ATOM      3  C   UNL A   1      32.215  20.016  24.956  1.00  0.00     0.116 C 
BRANCH   3   4
ATOM      4  N   UNL A   1      32.036  20.134  23.516  1.00  0.00    -0.352 N 
ATOM      5  C   UNL A   1      32.169  21.169  22.625  1.00  0.00     0.251 C 
ATOM      6  O   UNL A   1      31.940  20.932  21.438  1.00  0.00    -0.269 OA
ATOM      7  H   UNL A   1      31.760  19.291  23.089  1.00  0.00     0.163 HD
BRANCH   5   8
ATOM      8  C   UNL A   1      32.606  22.542  23.004  1.00  0.00     0.041 A 
ATOM      9  C   UNL A   1      33.484  25.196  23.610  1.00  0.00    -0.030 A 
ATOM     10  C   UNL A   1      34.262  24.307  22.830  1.00  0.00     0.006 A 
ATOM     11  C   UNL A   1      32.328  24.673  24.200  1.00  0.00     0.071 A 
ATOM     12  C   UNL A   1      33.847  22.996  22.561  1.00  0.00     0.014 A 
ATOM     13  C   UNL A   1      31.848  23.416  23.765  1.00  0.00     0.034 A 
BRANCH   9  14
ATOM     14  C   UNL A   1      33.849  26.655  23.484  1.00  0.00     0.033 C 
ATOM     15  C   UNL A   1      33.477  27.369  22.193  1.00  0.00     0.009 C 
ENDBRANCH   9  14
BRANCH  11  16
ATOM     16  S   UNL A   1      31.324  25.259  25.560  1.00  0.00     0.181 S 
ATOM     17  O   UNL A   1      30.094  24.499  25.451  1.00  0.00    -0.223 OA
ATOM     18  O   UNL A   1      32.160  25.017  26.731  1.00  0.00    -0.223 OA
BRANCH  16  19
ATOM     19  C   UNL A   1      30.949  26.980  25.641  1.00  0.00     0.113 C 
BRANCH  19  20
ATOM     20  C   UNL A   1      31.962  27.906  26.367  1.00  0.00     0.017 C 
ATOM     21  C   UNL A   1      31.596  28.595  27.675  1.00  0.00     0.005 C 
ENDBRANCH  19  20
BRANCH  19  22
ATOM     22  C   UNL A   1      30.270  27.642  24.428  1.00  0.00     0.017 C 
ATOM     23  C   UNL A   1      30.805  29.009  24.025  1.00  0.00     0.005 C 
ENDBRANCH  19  22
ENDBRANCH  16  19
ENDBRANCH  11  16
ENDBRANCH   5   8
ENDBRANCH   3   4
ENDBRANCH   2   3
ENDBRANCH   1   2
BRANCH   1  24
ATOM     24  C   UNL A   1      35.610  21.327  24.970  1.00  0.00     0.002 C 
BRANCH  24  25
ATOM     25  C   UNL A   1      36.822  21.873  25.731  1.00  0.00     0.021 C 
BRANCH  25  26
ATOM     26  C   UNL A   1      38.164  21.497  25.109  1.00  0.00     0.116 C 
BRANCH  26  27
ATOM     27  N   UNL A   1      38.891  20.553  25.946  1.00  0.00    -0.352 N 
ATOM     28  C   UNL A   1      39.975  20.782  26.756  1.00  0.00     0.251 C 
ATOM     29  H   UNL A   1      38.561  19.627  25.927  1.00  0.00     0.163 HD
ATOM     30  O   UNL A   1      40.630  19.836  27.190  1.00  0.00    -0.269 OA
BRANCH  28  31
ATOM     31  C   UNL A   1      40.353  22.171  27.085  1.00  0.00     0.039 A 
ATOM     32  C   UNL A   1      41.324  22.406  28.061  1.00  0.00     0.014 A 
ATOM     33  C   UNL A   1      39.751  23.239  26.415  1.00  0.00     0.014 A 
ATOM     34  C   UNL A   1      41.737  23.715  28.321  1.00  0.00     0.010 A 
ATOM     35  C   UNL A   1      40.213  24.534  26.623  1.00  0.00     0.010 A 
ATOM     36  C   UNL A   1      41.209  24.786  27.581  1.00  0.00    -0.014 A 
BRANCH  36  37
ATOM     37  C   UNL A   1      41.666  26.184  27.793  1.00  0.00     0.031 A 
ATOM     38  C   UNL A   1      43.027  26.603  27.312  1.00  0.00     0.074 A 
ATOM     39  C   UNL A   1      40.893  27.045  28.484  1.00  0.00     0.049 A 
ATOM     40  N   UNL A   1      43.668  27.725  27.511  1.00  0.00    -0.248 NA
ATOM     41  C   UNL A   1      43.780  25.609  26.530  1.00  0.00     0.031 C 
ATOM     42  C   UNL A   1      39.563  26.746  29.019  1.00  0.00     0.029 A 
ATOM     43  N   UNL A   1      41.120  28.343  28.870  1.00  0.00    -0.354 N 
ATOM     44  C   UNL A   1      44.904  27.570  26.894  1.00  0.00     0.074 A 
ATOM     45  C   UNL A   1      44.944  26.221  26.369  1.00  0.00     0.031 C 
ATOM     46  C   UNL A   1      39.086  27.833  29.646  1.00  0.00     0.029 A 
ATOM     47  C   UNL A   1      40.096  28.887  29.610  1.00  0.00     0.049 A 
ATOM     48  H   UNL A   1      41.939  28.837  28.639  1.00  0.00     0.167 HD
ATOM     49  C   UNL A   1      45.905  28.476  26.758  1.00  0.00     0.034 A 
ATOM     50  C   UNL A   1      39.992  30.089  30.212  1.00  0.00     0.034 A 
ATOM     51  C   UNL A   1      45.842  29.818  27.283  1.00  0.00     0.049 A 
ATOM     52  C   UNL A   1      41.138  31.063  30.095  1.00  0.00     0.074 A 
ATOM     53  C   UNL A   1      46.775  30.833  27.166  1.00  0.00     0.029 A 
ATOM     54  N   UNL A   1      44.790  30.331  28.033  1.00  0.00    -0.354 N 
ATOM     55  N   UNL A   1      42.288  30.915  29.478  1.00  0.00    -0.248 NA
ATOM     56  C   UNL A   1      40.972  32.368  30.749  1.00  0.00     0.031 C 
ATOM     57  C   UNL A   1      46.325  31.930  27.907  1.00  0.00     0.029 A 
ATOM     58  C   UNL A   1      45.069  31.635  28.414  1.00  0.00     0.049 A 
ATOM     59  H   UNL A   1      43.967  29.840  28.261  1.00  0.00     0.167 HD
ATOM     60  C   UNL A   1      42.964  32.122  29.637  1.00  0.00     0.074 A 
ATOM     61  C   UNL A   1      42.093  32.987  30.404  1.00  0.00     0.031 C 
ATOM     62  C   UNL A   1      44.189  32.486  29.181  1.00  0.00     0.034 A 
BRANCH  49  63
ATOM     63  C   UNL A   1      47.157  28.028  26.042  1.00  0.00     0.023 A 
ATOM     64  C   UNL A   1      47.304  28.169  24.651  1.00  0.00     0.031 A 
ATOM     65  C   UNL A   1      48.209  27.424  26.754  1.00  0.00     0.131 A 
ATOM     66  C   UNL A   1      48.431  27.641  24.006  1.00  0.00     0.055 A 
ATOM     67  C   UNL A   1      49.370  26.981  26.118  1.00  0.00     0.041 A 
ATOM     68  F   UNL A   1      48.120  27.242  28.081  1.00  0.00    -0.206 F 
ATOM     69  C   UNL A   1      49.480  27.072  24.734  1.00  0.00     0.022 A 
BRANCH  66  70
ATOM     70  S   UNL A   1      48.437  27.567  22.194  1.00  0.00     0.124 S 
ATOM     71  O   UNL A   1      47.115  28.102  21.874  1.00  0.00    -0.237 OA
ATOM     72  O   UNL A   1      49.572  28.414  21.847  1.00  0.00    -0.237 OA
ATOM     73  O   UNL A   1      48.610  26.143  21.910  1.00  0.00    -0.744 OA
ENDBRANCH  66  70
ENDBRANCH  49  63
BRANCH  50  74
ATOM     74  C   UNL A   1      38.771  30.440  30.994  1.00  0.00     0.023 A 
ATOM     75  C   UNL A   1      37.719  31.162  30.407  1.00  0.00     0.031 A 
ATOM     76  C   UNL A   1      38.654  30.096  32.353  1.00  0.00     0.131 A 
ATOM     77  C   UNL A   1      36.620  31.557  31.186  1.00  0.00     0.055 A 
ATOM     78  C   UNL A   1      37.532  30.440  33.108  1.00  0.00     0.041 A 
ATOM     79  F   UNL A   1      39.629  29.406  32.966  1.00  0.00    -0.206 F 
ATOM     80  C   UNL A   1      36.512  31.188  32.528  1.00  0.00     0.022 A 
BRANCH  77  81
ATOM     81  S   UNL A   1      35.375  32.644  30.439  1.00  0.00     0.124 S 
ATOM     82  O   UNL A   1      36.177  33.807  30.078  1.00  0.00    -0.237 OA
ATOM     83  O   UNL A   1      34.887  31.831  29.331  1.00  0.00    -0.237 OA
ATOM     84  O   UNL A   1      34.417  32.858  31.523  1.00  0.00    -0.744 OA
ENDBRANCH  77  81
ENDBRANCH  50  74
BRANCH  62  85
ATOM     85  C   UNL A   1      44.635  33.903  29.444  1.00  0.00     0.023 A 
ATOM     86  C   UNL A   1      44.311  34.961  28.576  1.00  0.00     0.031 A 
ATOM     87  C   UNL A   1      45.381  34.199  30.599  1.00  0.00     0.131 A 
ATOM     88  C   UNL A   1      44.765  36.259  28.859  1.00  0.00     0.055 A 
ATOM     89  C   UNL A   1      45.779  35.500  30.904  1.00  0.00     0.041 A 
ATOM     90  F   UNL A   1      45.722  33.226  31.460  1.00  0.00    -0.206 F 
ATOM     91  C   UNL A   1      45.479  36.537  30.027  1.00  0.00     0.022 A 
BRANCH  88  92
ATOM     92  S   UNL A   1      44.468  37.572  27.644  1.00  0.00     0.124 S 
ATOM     93  O   UNL A   1      44.085  38.693  28.495  1.00  0.00    -0.237 OA
ATOM     94  O   UNL A   1      45.765  37.687  26.983  1.00  0.00    -0.237 OA
ATOM     95  O   UNL A   1      43.396  37.032  26.810  1.00  0.00    -0.744 OA
ENDBRANCH  88  92
ENDBRANCH  62  85
ENDBRANCH  36  37
ENDBRANCH  28  31
ENDBRANCH  26  27
ENDBRANCH  25  26
ENDBRANCH  24  25
ENDBRANCH   1  24
TORSDOF 21
ENDMDL
