MODEL 1
REMARK VINA RESULT:     -12.6      0.000      0.000
REMARK SMILES Cc1c(NC(=O)c2cccc(-c3cc4ccccc4oc3=O)c2)cccc1C(=O)NCCCCCCNC(=O)c1ccc(-c2c3nc(c(-c4cc(S(=O)(=O)[O-])ccc4F)c4ccc([nH]4)c(-c4cc(S(=O)(=O)[O-])ccc4F)c4nc(c(-c5cc(S(=O)(=O)[O-])ccc5F)c5ccc2[nH]5)C=C4)C=C3)cc1
REMARK SMILES IDX 33 1 32 2 31 3 30 4 28 5 29 6 27 8 1 9 2 10 3 11 24 12 26 13
REMARK SMILES IDX 25 14 4 15 5 16 6 18 7 19 8 20 23 21 9 22 11 23 10 24 12 25
REMARK SMILES IDX 13 26 21 27 14 28 20 29 22 30 15 31 19 32 16 33 18 34 17 35
REMARK SMILES IDX 34 36 35 37 36 38 37 39 38 40 39 42 40 43 41 44 102 45 42 46
REMARK SMILES IDX 101 47 43 48 44 49 45 50 95 51 46 52 100 53 94 54 96 55
REMARK SMILES IDX 47 56 99 57 93 58 92 59 48 61 80 62 60 63 79 64 61 65 64 66
REMARK SMILES IDX 78 67 97 68 62 69 63 70 77 72 98 73 65 74 49 75 50 76 58 77
REMARK SMILES IDX 51 78 57 79 59 80 56 81 52 82 53 83 54 84 55 85 81 86 82 87
REMARK SMILES IDX 90 88 83 89 89 90 91 91 88 92 84 93 85 94 86 95 87 96 66 97
REMARK SMILES IDX 67 98 75 99 68 100 74 101 76 102 73 103 69 104 70 105 71 106
REMARK SMILES IDX 72 107
REMARK H PARENT 30 7 4 17 37 41 96 60 64 71
REMARK Flexibility Score: inf
ROOT
ATOM      1  C   UNL A   1      35.300  30.034  27.623  1.00  0.00     0.002 C 
ENDROOT
BRANCH   1   2
ATOM      2  C   UNL A   1      34.393  28.854  27.252  1.00  0.00     0.021 C 
BRANCH   2   3
ATOM      3  C   UNL A   1      34.282  28.547  25.749  1.00  0.00     0.116 C 
BRANCH   3   4
ATOM      4  N   UNL A   1      33.208  29.321  25.155  1.00  0.00    -0.352 N 
ATOM      5  C   UNL A   1      31.953  29.075  24.677  1.00  0.00     0.251 C 
ATOM      6  O   UNL A   1      31.361  30.075  24.248  1.00  0.00    -0.269 OA
ATOM      7  H   UNL A   1      33.446  30.273  25.078  1.00  0.00     0.163 HD
BRANCH   5   8
ATOM      8  C   UNL A   1      31.199  27.772  24.640  1.00  0.00     0.044 A 
ATOM      9  C   UNL A   1      31.025  27.250  27.150  1.00  0.00     0.047 C 
ATOM     10  C   UNL A   1      30.784  26.932  25.702  1.00  0.00    -0.015 A 
ATOM     11  C   UNL A   1      30.221  25.657  25.399  1.00  0.00     0.045 A 
ATOM     12  C   UNL A   1      30.127  25.202  24.081  1.00  0.00     0.026 A 
ATOM     13  C   UNL A   1      31.074  27.270  23.320  1.00  0.00     0.014 A 
ATOM     14  C   UNL A   1      30.565  26.004  23.040  1.00  0.00     0.003 A 
BRANCH  11  15
ATOM     15  N   UNL A   1      29.734  24.848  26.447  1.00  0.00    -0.322 N 
ATOM     16  C   UNL A   1      30.186  23.642  26.937  1.00  0.00     0.255 C 
ATOM     17  H   UNL A   1      28.938  25.205  26.905  1.00  0.00     0.170 HD
ATOM     18  O   UNL A   1      29.404  22.909  27.545  1.00  0.00    -0.269 OA
BRANCH  16  19
ATOM     19  C   UNL A   1      31.630  23.266  26.881  1.00  0.00     0.040 A 
ATOM     20  C   UNL A   1      32.181  22.559  27.956  1.00  0.00     0.014 A 
ATOM     21  C   UNL A   1      32.478  23.729  25.866  1.00  0.00     0.022 A 
ATOM     22  C   UNL A   1      33.550  22.288  27.994  1.00  0.00     0.001 A 
ATOM     23  C   UNL A   1      33.855  23.454  25.882  1.00  0.00    -0.010 A 
ATOM     24  C   UNL A   1      34.380  22.728  26.959  1.00  0.00     0.009 A 
BRANCH  23  25
ATOM     25  C   UNL A   1      34.799  24.011  24.877  1.00  0.00     0.068 A 
ATOM     26  C   UNL A   1      35.953  24.626  25.216  1.00  0.00     0.028 A 
ATOM     27  C   UNL A   1      34.984  23.148  23.666  1.00  0.00     0.344 A 
ATOM     28  C   UNL A   1      37.065  23.671  25.431  1.00  0.00     0.018 A 
ATOM     29  O   UNL A   1      36.003  22.206  23.802  1.00  0.00    -0.422 OA
ATOM     30  O   UNL A   1      34.232  23.211  22.702  1.00  0.00    -0.246 OA
ATOM     31  C   UNL A   1      38.131  23.943  26.283  1.00  0.00     0.012 A 
ATOM     32  C   UNL A   1      37.006  22.437  24.769  1.00  0.00     0.138 A 
ATOM     33  C   UNL A   1      39.098  22.957  26.499  1.00  0.00     0.001 A 
ATOM     34  C   UNL A   1      37.938  21.437  25.013  1.00  0.00     0.048 A 
ATOM     35  C   UNL A   1      38.985  21.700  25.894  1.00  0.00     0.004 A 
ENDBRANCH  23  25
ENDBRANCH  16  19
ENDBRANCH  11  15
ENDBRANCH   5   8
ENDBRANCH   3   4
ENDBRANCH   2   3
ENDBRANCH   1   2
BRANCH   1  36
ATOM     36  C   UNL A   1      34.641  31.422  27.626  1.00  0.00     0.002 C 
BRANCH  36  37
ATOM     37  C   UNL A   1      35.158  32.396  28.684  1.00  0.00     0.021 C 
BRANCH  37  38
ATOM     38  C   UNL A   1      35.124  31.834  30.102  1.00  0.00     0.116 C 
BRANCH  38  39
ATOM     39  N   UNL A   1      35.946  32.585  31.045  1.00  0.00    -0.352 N 
ATOM     40  C   UNL A   1      37.219  32.305  31.500  1.00  0.00     0.251 C 
ATOM     41  H   UNL A   1      35.537  33.405  31.404  1.00  0.00     0.163 HD
ATOM     42  O   UNL A   1      37.765  33.021  32.337  1.00  0.00    -0.269 OA
BRANCH  40  43
ATOM     43  C   UNL A   1      37.970  31.187  30.887  1.00  0.00     0.039 A 
ATOM     44  C   UNL A   1      38.069  29.994  31.613  1.00  0.00     0.014 A 
ATOM     45  C   UNL A   1      38.716  31.370  29.725  1.00  0.00     0.014 A 
ATOM     46  C   UNL A   1      39.070  29.078  31.294  1.00  0.00     0.010 A 
ATOM     47  C   UNL A   1      39.759  30.501  29.455  1.00  0.00     0.010 A 
ATOM     48  C   UNL A   1      39.973  29.387  30.275  1.00  0.00    -0.014 A 
BRANCH  48  49
ATOM     49  C   UNL A   1      41.232  28.671  30.089  1.00  0.00     0.031 A 
ATOM     50  C   UNL A   1      41.265  27.324  29.482  1.00  0.00     0.074 A 
ATOM     51  C   UNL A   1      42.392  29.244  30.477  1.00  0.00     0.049 A 
ATOM     52  N   UNL A   1      42.202  26.460  29.686  1.00  0.00    -0.248 NA
ATOM     53  C   UNL A   1      40.201  26.828  28.618  1.00  0.00     0.031 C 
ATOM     54  C   UNL A   1      43.749  28.784  30.198  1.00  0.00     0.029 A 
ATOM     55  N   UNL A   1      42.550  30.218  31.459  1.00  0.00    -0.354 N 
ATOM     56  C   UNL A   1      42.006  25.411  28.820  1.00  0.00     0.074 A 
ATOM     57  C   UNL A   1      40.724  25.671  28.203  1.00  0.00     0.031 C 
ATOM     58  C   UNL A   1      44.566  29.251  31.155  1.00  0.00     0.029 A 
ATOM     59  C   UNL A   1      43.742  29.919  32.145  1.00  0.00     0.049 A 
ATOM     60  H   UNL A   1      41.944  30.972  31.639  1.00  0.00     0.167 HD
ATOM     61  C   UNL A   1      42.992  24.488  28.636  1.00  0.00     0.034 A 
ATOM     62  C   UNL A   1      43.723  29.652  33.484  1.00  0.00     0.034 A 
ATOM     63  C   UNL A   1      44.149  24.729  29.494  1.00  0.00     0.049 A 
ATOM     64  C   UNL A   1      44.207  28.263  33.849  1.00  0.00     0.074 A 
ATOM     65  C   UNL A   1      45.384  25.329  29.311  1.00  0.00     0.029 A 
ATOM     66  N   UNL A   1      44.013  24.542  30.856  1.00  0.00    -0.354 N 
ATOM     67  N   UNL A   1      44.562  27.351  32.986  1.00  0.00    -0.248 NA
ATOM     68  C   UNL A   1      44.234  27.765  35.226  1.00  0.00     0.031 C 
ATOM     69  C   UNL A   1      45.969  25.534  30.595  1.00  0.00     0.029 A 
ATOM     70  C   UNL A   1      45.099  25.040  31.550  1.00  0.00     0.049 A 
ATOM     71  H   UNL A   1      43.238  24.107  31.280  1.00  0.00     0.167 HD
ATOM     72  C   UNL A   1      44.785  26.170  33.643  1.00  0.00     0.074 A 
ATOM     73  C   UNL A   1      44.573  26.478  35.045  1.00  0.00     0.031 C 
ATOM     74  C   UNL A   1      45.078  25.002  33.001  1.00  0.00     0.034 A 
BRANCH  61  75
ATOM     75  C   UNL A   1      42.998  23.492  27.504  1.00  0.00     0.023 A 
ATOM     76  C   UNL A   1      42.465  22.205  27.718  1.00  0.00     0.031 A 
ATOM     77  C   UNL A   1      43.525  23.730  26.222  1.00  0.00     0.131 A 
ATOM     78  C   UNL A   1      42.561  21.203  26.736  1.00  0.00     0.055 A 
ATOM     79  C   UNL A   1      43.685  22.715  25.269  1.00  0.00     0.041 A 
ATOM     80  F   UNL A   1      43.864  24.964  25.822  1.00  0.00    -0.206 F 
ATOM     81  C   UNL A   1      43.214  21.437  25.530  1.00  0.00     0.022 A 
BRANCH  78  82
ATOM     82  S   UNL A   1      41.803  19.586  27.055  1.00  0.00     0.124 S 
ATOM     83  O   UNL A   1      42.942  18.790  27.499  1.00  0.00    -0.237 OA
ATOM     84  O   UNL A   1      40.807  19.911  28.070  1.00  0.00    -0.237 OA
ATOM     85  O   UNL A   1      41.255  19.207  25.753  1.00  0.00    -0.744 OA
ENDBRANCH  78  82
ENDBRANCH  61  75
BRANCH  62  86
ATOM     86  C   UNL A   1      42.671  30.424  34.213  1.00  0.00     0.023 A 
ATOM     87  C   UNL A   1      42.949  31.780  34.491  1.00  0.00     0.031 A 
ATOM     88  C   UNL A   1      41.337  30.004  34.278  1.00  0.00     0.131 A 
ATOM     89  C   UNL A   1      41.904  32.701  34.632  1.00  0.00     0.055 A 
ATOM     90  C   UNL A   1      40.298  30.914  34.517  1.00  0.00     0.041 A 
ATOM     91  F   UNL A   1      40.998  28.740  33.989  1.00  0.00    -0.206 F 
ATOM     92  C   UNL A   1      40.576  32.275  34.645  1.00  0.00     0.022 A 
BRANCH  89  93
ATOM     93  S   UNL A   1      42.294  34.469  34.474  1.00  0.00     0.124 S 
ATOM     94  O   UNL A   1      41.464  34.868  33.345  1.00  0.00    -0.237 OA
ATOM     95  O   UNL A   1      41.895  35.000  35.778  1.00  0.00    -0.237 OA
ATOM     96  O   UNL A   1      43.736  34.484  34.236  1.00  0.00    -0.744 OA
ENDBRANCH  89  93
ENDBRANCH  62  86
BRANCH  74  97
ATOM     97  C   UNL A   1      45.338  23.718  33.739  1.00  0.00     0.023 A 
ATOM     98  C   UNL A   1      46.643  23.315  34.065  1.00  0.00     0.031 A 
ATOM     99  C   UNL A   1      44.297  22.832  34.084  1.00  0.00     0.131 A 
ATOM    100  C   UNL A   1      46.867  22.122  34.772  1.00  0.00     0.055 A 
ATOM    101  C   UNL A   1      44.531  21.605  34.707  1.00  0.00     0.041 A 
ATOM    102  F   UNL A   1      43.011  23.144  33.870  1.00  0.00    -0.206 F 
ATOM    103  C   UNL A   1      45.823  21.248  35.070  1.00  0.00     0.022 A 
BRANCH 100 104
ATOM    104  S   UNL A   1      48.539  21.782  35.380  1.00  0.00     0.124 S 
ATOM    105  O   UNL A   1      49.377  22.517  34.439  1.00  0.00    -0.237 OA
ATOM    106  O   UNL A   1      48.476  22.326  36.733  1.00  0.00    -0.237 OA
ATOM    107  O   UNL A   1      48.644  20.326  35.303  1.00  0.00    -0.744 OA
ENDBRANCH 100 104
ENDBRANCH  74  97
ENDBRANCH  48  49
ENDBRANCH  40  43
ENDBRANCH  38  39
ENDBRANCH  37  38
ENDBRANCH  36  37
ENDBRANCH   1  36
TORSDOF 19
ENDMDL
MODEL 2
REMARK VINA RESULT:     -12.6      3.310      4.806
REMARK SMILES Cc1c(NC(=O)c2cccc(-c3cc4ccccc4oc3=O)c2)cccc1C(=O)NCCCCCCNC(=O)c1ccc(-c2c3nc(c(-c4cc(S(=O)(=O)[O-])ccc4F)c4ccc([nH]4)c(-c4cc(S(=O)(=O)[O-])ccc4F)c4nc(c(-c5cc(S(=O)(=O)[O-])ccc5F)c5ccc2[nH]5)C=C4)C=C3)cc1
REMARK SMILES IDX 33 1 32 2 31 3 30 4 28 5 29 6 27 8 1 9 2 10 3 11 24 12 26 13
REMARK SMILES IDX 25 14 4 15 5 16 6 18 7 19 8 20 23 21 9 22 11 23 10 24 12 25
REMARK SMILES IDX 13 26 21 27 14 28 20 29 22 30 15 31 19 32 16 33 18 34 17 35
REMARK SMILES IDX 34 36 35 37 36 38 37 39 38 40 39 42 40 43 41 44 102 45 42 46
REMARK SMILES IDX 101 47 43 48 44 49 45 50 95 51 46 52 100 53 94 54 96 55
REMARK SMILES IDX 47 56 99 57 93 58 92 59 48 61 80 62 60 63 79 64 61 65 64 66
REMARK SMILES IDX 78 67 97 68 62 69 63 70 77 72 98 73 65 74 49 75 50 76 58 77
REMARK SMILES IDX 51 78 57 79 59 80 56 81 52 82 53 83 54 84 55 85 81 86 82 87
REMARK SMILES IDX 90 88 83 89 89 90 91 91 88 92 84 93 85 94 86 95 87 96 66 97
REMARK SMILES IDX 67 98 75 99 68 100 74 101 76 102 73 103 69 104 70 105 71 106
REMARK SMILES IDX 72 107
REMARK H PARENT 30 7 4 17 37 41 96 60 64 71
REMARK Flexibility Score: inf
ROOT
ATOM      1  C   UNL A   1      35.444  31.200  27.680  1.00  0.00     0.002 C 
ENDROOT
BRANCH   1   2
ATOM      2  C   UNL A   1      35.416  29.666  27.701  1.00  0.00     0.021 C 
BRANCH   2   3
ATOM      3  C   UNL A   1      34.361  29.008  26.795  1.00  0.00     0.116 C 
BRANCH   3   4
ATOM      4  N   UNL A   1      33.159  28.714  27.552  1.00  0.00    -0.352 N 
ATOM      5  C   UNL A   1      31.915  28.219  27.287  1.00  0.00     0.251 C 
ATOM      6  O   UNL A   1      31.176  28.128  28.278  1.00  0.00    -0.269 OA
ATOM      7  H   UNL A   1      33.271  28.925  28.507  1.00  0.00     0.163 HD
BRANCH   5   8
ATOM      8  C   UNL A   1      31.350  27.746  25.974  1.00  0.00     0.044 A 
ATOM      9  C   UNL A   1      30.886  25.278  26.517  1.00  0.00     0.047 C 
ATOM     10  C   UNL A   1      30.899  26.459  25.590  1.00  0.00    -0.015 A 
ATOM     11  C   UNL A   1      30.556  26.222  24.226  1.00  0.00     0.045 A 
ATOM     12  C   UNL A   1      30.713  27.218  23.258  1.00  0.00     0.026 A 
ATOM     13  C   UNL A   1      31.482  28.725  24.957  1.00  0.00     0.014 A 
ATOM     14  C   UNL A   1      31.188  28.467  23.620  1.00  0.00     0.003 A 
BRANCH  11  15
ATOM     15  N   UNL A   1      30.033  24.968  23.851  1.00  0.00    -0.322 N 
ATOM     16  C   UNL A   1      30.637  23.883  23.254  1.00  0.00     0.255 C 
ATOM     17  H   UNL A   1      29.075  24.846  24.050  1.00  0.00     0.170 HD
ATOM     18  O   UNL A   1      29.944  23.073  22.636  1.00  0.00    -0.269 OA
BRANCH  16  19
ATOM     19  C   UNL A   1      32.086  23.582  23.459  1.00  0.00     0.040 A 
ATOM     20  C   UNL A   1      32.994  23.945  22.457  1.00  0.00     0.014 A 
ATOM     21  C   UNL A   1      32.539  22.818  24.542  1.00  0.00     0.022 A 
ATOM     22  C   UNL A   1      34.338  23.581  22.560  1.00  0.00     0.001 A 
ATOM     23  C   UNL A   1      33.889  22.454  24.667  1.00  0.00    -0.010 A 
ATOM     24  C   UNL A   1      34.782  22.846  23.661  1.00  0.00     0.009 A 
BRANCH  23  25
ATOM     25  C   UNL A   1      34.387  21.564  25.748  1.00  0.00     0.068 A 
ATOM     26  C   UNL A   1      33.608  20.641  26.355  1.00  0.00     0.028 A 
ATOM     27  C   UNL A   1      35.769  21.034  25.519  1.00  0.00     0.344 A 
ATOM     28  C   UNL A   1      33.551  19.363  25.607  1.00  0.00     0.018 A 
ATOM     29  O   UNL A   1      35.799  19.839  24.800  1.00  0.00    -0.422 OA
ATOM     30  O   UNL A   1      36.768  21.661  25.848  1.00  0.00    -0.246 OA
ATOM     31  C   UNL A   1      32.460  18.503  25.679  1.00  0.00     0.012 A 
ATOM     32  C   UNL A   1      34.632  19.043  24.776  1.00  0.00     0.138 A 
ATOM     33  C   UNL A   1      32.445  17.356  24.878  1.00  0.00     0.001 A 
ATOM     34  C   UNL A   1      34.604  17.931  23.945  1.00  0.00     0.048 A 
ATOM     35  C   UNL A   1      33.494  17.089  23.992  1.00  0.00     0.004 A 
ENDBRANCH  23  25
ENDBRANCH  16  19
ENDBRANCH  11  15
ENDBRANCH   5   8
ENDBRANCH   3   4
ENDBRANCH   2   3
ENDBRANCH   1   2
BRANCH   1  36
ATOM     36  C   UNL A   1      34.745  31.907  28.851  1.00  0.00     0.002 C 
BRANCH  36  37
ATOM     37  C   UNL A   1      33.983  33.183  28.492  1.00  0.00     0.021 C 
BRANCH  37  38
ATOM     38  C   UNL A   1      34.435  34.409  29.280  1.00  0.00     0.116 C 
BRANCH  38  39
ATOM     39  N   UNL A   1      33.547  34.746  30.387  1.00  0.00    -0.352 N 
ATOM     40  C   UNL A   1      33.716  34.508  31.737  1.00  0.00     0.251 C 
ATOM     41  H   UNL A   1      32.715  35.208  30.138  1.00  0.00     0.163 HD
ATOM     42  O   UNL A   1      32.846  34.818  32.549  1.00  0.00    -0.269 OA
BRANCH  40  43
ATOM     43  C   UNL A   1      35.010  33.971  32.214  1.00  0.00     0.039 A 
ATOM     44  C   UNL A   1      36.112  34.833  32.213  1.00  0.00     0.014 A 
ATOM     45  C   UNL A   1      35.177  32.612  32.469  1.00  0.00     0.014 A 
ATOM     46  C   UNL A   1      37.399  34.300  32.255  1.00  0.00     0.010 A 
ATOM     47  C   UNL A   1      36.452  32.075  32.432  1.00  0.00     0.010 A 
ATOM     48  C   UNL A   1      37.559  32.913  32.265  1.00  0.00    -0.014 A 
BRANCH  48  49
ATOM     49  C   UNL A   1      38.834  32.261  31.975  1.00  0.00     0.031 A 
ATOM     50  C   UNL A   1      38.888  30.966  31.265  1.00  0.00     0.074 A 
ATOM     51  C   UNL A   1      39.989  32.846  32.359  1.00  0.00     0.049 A 
ATOM     52  N   UNL A   1      39.862  30.125  31.365  1.00  0.00    -0.248 NA
ATOM     53  C   UNL A   1      37.806  30.497  30.408  1.00  0.00     0.031 C 
ATOM     54  C   UNL A   1      41.348  32.461  31.992  1.00  0.00     0.029 A 
ATOM     55  N   UNL A   1      40.155  33.749  33.406  1.00  0.00    -0.354 N 
ATOM     56  C   UNL A   1      39.666  29.138  30.429  1.00  0.00     0.074 A 
ATOM     57  C   UNL A   1      38.351  29.395  29.885  1.00  0.00     0.031 C 
ATOM     58  C   UNL A   1      42.188  32.885  32.949  1.00  0.00     0.029 A 
ATOM     59  C   UNL A   1      41.384  33.445  34.019  1.00  0.00     0.049 A 
ATOM     60  H   UNL A   1      39.530  34.464  33.668  1.00  0.00     0.167 HD
ATOM     61  C   UNL A   1      40.675  28.270  30.134  1.00  0.00     0.034 A 
ATOM     62  C   UNL A   1      41.431  33.077  35.334  1.00  0.00     0.034 A 
ATOM     63  C   UNL A   1      41.858  28.490  30.962  1.00  0.00     0.049 A 
ATOM     64  C   UNL A   1      41.979  31.683  35.571  1.00  0.00     0.074 A 
ATOM     65  C   UNL A   1      43.063  29.147  30.777  1.00  0.00     0.029 A 
ATOM     66  N   UNL A   1      41.787  28.195  32.310  1.00  0.00    -0.354 N 
ATOM     67  N   UNL A   1      42.328  30.853  34.626  1.00  0.00    -0.248 NA
ATOM     68  C   UNL A   1      42.082  31.085  36.903  1.00  0.00     0.031 C 
ATOM     69  C   UNL A   1      43.695  29.277  32.049  1.00  0.00     0.029 A 
ATOM     70  C   UNL A   1      42.884  28.680  32.996  1.00  0.00     0.049 A 
ATOM     71  H   UNL A   1      41.047  27.699  32.729  1.00  0.00     0.167 HD
ATOM     72  C   UNL A   1      42.620  29.635  35.181  1.00  0.00     0.074 A 
ATOM     73  C   UNL A   1      42.457  29.829  36.610  1.00  0.00     0.031 C 
ATOM     74  C   UNL A   1      42.926  28.531  34.440  1.00  0.00     0.034 A 
BRANCH  61  75
ATOM     75  C   UNL A   1      40.667  27.363  28.930  1.00  0.00     0.023 A 
ATOM     76  C   UNL A   1      41.646  27.536  27.931  1.00  0.00     0.031 A 
ATOM     77  C   UNL A   1      39.728  26.342  28.695  1.00  0.00     0.131 A 
ATOM     78  C   UNL A   1      41.605  26.801  26.734  1.00  0.00     0.055 A 
ATOM     79  C   UNL A   1      39.644  25.659  27.474  1.00  0.00     0.041 A 
ATOM     80  F   UNL A   1      38.883  25.933  29.652  1.00  0.00    -0.206 F 
ATOM     81  C   UNL A   1      40.578  25.898  26.478  1.00  0.00     0.022 A 
BRANCH  78  82
ATOM     82  S   UNL A   1      42.928  27.034  25.515  1.00  0.00     0.124 S 
ATOM     83  O   UNL A   1      43.060  25.701  24.938  1.00  0.00    -0.237 OA
ATOM     84  O   UNL A   1      42.366  28.062  24.646  1.00  0.00    -0.237 OA
ATOM     85  O   UNL A   1      44.064  27.469  26.328  1.00  0.00    -0.744 OA
ENDBRANCH  78  82
ENDBRANCH  61  75
BRANCH  62  86
ATOM     86  C   UNL A   1      40.385  33.751  36.161  1.00  0.00     0.023 A 
ATOM     87  C   UNL A   1      39.278  32.969  36.555  1.00  0.00     0.031 A 
ATOM     88  C   UNL A   1      40.627  34.940  36.859  1.00  0.00     0.131 A 
ATOM     89  C   UNL A   1      38.575  33.280  37.725  1.00  0.00     0.055 A 
ATOM     90  C   UNL A   1      39.857  35.299  37.974  1.00  0.00     0.041 A 
ATOM     91  F   UNL A   1      41.682  35.711  36.562  1.00  0.00    -0.206 F 
ATOM     92  C   UNL A   1      38.860  34.442  38.440  1.00  0.00     0.022 A 
BRANCH  89  93
ATOM     93  S   UNL A   1      37.522  31.992  38.458  1.00  0.00     0.124 S 
ATOM     94  O   UNL A   1      36.238  32.673  38.574  1.00  0.00    -0.237 OA
ATOM     95  O   UNL A   1      37.589  30.922  37.462  1.00  0.00    -0.237 OA
ATOM     96  O   UNL A   1      38.186  31.679  39.721  1.00  0.00    -0.744 OA
ENDBRANCH  89  93
ENDBRANCH  62  86
BRANCH  74  97
ATOM     97  C   UNL A   1      43.262  27.207  35.065  1.00  0.00     0.023 A 
ATOM     98  C   UNL A   1      44.546  26.940  35.567  1.00  0.00     0.031 A 
ATOM     99  C   UNL A   1      42.329  26.152  35.125  1.00  0.00     0.131 A 
ATOM    100  C   UNL A   1      44.838  25.704  36.165  1.00  0.00     0.055 A 
ATOM    101  C   UNL A   1      42.648  24.894  35.640  1.00  0.00     0.041 A 
ATOM    102  F   UNL A   1      41.058  26.316  34.728  1.00  0.00    -0.206 F 
ATOM    103  C   UNL A   1      43.907  24.666  36.180  1.00  0.00     0.022 A 
BRANCH 100 104
ATOM    104  S   UNL A   1      46.427  25.511  37.012  1.00  0.00     0.124 S 
ATOM    105  O   UNL A   1      46.981  24.316  36.385  1.00  0.00    -0.237 OA
ATOM    106  O   UNL A   1      47.092  26.768  36.680  1.00  0.00    -0.237 OA
ATOM    107  O   UNL A   1      46.053  25.362  38.417  1.00  0.00    -0.744 OA
ENDBRANCH 100 104
ENDBRANCH  74  97
ENDBRANCH  48  49
ENDBRANCH  40  43
ENDBRANCH  38  39
ENDBRANCH  37  38
ENDBRANCH  36  37
ENDBRANCH   1  36
TORSDOF 19
ENDMDL
MODEL 3
REMARK VINA RESULT:     -12.3      2.536      3.544
REMARK SMILES Cc1c(NC(=O)c2cccc(-c3cc4ccccc4oc3=O)c2)cccc1C(=O)NCCCCCCNC(=O)c1ccc(-c2c3nc(c(-c4cc(S(=O)(=O)[O-])ccc4F)c4ccc([nH]4)c(-c4cc(S(=O)(=O)[O-])ccc4F)c4nc(c(-c5cc(S(=O)(=O)[O-])ccc5F)c5ccc2[nH]5)C=C4)C=C3)cc1
REMARK SMILES IDX 33 1 32 2 31 3 30 4 28 5 29 6 27 8 1 9 2 10 3 11 24 12 26 13
REMARK SMILES IDX 25 14 4 15 5 16 6 18 7 19 8 20 23 21 9 22 11 23 10 24 12 25
REMARK SMILES IDX 13 26 21 27 14 28 20 29 22 30 15 31 19 32 16 33 18 34 17 35
REMARK SMILES IDX 34 36 35 37 36 38 37 39 38 40 39 42 40 43 41 44 102 45 42 46
REMARK SMILES IDX 101 47 43 48 44 49 45 50 95 51 46 52 100 53 94 54 96 55
REMARK SMILES IDX 47 56 99 57 93 58 92 59 48 61 80 62 60 63 79 64 61 65 64 66
REMARK SMILES IDX 78 67 97 68 62 69 63 70 77 72 98 73 65 74 49 75 50 76 58 77
REMARK SMILES IDX 51 78 57 79 59 80 56 81 52 82 53 83 54 84 55 85 81 86 82 87
REMARK SMILES IDX 90 88 83 89 89 90 91 91 88 92 84 93 85 94 86 95 87 96 66 97
REMARK SMILES IDX 67 98 75 99 68 100 74 101 76 102 73 103 69 104 70 105 71 106
REMARK SMILES IDX 72 107
REMARK H PARENT 30 7 4 17 37 41 96 60 64 71
REMARK Flexibility Score: inf
ROOT
ATOM      1  C   UNL A   1      35.487  30.066  27.465  1.00  0.00     0.002 C 
ENDROOT
BRANCH   1   2
ATOM      2  C   UNL A   1      34.396  29.011  27.240  1.00  0.00     0.021 C 
BRANCH   2   3
ATOM      3  C   UNL A   1      34.387  28.351  25.850  1.00  0.00     0.116 C 
BRANCH   3   4
ATOM      4  N   UNL A   1      33.386  28.973  25.003  1.00  0.00    -0.352 N 
ATOM      5  C   UNL A   1      32.221  28.595  24.401  1.00  0.00     0.251 C 
ATOM      6  O   UNL A   1      31.667  29.490  23.747  1.00  0.00    -0.269 OA
ATOM      7  H   UNL A   1      33.604  29.915  24.816  1.00  0.00     0.163 HD
BRANCH   5   8
ATOM      8  C   UNL A   1      31.520  27.264  24.459  1.00  0.00     0.044 A 
ATOM      9  C   UNL A   1      31.109  27.051  26.987  1.00  0.00     0.047 C 
ATOM     10  C   UNL A   1      31.028  26.544  25.575  1.00  0.00    -0.015 A 
ATOM     11  C   UNL A   1      30.543  25.216  25.386  1.00  0.00     0.045 A 
ATOM     12  C   UNL A   1      30.600  24.597  24.134  1.00  0.00     0.026 A 
ATOM     13  C   UNL A   1      31.548  26.596  23.209  1.00  0.00     0.014 A 
ATOM     14  C   UNL A   1      31.114  25.282  23.047  1.00  0.00     0.003 A 
BRANCH  11  15
ATOM     15  N   UNL A   1      29.980  24.522  26.478  1.00  0.00    -0.322 N 
ATOM     16  C   UNL A   1      30.214  23.250  26.952  1.00  0.00     0.255 C 
ATOM     17  H   UNL A   1      29.308  25.033  26.986  1.00  0.00     0.170 HD
ATOM     18  O   UNL A   1      29.347  22.690  27.624  1.00  0.00    -0.269 OA
BRANCH  16  19
ATOM     19  C   UNL A   1      31.545  22.590  26.799  1.00  0.00     0.040 A 
ATOM     20  C   UNL A   1      32.523  22.819  27.774  1.00  0.00     0.014 A 
ATOM     21  C   UNL A   1      31.893  21.881  25.641  1.00  0.00     0.022 A 
ATOM     22  C   UNL A   1      33.814  22.313  27.610  1.00  0.00     0.001 A 
ATOM     23  C   UNL A   1      33.183  21.355  25.466  1.00  0.00    -0.010 A 
ATOM     24  C   UNL A   1      34.138  21.581  26.466  1.00  0.00     0.009 A 
BRANCH  23  25
ATOM     25  C   UNL A   1      33.615  20.684  24.212  1.00  0.00     0.068 A 
ATOM     26  C   UNL A   1      34.594  19.753  24.178  1.00  0.00     0.028 A 
ATOM     27  C   UNL A   1      32.490  20.316  23.294  1.00  0.00     0.344 A 
ATOM     28  C   UNL A   1      34.098  18.394  24.494  1.00  0.00     0.018 A 
ATOM     29  O   UNL A   1      31.955  19.052  23.544  1.00  0.00    -0.422 OA
ATOM     30  O   UNL A   1      32.031  21.105  22.478  1.00  0.00    -0.246 OA
ATOM     31  C   UNL A   1      34.909  17.414  25.057  1.00  0.00     0.012 A 
ATOM     32  C   UNL A   1      32.749  18.114  24.239  1.00  0.00     0.138 A 
ATOM     33  C   UNL A   1      34.346  16.182  25.404  1.00  0.00     0.001 A 
ATOM     34  C   UNL A   1      32.173  16.910  24.622  1.00  0.00     0.048 A 
ATOM     35  C   UNL A   1      32.979  15.943  25.219  1.00  0.00     0.004 A 
ENDBRANCH  23  25
ENDBRANCH  16  19
ENDBRANCH  11  15
ENDBRANCH   5   8
ENDBRANCH   3   4
ENDBRANCH   2   3
ENDBRANCH   1   2
BRANCH   1  36
ATOM     36  C   UNL A   1      35.001  31.489  27.780  1.00  0.00     0.002 C 
BRANCH  36  37
ATOM     37  C   UNL A   1      35.184  31.944  29.228  1.00  0.00     0.021 C 
BRANCH  37  38
ATOM     38  C   UNL A   1      34.861  33.418  29.452  1.00  0.00     0.116 C 
BRANCH  38  39
ATOM     39  N   UNL A   1      34.042  33.659  30.636  1.00  0.00    -0.352 N 
ATOM     40  C   UNL A   1      34.374  33.500  31.967  1.00  0.00     0.251 C 
ATOM     41  H   UNL A   1      33.128  33.980  30.461  1.00  0.00     0.163 HD
ATOM     42  O   UNL A   1      33.549  33.704  32.855  1.00  0.00    -0.269 OA
BRANCH  40  43
ATOM     43  C   UNL A   1      35.774  33.182  32.324  1.00  0.00     0.039 A 
ATOM     44  C   UNL A   1      36.777  34.028  31.837  1.00  0.00     0.014 A 
ATOM     45  C   UNL A   1      36.105  31.984  32.952  1.00  0.00     0.014 A 
ATOM     46  C   UNL A   1      38.094  33.574  31.789  1.00  0.00     0.010 A 
ATOM     47  C   UNL A   1      37.397  31.500  32.834  1.00  0.00     0.010 A 
ATOM     48  C   UNL A   1      38.377  32.269  32.200  1.00  0.00    -0.014 A 
BRANCH  48  49
ATOM     49  C   UNL A   1      39.633  31.595  31.883  1.00  0.00     0.031 A 
ATOM     50  C   UNL A   1      39.662  30.396  31.019  1.00  0.00     0.074 A 
ATOM     51  C   UNL A   1      40.794  32.069  32.385  1.00  0.00     0.049 A 
ATOM     52  N   UNL A   1      40.592  29.501  31.052  1.00  0.00    -0.248 NA
ATOM     53  C   UNL A   1      38.601  30.091  30.066  1.00  0.00     0.031 C 
ATOM     54  C   UNL A   1      42.150  31.663  32.028  1.00  0.00     0.029 A 
ATOM     55  N   UNL A   1      40.951  32.826  33.543  1.00  0.00    -0.354 N 
ATOM     56  C   UNL A   1      40.396  28.648  29.993  1.00  0.00     0.074 A 
ATOM     57  C   UNL A   1      39.121  29.036  29.432  1.00  0.00     0.031 C 
ATOM     58  C   UNL A   1      42.962  31.924  33.065  1.00  0.00     0.029 A 
ATOM     59  C   UNL A   1      42.135  32.387  34.163  1.00  0.00     0.049 A 
ATOM     60  H   UNL A   1      40.348  33.534  33.866  1.00  0.00     0.167 HD
ATOM     61  C   UNL A   1      41.377  27.773  29.634  1.00  0.00     0.034 A 
ATOM     62  C   UNL A   1      42.103  31.858  35.421  1.00  0.00     0.034 A 
ATOM     63  C   UNL A   1      42.529  27.828  30.530  1.00  0.00     0.049 A 
ATOM     64  C   UNL A   1      42.576  30.420  35.504  1.00  0.00     0.074 A 
ATOM     65  C   UNL A   1      43.770  28.442  30.479  1.00  0.00     0.029 A 
ATOM     66  N   UNL A   1      42.381  27.374  31.827  1.00  0.00    -0.354 N 
ATOM     67  N   UNL A   1      42.931  29.696  34.478  1.00  0.00    -0.248 NA
ATOM     68  C   UNL A   1      42.589  29.657  36.754  1.00  0.00     0.031 C 
ATOM     69  C   UNL A   1      44.346  28.382  31.782  1.00  0.00     0.029 A 
ATOM     70  C   UNL A   1      43.465  27.715  32.613  1.00  0.00     0.049 A 
ATOM     71  H   UNL A   1      41.600  26.869  32.150  1.00  0.00     0.167 HD
ATOM     72  C   UNL A   1      43.142  28.405  34.888  1.00  0.00     0.074 A 
ATOM     73  C   UNL A   1      42.921  28.429  36.322  1.00  0.00     0.031 C 
ATOM     74  C   UNL A   1      43.432  27.387  34.027  1.00  0.00     0.034 A 
BRANCH  61  75
ATOM     75  C   UNL A   1      41.386  27.022  28.326  1.00  0.00     0.023 A 
ATOM     76  C   UNL A   1      41.282  25.617  28.338  1.00  0.00     0.031 A 
ATOM     77  C   UNL A   1      41.515  27.614  27.057  1.00  0.00     0.131 A 
ATOM     78  C   UNL A   1      41.411  24.865  27.157  1.00  0.00     0.055 A 
ATOM     79  C   UNL A   1      41.714  26.866  25.890  1.00  0.00     0.041 A 
ATOM     80  F   UNL A   1      41.408  28.941  26.888  1.00  0.00    -0.206 F 
ATOM     81  C   UNL A   1      41.678  25.480  25.938  1.00  0.00     0.022 A 
BRANCH  78  82
ATOM     82  S   UNL A   1      41.211  23.065  27.237  1.00  0.00     0.124 S 
ATOM     83  O   UNL A   1      42.016  22.611  26.109  1.00  0.00    -0.237 OA
ATOM     84  O   UNL A   1      41.728  22.758  28.566  1.00  0.00    -0.237 OA
ATOM     85  O   UNL A   1      39.768  22.878  27.079  1.00  0.00    -0.744 OA
ENDBRANCH  78  82
ENDBRANCH  61  75
BRANCH  62  86
ATOM     86  C   UNL A   1      41.051  32.477  36.283  1.00  0.00     0.023 A 
ATOM     87  C   UNL A   1      41.264  33.810  36.695  1.00  0.00     0.031 A 
ATOM     88  C   UNL A   1      39.750  31.966  36.368  1.00  0.00     0.131 A 
ATOM     89  C   UNL A   1      40.175  34.640  36.990  1.00  0.00     0.055 A 
ATOM     90  C   UNL A   1      38.675  32.775  36.758  1.00  0.00     0.041 A 
ATOM     91  F   UNL A   1      39.471  30.721  35.958  1.00  0.00    -0.206 F 
ATOM     92  C   UNL A   1      38.878  34.130  37.022  1.00  0.00     0.022 A 
BRANCH  89  93
ATOM     93  S   UNL A   1      40.450  36.437  37.009  1.00  0.00     0.124 S 
ATOM     94  O   UNL A   1      39.664  36.857  38.163  1.00  0.00    -0.237 OA
ATOM     95  O   UNL A   1      41.903  36.534  37.157  1.00  0.00    -0.237 OA
ATOM     96  O   UNL A   1      39.949  36.877  35.709  1.00  0.00    -0.744 OA
ENDBRANCH  89  93
ENDBRANCH  62  86
BRANCH  74  97
ATOM     97  C   UNL A   1      43.679  25.980  34.495  1.00  0.00     0.023 A 
ATOM     98  C   UNL A   1      44.975  25.442  34.544  1.00  0.00     0.031 A 
ATOM     99  C   UNL A   1      42.622  25.116  34.849  1.00  0.00     0.131 A 
ATOM    100  C   UNL A   1      45.188  24.132  35.002  1.00  0.00     0.055 A 
ATOM    101  C   UNL A   1      42.831  23.786  35.219  1.00  0.00     0.041 A 
ATOM    102  F   UNL A   1      41.351  25.543  34.892  1.00  0.00    -0.206 F 
ATOM    103  C   UNL A   1      44.123  23.289  35.312  1.00  0.00     0.022 A 
BRANCH 100 104
ATOM    104  S   UNL A   1      46.893  23.584  35.277  1.00  0.00     0.124 S 
ATOM    105  O   UNL A   1      47.650  24.826  35.171  1.00  0.00    -0.237 OA
ATOM    106  O   UNL A   1      46.803  23.007  36.616  1.00  0.00    -0.237 OA
ATOM    107  O   UNL A   1      47.123  22.620  34.203  1.00  0.00    -0.744 OA
ENDBRANCH 100 104
ENDBRANCH  74  97
ENDBRANCH  48  49
ENDBRANCH  40  43
ENDBRANCH  38  39
ENDBRANCH  37  38
ENDBRANCH  36  37
ENDBRANCH   1  36
TORSDOF 19
ENDMDL
