MODEL 1
REMARK VINA RESULT:     -11.0      0.000      0.000
REMARK SMILES CC[C@@H](C)S(=O)(=O)c1cc(C(=O)NCCCCCCNC(=O)c2ccc(-c3c4nc(c(-c5cc(S(=O)(=O)[O-])ccc5F)c5ccc([nH]5)c(-c5cc(S(=O)(=O)[O-])ccc5F)c5nc(c(-c6cc(S(=O)(=O)[O-])ccc6F)c6ccc3[nH]6)C=C5)C=C4)cc2)c(C)cc1C
REMARK SMILES IDX 16 1 15 2 14 3 13 4 11 5 12 6 10 8 8 9 9 10 89 11 88 12
REMARK SMILES IDX 90 13 86 14 87 15 5 16 6 17 7 18 3 19 4 20 2 21 1 22 17 23
REMARK SMILES IDX 18 24 19 25 20 26 21 27 22 29 23 30 24 31 85 32 25 33 84 34
REMARK SMILES IDX 26 35 27 36 28 37 78 38 29 39 83 40 77 41 79 42 30 43 82 44
REMARK SMILES IDX 76 45 75 46 31 48 63 49 43 50 62 51 44 52 47 53 61 54 80 55
REMARK SMILES IDX 45 56 46 57 60 59 81 60 48 61 32 62 33 63 41 64 34 65 40 66
REMARK SMILES IDX 42 67 39 68 35 69 36 70 37 71 38 72 64 73 65 74 73 75 66 76
REMARK SMILES IDX 72 77 74 78 71 79 67 80 68 81 69 82 70 83 49 84 50 85 58 86
REMARK SMILES IDX 51 87 57 88 59 89 56 90 52 91 53 92 54 93 55 94
REMARK H PARENT 13 7 20 28 79 47 47 58
REMARK Flexibility Score: inf
ROOT
ATOM      1  C   UNL A   1      31.854  28.691  24.632  1.00  0.00     0.002 C 
ENDROOT
BRANCH   1   2
ATOM      2  C   UNL A   1      32.099  28.576  23.127  1.00  0.00     0.021 C 
BRANCH   2   3
ATOM      3  C   UNL A   1      33.418  27.883  22.757  1.00  0.00     0.116 C 
BRANCH   3   4
ATOM      4  N   UNL A   1      33.198  27.039  21.604  1.00  0.00    -0.352 N 
ATOM      5  C   UNL A   1      32.975  25.702  21.424  1.00  0.00     0.251 C 
ATOM      6  O   UNL A   1      33.013  25.317  20.251  1.00  0.00    -0.269 OA
ATOM      7  H   UNL A   1      33.215  27.540  20.757  1.00  0.00     0.163 HD
BRANCH   5   8
ATOM      8  C   UNL A   1      32.585  24.708  22.483  1.00  0.00     0.044 A 
ATOM      9  C   UNL A   1      33.524  22.861  23.848  1.00  0.00     0.071 A 
ATOM     10  C   UNL A   1      33.653  23.861  22.865  1.00  0.00     0.034 A 
ATOM     11  C   UNL A   1      32.257  22.558  24.350  1.00  0.00    -0.032 A 
ATOM     12  C   UNL A   1      31.214  23.441  24.028  1.00  0.00     0.009 A 
ATOM     13  C   UNL A   1      31.883  21.411  25.242  1.00  0.00     0.046 C 
ATOM     14  C   UNL A   1      31.384  24.567  23.191  1.00  0.00    -0.038 A 
ATOM     15  C   UNL A   1      30.259  25.553  23.244  1.00  0.00     0.045 C 
BRANCH   9  16
ATOM     16  S   UNL A   1      35.036  22.072  24.402  1.00  0.00     0.181 S 
ATOM     17  O   UNL A   1      36.064  22.372  23.423  1.00  0.00    -0.223 OA
ATOM     18  O   UNL A   1      34.740  20.679  24.684  1.00  0.00    -0.223 OA
BRANCH  16  19
ATOM     19  C   UNL A   1      35.525  22.894  25.936  1.00  0.00     0.110 C 
ATOM     20  C   UNL A   1      34.340  23.309  26.798  1.00  0.00     0.025 C 
BRANCH  19  21
ATOM     21  C   UNL A   1      36.505  24.055  25.687  1.00  0.00     0.016 C 
ATOM     22  C   UNL A   1      37.932  23.749  26.132  1.00  0.00     0.005 C 
ENDBRANCH  19  21
ENDBRANCH  16  19
ENDBRANCH   9  16
ENDBRANCH   5   8
ENDBRANCH   3   4
ENDBRANCH   2   3
ENDBRANCH   1   2
BRANCH   1  23
ATOM     23  C   UNL A   1      32.491  27.571  25.457  1.00  0.00     0.002 C 
BRANCH  23  24
ATOM     24  C   UNL A   1      33.677  28.004  26.325  1.00  0.00     0.021 C 
BRANCH  24  25
ATOM     25  C   UNL A   1      33.287  28.767  27.589  1.00  0.00     0.116 C 
BRANCH  25  26
ATOM     26  N   UNL A   1      33.498  30.197  27.430  1.00  0.00    -0.352 N 
ATOM     27  C   UNL A   1      34.518  30.981  27.906  1.00  0.00     0.251 C 
ATOM     28  H   UNL A   1      32.811  30.669  26.907  1.00  0.00     0.163 HD
ATOM     29  O   UNL A   1      34.380  32.199  27.956  1.00  0.00    -0.269 OA
BRANCH  27  30
ATOM     30  C   UNL A   1      35.775  30.350  28.362  1.00  0.00     0.039 A 
ATOM     31  C   UNL A   1      36.902  30.398  27.538  1.00  0.00     0.014 A 
ATOM     32  C   UNL A   1      35.832  29.691  29.594  1.00  0.00     0.014 A 
ATOM     33  C   UNL A   1      38.100  29.831  27.975  1.00  0.00     0.010 A 
ATOM     34  C   UNL A   1      37.046  29.197  30.061  1.00  0.00     0.010 A 
ATOM     35  C   UNL A   1      38.192  29.254  29.254  1.00  0.00    -0.014 A 
BRANCH  35  36
ATOM     36  C   UNL A   1      39.475  28.699  29.757  1.00  0.00     0.031 A 
ATOM     37  C   UNL A   1      40.134  29.302  30.969  1.00  0.00     0.074 A 
ATOM     38  C   UNL A   1      40.069  27.688  29.093  1.00  0.00     0.049 A 
ATOM     39  N   UNL A   1      41.281  29.002  31.522  1.00  0.00    -0.248 NA
ATOM     40  C   UNL A   1      39.421  30.407  31.628  1.00  0.00     0.031 C 
ATOM     41  C   UNL A   1      39.542  27.047  27.886  1.00  0.00     0.029 A 
ATOM     42  N   UNL A   1      41.247  27.026  29.331  1.00  0.00    -0.354 N 
ATOM     43  C   UNL A   1      41.431  29.885  32.587  1.00  0.00     0.074 A 
ATOM     44  C   UNL A   1      40.290  30.774  32.557  1.00  0.00     0.031 C 
ATOM     45  C   UNL A   1      40.375  26.065  27.510  1.00  0.00     0.029 A 
ATOM     46  C   UNL A   1      41.523  26.040  28.411  1.00  0.00     0.049 A 
ATOM     47  H   UNL A   1      41.839  27.235  30.088  1.00  0.00     0.167 HD
ATOM     48  C   UNL A   1      42.418  29.932  33.517  1.00  0.00     0.034 A 
ATOM     49  C   UNL A   1      42.586  25.219  28.296  1.00  0.00     0.034 A 
ATOM     50  C   UNL A   1      43.545  29.031  33.532  1.00  0.00     0.049 A 
ATOM     51  C   UNL A   1      43.693  25.321  29.316  1.00  0.00     0.074 A 
ATOM     52  C   UNL A   1      44.575  28.957  34.453  1.00  0.00     0.029 A 
ATOM     53  N   UNL A   1      43.800  28.057  32.574  1.00  0.00    -0.354 N 
ATOM     54  N   UNL A   1      43.794  26.127  30.348  1.00  0.00    -0.248 NA
ATOM     55  C   UNL A   1      44.822  24.395  29.162  1.00  0.00     0.031 C 
ATOM     56  C   UNL A   1      45.493  27.999  34.010  1.00  0.00     0.029 A 
ATOM     57  C   UNL A   1      44.991  27.407  32.862  1.00  0.00     0.049 A 
ATOM     58  H   UNL A   1      43.220  27.857  31.805  1.00  0.00     0.167 HD
ATOM     59  C   UNL A   1      44.984  25.782  30.983  1.00  0.00     0.074 A 
ATOM     60  C   UNL A   1      45.553  24.684  30.229  1.00  0.00     0.031 C 
ATOM     61  C   UNL A   1      45.554  26.320  32.092  1.00  0.00     0.034 A 
BRANCH  48  62
ATOM     62  C   UNL A   1      42.331  31.010  34.572  1.00  0.00     0.023 A 
ATOM     63  C   UNL A   1      42.884  32.287  34.374  1.00  0.00     0.031 A 
ATOM     64  C   UNL A   1      41.706  30.752  35.805  1.00  0.00     0.131 A 
ATOM     65  C   UNL A   1      42.871  33.228  35.415  1.00  0.00     0.055 A 
ATOM     66  C   UNL A   1      41.617  31.722  36.805  1.00  0.00     0.041 A 
ATOM     67  F   UNL A   1      41.179  29.544  36.065  1.00  0.00    -0.206 F 
ATOM     68  C   UNL A   1      42.215  32.964  36.619  1.00  0.00     0.022 A 
BRANCH  65  69
ATOM     69  S   UNL A   1      43.858  34.738  35.229  1.00  0.00     0.124 S 
ATOM     70  O   UNL A   1      45.157  34.305  35.737  1.00  0.00    -0.237 OA
ATOM     71  O   UNL A   1      43.783  34.990  33.795  1.00  0.00    -0.237 OA
ATOM     72  O   UNL A   1      43.160  35.708  36.072  1.00  0.00    -0.744 OA
ENDBRANCH  65  69
ENDBRANCH  48  62
BRANCH  49  73
ATOM     73  C   UNL A   1      42.671  24.241  27.172  1.00  0.00     0.023 A 
ATOM     74  C   UNL A   1      42.017  23.001  27.240  1.00  0.00     0.031 A 
ATOM     75  C   UNL A   1      43.447  24.514  26.031  1.00  0.00     0.131 A 
ATOM     76  C   UNL A   1      42.192  22.060  26.215  1.00  0.00     0.055 A 
ATOM     77  C   UNL A   1      43.568  23.598  24.983  1.00  0.00     0.041 A 
ATOM     78  F   UNL A   1      44.094  25.684  25.912  1.00  0.00    -0.206 F 
ATOM     79  C   UNL A   1      42.950  22.356  25.079  1.00  0.00     0.022 A 
BRANCH  76  80
ATOM     80  S   UNL A   1      41.498  20.398  26.433  1.00  0.00     0.124 S 
ATOM     81  O   UNL A   1      41.948  20.064  27.780  1.00  0.00    -0.237 OA
ATOM     82  O   UNL A   1      40.069  20.645  26.276  1.00  0.00    -0.237 OA
ATOM     83  O   UNL A   1      42.119  19.627  25.359  1.00  0.00    -0.744 OA
ENDBRANCH  76  80
ENDBRANCH  49  73
BRANCH  61  84
ATOM     84  C   UNL A   1      46.841  25.695  32.577  1.00  0.00     0.023 A 
ATOM     85  C   UNL A   1      48.078  25.979  31.973  1.00  0.00     0.031 A 
ATOM     86  C   UNL A   1      46.825  24.792  33.655  1.00  0.00     0.131 A 
ATOM     87  C   UNL A   1      49.237  25.320  32.410  1.00  0.00     0.055 A 
ATOM     88  C   UNL A   1      47.992  24.194  34.132  1.00  0.00     0.041 A 
ATOM     89  F   UNL A   1      45.672  24.478  34.268  1.00  0.00    -0.206 F 
ATOM     90  C   UNL A   1      49.206  24.446  33.500  1.00  0.00     0.022 A 
BRANCH  87  91
ATOM     91  S   UNL A   1      50.772  25.541  31.468  1.00  0.00     0.124 S 
ATOM     92  O   UNL A   1      51.069  26.951  31.702  1.00  0.00    -0.237 OA
ATOM     93  O   UNL A   1      51.671  24.586  32.107  1.00  0.00    -0.237 OA
ATOM     94  O   UNL A   1      50.384  25.208  30.099  1.00  0.00    -0.744 OA
ENDBRANCH  87  91
ENDBRANCH  61  84
ENDBRANCH  35  36
ENDBRANCH  27  30
ENDBRANCH  25  26
ENDBRANCH  24  25
ENDBRANCH  23  24
ENDBRANCH   1  23
TORSDOF 19
ENDMDL
MODEL 2
REMARK VINA RESULT:     -10.9      1.268      1.540
REMARK SMILES CC[C@@H](C)S(=O)(=O)c1cc(C(=O)NCCCCCCNC(=O)c2ccc(-c3c4nc(c(-c5cc(S(=O)(=O)[O-])ccc5F)c5ccc([nH]5)c(-c5cc(S(=O)(=O)[O-])ccc5F)c5nc(c(-c6cc(S(=O)(=O)[O-])ccc6F)c6ccc3[nH]6)C=C5)C=C4)cc2)c(C)cc1C
REMARK SMILES IDX 16 1 15 2 14 3 13 4 11 5 12 6 10 8 8 9 9 10 89 11 88 12
REMARK SMILES IDX 90 13 86 14 87 15 5 16 6 17 7 18 3 19 4 20 2 21 1 22 17 23
REMARK SMILES IDX 18 24 19 25 20 26 21 27 22 29 23 30 24 31 85 32 25 33 84 34
REMARK SMILES IDX 26 35 27 36 28 37 78 38 29 39 83 40 77 41 79 42 30 43 82 44
REMARK SMILES IDX 76 45 75 46 31 48 63 49 43 50 62 51 44 52 47 53 61 54 80 55
REMARK SMILES IDX 45 56 46 57 60 59 81 60 48 61 32 62 33 63 41 64 34 65 40 66
REMARK SMILES IDX 42 67 39 68 35 69 36 70 37 71 38 72 64 73 65 74 73 75 66 76
REMARK SMILES IDX 72 77 74 78 71 79 67 80 68 81 69 82 70 83 49 84 50 85 58 86
REMARK SMILES IDX 51 87 57 88 59 89 56 90 52 91 53 92 54 93 55 94
REMARK H PARENT 13 7 20 28 79 47 47 58
REMARK Flexibility Score: inf
ROOT
ATOM      1  C   UNL A   1      31.849  28.694  24.638  1.00  0.00     0.002 C 
ENDROOT
BRANCH   1   2
ATOM      2  C   UNL A   1      32.098  28.579  23.133  1.00  0.00     0.021 C 
BRANCH   2   3
ATOM      3  C   UNL A   1      33.421  27.893  22.766  1.00  0.00     0.116 C 
BRANCH   3   4
ATOM      4  N   UNL A   1      33.209  27.052  21.609  1.00  0.00    -0.352 N 
ATOM      5  C   UNL A   1      32.987  25.716  21.423  1.00  0.00     0.251 C 
ATOM      6  O   UNL A   1      33.034  25.335  20.249  1.00  0.00    -0.269 OA
ATOM      7  H   UNL A   1      33.232  27.556  20.764  1.00  0.00     0.163 HD
BRANCH   5   8
ATOM      8  C   UNL A   1      32.591  24.719  22.476  1.00  0.00     0.044 A 
ATOM      9  C   UNL A   1      33.520  22.867  23.842  1.00  0.00     0.071 A 
ATOM     10  C   UNL A   1      33.656  23.871  22.864  1.00  0.00     0.034 A 
ATOM     11  C   UNL A   1      32.250  22.562  24.334  1.00  0.00    -0.032 A 
ATOM     12  C   UNL A   1      31.209  23.447  24.008  1.00  0.00     0.009 A 
ATOM     13  C   UNL A   1      31.870  21.413  25.220  1.00  0.00     0.046 C 
ATOM     14  C   UNL A   1      31.385  24.575  23.176  1.00  0.00    -0.038 A 
ATOM     15  C   UNL A   1      30.259  25.560  23.224  1.00  0.00     0.045 C 
BRANCH   9  16
ATOM     16  S   UNL A   1      35.029  22.078  24.405  1.00  0.00     0.181 S 
ATOM     17  O   UNL A   1      36.064  22.380  23.433  1.00  0.00    -0.223 OA
ATOM     18  O   UNL A   1      34.730  20.684  24.681  1.00  0.00    -0.223 OA
BRANCH  16  19
ATOM     19  C   UNL A   1      35.507  22.896  25.944  1.00  0.00     0.110 C 
ATOM     20  C   UNL A   1      34.317  23.292  26.808  1.00  0.00     0.025 C 
BRANCH  19  21
ATOM     21  C   UNL A   1      36.474  24.069  25.702  1.00  0.00     0.016 C 
ATOM     22  C   UNL A   1      37.903  23.778  26.150  1.00  0.00     0.005 C 
ENDBRANCH  19  21
ENDBRANCH  16  19
ENDBRANCH   9  16
ENDBRANCH   5   8
ENDBRANCH   3   4
ENDBRANCH   2   3
ENDBRANCH   1   2
BRANCH   1  23
ATOM     23  C   UNL A   1      32.481  27.571  25.463  1.00  0.00     0.002 C 
BRANCH  23  24
ATOM     24  C   UNL A   1      33.664  28.000  26.337  1.00  0.00     0.021 C 
BRANCH  24  25
ATOM     25  C   UNL A   1      33.271  28.760  27.602  1.00  0.00     0.116 C 
BRANCH  25  26
ATOM     26  N   UNL A   1      33.473  30.192  27.442  1.00  0.00    -0.352 N 
ATOM     27  C   UNL A   1      34.489  30.982  27.917  1.00  0.00     0.251 C 
ATOM     28  H   UNL A   1      32.783  30.660  26.920  1.00  0.00     0.163 HD
ATOM     29  O   UNL A   1      34.344  32.199  27.968  1.00  0.00    -0.269 OA
BRANCH  27  30
ATOM     30  C   UNL A   1      35.751  30.358  28.372  1.00  0.00     0.039 A 
ATOM     31  C   UNL A   1      36.877  30.415  27.548  1.00  0.00     0.014 A 
ATOM     32  C   UNL A   1      35.813  29.695  29.602  1.00  0.00     0.014 A 
ATOM     33  C   UNL A   1      38.080  29.856  27.983  1.00  0.00     0.010 A 
ATOM     34  C   UNL A   1      37.030  29.208  30.067  1.00  0.00     0.010 A 
ATOM     35  C   UNL A   1      38.175  29.275  29.260  1.00  0.00    -0.014 A 
BRANCH  35  36
ATOM     36  C   UNL A   1      39.462  28.728  29.762  1.00  0.00     0.031 A 
ATOM     37  C   UNL A   1      40.119  29.334  30.972  1.00  0.00     0.074 A 
ATOM     38  C   UNL A   1      40.061  27.721  29.096  1.00  0.00     0.049 A 
ATOM     39  N   UNL A   1      41.268  29.041  31.524  1.00  0.00    -0.248 NA
ATOM     40  C   UNL A   1      39.401  30.435  31.632  1.00  0.00     0.031 C 
ATOM     41  C   UNL A   1      39.536  27.077  27.889  1.00  0.00     0.029 A 
ATOM     42  N   UNL A   1      41.243  27.064  29.332  1.00  0.00    -0.354 N 
ATOM     43  C   UNL A   1      41.415  29.924  32.589  1.00  0.00     0.074 A 
ATOM     44  C   UNL A   1      40.268  30.806  32.560  1.00  0.00     0.031 C 
ATOM     45  C   UNL A   1      40.374  26.100  27.512  1.00  0.00     0.029 A 
ATOM     46  C   UNL A   1      41.523  26.080  28.412  1.00  0.00     0.049 A 
ATOM     47  H   UNL A   1      41.835  27.277  30.089  1.00  0.00     0.167 HD
ATOM     48  C   UNL A   1      42.403  29.977  33.517  1.00  0.00     0.034 A 
ATOM     49  C   UNL A   1      42.591  25.266  28.295  1.00  0.00     0.034 A 
ATOM     50  C   UNL A   1      43.535  29.082  33.531  1.00  0.00     0.049 A 
ATOM     51  C   UNL A   1      43.698  25.373  29.314  1.00  0.00     0.074 A 
ATOM     52  C   UNL A   1      44.566  29.014  34.451  1.00  0.00     0.029 A 
ATOM     53  N   UNL A   1      43.794  28.110  32.573  1.00  0.00    -0.354 N 
ATOM     54  N   UNL A   1      43.797  26.181  30.346  1.00  0.00    -0.248 NA
ATOM     55  C   UNL A   1      44.832  24.455  29.159  1.00  0.00     0.031 C 
ATOM     56  C   UNL A   1      45.489  28.061  34.006  1.00  0.00     0.029 A 
ATOM     57  C   UNL A   1      44.989  27.466  32.858  1.00  0.00     0.049 A 
ATOM     58  H   UNL A   1      43.215  27.907  31.804  1.00  0.00     0.167 HD
ATOM     59  C   UNL A   1      44.989  25.842  30.980  1.00  0.00     0.074 A 
ATOM     60  C   UNL A   1      45.563  24.747  30.224  1.00  0.00     0.031 C 
ATOM     61  C   UNL A   1      45.558  26.383  32.088  1.00  0.00     0.034 A 
BRANCH  48  62
ATOM     62  C   UNL A   1      42.311  31.054  34.573  1.00  0.00     0.023 A 
ATOM     63  C   UNL A   1      42.850  32.336  34.372  1.00  0.00     0.031 A 
ATOM     64  C   UNL A   1      41.694  30.790  35.809  1.00  0.00     0.131 A 
ATOM     65  C   UNL A   1      42.834  33.277  35.413  1.00  0.00     0.055 A 
ATOM     66  C   UNL A   1      41.601  31.759  36.810  1.00  0.00     0.041 A 
ATOM     67  F   UNL A   1      41.180  29.577  36.072  1.00  0.00    -0.206 F 
ATOM     68  C   UNL A   1      42.187  33.007  36.621  1.00  0.00     0.022 A 
BRANCH  65  69
ATOM     69  S   UNL A   1      43.805  34.796  35.222  1.00  0.00     0.124 S 
ATOM     70  O   UNL A   1      43.093  35.713  36.109  1.00  0.00    -0.237 OA
ATOM     71  O   UNL A   1      45.132  34.382  35.662  1.00  0.00    -0.237 OA
ATOM     72  O   UNL A   1      43.685  35.102  33.798  1.00  0.00    -0.744 OA
ENDBRANCH  65  69
ENDBRANCH  48  62
BRANCH  49  73
ATOM     73  C   UNL A   1      42.680  24.289  27.171  1.00  0.00     0.023 A 
ATOM     74  C   UNL A   1      42.045  23.039  27.246  1.00  0.00     0.031 A 
ATOM     75  C   UNL A   1      43.442  24.572  26.023  1.00  0.00     0.131 A 
ATOM     76  C   UNL A   1      42.225  22.100  26.219  1.00  0.00     0.055 A 
ATOM     77  C   UNL A   1      43.566  23.658  24.974  1.00  0.00     0.041 A 
ATOM     78  F   UNL A   1      44.070  25.752  25.897  1.00  0.00    -0.206 F 
ATOM     79  C   UNL A   1      42.968  22.407  25.077  1.00  0.00     0.022 A 
BRANCH  76  80
ATOM     80  S   UNL A   1      41.557  20.428  26.445  1.00  0.00     0.124 S 
ATOM     81  O   UNL A   1      42.022  20.104  27.789  1.00  0.00    -0.237 OA
ATOM     82  O   UNL A   1      40.124  20.653  26.297  1.00  0.00    -0.237 OA
ATOM     83  O   UNL A   1      42.183  19.665  25.367  1.00  0.00    -0.744 OA
ENDBRANCH  76  80
ENDBRANCH  49  73
BRANCH  61  84
ATOM     84  C   UNL A   1      46.848  25.765  32.571  1.00  0.00     0.023 A 
ATOM     85  C   UNL A   1      46.866  24.750  33.544  1.00  0.00     0.031 A 
ATOM     86  C   UNL A   1      48.080  26.207  32.056  1.00  0.00     0.131 A 
ATOM     87  C   UNL A   1      48.092  24.255  34.015  1.00  0.00     0.055 A 
ATOM     88  C   UNL A   1      49.293  25.660  32.477  1.00  0.00     0.041 A 
ATOM     89  F   UNL A   1      48.125  27.177  31.129  1.00  0.00    -0.206 F 
ATOM     90  C   UNL A   1      49.305  24.688  33.473  1.00  0.00     0.022 A 
BRANCH  87  91
ATOM     91  S   UNL A   1      48.085  23.111  35.423  1.00  0.00     0.124 S 
ATOM     92  O   UNL A   1      47.444  21.932  34.851  1.00  0.00    -0.237 OA
ATOM     93  O   UNL A   1      49.506  22.980  35.726  1.00  0.00    -0.237 OA
ATOM     94  O   UNL A   1      47.298  23.816  36.433  1.00  0.00    -0.744 OA
ENDBRANCH  87  91
ENDBRANCH  61  84
ENDBRANCH  35  36
ENDBRANCH  27  30
ENDBRANCH  25  26
ENDBRANCH  24  25
ENDBRANCH  23  24
ENDBRANCH   1  23
TORSDOF 19
ENDMDL
MODEL 3
REMARK VINA RESULT:     -10.8      1.444      1.656
REMARK SMILES CC[C@@H](C)S(=O)(=O)c1cc(C(=O)NCCCCCCNC(=O)c2ccc(-c3c4nc(c(-c5cc(S(=O)(=O)[O-])ccc5F)c5ccc([nH]5)c(-c5cc(S(=O)(=O)[O-])ccc5F)c5nc(c(-c6cc(S(=O)(=O)[O-])ccc6F)c6ccc3[nH]6)C=C5)C=C4)cc2)c(C)cc1C
REMARK SMILES IDX 16 1 15 2 14 3 13 4 11 5 12 6 10 8 8 9 9 10 89 11 88 12
REMARK SMILES IDX 90 13 86 14 87 15 5 16 6 17 7 18 3 19 4 20 2 21 1 22 17 23
REMARK SMILES IDX 18 24 19 25 20 26 21 27 22 29 23 30 24 31 85 32 25 33 84 34
REMARK SMILES IDX 26 35 27 36 28 37 78 38 29 39 83 40 77 41 79 42 30 43 82 44
REMARK SMILES IDX 76 45 75 46 31 48 63 49 43 50 62 51 44 52 47 53 61 54 80 55
REMARK SMILES IDX 45 56 46 57 60 59 81 60 48 61 32 62 33 63 41 64 34 65 40 66
REMARK SMILES IDX 42 67 39 68 35 69 36 70 37 71 38 72 64 73 65 74 73 75 66 76
REMARK SMILES IDX 72 77 74 78 71 79 67 80 68 81 69 82 70 83 49 84 50 85 58 86
REMARK SMILES IDX 51 87 57 88 59 89 56 90 52 91 53 92 54 93 55 94
REMARK H PARENT 13 7 20 28 79 47 47 58
REMARK Flexibility Score: inf
ROOT
ATOM      1  C   UNL A   1      33.074  27.630  25.281  1.00  0.00     0.002 C 
ENDROOT
BRANCH   1   2
ATOM      2  C   UNL A   1      32.611  28.364  24.022  1.00  0.00     0.021 C 
BRANCH   2   3
ATOM      3  C   UNL A   1      33.473  28.088  22.782  1.00  0.00     0.116 C 
BRANCH   3   4
ATOM      4  N   UNL A   1      32.660  27.438  21.779  1.00  0.00    -0.352 N 
ATOM      5  C   UNL A   1      32.140  26.182  21.633  1.00  0.00     0.251 C 
ATOM      6  O   UNL A   1      31.635  25.948  20.530  1.00  0.00    -0.269 OA
ATOM      7  H   UNL A   1      32.430  28.036  21.030  1.00  0.00     0.163 HD
BRANCH   5   8
ATOM      8  C   UNL A   1      32.029  25.129  22.699  1.00  0.00     0.044 A 
ATOM      9  C   UNL A   1      33.323  23.294  23.756  1.00  0.00     0.071 A 
ATOM     10  C   UNL A   1      33.195  24.335  22.817  1.00  0.00     0.034 A 
ATOM     11  C   UNL A   1      32.204  22.897  24.490  1.00  0.00    -0.032 A 
ATOM     12  C   UNL A   1      31.073  23.726  24.429  1.00  0.00     0.009 A 
ATOM     13  C   UNL A   1      32.081  21.698  25.383  1.00  0.00     0.046 C 
ATOM     14  C   UNL A   1      31.008  24.890  23.630  1.00  0.00    -0.038 A 
ATOM     15  C   UNL A   1      29.869  25.803  23.957  1.00  0.00     0.045 C 
BRANCH   9  16
ATOM     16  S   UNL A   1      34.956  22.579  23.953  1.00  0.00     0.181 S 
ATOM     17  O   UNL A   1      35.730  22.938  22.779  1.00  0.00    -0.223 OA
ATOM     18  O   UNL A   1      34.795  21.171  24.267  1.00  0.00    -0.223 OA
BRANCH  16  19
ATOM     19  C   UNL A   1      35.728  23.414  25.359  1.00  0.00     0.110 C 
ATOM     20  C   UNL A   1      35.017  24.700  25.757  1.00  0.00     0.025 C 
BRANCH  19  21
ATOM     21  C   UNL A   1      37.240  23.617  25.155  1.00  0.00     0.016 C 
ATOM     22  C   UNL A   1      37.965  24.076  26.416  1.00  0.00     0.005 C 
ENDBRANCH  19  21
ENDBRANCH  16  19
ENDBRANCH   9  16
ENDBRANCH   5   8
ENDBRANCH   3   4
ENDBRANCH   2   3
ENDBRANCH   1   2
BRANCH   1  23
ATOM     23  C   UNL A   1      32.213  27.903  26.516  1.00  0.00     0.002 C 
BRANCH  23  24
ATOM     24  C   UNL A   1      32.286  29.336  27.051  1.00  0.00     0.021 C 
BRANCH  24  25
ATOM     25  C   UNL A   1      33.704  29.888  27.185  1.00  0.00     0.116 C 
BRANCH  25  26
ATOM     26  N   UNL A   1      33.695  31.251  27.691  1.00  0.00    -0.352 N 
ATOM     27  C   UNL A   1      34.516  31.835  28.623  1.00  0.00     0.251 C 
ATOM     28  H   UNL A   1      33.002  31.838  27.312  1.00  0.00     0.163 HD
ATOM     29  O   UNL A   1      34.177  32.882  29.164  1.00  0.00    -0.269 OA
BRANCH  27  30
ATOM     30  C   UNL A   1      35.802  31.193  28.971  1.00  0.00     0.039 A 
ATOM     31  C   UNL A   1      36.981  31.667  28.392  1.00  0.00     0.014 A 
ATOM     32  C   UNL A   1      35.838  30.107  29.851  1.00  0.00     0.014 A 
ATOM     33  C   UNL A   1      38.202  31.086  28.739  1.00  0.00     0.010 A 
ATOM     34  C   UNL A   1      37.060  29.582  30.256  1.00  0.00     0.010 A 
ATOM     35  C   UNL A   1      38.256  30.059  29.698  1.00  0.00    -0.014 A 
BRANCH  35  36
ATOM     36  C   UNL A   1      39.552  29.470  30.123  1.00  0.00     0.031 A 
ATOM     37  C   UNL A   1      40.328  30.088  31.255  1.00  0.00     0.074 A 
ATOM     38  C   UNL A   1      40.053  28.412  29.454  1.00  0.00     0.049 A 
ATOM     39  N   UNL A   1      41.502  29.762  31.730  1.00  0.00    -0.248 NA
ATOM     40  C   UNL A   1      39.712  31.245  31.923  1.00  0.00     0.031 C 
ATOM     41  C   UNL A   1      39.408  27.751  28.318  1.00  0.00     0.029 A 
ATOM     42  N   UNL A   1      41.220  27.710  29.627  1.00  0.00    -0.354 N 
ATOM     43  C   UNL A   1      41.769  30.675  32.744  1.00  0.00     0.074 A 
ATOM     44  C   UNL A   1      40.664  31.609  32.768  1.00  0.00     0.031 C 
ATOM     45  C   UNL A   1      40.171  26.722  27.917  1.00  0.00     0.029 A 
ATOM     46  C   UNL A   1      41.384  26.682  28.727  1.00  0.00     0.049 A 
ATOM     47  H   UNL A   1      41.877  27.923  30.327  1.00  0.00     0.167 HD
ATOM     48  C   UNL A   1      42.827  30.715  33.593  1.00  0.00     0.034 A 
ATOM     49  C   UNL A   1      42.403  25.814  28.563  1.00  0.00     0.034 A 
ATOM     50  C   UNL A   1      43.916  29.769  33.556  1.00  0.00     0.049 A 
ATOM     51  C   UNL A   1      43.589  25.906  29.490  1.00  0.00     0.074 A 
ATOM     52  C   UNL A   1      45.012  29.685  34.398  1.00  0.00     0.029 A 
ATOM     53  N   UNL A   1      44.058  28.752  32.621  1.00  0.00    -0.354 N 
ATOM     54  N   UNL A   1      43.803  26.745  30.479  1.00  0.00    -0.248 NA
ATOM     55  C   UNL A   1      44.666  24.930  29.286  1.00  0.00     0.031 C 
ATOM     56  C   UNL A   1      45.854  28.675  33.923  1.00  0.00     0.029 A 
ATOM     57  C   UNL A   1      45.241  28.063  32.841  1.00  0.00     0.049 A 
ATOM     58  H   UNL A   1      43.412  28.548  31.906  1.00  0.00     0.167 HD
ATOM     59  C   UNL A   1      45.025  26.373  31.033  1.00  0.00     0.074 A 
ATOM     60  C   UNL A   1      45.490  25.227  30.281  1.00  0.00     0.031 C 
ATOM     61  C   UNL A   1      45.700  26.927  32.073  1.00  0.00     0.034 A 
BRANCH  48  62
ATOM     62  C   UNL A   1      42.865  31.832  34.609  1.00  0.00     0.023 A 
ATOM     63  C   UNL A   1      42.262  31.705  35.873  1.00  0.00     0.031 A 
ATOM     64  C   UNL A   1      43.492  33.052  34.305  1.00  0.00     0.131 A 
ATOM     65  C   UNL A   1      42.230  32.799  36.751  1.00  0.00     0.055 A 
ATOM     66  C   UNL A   1      43.537  34.109  35.217  1.00  0.00     0.041 A 
ATOM     67  F   UNL A   1      44.066  33.246  33.106  1.00  0.00    -0.206 F 
ATOM     68  C   UNL A   1      42.890  33.991  36.443  1.00  0.00     0.022 A 
BRANCH  65  69
ATOM     69  S   UNL A   1      41.185  32.693  38.229  1.00  0.00     0.124 S 
ATOM     70  O   UNL A   1      39.931  32.196  37.667  1.00  0.00    -0.237 OA
ATOM     71  O   UNL A   1      41.923  31.760  39.072  1.00  0.00    -0.237 OA
ATOM     72  O   UNL A   1      41.138  34.072  38.714  1.00  0.00    -0.744 OA
ENDBRANCH  65  69
ENDBRANCH  48  62
BRANCH  49  73
ATOM     73  C   UNL A   1      42.361  24.794  27.474  1.00  0.00     0.023 A 
ATOM     74  C   UNL A   1      41.656  23.591  27.636  1.00  0.00     0.031 A 
ATOM     75  C   UNL A   1      43.067  24.987  26.273  1.00  0.00     0.131 A 
ATOM     76  C   UNL A   1      41.714  22.606  26.639  1.00  0.00     0.055 A 
ATOM     77  C   UNL A   1      43.069  24.030  25.256  1.00  0.00     0.041 A 
ATOM     78  F   UNL A   1      43.758  26.119  26.063  1.00  0.00    -0.206 F 
ATOM     79  C   UNL A   1      42.402  22.824  25.443  1.00  0.00     0.022 A 
BRANCH  76  80
ATOM     80  S   UNL A   1      40.959  20.990  26.970  1.00  0.00     0.124 S 
ATOM     81  O   UNL A   1      40.763  21.046  28.414  1.00  0.00    -0.237 OA
ATOM     82  O   UNL A   1      39.752  21.048  26.154  1.00  0.00    -0.237 OA
ATOM     83  O   UNL A   1      41.974  20.042  26.514  1.00  0.00    -0.744 OA
ENDBRANCH  76  80
ENDBRANCH  49  73
BRANCH  61  84
ATOM     84  C   UNL A   1      46.996  26.267  32.481  1.00  0.00     0.023 A 
ATOM     85  C   UNL A   1      48.228  26.635  31.912  1.00  0.00     0.031 A 
ATOM     86  C   UNL A   1      46.995  25.246  33.449  1.00  0.00     0.131 A 
ATOM     87  C   UNL A   1      49.397  25.945  32.270  1.00  0.00     0.055 A 
ATOM     88  C   UNL A   1      48.171  24.613  33.853  1.00  0.00     0.041 A 
ATOM     89  F   UNL A   1      45.847  24.849  34.023  1.00  0.00    -0.206 F 
ATOM     90  C   UNL A   1      49.379  24.951  33.252  1.00  0.00     0.022 A 
BRANCH  87  91
ATOM     91  S   UNL A   1      50.925  26.292  31.357  1.00  0.00     0.124 S 
ATOM     92  O   UNL A   1      51.920  26.298  32.425  1.00  0.00    -0.237 OA
ATOM     93  O   UNL A   1      50.996  25.169  30.427  1.00  0.00    -0.237 OA
ATOM     94  O   UNL A   1      50.669  27.592  30.741  1.00  0.00    -0.744 OA
ENDBRANCH  87  91
ENDBRANCH  61  84
ENDBRANCH  35  36
ENDBRANCH  27  30
ENDBRANCH  25  26
ENDBRANCH  24  25
ENDBRANCH  23  24
ENDBRANCH   1  23
TORSDOF 19
ENDMDL
