MODEL 1
REMARK VINA RESULT:     -12.8      0.000      0.000
REMARK SMILES Cc1ccc(S(=O)(=O)N(c2ccccc2)[C@H](C)C(=O)NCCCCCCNC(=O)c2ccc(-c3c4nc(c(-c5cc(S(=O)(=O)[O-])ccc5F)c5ccc([nH]5)c(-c5cc(S(=O)(=O)[O-])ccc5F)c5nc(c(-c6cc(S(=O)(=O)[O-])ccc6F)c6ccc3[nH]6)C=C5)C=C4)cc2)cc1
REMARK SMILES IDX 23 1 22 2 21 3 20 4 18 5 19 6 16 8 17 9 9 10 6 11 7 12 8 13
REMARK SMILES IDX 5 14 1 15 2 16 3 17 94 18 4 19 93 20 10 21 11 22 15 23 12 24
REMARK SMILES IDX 14 25 13 26 24 27 25 28 26 29 27 30 28 31 29 33 30 34 31 35
REMARK SMILES IDX 92 36 32 37 91 38 33 39 34 40 35 41 85 42 36 43 90 44 84 45
REMARK SMILES IDX 86 46 37 47 89 48 83 49 82 50 38 52 70 53 50 54 69 55 51 56
REMARK SMILES IDX 54 57 68 58 87 59 52 60 53 61 67 63 88 64 55 65 39 66 40 67
REMARK SMILES IDX 48 68 41 69 47 70 49 71 46 72 42 73 43 74 44 75 45 76 71 77
REMARK SMILES IDX 72 78 80 79 73 80 79 81 81 82 78 83 74 84 75 85 76 86 77 87
REMARK SMILES IDX 56 88 57 89 65 90 58 91 64 92 66 93 63 94 59 95 60 96 61 97
REMARK SMILES IDX 62 98
REMARK H PARENT 20 7 27 32 86 51 54 62
REMARK Flexibility Score: inf
ROOT
ATOM      1  C   UNL A   1      36.500  22.593  24.249  1.00  0.00     0.002 C 
ENDROOT
BRANCH   1   2
ATOM      2  C   UNL A   1      35.055  23.100  24.369  1.00  0.00     0.021 C 
BRANCH   2   3
ATOM      3  C   UNL A   1      34.047  22.145  25.006  1.00  0.00     0.116 C 
BRANCH   3   4
ATOM      4  N   UNL A   1      33.647  22.481  26.354  1.00  0.00    -0.354 N 
ATOM      5  C   UNL A   1      32.492  23.040  26.821  1.00  0.00     0.243 C 
ATOM      6  O   UNL A   1      32.312  22.975  28.046  1.00  0.00    -0.273 OA
ATOM      7  H   UNL A   1      34.314  22.272  27.048  1.00  0.00     0.163 HD
BRANCH   5   8
ATOM      8  C   UNL A   1      31.450  23.755  25.944  1.00  0.00     0.185 C 
ATOM      9  C   UNL A   1      30.099  23.978  26.619  1.00  0.00     0.043 C 
BRANCH   8  10
ATOM     10  N   UNL A   1      31.940  24.932  25.151  1.00  0.00    -0.254 N 
BRANCH  10  11
ATOM     11  S   UNL A   1      31.426  24.978  23.524  1.00  0.00     0.265 S 
ATOM     12  O   UNL A   1      30.617  23.789  23.317  1.00  0.00    -0.201 OA
ATOM     13  O   UNL A   1      32.591  25.210  22.695  1.00  0.00    -0.201 OA
BRANCH  11  14
ATOM     14  C   UNL A   1      30.331  26.365  23.248  1.00  0.00     0.088 A 
ATOM     15  C   UNL A   1      27.727  29.787  23.019  1.00  0.00     0.044 C 
ATOM     16  C   UNL A   1      28.614  28.579  23.068  1.00  0.00    -0.051 A 
ATOM     17  C   UNL A   1      28.167  27.385  23.643  1.00  0.00     0.005 A 
ATOM     18  C   UNL A   1      29.895  28.622  22.502  1.00  0.00     0.005 A 
ATOM     19  C   UNL A   1      29.027  26.290  23.753  1.00  0.00     0.022 A 
ATOM     20  C   UNL A   1      30.732  27.503  22.551  1.00  0.00     0.022 A 
ENDBRANCH  11  14
ENDBRANCH  10  11
BRANCH  10  21
ATOM     21  C   UNL A   1      32.336  26.132  25.804  1.00  0.00     0.053 A 
ATOM     22  C   UNL A   1      31.364  26.808  26.550  1.00  0.00     0.027 A 
ATOM     23  C   UNL A   1      33.642  26.617  25.755  1.00  0.00     0.027 A 
ATOM     24  C   UNL A   1      31.701  27.951  27.270  1.00  0.00     0.002 A 
ATOM     25  C   UNL A   1      33.970  27.780  26.455  1.00  0.00     0.002 A 
ATOM     26  C   UNL A   1      33.004  28.442  27.216  1.00  0.00     0.000 A 
ENDBRANCH  10  21
ENDBRANCH   8  10
ENDBRANCH   5   8
ENDBRANCH   3   4
ENDBRANCH   2   3
ENDBRANCH   1   2
BRANCH   1  27
ATOM     27  C   UNL A   1      37.551  23.200  25.192  1.00  0.00     0.002 C 
BRANCH  27  28
ATOM     28  C   UNL A   1      38.649  22.267  25.696  1.00  0.00     0.021 C 
BRANCH  28  29
ATOM     29  C   UNL A   1      39.432  22.762  26.906  1.00  0.00     0.116 C 
BRANCH  29  30
ATOM     30  N   UNL A   1      40.818  23.111  26.597  1.00  0.00    -0.352 N 
ATOM     31  C   UNL A   1      41.375  24.375  26.440  1.00  0.00     0.251 C 
ATOM     32  H   UNL A   1      41.437  22.354  26.485  1.00  0.00     0.163 HD
ATOM     33  O   UNL A   1      42.547  24.559  26.191  1.00  0.00    -0.269 OA
BRANCH  31  34
ATOM     34  C   UNL A   1      40.488  25.527  26.719  1.00  0.00     0.039 A 
ATOM     35  C   UNL A   1      40.835  26.738  26.113  1.00  0.00     0.014 A 
ATOM     36  C   UNL A   1      39.609  25.479  27.797  1.00  0.00     0.014 A 
ATOM     37  C   UNL A   1      40.510  27.926  26.758  1.00  0.00     0.010 A 
ATOM     38  C   UNL A   1      39.353  26.656  28.479  1.00  0.00     0.010 A 
ATOM     39  C   UNL A   1      39.883  27.864  28.004  1.00  0.00    -0.014 A 
BRANCH  39  40
ATOM     40  C   UNL A   1      39.940  28.981  28.947  1.00  0.00     0.031 A 
ATOM     41  C   UNL A   1      38.908  30.034  28.934  1.00  0.00     0.074 A 
ATOM     42  C   UNL A   1      40.975  29.077  29.810  1.00  0.00     0.049 A 
ATOM     43  N   UNL A   1      39.091  31.246  29.346  1.00  0.00    -0.248 NA
ATOM     44  C   UNL A   1      37.593  29.818  28.354  1.00  0.00     0.031 C 
ATOM     45  C   UNL A   1      41.117  30.001  30.933  1.00  0.00     0.029 A 
ATOM     46  N   UNL A   1      42.239  28.517  29.668  1.00  0.00    -0.354 N 
ATOM     47  C   UNL A   1      37.870  31.882  29.349  1.00  0.00     0.074 A 
ATOM     48  C   UNL A   1      37.006  30.989  28.614  1.00  0.00     0.031 C 
ATOM     49  C   UNL A   1      42.421  30.136  31.221  1.00  0.00     0.029 A 
ATOM     50  C   UNL A   1      43.172  29.406  30.214  1.00  0.00     0.049 A 
ATOM     51  H   UNL A   1      42.442  27.646  29.257  1.00  0.00     0.167 HD
ATOM     52  C   UNL A   1      37.713  33.016  30.093  1.00  0.00     0.034 A 
ATOM     53  C   UNL A   1      44.174  29.930  29.450  1.00  0.00     0.034 A 
ATOM     54  C   UNL A   1      39.010  33.523  30.566  1.00  0.00     0.049 A 
ATOM     55  C   UNL A   1      44.117  31.437  29.318  1.00  0.00     0.074 A 
ATOM     56  C   UNL A   1      39.651  33.498  31.794  1.00  0.00     0.029 A 
ATOM     57  N   UNL A   1      39.964  33.944  29.640  1.00  0.00    -0.354 N 
ATOM     58  N   UNL A   1      43.091  32.171  29.655  1.00  0.00    -0.248 NA
ATOM     59  C   UNL A   1      45.207  32.229  28.754  1.00  0.00     0.031 C 
ATOM     60  C   UNL A   1      41.021  33.817  31.582  1.00  0.00     0.029 A 
ATOM     61  C   UNL A   1      41.206  34.075  30.234  1.00  0.00     0.049 A 
ATOM     62  H   UNL A   1      39.778  34.123  28.689  1.00  0.00     0.167 HD
ATOM     63  C   UNL A   1      43.329  33.478  29.310  1.00  0.00     0.074 A 
ATOM     64  C   UNL A   1      44.688  33.468  28.797  1.00  0.00     0.031 C 
ATOM     65  C   UNL A   1      42.377  34.452  29.447  1.00  0.00     0.034 A 
BRANCH  52  66
ATOM     66  C   UNL A   1      36.379  33.511  30.649  1.00  0.00     0.023 A 
ATOM     67  C   UNL A   1      35.462  34.142  29.775  1.00  0.00     0.031 A 
ATOM     68  C   UNL A   1      35.978  33.500  32.003  1.00  0.00     0.131 A 
ATOM     69  C   UNL A   1      34.301  34.788  30.252  1.00  0.00     0.055 A 
ATOM     70  C   UNL A   1      34.839  34.164  32.481  1.00  0.00     0.041 A 
ATOM     71  F   UNL A   1      36.631  32.819  32.944  1.00  0.00    -0.206 F 
ATOM     72  C   UNL A   1      34.000  34.826  31.608  1.00  0.00     0.022 A 
BRANCH  69  73
ATOM     73  S   UNL A   1      33.188  35.614  29.081  1.00  0.00     0.124 S 
ATOM     74  O   UNL A   1      32.604  34.486  28.362  1.00  0.00    -0.237 OA
ATOM     75  O   UNL A   1      32.297  36.351  29.969  1.00  0.00    -0.237 OA
ATOM     76  O   UNL A   1      34.091  36.447  28.286  1.00  0.00    -0.744 OA
ENDBRANCH  69  73
ENDBRANCH  52  66
BRANCH  53  77
ATOM     77  C   UNL A   1      44.677  29.000  28.399  1.00  0.00     0.023 A 
ATOM     78  C   UNL A   1      45.500  27.931  28.811  1.00  0.00     0.031 A 
ATOM     79  C   UNL A   1      44.100  28.932  27.124  1.00  0.00     0.131 A 
ATOM     80  C   UNL A   1      45.614  26.781  28.020  1.00  0.00     0.055 A 
ATOM     81  C   UNL A   1      44.258  27.800  26.314  1.00  0.00     0.041 A 
ATOM     82  F   UNL A   1      43.278  29.899  26.692  1.00  0.00    -0.206 F 
ATOM     83  C   UNL A   1      44.982  26.702  26.777  1.00  0.00     0.022 A 
BRANCH  80  84
ATOM     84  S   UNL A   1      46.402  25.291  28.696  1.00  0.00     0.124 S 
ATOM     85  O   UNL A   1      45.862  24.241  27.839  1.00  0.00    -0.237 OA
ATOM     86  O   UNL A   1      47.827  25.563  28.539  1.00  0.00    -0.237 OA
ATOM     87  O   UNL A   1      45.937  25.281  30.082  1.00  0.00    -0.744 OA
ENDBRANCH  80  84
ENDBRANCH  53  77
BRANCH  65  88
ATOM     88  C   UNL A   1      42.503  35.866  28.916  1.00  0.00     0.023 A 
ATOM     89  C   UNL A   1      43.235  36.875  29.564  1.00  0.00     0.031 A 
ATOM     90  C   UNL A   1      41.929  36.231  27.676  1.00  0.00     0.131 A 
ATOM     91  C   UNL A   1      43.285  38.185  29.054  1.00  0.00     0.055 A 
ATOM     92  C   UNL A   1      42.053  37.513  27.126  1.00  0.00     0.041 A 
ATOM     93  F   UNL A   1      41.225  35.357  26.942  1.00  0.00    -0.206 F 
ATOM     94  C   UNL A   1      42.715  38.508  27.826  1.00  0.00     0.022 A 
BRANCH  91  95
ATOM     95  S   UNL A   1      44.044  39.477  30.076  1.00  0.00     0.124 S 
ATOM     96  O   UNL A   1      44.896  38.694  30.967  1.00  0.00    -0.237 OA
ATOM     97  O   UNL A   1      44.741  40.291  29.087  1.00  0.00    -0.237 OA
ATOM     98  O   UNL A   1      42.903  40.123  30.721  1.00  0.00    -0.744 OA
ENDBRANCH  91  95
ENDBRANCH  65  88
ENDBRANCH  39  40
ENDBRANCH  31  34
ENDBRANCH  29  30
ENDBRANCH  28  29
ENDBRANCH  27  28
ENDBRANCH   1  27
TORSDOF 20
ENDMDL
MODEL 2
REMARK VINA RESULT:     -12.7      0.995      2.366
REMARK SMILES Cc1ccc(S(=O)(=O)N(c2ccccc2)[C@H](C)C(=O)NCCCCCCNC(=O)c2ccc(-c3c4nc(c(-c5cc(S(=O)(=O)[O-])ccc5F)c5ccc([nH]5)c(-c5cc(S(=O)(=O)[O-])ccc5F)c5nc(c(-c6cc(S(=O)(=O)[O-])ccc6F)c6ccc3[nH]6)C=C5)C=C4)cc2)cc1
REMARK SMILES IDX 23 1 22 2 21 3 20 4 18 5 19 6 16 8 17 9 9 10 6 11 7 12 8 13
REMARK SMILES IDX 5 14 1 15 2 16 3 17 94 18 4 19 93 20 10 21 11 22 15 23 12 24
REMARK SMILES IDX 14 25 13 26 24 27 25 28 26 29 27 30 28 31 29 33 30 34 31 35
REMARK SMILES IDX 92 36 32 37 91 38 33 39 34 40 35 41 85 42 36 43 90 44 84 45
REMARK SMILES IDX 86 46 37 47 89 48 83 49 82 50 38 52 70 53 50 54 69 55 51 56
REMARK SMILES IDX 54 57 68 58 87 59 52 60 53 61 67 63 88 64 55 65 39 66 40 67
REMARK SMILES IDX 48 68 41 69 47 70 49 71 46 72 42 73 43 74 44 75 45 76 71 77
REMARK SMILES IDX 72 78 80 79 73 80 79 81 81 82 78 83 74 84 75 85 76 86 77 87
REMARK SMILES IDX 56 88 57 89 65 90 58 91 64 92 66 93 63 94 59 95 60 96 61 97
REMARK SMILES IDX 62 98
REMARK H PARENT 20 7 27 32 86 51 54 62
REMARK Flexibility Score: inf
ROOT
ATOM      1  C   UNL A   1      36.489  20.762  25.015  1.00  0.00     0.002 C 
ENDROOT
BRANCH   1   2
ATOM      2  C   UNL A   1      34.995  20.780  24.655  1.00  0.00     0.021 C 
BRANCH   2   3
ATOM      3  C   UNL A   1      34.408  22.129  24.248  1.00  0.00     0.116 C 
BRANCH   3   4
ATOM      4  N   UNL A   1      32.993  22.122  23.953  1.00  0.00    -0.354 N 
ATOM      5  C   UNL A   1      32.180  23.118  23.491  1.00  0.00     0.243 C 
ATOM      6  O   UNL A   1      31.066  22.764  23.080  1.00  0.00    -0.273 OA
ATOM      7  H   UNL A   1      32.542  21.261  24.109  1.00  0.00     0.163 HD
BRANCH   5   8
ATOM      8  C   UNL A   1      32.546  24.612  23.485  1.00  0.00     0.185 C 
ATOM      9  C   UNL A   1      32.836  25.188  22.101  1.00  0.00     0.043 C 
BRANCH   8  10
ATOM     10  N   UNL A   1      31.714  25.506  24.358  1.00  0.00    -0.254 N 
BRANCH  10  11
ATOM     11  S   UNL A   1      32.145  25.516  26.010  1.00  0.00     0.265 S 
ATOM     12  O   UNL A   1      33.384  24.764  26.114  1.00  0.00    -0.201 OA
ATOM     13  O   UNL A   1      30.987  25.105  26.776  1.00  0.00    -0.201 OA
BRANCH  11  14
ATOM     14  C   UNL A   1      32.538  27.176  26.548  1.00  0.00     0.088 A 
ATOM     15  C   UNL A   1      33.497  31.284  27.414  1.00  0.00     0.044 C 
ATOM     16  C   UNL A   1      33.182  29.843  27.146  1.00  0.00    -0.051 A 
ATOM     17  C   UNL A   1      34.156  28.981  26.632  1.00  0.00     0.005 A 
ATOM     18  C   UNL A   1      31.912  29.331  27.444  1.00  0.00     0.005 A 
ATOM     19  C   UNL A   1      33.831  27.660  26.314  1.00  0.00     0.022 A 
ATOM     20  C   UNL A   1      31.607  27.991  27.189  1.00  0.00     0.022 A 
ENDBRANCH  11  14
ENDBRANCH  10  11
BRANCH  10  21
ATOM     21  C   UNL A   1      31.007  26.608  23.803  1.00  0.00     0.053 A 
ATOM     22  C   UNL A   1      29.609  26.552  23.830  1.00  0.00     0.027 A 
ATOM     23  C   UNL A   1      31.652  27.730  23.284  1.00  0.00     0.027 A 
ATOM     24  C   UNL A   1      28.854  27.628  23.367  1.00  0.00     0.002 A 
ATOM     25  C   UNL A   1      30.892  28.794  22.793  1.00  0.00     0.002 A 
ATOM     26  C   UNL A   1      29.497  28.746  22.839  1.00  0.00     0.000 A 
ENDBRANCH  10  21
ENDBRANCH   8  10
ENDBRANCH   5   8
ENDBRANCH   3   4
ENDBRANCH   2   3
ENDBRANCH   1   2
BRANCH   1  27
ATOM     27  C   UNL A   1      37.064  21.990  25.740  1.00  0.00     0.002 C 
BRANCH  27  28
ATOM     28  C   UNL A   1      38.559  22.253  25.575  1.00  0.00     0.021 C 
BRANCH  28  29
ATOM     29  C   UNL A   1      39.294  22.697  26.834  1.00  0.00     0.116 C 
BRANCH  29  30
ATOM     30  N   UNL A   1      40.704  23.009  26.603  1.00  0.00    -0.352 N 
ATOM     31  C   UNL A   1      41.306  24.257  26.498  1.00  0.00     0.251 C 
ATOM     32  H   UNL A   1      41.305  22.234  26.508  1.00  0.00     0.163 HD
ATOM     33  O   UNL A   1      42.494  24.409  26.314  1.00  0.00    -0.269 OA
BRANCH  31  34
ATOM     34  C   UNL A   1      40.440  25.431  26.752  1.00  0.00     0.039 A 
ATOM     35  C   UNL A   1      40.834  26.633  26.156  1.00  0.00     0.014 A 
ATOM     36  C   UNL A   1      39.531  25.405  27.805  1.00  0.00     0.014 A 
ATOM     37  C   UNL A   1      40.521  27.828  26.792  1.00  0.00     0.010 A 
ATOM     38  C   UNL A   1      39.286  26.590  28.480  1.00  0.00     0.010 A 
ATOM     39  C   UNL A   1      39.859  27.783  28.020  1.00  0.00    -0.014 A 
BRANCH  39  40
ATOM     40  C   UNL A   1      39.918  28.899  28.964  1.00  0.00     0.031 A 
ATOM     41  C   UNL A   1      38.888  29.956  28.951  1.00  0.00     0.074 A 
ATOM     42  C   UNL A   1      40.952  28.993  29.828  1.00  0.00     0.049 A 
ATOM     43  N   UNL A   1      39.074  31.166  29.364  1.00  0.00    -0.248 NA
ATOM     44  C   UNL A   1      37.573  29.742  28.370  1.00  0.00     0.031 C 
ATOM     45  C   UNL A   1      41.095  29.915  30.952  1.00  0.00     0.029 A 
ATOM     46  N   UNL A   1      42.214  28.429  29.687  1.00  0.00    -0.354 N 
ATOM     47  C   UNL A   1      37.854  31.805  29.366  1.00  0.00     0.074 A 
ATOM     48  C   UNL A   1      36.989  30.915  28.630  1.00  0.00     0.031 C 
ATOM     49  C   UNL A   1      42.399  30.047  31.241  1.00  0.00     0.029 A 
ATOM     50  C   UNL A   1      43.149  29.316  30.235  1.00  0.00     0.049 A 
ATOM     51  H   UNL A   1      42.416  27.559  29.275  1.00  0.00     0.167 HD
ATOM     52  C   UNL A   1      37.699  32.939  30.112  1.00  0.00     0.034 A 
ATOM     53  C   UNL A   1      44.153  29.838  29.471  1.00  0.00     0.034 A 
ATOM     54  C   UNL A   1      38.997  33.443  30.586  1.00  0.00     0.049 A 
ATOM     55  C   UNL A   1      44.100  31.346  29.341  1.00  0.00     0.074 A 
ATOM     56  C   UNL A   1      39.637  33.415  31.815  1.00  0.00     0.029 A 
ATOM     57  N   UNL A   1      39.953  33.862  29.661  1.00  0.00    -0.354 N 
ATOM     58  N   UNL A   1      43.075  32.081  29.677  1.00  0.00    -0.248 NA
ATOM     59  C   UNL A   1      45.192  32.135  28.779  1.00  0.00     0.031 C 
ATOM     60  C   UNL A   1      41.007  33.731  31.604  1.00  0.00     0.029 A 
ATOM     61  C   UNL A   1      41.195  33.989  30.257  1.00  0.00     0.049 A 
ATOM     62  H   UNL A   1      39.768  34.042  28.711  1.00  0.00     0.167 HD
ATOM     63  C   UNL A   1      43.317  33.388  29.335  1.00  0.00     0.074 A 
ATOM     64  C   UNL A   1      44.677  33.375  28.822  1.00  0.00     0.031 C 
ATOM     65  C   UNL A   1      42.368  34.364  29.471  1.00  0.00     0.034 A 
BRANCH  52  66
ATOM     66  C   UNL A   1      36.366  33.436  30.667  1.00  0.00     0.023 A 
ATOM     67  C   UNL A   1      35.486  34.142  29.812  1.00  0.00     0.031 A 
ATOM     68  C   UNL A   1      35.933  33.358  32.008  1.00  0.00     0.131 A 
ATOM     69  C   UNL A   1      34.331  34.790  30.301  1.00  0.00     0.055 A 
ATOM     70  C   UNL A   1      34.801  34.024  32.501  1.00  0.00     0.041 A 
ATOM     71  F   UNL A   1      36.547  32.605  32.922  1.00  0.00    -0.206 F 
ATOM     72  C   UNL A   1      33.999  34.758  31.650  1.00  0.00     0.022 A 
BRANCH  69  73
ATOM     73  S   UNL A   1      33.268  35.713  29.156  1.00  0.00     0.124 S 
ATOM     74  O   UNL A   1      32.537  34.644  28.485  1.00  0.00    -0.237 OA
ATOM     75  O   UNL A   1      32.498  36.557  30.063  1.00  0.00    -0.237 OA
ATOM     76  O   UNL A   1      34.222  36.430  28.310  1.00  0.00    -0.744 OA
ENDBRANCH  69  73
ENDBRANCH  52  66
BRANCH  53  77
ATOM     77  C   UNL A   1      44.655  28.908  28.421  1.00  0.00     0.023 A 
ATOM     78  C   UNL A   1      45.399  27.785  28.841  1.00  0.00     0.031 A 
ATOM     79  C   UNL A   1      44.136  28.902  27.119  1.00  0.00     0.131 A 
ATOM     80  C   UNL A   1      45.488  26.650  28.025  1.00  0.00     0.055 A 
ATOM     81  C   UNL A   1      44.272  27.784  26.287  1.00  0.00     0.041 A 
ATOM     82  F   UNL A   1      43.390  29.924  26.676  1.00  0.00    -0.206 F 
ATOM     83  C   UNL A   1      44.913  26.637  26.752  1.00  0.00     0.022 A 
BRANCH  80  84
ATOM     84  S   UNL A   1      46.162  25.103  28.697  1.00  0.00     0.124 S 
ATOM     85  O   UNL A   1      46.844  25.562  29.902  1.00  0.00    -0.237 OA
ATOM     86  O   UNL A   1      44.974  24.285  28.917  1.00  0.00    -0.237 OA
ATOM     87  O   UNL A   1      47.028  24.633  27.616  1.00  0.00    -0.744 OA
ENDBRANCH  80  84
ENDBRANCH  53  77
BRANCH  65  88
ATOM     88  C   UNL A   1      42.497  35.778  28.941  1.00  0.00     0.023 A 
ATOM     89  C   UNL A   1      43.230  36.785  29.592  1.00  0.00     0.031 A 
ATOM     90  C   UNL A   1      41.925  36.146  27.701  1.00  0.00     0.131 A 
ATOM     91  C   UNL A   1      43.284  38.096  29.082  1.00  0.00     0.055 A 
ATOM     92  C   UNL A   1      42.053  37.427  27.152  1.00  0.00     0.041 A 
ATOM     93  F   UNL A   1      41.221  35.274  26.965  1.00  0.00    -0.206 F 
ATOM     94  C   UNL A   1      42.717  38.421  27.854  1.00  0.00     0.022 A 
BRANCH  91  95
ATOM     95  S   UNL A   1      44.044  39.385  30.107  1.00  0.00     0.124 S 
ATOM     96  O   UNL A   1      44.928  40.047  29.151  1.00  0.00    -0.237 OA
ATOM     97  O   UNL A   1      42.889  40.160  30.544  1.00  0.00    -0.237 OA
ATOM     98  O   UNL A   1      44.724  38.634  31.160  1.00  0.00    -0.744 OA
ENDBRANCH  91  95
ENDBRANCH  65  88
ENDBRANCH  39  40
ENDBRANCH  31  34
ENDBRANCH  29  30
ENDBRANCH  28  29
ENDBRANCH  27  28
ENDBRANCH   1  27
TORSDOF 20
ENDMDL
MODEL 3
REMARK VINA RESULT:     -12.5      4.298     10.701
REMARK SMILES Cc1ccc(S(=O)(=O)N(c2ccccc2)[C@H](C)C(=O)NCCCCCCNC(=O)c2ccc(-c3c4nc(c(-c5cc(S(=O)(=O)[O-])ccc5F)c5ccc([nH]5)c(-c5cc(S(=O)(=O)[O-])ccc5F)c5nc(c(-c6cc(S(=O)(=O)[O-])ccc6F)c6ccc3[nH]6)C=C5)C=C4)cc2)cc1
REMARK SMILES IDX 23 1 22 2 21 3 20 4 18 5 19 6 16 8 17 9 9 10 6 11 7 12 8 13
REMARK SMILES IDX 5 14 1 15 2 16 3 17 94 18 4 19 93 20 10 21 11 22 15 23 12 24
REMARK SMILES IDX 14 25 13 26 24 27 25 28 26 29 27 30 28 31 29 33 30 34 31 35
REMARK SMILES IDX 92 36 32 37 91 38 33 39 34 40 35 41 85 42 36 43 90 44 84 45
REMARK SMILES IDX 86 46 37 47 89 48 83 49 82 50 38 52 70 53 50 54 69 55 51 56
REMARK SMILES IDX 54 57 68 58 87 59 52 60 53 61 67 63 88 64 55 65 39 66 40 67
REMARK SMILES IDX 48 68 41 69 47 70 49 71 46 72 42 73 43 74 44 75 45 76 71 77
REMARK SMILES IDX 72 78 80 79 73 80 79 81 81 82 78 83 74 84 75 85 76 86 77 87
REMARK SMILES IDX 56 88 57 89 65 90 58 91 64 92 66 93 63 94 59 95 60 96 61 97
REMARK SMILES IDX 62 98
REMARK H PARENT 20 7 27 32 86 51 54 62
REMARK Flexibility Score: inf
ROOT
ATOM      1  C   UNL A   1      33.313  27.998  26.067  1.00  0.00     0.002 C 
ENDROOT
BRANCH   1   2
ATOM      2  C   UNL A   1      32.380  26.895  26.588  1.00  0.00     0.021 C 
BRANCH   2   3
ATOM      3  C   UNL A   1      31.858  25.899  25.555  1.00  0.00     0.116 C 
BRANCH   3   4
ATOM      4  N   UNL A   1      31.313  24.675  26.099  1.00  0.00    -0.354 N 
ATOM      5  C   UNL A   1      31.943  23.570  26.597  1.00  0.00     0.243 C 
ATOM      6  O   UNL A   1      31.232  22.780  27.235  1.00  0.00    -0.273 OA
ATOM      7  H   UNL A   1      30.330  24.630  26.112  1.00  0.00     0.163 HD
BRANCH   5   8
ATOM      8  C   UNL A   1      33.431  23.244  26.389  1.00  0.00     0.185 C 
ATOM      9  C   UNL A   1      34.066  22.430  27.514  1.00  0.00     0.043 C 
BRANCH   8  10
ATOM     10  N   UNL A   1      33.831  22.800  25.012  1.00  0.00    -0.254 N 
BRANCH  10  11
ATOM     11  S   UNL A   1      35.185  23.603  24.352  1.00  0.00     0.265 S 
ATOM     12  O   UNL A   1      35.026  25.010  24.680  1.00  0.00    -0.201 OA
ATOM     13  O   UNL A   1      35.314  23.198  22.968  1.00  0.00    -0.201 OA
BRANCH  11  14
ATOM     14  C   UNL A   1      36.688  23.081  25.169  1.00  0.00     0.088 A 
ATOM     15  C   UNL A   1      40.508  21.864  26.741  1.00  0.00     0.044 C 
ATOM     16  C   UNL A   1      39.160  22.265  26.221  1.00  0.00    -0.051 A 
ATOM     17  C   UNL A   1      38.420  21.401  25.408  1.00  0.00     0.005 A 
ATOM     18  C   UNL A   1      38.607  23.503  26.575  1.00  0.00     0.005 A 
ATOM     19  C   UNL A   1      37.200  21.814  24.867  1.00  0.00     0.022 A 
ATOM     20  C   UNL A   1      37.354  23.889  26.088  1.00  0.00     0.022 A 
ENDBRANCH  11  14
ENDBRANCH  10  11
BRANCH  10  21
ATOM     21  C   UNL A   1      33.468  21.511  24.532  1.00  0.00     0.053 A 
ATOM     22  C   UNL A   1      34.146  20.411  25.069  1.00  0.00     0.027 A 
ATOM     23  C   UNL A   1      32.453  21.318  23.596  1.00  0.00     0.027 A 
ATOM     24  C   UNL A   1      33.793  19.117  24.694  1.00  0.00     0.002 A 
ATOM     25  C   UNL A   1      32.121  20.020  23.200  1.00  0.00     0.002 A 
ATOM     26  C   UNL A   1      32.785  18.923  23.752  1.00  0.00     0.000 A 
ENDBRANCH  10  21
ENDBRANCH   8  10
ENDBRANCH   5   8
ENDBRANCH   3   4
ENDBRANCH   2   3
ENDBRANCH   1   2
BRANCH   1  27
ATOM     27  C   UNL A   1      34.215  28.713  27.087  1.00  0.00     0.002 C 
BRANCH  27  28
ATOM     28  C   UNL A   1      33.874  30.165  27.412  1.00  0.00     0.021 C 
BRANCH  28  29
ATOM     29  C   UNL A   1      35.064  31.109  27.542  1.00  0.00     0.116 C 
BRANCH  29  30
ATOM     30  N   UNL A   1      35.364  31.477  28.925  1.00  0.00    -0.352 N 
ATOM     31  C   UNL A   1      36.285  30.900  29.792  1.00  0.00     0.251 C 
ATOM     32  H   UNL A   1      34.847  32.231  29.291  1.00  0.00     0.163 HD
ATOM     33  O   UNL A   1      36.466  31.289  30.926  1.00  0.00    -0.269 OA
BRANCH  31  34
ATOM     34  C   UNL A   1      37.152  29.842  29.225  1.00  0.00     0.039 A 
ATOM     35  C   UNL A   1      37.407  28.742  30.048  1.00  0.00     0.014 A 
ATOM     36  C   UNL A   1      37.943  30.118  28.114  1.00  0.00     0.014 A 
ATOM     37  C   UNL A   1      38.616  28.070  29.911  1.00  0.00     0.010 A 
ATOM     38  C   UNL A   1      39.180  29.501  28.028  1.00  0.00     0.010 A 
ATOM     39  C   UNL A   1      39.546  28.543  28.984  1.00  0.00    -0.014 A 
BRANCH  39  40
ATOM     40  C   UNL A   1      40.971  28.232  29.101  1.00  0.00     0.031 A 
ATOM     41  C   UNL A   1      41.531  27.013  28.488  1.00  0.00     0.074 A 
ATOM     42  C   UNL A   1      41.779  29.044  29.817  1.00  0.00     0.049 A 
ATOM     43  N   UNL A   1      42.593  26.405  28.902  1.00  0.00    -0.248 NA
ATOM     44  C   UNL A   1      40.862  26.321  27.397  1.00  0.00     0.031 C 
ATOM     45  C   UNL A   1      43.236  29.006  29.899  1.00  0.00     0.029 A 
ATOM     46  N   UNL A   1      41.403  29.913  30.835  1.00  0.00    -0.354 N 
ATOM     47  C   UNL A   1      42.906  25.425  27.986  1.00  0.00     0.074 A 
ATOM     48  C   UNL A   1      41.736  25.343  27.146  1.00  0.00     0.031 C 
ATOM     49  C   UNL A   1      43.622  29.600  31.039  1.00  0.00     0.029 A 
ATOM     50  C   UNL A   1      42.424  29.927  31.792  1.00  0.00     0.049 A 
ATOM     51  H   UNL A   1      40.565  30.428  30.875  1.00  0.00     0.167 HD
ATOM     52  C   UNL A   1      44.170  24.907  27.971  1.00  0.00     0.034 A 
ATOM     53  C   UNL A   1      42.182  29.555  33.083  1.00  0.00     0.034 A 
ATOM     54  C   UNL A   1      44.925  25.319  29.165  1.00  0.00     0.049 A 
ATOM     55  C   UNL A   1      42.973  28.343  33.527  1.00  0.00     0.074 A 
ATOM     56  C   UNL A   1      45.930  26.249  29.380  1.00  0.00     0.029 A 
ATOM     57  N   UNL A   1      44.489  24.919  30.427  1.00  0.00    -0.354 N 
ATOM     58  N   UNL A   1      43.621  27.547  32.721  1.00  0.00    -0.248 NA
ATOM     59  C   UNL A   1      43.056  27.914  34.921  1.00  0.00     0.031 C 
ATOM     60  C   UNL A   1      46.029  26.472  30.781  1.00  0.00     0.029 A 
ATOM     61  C   UNL A   1      45.114  25.651  31.421  1.00  0.00     0.049 A 
ATOM     62  H   UNL A   1      43.825  24.210  30.590  1.00  0.00     0.167 HD
ATOM     63  C   UNL A   1      44.140  26.495  33.435  1.00  0.00     0.074 A 
ATOM     64  C   UNL A   1      43.800  26.800  34.814  1.00  0.00     0.031 C 
ATOM     65  C   UNL A   1      44.776  25.447  32.827  1.00  0.00     0.034 A 
BRANCH  52  66
ATOM     66  C   UNL A   1      44.834  24.276  26.750  1.00  0.00     0.023 A 
ATOM     67  C   UNL A   1      44.482  22.955  26.383  1.00  0.00     0.031 A 
ATOM     68  C   UNL A   1      45.868  24.839  25.970  1.00  0.00     0.131 A 
ATOM     69  C   UNL A   1      45.187  22.244  25.387  1.00  0.00     0.055 A 
ATOM     70  C   UNL A   1      46.587  24.126  25.000  1.00  0.00     0.041 A 
ATOM     71  F   UNL A   1      46.226  26.120  26.063  1.00  0.00    -0.206 F 
ATOM     72  C   UNL A   1      46.259  22.816  24.712  1.00  0.00     0.022 A 
BRANCH  69  73
ATOM     73  S   UNL A   1      44.710  20.538  24.994  1.00  0.00     0.124 S 
ATOM     74  O   UNL A   1      43.547  20.338  25.851  1.00  0.00    -0.237 OA
ATOM     75  O   UNL A   1      44.457  20.611  23.560  1.00  0.00    -0.237 OA
ATOM     76  O   UNL A   1      45.891  19.761  25.371  1.00  0.00    -0.744 OA
ENDBRANCH  69  73
ENDBRANCH  52  66
BRANCH  53  77
ATOM     77  C   UNL A   1      40.815  29.905  33.563  1.00  0.00     0.023 A 
ATOM     78  C   UNL A   1      40.584  31.237  33.967  1.00  0.00     0.031 A 
ATOM     79  C   UNL A   1      39.702  29.095  33.301  1.00  0.00     0.131 A 
ATOM     80  C   UNL A   1      39.284  31.760  33.965  1.00  0.00     0.055 A 
ATOM     81  C   UNL A   1      38.400  29.610  33.349  1.00  0.00     0.041 A 
ATOM     82  F   UNL A   1      39.859  27.832  32.877  1.00  0.00    -0.206 F 
ATOM     83  C   UNL A   1      38.189  30.957  33.642  1.00  0.00     0.022 A 
BRANCH  80  84
ATOM     84  S   UNL A   1      39.029  33.547  34.168  1.00  0.00     0.124 S 
ATOM     85  O   UNL A   1      37.946  33.594  35.144  1.00  0.00    -0.237 OA
ATOM     86  O   UNL A   1      40.325  34.022  34.640  1.00  0.00    -0.237 OA
ATOM     87  O   UNL A   1      38.683  33.979  32.814  1.00  0.00    -0.744 OA
ENDBRANCH  80  84
ENDBRANCH  53  77
BRANCH  65  88
ATOM     88  C   UNL A   1      45.203  24.171  33.525  1.00  0.00     0.023 A 
ATOM     89  C   UNL A   1      46.447  24.012  34.158  1.00  0.00     0.031 A 
ATOM     90  C   UNL A   1      44.320  23.071  33.633  1.00  0.00     0.131 A 
ATOM     91  C   UNL A   1      46.814  22.792  34.755  1.00  0.00     0.055 A 
ATOM     92  C   UNL A   1      44.654  21.887  34.302  1.00  0.00     0.041 A 
ATOM     93  F   UNL A   1      43.092  23.099  33.095  1.00  0.00    -0.206 F 
ATOM     94  C   UNL A   1      45.918  21.732  34.850  1.00  0.00     0.022 A 
BRANCH  91  95
ATOM     95  S   UNL A   1      48.523  22.597  35.330  1.00  0.00     0.124 S 
ATOM     96  O   UNL A   1      48.373  21.596  36.383  1.00  0.00    -0.237 OA
ATOM     97  O   UNL A   1      49.210  22.150  34.124  1.00  0.00    -0.237 OA
ATOM     98  O   UNL A   1      48.887  23.934  35.794  1.00  0.00    -0.744 OA
ENDBRANCH  91  95
ENDBRANCH  65  88
ENDBRANCH  39  40
ENDBRANCH  31  34
ENDBRANCH  29  30
ENDBRANCH  28  29
ENDBRANCH  27  28
ENDBRANCH   1  27
TORSDOF 20
ENDMDL
