MODEL 1
REMARK VINA RESULT:     -12.0      0.000      0.000
REMARK SMILES CCOc1ccc(C2=C[C@@H](C(=O)NCCCCCCNC(=O)c3ccc(-c4c5nc(c(-c6cc(S(=O)(=O)[O-])ccc6F)c6ccc([nH]6)c(-c6cc(S(=O)(=O)[O-])ccc6F)c6nc(c(-c7cc(S(=O)(=O)[O-])ccc7F)c7ccc4[nH]7)C=C6)C=C5)cc3)N=N2)cc1
REMARK SMILES IDX 16 1 15 2 14 3 13 4 11 5 12 6 10 8 8 9 9 10 87 11 86 12 7 13
REMARK SMILES IDX 4 14 5 15 89 16 6 17 88 18 3 19 2 20 1 21 17 22 18 23 19 24
REMARK SMILES IDX 20 25 21 26 22 28 23 29 24 30 85 31 25 32 84 33 26 34 27 35
REMARK SMILES IDX 28 36 78 37 29 38 83 39 77 40 79 41 30 42 82 43 76 44 75 45
REMARK SMILES IDX 31 47 63 48 43 49 62 50 44 51 47 52 61 53 80 54 45 55 46 56
REMARK SMILES IDX 60 58 81 59 48 60 32 61 33 62 41 63 34 64 40 65 42 66 39 67
REMARK SMILES IDX 35 68 36 69 37 70 38 71 64 72 65 73 73 74 66 75 72 76 74 77
REMARK SMILES IDX 71 78 67 79 68 80 69 81 70 82 49 83 50 84 58 85 51 86 57 87
REMARK SMILES IDX 59 88 56 89 52 90 53 91 54 92 55 93
REMARK H PARENT 13 7 20 27 79 46 47 57
REMARK Flexibility Score: inf
ROOT
ATOM      1  C   UNL A   1      34.022  27.957  26.444  1.00  0.00     0.002 C 
ENDROOT
BRANCH   1   2
ATOM      2  C   UNL A   1      33.722  27.582  24.987  1.00  0.00     0.021 C 
BRANCH   2   3
ATOM      3  C   UNL A   1      32.432  26.787  24.807  1.00  0.00     0.116 C 
BRANCH   3   4
ATOM      4  N   UNL A   1      31.544  27.421  23.852  1.00  0.00    -0.354 N 
ATOM      5  C   UNL A   1      31.352  27.196  22.522  1.00  0.00     0.250 C 
ATOM      6  O   UNL A   1      30.500  27.904  21.966  1.00  0.00    -0.272 OA
ATOM      7  H   UNL A   1      30.983  28.136  24.230  1.00  0.00     0.163 HD
BRANCH   5   8
ATOM      8  C   UNL A   1      32.017  26.060  21.743  1.00  0.00     0.242 C 
ATOM      9  C   UNL A   1      32.922  24.189  22.558  1.00  0.00     0.091 C 
ATOM     10  C   UNL A   1      31.726  24.733  22.329  1.00  0.00     0.042 C 
ATOM     11  N   UNL A   1      33.959  25.018  22.206  1.00  0.00    -0.155 NA
ATOM     12  N   UNL A   1      33.502  26.120  21.773  1.00  0.00    -0.171 NA
BRANCH   9  13
ATOM     13  C   UNL A   1      33.114  22.874  23.163  1.00  0.00     0.002 A 
ATOM     14  C   UNL A   1      33.385  20.349  24.345  1.00  0.00     0.119 A 
ATOM     15  C   UNL A   1      34.237  21.385  24.722  1.00  0.00     0.047 A 
ATOM     16  C   UNL A   1      32.379  20.577  23.410  1.00  0.00     0.047 A 
ATOM     17  C   UNL A   1      34.110  22.644  24.124  1.00  0.00     0.014 A 
ATOM     18  C   UNL A   1      32.256  21.826  22.809  1.00  0.00     0.014 A 
BRANCH  14  19
ATOM     19  O   UNL A   1      33.477  19.149  24.993  1.00  0.00    -0.494 OA
BRANCH  19  20
ATOM     20  C   UNL A   1      34.396  18.241  24.367  1.00  0.00     0.226 C 
ATOM     21  C   UNL A   1      33.688  17.071  23.701  1.00  0.00     0.049 C 
ENDBRANCH  19  20
ENDBRANCH  14  19
ENDBRANCH   9  13
ENDBRANCH   5   8
ENDBRANCH   3   4
ENDBRANCH   2   3
ENDBRANCH   1   2
BRANCH   1  22
ATOM     22  C   UNL A   1      32.895  28.686  27.192  1.00  0.00     0.002 C 
BRANCH  22  23
ATOM     23  C   UNL A   1      32.969  30.221  27.198  1.00  0.00     0.021 C 
BRANCH  23  24
ATOM     24  C   UNL A   1      34.367  30.769  27.447  1.00  0.00     0.116 C 
BRANCH  24  25
ATOM     25  N   UNL A   1      34.396  31.739  28.537  1.00  0.00    -0.352 N 
ATOM     26  C   UNL A   1      35.267  31.792  29.610  1.00  0.00     0.251 C 
ATOM     27  H   UNL A   1      33.709  32.444  28.504  1.00  0.00     0.163 HD
ATOM     28  O   UNL A   1      34.953  32.386  30.629  1.00  0.00    -0.269 OA
BRANCH  26  29
ATOM     29  C   UNL A   1      36.574  31.114  29.496  1.00  0.00     0.039 A 
ATOM     30  C   UNL A   1      37.766  31.821  29.675  1.00  0.00     0.014 A 
ATOM     31  C   UNL A   1      36.593  29.749  29.221  1.00  0.00     0.014 A 
ATOM     32  C   UNL A   1      38.973  31.120  29.658  1.00  0.00     0.010 A 
ATOM     33  C   UNL A   1      37.767  29.041  29.332  1.00  0.00     0.010 A 
ATOM     34  C   UNL A   1      38.967  29.722  29.511  1.00  0.00    -0.014 A 
BRANCH  34  35
ATOM     35  C   UNL A   1      40.192  28.947  29.711  1.00  0.00     0.031 A 
ATOM     36  C   UNL A   1      40.506  28.666  31.140  1.00  0.00     0.074 A 
ATOM     37  C   UNL A   1      40.865  28.324  28.715  1.00  0.00     0.049 A 
ATOM     38  N   UNL A   1      41.498  29.114  31.833  1.00  0.00    -0.248 NA
ATOM     39  C   UNL A   1      39.515  27.927  31.942  1.00  0.00     0.031 C 
ATOM     40  C   UNL A   1      40.512  28.252  27.293  1.00  0.00     0.029 A 
ATOM     41  N   UNL A   1      41.959  27.515  28.786  1.00  0.00    -0.354 N 
ATOM     42  C   UNL A   1      41.399  28.509  33.083  1.00  0.00     0.074 A 
ATOM     43  C   UNL A   1      40.065  27.981  33.157  1.00  0.00     0.031 C 
ATOM     44  C   UNL A   1      41.218  27.264  26.700  1.00  0.00     0.029 A 
ATOM     45  C   UNL A   1      42.186  26.740  27.648  1.00  0.00     0.049 A 
ATOM     46  H   UNL A   1      42.542  27.479  29.579  1.00  0.00     0.167 HD
ATOM     47  C   UNL A   1      42.509  28.275  33.839  1.00  0.00     0.034 A 
ATOM     48  C   UNL A   1      43.084  25.726  27.499  1.00  0.00     0.034 A 
ATOM     49  C   UNL A   1      43.627  29.070  33.373  1.00  0.00     0.049 A 
ATOM     50  C   UNL A   1      44.120  25.922  28.543  1.00  0.00     0.074 A 
ATOM     51  C   UNL A   1      43.823  30.424  33.162  1.00  0.00     0.029 A 
ATOM     52  N   UNL A   1      44.620  28.445  32.649  1.00  0.00    -0.354 N 
ATOM     53  N   UNL A   1      44.935  26.940  28.557  1.00  0.00    -0.248 NA
ATOM     54  C   UNL A   1      43.920  25.270  29.829  1.00  0.00     0.031 C 
ATOM     55  C   UNL A   1      44.535  30.498  31.926  1.00  0.00     0.029 A 
ATOM     56  C   UNL A   1      44.828  29.196  31.517  1.00  0.00     0.049 A 
ATOM     57  H   UNL A   1      45.092  27.618  32.897  1.00  0.00     0.167 HD
ATOM     58  C   UNL A   1      44.987  27.335  29.884  1.00  0.00     0.074 A 
ATOM     59  C   UNL A   1      44.419  26.213  30.633  1.00  0.00     0.031 C 
ATOM     60  C   UNL A   1      45.209  28.637  30.232  1.00  0.00     0.034 A 
BRANCH  47  61
ATOM     61  C   UNL A   1      42.700  27.075  34.745  1.00  0.00     0.023 A 
ATOM     62  C   UNL A   1      43.496  26.020  34.257  1.00  0.00     0.031 A 
ATOM     63  C   UNL A   1      41.936  26.778  35.897  1.00  0.00     0.131 A 
ATOM     64  C   UNL A   1      43.424  24.735  34.822  1.00  0.00     0.055 A 
ATOM     65  C   UNL A   1      41.923  25.516  36.500  1.00  0.00     0.041 A 
ATOM     66  F   UNL A   1      41.091  27.650  36.455  1.00  0.00    -0.206 F 
ATOM     67  C   UNL A   1      42.641  24.474  35.942  1.00  0.00     0.022 A 
BRANCH  64  68
ATOM     68  S   UNL A   1      44.226  23.367  33.948  1.00  0.00     0.124 S 
ATOM     69  O   UNL A   1      45.561  23.910  33.720  1.00  0.00    -0.237 OA
ATOM     70  O   UNL A   1      44.127  22.288  34.924  1.00  0.00    -0.237 OA
ATOM     71  O   UNL A   1      43.405  23.203  32.751  1.00  0.00    -0.744 OA
ENDBRANCH  64  68
ENDBRANCH  47  61
BRANCH  48  72
ATOM     72  C   UNL A   1      42.948  24.464  26.713  1.00  0.00     0.023 A 
ATOM     73  C   UNL A   1      43.840  24.107  25.676  1.00  0.00     0.031 A 
ATOM     74  C   UNL A   1      42.072  23.451  27.163  1.00  0.00     0.131 A 
ATOM     75  C   UNL A   1      43.836  22.793  25.145  1.00  0.00     0.055 A 
ATOM     76  C   UNL A   1      42.072  22.156  26.636  1.00  0.00     0.041 A 
ATOM     77  F   UNL A   1      41.241  23.659  28.197  1.00  0.00    -0.206 F 
ATOM     78  C   UNL A   1      42.964  21.817  25.633  1.00  0.00     0.022 A 
BRANCH  75  79
ATOM     79  S   UNL A   1      45.048  22.290  23.876  1.00  0.00     0.124 S 
ATOM     80  O   UNL A   1      44.225  22.216  22.674  1.00  0.00    -0.237 OA
ATOM     81  O   UNL A   1      46.029  23.367  23.928  1.00  0.00    -0.237 OA
ATOM     82  O   UNL A   1      45.536  20.999  24.364  1.00  0.00    -0.744 OA
ENDBRANCH  75  79
ENDBRANCH  48  72
BRANCH  60  83
ATOM     83  C   UNL A   1      45.690  29.609  29.167  1.00  0.00     0.023 A 
ATOM     84  C   UNL A   1      44.861  30.464  28.402  1.00  0.00     0.031 A 
ATOM     85  C   UNL A   1      47.081  29.743  29.003  1.00  0.00     0.131 A 
ATOM     86  C   UNL A   1      45.435  31.391  27.506  1.00  0.00     0.055 A 
ATOM     87  C   UNL A   1      47.644  30.678  28.136  1.00  0.00     0.041 A 
ATOM     88  F   UNL A   1      47.927  28.978  29.713  1.00  0.00    -0.206 F 
ATOM     89  C   UNL A   1      46.822  31.501  27.377  1.00  0.00     0.022 A 
BRANCH  86  90
ATOM     90  S   UNL A   1      44.389  32.456  26.457  1.00  0.00     0.124 S 
ATOM     91  O   UNL A   1      43.473  31.519  25.819  1.00  0.00    -0.237 OA
ATOM     92  O   UNL A   1      43.794  33.370  27.430  1.00  0.00    -0.237 OA
ATOM     93  O   UNL A   1      45.350  33.083  25.547  1.00  0.00    -0.744 OA
ENDBRANCH  86  90
ENDBRANCH  60  83
ENDBRANCH  34  35
ENDBRANCH  26  29
ENDBRANCH  24  25
ENDBRANCH  23  24
ENDBRANCH  22  23
ENDBRANCH   1  22
TORSDOF 19
ENDMDL
MODEL 2
REMARK VINA RESULT:     -11.6      1.607      3.787
REMARK SMILES CCOc1ccc(C2=C[C@@H](C(=O)NCCCCCCNC(=O)c3ccc(-c4c5nc(c(-c6cc(S(=O)(=O)[O-])ccc6F)c6ccc([nH]6)c(-c6cc(S(=O)(=O)[O-])ccc6F)c6nc(c(-c7cc(S(=O)(=O)[O-])ccc7F)c7ccc4[nH]7)C=C6)C=C5)cc3)N=N2)cc1
REMARK SMILES IDX 16 1 15 2 14 3 13 4 11 5 12 6 10 8 8 9 9 10 87 11 86 12 7 13
REMARK SMILES IDX 4 14 5 15 89 16 6 17 88 18 3 19 2 20 1 21 17 22 18 23 19 24
REMARK SMILES IDX 20 25 21 26 22 28 23 29 24 30 85 31 25 32 84 33 26 34 27 35
REMARK SMILES IDX 28 36 78 37 29 38 83 39 77 40 79 41 30 42 82 43 76 44 75 45
REMARK SMILES IDX 31 47 63 48 43 49 62 50 44 51 47 52 61 53 80 54 45 55 46 56
REMARK SMILES IDX 60 58 81 59 48 60 32 61 33 62 41 63 34 64 40 65 42 66 39 67
REMARK SMILES IDX 35 68 36 69 37 70 38 71 64 72 65 73 73 74 66 75 72 76 74 77
REMARK SMILES IDX 71 78 67 79 68 80 69 81 70 82 49 83 50 84 58 85 51 86 57 87
REMARK SMILES IDX 59 88 56 89 52 90 53 91 54 92 55 93
REMARK H PARENT 13 7 20 27 79 46 47 57
REMARK Flexibility Score: inf
ROOT
ATOM      1  C   UNL A   1      33.548  28.021  24.612  1.00  0.00     0.002 C 
ENDROOT
BRANCH   1   2
ATOM      2  C   UNL A   1      33.834  26.530  24.389  1.00  0.00     0.021 C 
BRANCH   2   3
ATOM      3  C   UNL A   1      33.565  25.660  25.615  1.00  0.00     0.116 C 
BRANCH   3   4
ATOM      4  N   UNL A   1      33.473  24.257  25.262  1.00  0.00    -0.354 N 
ATOM      5  C   UNL A   1      32.399  23.424  25.175  1.00  0.00     0.250 C 
ATOM      6  O   UNL A   1      32.638  22.257  24.832  1.00  0.00    -0.272 OA
ATOM      7  H   UNL A   1      34.335  23.834  25.048  1.00  0.00     0.163 HD
BRANCH   5   8
ATOM      8  C   UNL A   1      30.948  23.880  25.343  1.00  0.00     0.242 C 
ATOM      9  C   UNL A   1      30.055  25.841  24.758  1.00  0.00     0.091 C 
ATOM     10  C   UNL A   1      30.485  24.706  24.205  1.00  0.00     0.042 C 
ATOM     11  N   UNL A   1      30.202  25.856  26.124  1.00  0.00    -0.155 NA
ATOM     12  N   UNL A   1      30.748  24.778  26.511  1.00  0.00    -0.171 NA
BRANCH   9  13
ATOM     13  C   UNL A   1      29.529  26.969  23.994  1.00  0.00     0.002 A 
ATOM     14  C   UNL A   1      28.574  29.194  22.586  1.00  0.00     0.119 A 
ATOM     15  C   UNL A   1      27.676  28.248  23.079  1.00  0.00     0.047 A 
ATOM     16  C   UNL A   1      29.938  29.052  22.824  1.00  0.00     0.047 A 
ATOM     17  C   UNL A   1      28.153  27.130  23.773  1.00  0.00     0.014 A 
ATOM     18  C   UNL A   1      30.415  27.937  23.507  1.00  0.00     0.014 A 
BRANCH  14  19
ATOM     19  O   UNL A   1      28.084  30.315  21.976  1.00  0.00    -0.494 OA
BRANCH  19  20
ATOM     20  C   UNL A   1      28.984  31.430  22.044  1.00  0.00     0.226 C 
ATOM     21  C   UNL A   1      28.575  32.438  23.109  1.00  0.00     0.049 C 
ENDBRANCH  19  20
ENDBRANCH  14  19
ENDBRANCH   9  13
ENDBRANCH   5   8
ENDBRANCH   3   4
ENDBRANCH   2   3
ENDBRANCH   1   2
BRANCH   1  22
ATOM     22  C   UNL A   1      33.263  28.437  26.063  1.00  0.00     0.002 C 
BRANCH  22  23
ATOM     23  C   UNL A   1      33.503  29.917  26.401  1.00  0.00     0.021 C 
BRANCH  23  24
ATOM     24  C   UNL A   1      34.773  30.168  27.201  1.00  0.00     0.116 C 
BRANCH  24  25
ATOM     25  N   UNL A   1      34.900  31.561  27.618  1.00  0.00    -0.352 N 
ATOM     26  C   UNL A   1      35.656  32.075  28.656  1.00  0.00     0.251 C 
ATOM     27  H   UNL A   1      34.382  32.215  27.096  1.00  0.00     0.163 HD
ATOM     28  O   UNL A   1      35.377  33.159  29.142  1.00  0.00    -0.269 OA
BRANCH  26  29
ATOM     29  C   UNL A   1      36.797  31.286  29.161  1.00  0.00     0.039 A 
ATOM     30  C   UNL A   1      36.634  29.951  29.540  1.00  0.00     0.014 A 
ATOM     31  C   UNL A   1      38.046  31.898  29.240  1.00  0.00     0.014 A 
ATOM     32  C   UNL A   1      37.759  29.216  29.916  1.00  0.00     0.010 A 
ATOM     33  C   UNL A   1      39.168  31.142  29.486  1.00  0.00     0.010 A 
ATOM     34  C   UNL A   1      39.032  29.811  29.863  1.00  0.00    -0.014 A 
BRANCH  34  35
ATOM     35  C   UNL A   1      40.240  29.003  30.038  1.00  0.00     0.031 A 
ATOM     36  C   UNL A   1      40.565  28.697  31.459  1.00  0.00     0.074 A 
ATOM     37  C   UNL A   1      40.884  28.375  29.026  1.00  0.00     0.049 A 
ATOM     38  N   UNL A   1      41.577  29.112  32.144  1.00  0.00    -0.248 NA
ATOM     39  C   UNL A   1      39.565  27.974  32.266  1.00  0.00     0.031 C 
ATOM     40  C   UNL A   1      40.512  28.329  27.609  1.00  0.00     0.029 A 
ATOM     41  N   UNL A   1      41.958  27.538  29.073  1.00  0.00    -0.354 N 
ATOM     42  C   UNL A   1      41.479  28.495  33.388  1.00  0.00     0.074 A 
ATOM     43  C   UNL A   1      40.132  28.000  33.474  1.00  0.00     0.031 C 
ATOM     44  C   UNL A   1      41.184  27.331  26.994  1.00  0.00     0.029 A 
ATOM     45  C   UNL A   1      42.151  26.772  27.924  1.00  0.00     0.049 A 
ATOM     46  H   UNL A   1      42.550  27.478  29.858  1.00  0.00     0.167 HD
ATOM     47  C   UNL A   1      42.592  28.225  34.127  1.00  0.00     0.034 A 
ATOM     48  C   UNL A   1      43.022  25.737  27.751  1.00  0.00     0.034 A 
ATOM     49  C   UNL A   1      43.724  28.997  33.656  1.00  0.00     0.049 A 
ATOM     50  C   UNL A   1      44.075  25.894  28.784  1.00  0.00     0.074 A 
ATOM     51  C   UNL A   1      43.951  30.348  33.458  1.00  0.00     0.029 A 
ATOM     52  N   UNL A   1      44.691  28.356  32.912  1.00  0.00    -0.354 N 
ATOM     53  N   UNL A   1      44.916  26.891  28.800  1.00  0.00    -0.248 NA
ATOM     54  C   UNL A   1      43.875  25.232  30.065  1.00  0.00     0.031 C 
ATOM     55  C   UNL A   1      44.648  30.419  32.214  1.00  0.00     0.029 A 
ATOM     56  C   UNL A   1      44.904  29.114  31.786  1.00  0.00     0.049 A 
ATOM     57  H   UNL A   1      45.145  27.514  33.144  1.00  0.00     0.167 HD
ATOM     58  C   UNL A   1      44.994  27.269  30.130  1.00  0.00     0.074 A 
ATOM     59  C   UNL A   1      44.408  26.153  30.874  1.00  0.00     0.031 C 
ATOM     60  C   UNL A   1      45.254  28.562  30.490  1.00  0.00     0.034 A 
BRANCH  47  61
ATOM     61  C   UNL A   1      42.764  27.010  35.017  1.00  0.00     0.023 A 
ATOM     62  C   UNL A   1      43.560  25.957  34.523  1.00  0.00     0.031 A 
ATOM     63  C   UNL A   1      41.983  26.699  36.154  1.00  0.00     0.131 A 
ATOM     64  C   UNL A   1      43.474  24.664  35.067  1.00  0.00     0.055 A 
ATOM     65  C   UNL A   1      41.955  25.428  36.737  1.00  0.00     0.041 A 
ATOM     66  F   UNL A   1      41.135  27.567  36.715  1.00  0.00    -0.206 F 
ATOM     67  C   UNL A   1      42.674  24.391  36.173  1.00  0.00     0.022 A 
BRANCH  64  68
ATOM     68  S   UNL A   1      44.279  23.305  34.182  1.00  0.00     0.124 S 
ATOM     69  O   UNL A   1      45.389  23.998  33.536  1.00  0.00    -0.237 OA
ATOM     70  O   UNL A   1      44.629  22.403  35.273  1.00  0.00    -0.237 OA
ATOM     71  O   UNL A   1      43.235  22.821  33.283  1.00  0.00    -0.744 OA
ENDBRANCH  64  68
ENDBRANCH  47  61
BRANCH  48  72
ATOM     72  C   UNL A   1      42.843  24.488  26.953  1.00  0.00     0.023 A 
ATOM     73  C   UNL A   1      43.838  23.987  26.082  1.00  0.00     0.031 A 
ATOM     74  C   UNL A   1      41.771  23.617  27.247  1.00  0.00     0.131 A 
ATOM     75  C   UNL A   1      43.739  22.674  25.557  1.00  0.00     0.055 A 
ATOM     76  C   UNL A   1      41.678  22.322  26.727  1.00  0.00     0.041 A 
ATOM     77  F   UNL A   1      40.817  23.961  28.126  1.00  0.00    -0.206 F 
ATOM     78  C   UNL A   1      42.670  21.840  25.890  1.00  0.00     0.022 A 
BRANCH  75  79
ATOM     79  S   UNL A   1      45.064  21.980  24.511  1.00  0.00     0.124 S 
ATOM     80  O   UNL A   1      45.204  22.995  23.473  1.00  0.00    -0.237 OA
ATOM     81  O   UNL A   1      46.174  21.849  25.448  1.00  0.00    -0.237 OA
ATOM     82  O   UNL A   1      44.504  20.707  24.051  1.00  0.00    -0.744 OA
ENDBRANCH  75  79
ENDBRANCH  48  72
BRANCH  60  83
ATOM     83  C   UNL A   1      45.745  29.534  29.430  1.00  0.00     0.023 A 
ATOM     84  C   UNL A   1      44.922  30.251  28.529  1.00  0.00     0.031 A 
ATOM     85  C   UNL A   1      47.123  29.820  29.414  1.00  0.00     0.131 A 
ATOM     86  C   UNL A   1      45.491  31.196  27.650  1.00  0.00     0.055 A 
ATOM     87  C   UNL A   1      47.676  30.775  28.562  1.00  0.00     0.041 A 
ATOM     88  F   UNL A   1      47.960  29.192  30.256  1.00  0.00    -0.206 F 
ATOM     89  C   UNL A   1      46.863  31.461  27.670  1.00  0.00     0.022 A 
BRANCH  86  90
ATOM     90  S   UNL A   1      44.463  32.085  26.432  1.00  0.00     0.124 S 
ATOM     91  O   UNL A   1      43.491  31.085  26.007  1.00  0.00    -0.237 OA
ATOM     92  O   UNL A   1      43.934  33.198  27.217  1.00  0.00    -0.237 OA
ATOM     93  O   UNL A   1      45.425  32.476  25.399  1.00  0.00    -0.744 OA
ENDBRANCH  86  90
ENDBRANCH  60  83
ENDBRANCH  34  35
ENDBRANCH  26  29
ENDBRANCH  24  25
ENDBRANCH  23  24
ENDBRANCH  22  23
ENDBRANCH   1  22
TORSDOF 19
ENDMDL
MODEL 3
REMARK VINA RESULT:     -11.3      2.118      2.976
REMARK SMILES CCOc1ccc(C2=C[C@@H](C(=O)NCCCCCCNC(=O)c3ccc(-c4c5nc(c(-c6cc(S(=O)(=O)[O-])ccc6F)c6ccc([nH]6)c(-c6cc(S(=O)(=O)[O-])ccc6F)c6nc(c(-c7cc(S(=O)(=O)[O-])ccc7F)c7ccc4[nH]7)C=C6)C=C5)cc3)N=N2)cc1
REMARK SMILES IDX 16 1 15 2 14 3 13 4 11 5 12 6 10 8 8 9 9 10 87 11 86 12 7 13
REMARK SMILES IDX 4 14 5 15 89 16 6 17 88 18 3 19 2 20 1 21 17 22 18 23 19 24
REMARK SMILES IDX 20 25 21 26 22 28 23 29 24 30 85 31 25 32 84 33 26 34 27 35
REMARK SMILES IDX 28 36 78 37 29 38 83 39 77 40 79 41 30 42 82 43 76 44 75 45
REMARK SMILES IDX 31 47 63 48 43 49 62 50 44 51 47 52 61 53 80 54 45 55 46 56
REMARK SMILES IDX 60 58 81 59 48 60 32 61 33 62 41 63 34 64 40 65 42 66 39 67
REMARK SMILES IDX 35 68 36 69 37 70 38 71 64 72 65 73 73 74 66 75 72 76 74 77
REMARK SMILES IDX 71 78 67 79 68 80 69 81 70 82 49 83 50 84 58 85 51 86 57 87
REMARK SMILES IDX 59 88 56 89 52 90 53 91 54 92 55 93
REMARK H PARENT 13 7 20 27 79 46 47 57
REMARK Flexibility Score: inf
ROOT
ATOM      1  C   UNL A   1      31.452  30.372  26.860  1.00  0.00     0.002 C 
ENDROOT
BRANCH   1   2
ATOM      2  C   UNL A   1      31.006  31.504  25.925  1.00  0.00     0.021 C 
BRANCH   2   3
ATOM      3  C   UNL A   1      30.504  31.022  24.566  1.00  0.00     0.116 C 
BRANCH   3   4
ATOM      4  N   UNL A   1      29.205  31.581  24.249  1.00  0.00    -0.354 N 
ATOM      5  C   UNL A   1      28.261  31.199  23.345  1.00  0.00     0.250 C 
ATOM      6  O   UNL A   1      27.227  31.881  23.311  1.00  0.00    -0.272 OA
ATOM      7  H   UNL A   1      28.963  32.374  24.780  1.00  0.00     0.163 HD
BRANCH   5   8
ATOM      8  C   UNL A   1      28.358  29.930  22.494  1.00  0.00     0.242 C 
ATOM      9  C   UNL A   1      29.749  28.205  22.765  1.00  0.00     0.091 C 
ATOM     10  C   UNL A   1      28.650  28.730  23.309  1.00  0.00     0.042 C 
ATOM     11  N   UNL A   1      30.216  28.937  21.701  1.00  0.00    -0.155 NA
ATOM     12  N   UNL A   1      29.486  29.959  21.526  1.00  0.00    -0.171 NA
BRANCH   9  13
ATOM     13  C   UNL A   1      30.415  27.009  23.272  1.00  0.00     0.002 A 
ATOM     14  C   UNL A   1      31.703  24.759  24.334  1.00  0.00     0.119 A 
ATOM     15  C   UNL A   1      32.132  25.295  23.122  1.00  0.00     0.047 A 
ATOM     16  C   UNL A   1      30.661  25.362  25.034  1.00  0.00     0.047 A 
ATOM     17  C   UNL A   1      31.482  26.412  22.584  1.00  0.00     0.014 A 
ATOM     18  C   UNL A   1      30.008  26.467  24.498  1.00  0.00     0.014 A 
BRANCH  14  19
ATOM     19  O   UNL A   1      32.397  23.715  24.878  1.00  0.00    -0.494 OA
BRANCH  19  20
ATOM     20  C   UNL A   1      33.786  23.715  24.517  1.00  0.00     0.226 C 
ATOM     21  C   UNL A   1      34.630  24.544  25.474  1.00  0.00     0.049 C 
ENDBRANCH  19  20
ENDBRANCH  14  19
ENDBRANCH   9  13
ENDBRANCH   5   8
ENDBRANCH   3   4
ENDBRANCH   2   3
ENDBRANCH   1   2
BRANCH   1  22
ATOM     22  C   UNL A   1      32.247  29.234  26.200  1.00  0.00     0.002 C 
BRANCH  22  23
ATOM     23  C   UNL A   1      33.777  29.354  26.262  1.00  0.00     0.021 C 
BRANCH  23  24
ATOM     24  C   UNL A   1      34.294  29.980  27.550  1.00  0.00     0.116 C 
BRANCH  24  25
ATOM     25  N   UNL A   1      34.782  31.341  27.347  1.00  0.00    -0.352 N 
ATOM     26  C   UNL A   1      35.885  31.945  27.922  1.00  0.00     0.251 C 
ATOM     27  H   UNL A   1      34.260  31.897  26.724  1.00  0.00     0.163 HD
ATOM     28  O   UNL A   1      35.957  33.162  27.985  1.00  0.00    -0.269 OA
BRANCH  26  29
ATOM     29  C   UNL A   1      36.964  31.091  28.457  1.00  0.00     0.039 A 
ATOM     30  C   UNL A   1      36.985  29.717  28.202  1.00  0.00     0.014 A 
ATOM     31  C   UNL A   1      37.971  31.687  29.213  1.00  0.00     0.014 A 
ATOM     32  C   UNL A   1      38.076  28.967  28.643  1.00  0.00     0.010 A 
ATOM     33  C   UNL A   1      39.103  30.975  29.534  1.00  0.00     0.010 A 
ATOM     34  C   UNL A   1      39.148  29.606  29.288  1.00  0.00    -0.014 A 
BRANCH  34  35
ATOM     35  C   UNL A   1      40.392  28.884  29.560  1.00  0.00     0.031 A 
ATOM     36  C   UNL A   1      40.662  28.664  31.009  1.00  0.00     0.074 A 
ATOM     37  C   UNL A   1      41.123  28.253  28.612  1.00  0.00     0.049 A 
ATOM     38  N   UNL A   1      41.610  29.172  31.721  1.00  0.00    -0.248 NA
ATOM     39  C   UNL A   1      39.668  27.918  31.800  1.00  0.00     0.031 C 
ATOM     40  C   UNL A   1      40.828  28.119  27.182  1.00  0.00     0.029 A 
ATOM     41  N   UNL A   1      42.242  27.488  28.752  1.00  0.00    -0.354 N 
ATOM     42  C   UNL A   1      41.486  28.607  32.987  1.00  0.00     0.074 A 
ATOM     43  C   UNL A   1      40.169  28.034  33.032  1.00  0.00     0.031 C 
ATOM     44  C   UNL A   1      41.590  27.138  26.650  1.00  0.00     0.029 A 
ATOM     45  C   UNL A   1      42.540  26.684  27.651  1.00  0.00     0.049 A 
ATOM     46  H   UNL A   1      42.796  27.500  29.566  1.00  0.00     0.167 HD
ATOM     47  C   UNL A   1      42.574  28.441  33.792  1.00  0.00     0.034 A 
ATOM     48  C   UNL A   1      43.479  25.699  27.571  1.00  0.00     0.034 A 
ATOM     49  C   UNL A   1      43.680  29.260  33.338  1.00  0.00     0.049 A 
ATOM     50  C   UNL A   1      44.466  25.968  28.645  1.00  0.00     0.074 A 
ATOM     51  C   UNL A   1      43.835  30.612  33.086  1.00  0.00     0.029 A 
ATOM     52  N   UNL A   1      44.721  28.648  32.674  1.00  0.00    -0.354 N 
ATOM     53  N   UNL A   1      45.244  27.015  28.653  1.00  0.00    -0.248 NA
ATOM     54  C   UNL A   1      44.242  25.354  29.945  1.00  0.00     0.031 C 
ATOM     55  C   UNL A   1      44.590  30.670  31.875  1.00  0.00     0.029 A 
ATOM     56  C   UNL A   1      44.945  29.367  31.524  1.00  0.00     0.049 A 
ATOM     57  H   UNL A   1      45.213  27.847  32.968  1.00  0.00     0.167 HD
ATOM     58  C   UNL A   1      45.231  27.458  29.966  1.00  0.00     0.074 A 
ATOM     59  C   UNL A   1      44.676  26.341  30.733  1.00  0.00     0.031 C 
ATOM     60  C   UNL A   1      45.393  28.779  30.275  1.00  0.00     0.034 A 
BRANCH  47  61
ATOM     61  C   UNL A   1      42.773  27.281  34.746  1.00  0.00     0.023 A 
ATOM     62  C   UNL A   1      43.585  26.216  34.306  1.00  0.00     0.031 A 
ATOM     63  C   UNL A   1      42.006  27.021  35.905  1.00  0.00     0.131 A 
ATOM     64  C   UNL A   1      43.524  24.954  34.921  1.00  0.00     0.055 A 
ATOM     65  C   UNL A   1      42.004  25.784  36.558  1.00  0.00     0.041 A 
ATOM     66  F   UNL A   1      41.147  27.904  36.423  1.00  0.00    -0.206 F 
ATOM     67  C   UNL A   1      42.737  24.729  36.046  1.00  0.00     0.022 A 
BRANCH  64  68
ATOM     68  S   UNL A   1      44.347  23.561  34.107  1.00  0.00     0.124 S 
ATOM     69  O   UNL A   1      45.713  24.062  33.986  1.00  0.00    -0.237 OA
ATOM     70  O   UNL A   1      44.138  22.486  35.070  1.00  0.00    -0.237 OA
ATOM     71  O   UNL A   1      43.617  23.425  32.850  1.00  0.00    -0.744 OA
ENDBRANCH  64  68
ENDBRANCH  47  61
BRANCH  48  72
ATOM     72  C   UNL A   1      43.417  24.406  26.827  1.00  0.00     0.023 A 
ATOM     73  C   UNL A   1      42.489  23.385  27.140  1.00  0.00     0.031 A 
ATOM     74  C   UNL A   1      44.112  24.268  25.605  1.00  0.00     0.131 A 
ATOM     75  C   UNL A   1      42.286  22.302  26.250  1.00  0.00     0.055 A 
ATOM     76  C   UNL A   1      43.907  23.197  24.730  1.00  0.00     0.041 A 
ATOM     77  F   UNL A   1      44.954  25.220  25.173  1.00  0.00    -0.206 F 
ATOM     78  C   UNL A   1      42.983  22.215  25.043  1.00  0.00     0.022 A 
BRANCH  75  79
ATOM     79  S   UNL A   1      41.022  21.030  26.594  1.00  0.00     0.124 S 
ATOM     80  O   UNL A   1      41.671  19.812  26.121  1.00  0.00    -0.237 OA
ATOM     81  O   UNL A   1      40.834  21.150  28.035  1.00  0.00    -0.237 OA
ATOM     82  O   UNL A   1      39.876  21.464  25.793  1.00  0.00    -0.744 OA
ENDBRANCH  75  79
ENDBRANCH  48  72
BRANCH  60  83
ATOM     83  C   UNL A   1      45.879  29.730  29.194  1.00  0.00     0.023 A 
ATOM     84  C   UNL A   1      45.054  30.573  28.411  1.00  0.00     0.031 A 
ATOM     85  C   UNL A   1      47.271  29.858  29.032  1.00  0.00     0.131 A 
ATOM     86  C   UNL A   1      45.632  31.483  27.501  1.00  0.00     0.055 A 
ATOM     87  C   UNL A   1      47.838  30.777  28.149  1.00  0.00     0.041 A 
ATOM     88  F   UNL A   1      48.114  29.104  29.757  1.00  0.00    -0.206 F 
ATOM     89  C   UNL A   1      47.020  31.587  27.374  1.00  0.00     0.022 A 
BRANCH  86  90
ATOM     90  S   UNL A   1      44.592  32.531  26.431  1.00  0.00     0.124 S 
ATOM     91  O   UNL A   1      45.547  33.146  25.516  1.00  0.00    -0.237 OA
ATOM     92  O   UNL A   1      43.671  31.563  25.838  1.00  0.00    -0.237 OA
ATOM     93  O   UNL A   1      43.967  33.462  27.374  1.00  0.00    -0.744 OA
ENDBRANCH  86  90
ENDBRANCH  60  83
ENDBRANCH  34  35
ENDBRANCH  26  29
ENDBRANCH  24  25
ENDBRANCH  23  24
ENDBRANCH  22  23
ENDBRANCH   1  22
TORSDOF 19
ENDMDL
