MODEL 1
REMARK VINA RESULT:     -11.3      0.000      0.000
REMARK SMILES C[NH2+][C@]1(C(=O)NCCCCCCNC(=O)c2ccc(-c3c4nc(c(-c5cc(S(=O)(=O)[O-])ccc5F)c5ccc([nH]5)c(-c5cc(S(=O)(=O)[O-])ccc5F)c5nc(c(-c6cc(S(=O)(=O)[O-])ccc6F)c6ccc3[nH]6)C=C5)C=C4)cc2)CCC[C@@H](Sc2nncs2)C1
REMARK SMILES IDX 10 1 9 2 8 3 7 4 6 5 4 6 5 7 3 9 79 10 89 11 80 12 82 13
REMARK SMILES IDX 81 14 2 15 1 16 83 19 84 20 85 21 88 22 86 23 87 24 11 25
REMARK SMILES IDX 12 26 13 27 14 28 15 30 16 31 17 32 78 33 18 34 77 35 19 36
REMARK SMILES IDX 20 37 21 38 71 39 22 40 76 41 70 42 72 43 23 44 75 45 69 46
REMARK SMILES IDX 68 47 24 49 56 50 36 51 55 52 37 53 40 54 54 55 73 56 38 57
REMARK SMILES IDX 39 58 53 60 74 61 41 62 25 63 26 64 34 65 27 66 33 67 35 68
REMARK SMILES IDX 32 69 28 70 29 71 30 72 31 73 57 74 58 75 66 76 59 77 65 78
REMARK SMILES IDX 67 79 64 80 60 81 61 82 62 83 63 84 42 85 43 86 51 87 44 88
REMARK SMILES IDX 50 89 52 90 49 91 45 92 46 93 47 94 48 95
REMARK H PARENT 6 8 2 17 2 18 13 29 72 48 40 59
REMARK Flexibility Score: inf
ROOT
ATOM      1  C   UNL A   1      34.147  21.176  24.412  1.00  0.00     0.002 C 
ENDROOT
BRANCH   1   2
ATOM      2  C   UNL A   1      32.618  21.236  24.323  1.00  0.00     0.002 C 
BRANCH   2   3
ATOM      3  C   UNL A   1      32.067  22.142  23.218  1.00  0.00     0.021 C 
BRANCH   3   4
ATOM      4  C   UNL A   1      31.219  23.305  23.722  1.00  0.00     0.116 C 
BRANCH   4   5
ATOM      5  N   UNL A   1      31.161  23.339  25.174  1.00  0.00    -0.351 N 
ATOM      6  C   UNL A   1      31.209  24.378  26.053  1.00  0.00     0.281 C 
ATOM      7  O   UNL A   1      31.195  24.082  27.256  1.00  0.00    -0.268 OA
ATOM      8  H   UNL A   1      31.073  22.454  25.597  1.00  0.00     0.163 HD
BRANCH   6   9
ATOM      9  C   UNL A   1      31.340  25.886  25.597  1.00  0.00     0.176 C 
ATOM     10  C   UNL A   1      32.617  25.986  24.720  1.00  0.00     0.079 C 
ATOM     11  C   UNL A   1      30.029  26.328  24.893  1.00  0.00     0.094 C 
ATOM     12  C   UNL A   1      32.687  27.192  23.789  1.00  0.00     0.008 C 
ATOM     13  C   UNL A   1      30.185  27.507  23.926  1.00  0.00     0.061 C 
ATOM     14  C   UNL A   1      31.399  27.383  23.002  1.00  0.00     0.015 C 
BRANCH   9  15
ATOM     15  N   UNL A   1      31.411  26.672  26.870  1.00  0.00    -0.336 N 
ATOM     16  C   UNL A   1      32.406  27.712  27.007  1.00  0.00     0.331 C 
ATOM     17  H   UNL A   1      30.500  27.115  26.997  1.00  0.00     0.346 HD
ATOM     18  H   UNL A   1      31.688  25.981  27.566  1.00  0.00     0.346 HD
ENDBRANCH   9  15
BRANCH  13  19
ATOM     19  S   UNL A   1      28.638  27.835  22.986  1.00  0.00    -0.090 SA
BRANCH  19  20
ATOM     20  C   UNL A   1      28.356  29.537  23.276  1.00  0.00     0.174 A 
ATOM     21  N   UNL A   1      27.153  30.070  23.269  1.00  0.00    -0.132 NA
ATOM     22  S   UNL A   1      29.621  30.659  23.560  1.00  0.00    -0.094 S 
ATOM     23  N   UNL A   1      27.183  31.437  23.469  1.00  0.00    -0.146 NA
ATOM     24  C   UNL A   1      28.413  31.874  23.644  1.00  0.00     0.203 A 
ENDBRANCH  19  20
ENDBRANCH  13  19
ENDBRANCH   6   9
ENDBRANCH   4   5
ENDBRANCH   3   4
ENDBRANCH   2   3
ENDBRANCH   1   2
BRANCH   1  25
ATOM     25  C   UNL A   1      34.741  21.617  25.753  1.00  0.00     0.021 C 
BRANCH  25  26
ATOM     26  C   UNL A   1      36.179  22.118  25.682  1.00  0.00     0.116 C 
BRANCH  26  27
ATOM     27  N   UNL A   1      37.140  21.026  25.667  1.00  0.00    -0.352 N 
ATOM     28  C   UNL A   1      38.498  21.065  25.852  1.00  0.00     0.251 C 
ATOM     29  H   UNL A   1      36.761  20.134  25.499  1.00  0.00     0.163 HD
ATOM     30  O   UNL A   1      39.175  20.068  25.606  1.00  0.00    -0.269 OA
BRANCH  28  31
ATOM     31  C   UNL A   1      39.144  22.308  26.323  1.00  0.00     0.039 A 
ATOM     32  C   UNL A   1      40.257  22.216  27.161  1.00  0.00     0.014 A 
ATOM     33  C   UNL A   1      38.656  23.561  25.939  1.00  0.00     0.014 A 
ATOM     34  C   UNL A   1      40.917  23.379  27.565  1.00  0.00     0.010 A 
ATOM     35  C   UNL A   1      39.359  24.714  26.281  1.00  0.00     0.010 A 
ATOM     36  C   UNL A   1      40.497  24.636  27.099  1.00  0.00    -0.014 A 
BRANCH  36  37
ATOM     37  C   UNL A   1      41.235  25.875  27.460  1.00  0.00     0.031 A 
ATOM     38  C   UNL A   1      40.571  26.935  28.298  1.00  0.00     0.074 A 
ATOM     39  C   UNL A   1      42.483  26.070  26.989  1.00  0.00     0.049 A 
ATOM     40  N   UNL A   1      41.023  28.108  28.661  1.00  0.00    -0.248 NA
ATOM     41  C   UNL A   1      39.206  26.646  28.764  1.00  0.00     0.031 C 
ATOM     42  C   UNL A   1      43.220  25.130  26.140  1.00  0.00     0.029 A 
ATOM     43  N   UNL A   1      43.353  27.119  27.151  1.00  0.00    -0.354 N 
ATOM     44  C   UNL A   1      39.998  28.700  29.391  1.00  0.00     0.074 A 
ATOM     45  C   UNL A   1      38.879  27.784  29.360  1.00  0.00     0.031 C 
ATOM     46  C   UNL A   1      44.439  25.632  25.883  1.00  0.00     0.029 A 
ATOM     47  C   UNL A   1      44.553  26.951  26.500  1.00  0.00     0.049 A 
ATOM     48  H   UNL A   1      43.137  27.919  27.684  1.00  0.00     0.167 HD
ATOM     49  C   UNL A   1      40.000  29.889  30.046  1.00  0.00     0.034 A 
ATOM     50  C   UNL A   1      45.619  27.768  26.397  1.00  0.00     0.034 A 
ATOM     51  C   UNL A   1      41.129  30.788  30.071  1.00  0.00     0.049 A 
ATOM     52  C   UNL A   1      45.582  29.103  27.099  1.00  0.00     0.074 A 
ATOM     53  C   UNL A   1      41.255  31.991  30.743  1.00  0.00     0.029 A 
ATOM     54  N   UNL A   1      42.322  30.589  29.388  1.00  0.00    -0.354 N 
ATOM     55  N   UNL A   1      44.622  29.629  27.824  1.00  0.00    -0.248 NA
ATOM     56  C   UNL A   1      46.776  29.949  26.977  1.00  0.00     0.031 C 
ATOM     57  C   UNL A   1      42.487  32.557  30.401  1.00  0.00     0.029 A 
ATOM     58  C   UNL A   1      43.173  31.666  29.591  1.00  0.00     0.049 A 
ATOM     59  H   UNL A   1      42.533  29.800  28.840  1.00  0.00     0.167 HD
ATOM     60  C   UNL A   1      45.113  30.853  28.273  1.00  0.00     0.074 A 
ATOM     61  C   UNL A   1      46.457  30.977  27.749  1.00  0.00     0.031 C 
ATOM     62  C   UNL A   1      44.508  31.786  29.052  1.00  0.00     0.034 A 
BRANCH  49  63
ATOM     63  C   UNL A   1      38.730  30.294  30.759  1.00  0.00     0.023 A 
ATOM     64  C   UNL A   1      37.668  30.920  30.083  1.00  0.00     0.031 A 
ATOM     65  C   UNL A   1      38.585  30.067  32.139  1.00  0.00     0.131 A 
ATOM     66  C   UNL A   1      36.547  31.367  30.798  1.00  0.00     0.055 A 
ATOM     67  C   UNL A   1      37.428  30.434  32.830  1.00  0.00     0.041 A 
ATOM     68  F   UNL A   1      39.572  29.493  32.846  1.00  0.00    -0.206 F 
ATOM     69  C   UNL A   1      36.406  31.103  32.162  1.00  0.00     0.022 A 
BRANCH  66  70
ATOM     70  S   UNL A   1      35.347  32.432  29.952  1.00  0.00     0.124 S 
ATOM     71  O   UNL A   1      36.180  33.575  29.582  1.00  0.00    -0.237 OA
ATOM     72  O   UNL A   1      34.897  31.588  28.853  1.00  0.00    -0.237 OA
ATOM     73  O   UNL A   1      34.347  32.708  30.981  1.00  0.00    -0.744 OA
ENDBRANCH  66  70
ENDBRANCH  49  63
BRANCH  50  74
ATOM     74  C   UNL A   1      46.808  27.365  25.589  1.00  0.00     0.023 A 
ATOM     75  C   UNL A   1      46.986  27.835  24.278  1.00  0.00     0.031 A 
ATOM     76  C   UNL A   1      47.761  26.465  26.100  1.00  0.00     0.131 A 
ATOM     77  C   UNL A   1      48.059  27.364  23.505  1.00  0.00     0.055 A 
ATOM     78  C   UNL A   1      48.860  26.047  25.348  1.00  0.00     0.041 A 
ATOM     79  F   UNL A   1      47.641  25.984  27.348  1.00  0.00    -0.206 F 
ATOM     80  C   UNL A   1      49.006  26.486  24.037  1.00  0.00     0.022 A 
BRANCH  77  81
ATOM     81  S   UNL A   1      48.143  27.839  21.756  1.00  0.00     0.124 S 
ATOM     82  O   UNL A   1      49.296  28.732  21.748  1.00  0.00    -0.237 OA
ATOM     83  O   UNL A   1      48.324  26.549  21.101  1.00  0.00    -0.237 OA
ATOM     84  O   UNL A   1      46.852  28.482  21.517  1.00  0.00    -0.744 OA
ENDBRANCH  77  81
ENDBRANCH  50  74
BRANCH  62  85
ATOM     85  C   UNL A   1      45.321  33.004  29.424  1.00  0.00     0.023 A 
ATOM     86  C   UNL A   1      45.317  34.169  28.637  1.00  0.00     0.031 A 
ATOM     87  C   UNL A   1      46.117  32.995  30.584  1.00  0.00     0.131 A 
ATOM     88  C   UNL A   1      46.139  35.251  28.985  1.00  0.00     0.055 A 
ATOM     89  C   UNL A   1      46.880  34.101  30.963  1.00  0.00     0.041 A 
ATOM     90  F   UNL A   1      46.163  31.909  31.373  1.00  0.00    -0.206 F 
ATOM     91  C   UNL A   1      46.904  35.233  30.154  1.00  0.00     0.022 A 
BRANCH  88  92
ATOM     92  S   UNL A   1      46.275  36.647  27.834  1.00  0.00     0.124 S 
ATOM     93  O   UNL A   1      46.853  36.011  26.654  1.00  0.00    -0.237 OA
ATOM     94  O   UNL A   1      44.889  37.084  27.707  1.00  0.00    -0.237 OA
ATOM     95  O   UNL A   1      47.158  37.582  28.530  1.00  0.00    -0.744 OA
ENDBRANCH  88  92
ENDBRANCH  62  85
ENDBRANCH  36  37
ENDBRANCH  28  31
ENDBRANCH  26  27
ENDBRANCH  25  26
ENDBRANCH   1  25
TORSDOF 19
ENDMDL
MODEL 2
REMARK VINA RESULT:     -11.3      5.798     11.023
REMARK SMILES C[NH2+][C@]1(C(=O)NCCCCCCNC(=O)c2ccc(-c3c4nc(c(-c5cc(S(=O)(=O)[O-])ccc5F)c5ccc([nH]5)c(-c5cc(S(=O)(=O)[O-])ccc5F)c5nc(c(-c6cc(S(=O)(=O)[O-])ccc6F)c6ccc3[nH]6)C=C5)C=C4)cc2)CCC[C@@H](Sc2nncs2)C1
REMARK SMILES IDX 10 1 9 2 8 3 7 4 6 5 4 6 5 7 3 9 79 10 89 11 80 12 82 13
REMARK SMILES IDX 81 14 2 15 1 16 83 19 84 20 85 21 88 22 86 23 87 24 11 25
REMARK SMILES IDX 12 26 13 27 14 28 15 30 16 31 17 32 78 33 18 34 77 35 19 36
REMARK SMILES IDX 20 37 21 38 71 39 22 40 76 41 70 42 72 43 23 44 75 45 69 46
REMARK SMILES IDX 68 47 24 49 56 50 36 51 55 52 37 53 40 54 54 55 73 56 38 57
REMARK SMILES IDX 39 58 53 60 74 61 41 62 25 63 26 64 34 65 27 66 33 67 35 68
REMARK SMILES IDX 32 69 28 70 29 71 30 72 31 73 57 74 58 75 66 76 59 77 65 78
REMARK SMILES IDX 67 79 64 80 60 81 61 82 62 83 63 84 42 85 43 86 51 87 44 88
REMARK SMILES IDX 50 89 52 90 49 91 45 92 46 93 47 94 48 95
REMARK H PARENT 6 8 2 17 2 18 13 29 72 48 40 59
REMARK Flexibility Score: inf
ROOT
ATOM      1  C   UNL A   1      31.755  30.561  26.190  1.00  0.00     0.002 C 
ENDROOT
BRANCH   1   2
ATOM      2  C   UNL A   1      32.219  29.553  27.248  1.00  0.00     0.002 C 
BRANCH   2   3
ATOM      3  C   UNL A   1      33.720  29.252  27.245  1.00  0.00     0.021 C 
BRANCH   3   4
ATOM      4  C   UNL A   1      34.144  28.176  26.251  1.00  0.00     0.116 C 
BRANCH   4   5
ATOM      5  N   UNL A   1      34.322  28.718  24.915  1.00  0.00    -0.351 N 
ATOM      6  C   UNL A   1      33.856  28.303  23.705  1.00  0.00     0.281 C 
ATOM      7  O   UNL A   1      34.233  28.951  22.718  1.00  0.00    -0.268 OA
ATOM      8  H   UNL A   1      34.880  29.529  24.878  1.00  0.00     0.163 HD
BRANCH   6   9
ATOM      9  C   UNL A   1      32.936  27.029  23.528  1.00  0.00     0.176 C 
ATOM     10  C   UNL A   1      32.608  26.913  22.015  1.00  0.00     0.079 C 
ATOM     11  C   UNL A   1      33.647  25.791  24.139  1.00  0.00     0.094 C 
ATOM     12  C   UNL A   1      32.158  25.535  21.541  1.00  0.00     0.008 C 
ATOM     13  C   UNL A   1      33.188  24.444  23.571  1.00  0.00     0.061 C 
ATOM     14  C   UNL A   1      33.073  24.429  22.046  1.00  0.00     0.015 C 
BRANCH   9  15
ATOM     15  N   UNL A   1      31.741  27.289  24.394  1.00  0.00    -0.336 N 
ATOM     16  C   UNL A   1      30.465  27.570  23.776  1.00  0.00     0.331 C 
ATOM     17  H   UNL A   1      31.612  26.462  24.978  1.00  0.00     0.346 HD
ATOM     18  H   UNL A   1      31.974  28.159  24.871  1.00  0.00     0.346 HD
ENDBRANCH   9  15
BRANCH  13  19
ATOM     19  S   UNL A   1      34.215  23.050  24.195  1.00  0.00    -0.090 SA
BRANCH  19  20
ATOM     20  C   UNL A   1      33.572  22.776  25.799  1.00  0.00     0.174 A 
ATOM     21  N   UNL A   1      32.522  23.419  26.264  1.00  0.00    -0.132 NA
ATOM     22  S   UNL A   1      34.270  21.673  26.910  1.00  0.00    -0.094 S 
ATOM     23  N   UNL A   1      32.233  23.076  27.570  1.00  0.00    -0.146 NA
ATOM     24  C   UNL A   1      33.065  22.164  28.028  1.00  0.00     0.203 A 
ENDBRANCH  19  20
ENDBRANCH  13  19
ENDBRANCH   6   9
ENDBRANCH   4   5
ENDBRANCH   3   4
ENDBRANCH   2   3
ENDBRANCH   1   2
BRANCH   1  25
ATOM     25  C   UNL A   1      31.533  31.987  26.700  1.00  0.00     0.021 C 
BRANCH  25  26
ATOM     26  C   UNL A   1      32.745  32.624  27.369  1.00  0.00     0.116 C 
BRANCH  26  27
ATOM     27  N   UNL A   1      32.541  34.038  27.642  1.00  0.00    -0.352 N 
ATOM     28  C   UNL A   1      33.136  34.834  28.587  1.00  0.00     0.251 C 
ATOM     29  H   UNL A   1      31.881  34.487  27.065  1.00  0.00     0.163 HD
ATOM     30  O   UNL A   1      32.692  35.961  28.803  1.00  0.00    -0.269 OA
BRANCH  28  31
ATOM     31  C   UNL A   1      34.290  34.326  29.358  1.00  0.00     0.039 A 
ATOM     32  C   UNL A   1      34.056  33.625  30.542  1.00  0.00     0.014 A 
ATOM     33  C   UNL A   1      35.600  34.538  28.915  1.00  0.00     0.014 A 
ATOM     34  C   UNL A   1      35.131  33.084  31.251  1.00  0.00     0.010 A 
ATOM     35  C   UNL A   1      36.663  33.934  29.581  1.00  0.00     0.010 A 
ATOM     36  C   UNL A   1      36.442  33.201  30.758  1.00  0.00    -0.014 A 
BRANCH  36  37
ATOM     37  C   UNL A   1      37.587  32.567  31.461  1.00  0.00     0.031 A 
ATOM     38  C   UNL A   1      38.316  31.411  30.832  1.00  0.00     0.074 A 
ATOM     39  C   UNL A   1      37.937  32.998  32.690  1.00  0.00     0.049 A 
ATOM     40  N   UNL A   1      39.292  30.685  31.315  1.00  0.00    -0.248 NA
ATOM     41  C   UNL A   1      37.867  30.999  29.493  1.00  0.00     0.031 C 
ATOM     42  C   UNL A   1      37.285  34.090  33.418  1.00  0.00     0.029 A 
ATOM     43  N   UNL A   1      38.922  32.573  33.547  1.00  0.00    -0.354 N 
ATOM     44  C   UNL A   1      39.570  29.728  30.344  1.00  0.00     0.074 A 
ATOM     45  C   UNL A   1      38.612  29.925  29.277  1.00  0.00     0.031 C 
ATOM     46  C   UNL A   1      37.906  34.266  34.595  1.00  0.00     0.029 A 
ATOM     47  C   UNL A   1      38.963  33.268  34.733  1.00  0.00     0.049 A 
ATOM     48  H   UNL A   1      39.539  31.837  33.333  1.00  0.00     0.167 HD
ATOM     49  C   UNL A   1      40.547  28.786  30.336  1.00  0.00     0.034 A 
ATOM     50  C   UNL A   1      39.752  33.114  35.815  1.00  0.00     0.034 A 
ATOM     51  C   UNL A   1      41.498  28.608  31.406  1.00  0.00     0.049 A 
ATOM     52  C   UNL A   1      40.804  32.033  35.800  1.00  0.00     0.074 A 
ATOM     53  C   UNL A   1      42.557  27.721  31.478  1.00  0.00     0.029 A 
ATOM     54  N   UNL A   1      41.500  29.324  32.598  1.00  0.00    -0.354 N 
ATOM     55  N   UNL A   1      41.083  31.165  34.854  1.00  0.00    -0.248 NA
ATOM     56  C   UNL A   1      41.654  31.918  36.991  1.00  0.00     0.031 C 
ATOM     57  C   UNL A   1      43.146  27.841  32.740  1.00  0.00     0.029 A 
ATOM     58  C   UNL A   1      42.516  28.869  33.425  1.00  0.00     0.049 A 
ATOM     59  H   UNL A   1      40.872  30.046  32.823  1.00  0.00     0.167 HD
ATOM     60  C   UNL A   1      42.165  30.425  35.326  1.00  0.00     0.074 A 
ATOM     61  C   UNL A   1      42.494  30.960  36.631  1.00  0.00     0.031 C 
ATOM     62  C   UNL A   1      42.829  29.401  34.732  1.00  0.00     0.034 A 
BRANCH  49  63
ATOM     63  C   UNL A   1      40.612  27.860  29.142  1.00  0.00     0.023 A 
ATOM     64  C   UNL A   1      41.533  28.061  28.099  1.00  0.00     0.031 A 
ATOM     65  C   UNL A   1      39.729  26.771  29.036  1.00  0.00     0.131 A 
ATOM     66  C   UNL A   1      41.498  27.237  26.964  1.00  0.00     0.055 A 
ATOM     67  C   UNL A   1      39.758  25.900  27.945  1.00  0.00     0.041 A 
ATOM     68  F   UNL A   1      38.811  26.540  29.989  1.00  0.00    -0.206 F 
ATOM     69  C   UNL A   1      40.636  26.140  26.892  1.00  0.00     0.022 A 
BRANCH  66  70
ATOM     70  S   UNL A   1      42.487  27.710  25.519  1.00  0.00     0.124 S 
ATOM     71  O   UNL A   1      42.306  26.551  24.647  1.00  0.00    -0.237 OA
ATOM     72  O   UNL A   1      41.842  28.943  25.086  1.00  0.00    -0.237 OA
ATOM     73  O   UNL A   1      43.834  27.866  26.062  1.00  0.00    -0.744 OA
ENDBRANCH  66  70
ENDBRANCH  49  63
BRANCH  50  74
ATOM     74  C   UNL A   1      39.574  33.987  37.013  1.00  0.00     0.023 A 
ATOM     75  C   UNL A   1      38.991  33.491  38.191  1.00  0.00     0.031 A 
ATOM     76  C   UNL A   1      39.941  35.345  36.982  1.00  0.00     0.131 A 
ATOM     77  C   UNL A   1      38.746  34.357  39.268  1.00  0.00     0.055 A 
ATOM     78  C   UNL A   1      39.751  36.187  38.078  1.00  0.00     0.041 A 
ATOM     79  F   UNL A   1      40.503  35.872  35.881  1.00  0.00    -0.206 F 
ATOM     80  C   UNL A   1      39.136  35.698  39.225  1.00  0.00     0.022 A 
BRANCH  77  81
ATOM     81  S   UNL A   1      37.814  33.728  40.692  1.00  0.00     0.124 S 
ATOM     82  O   UNL A   1      37.492  34.961  41.401  1.00  0.00    -0.237 OA
ATOM     83  O   UNL A   1      36.698  33.047  40.046  1.00  0.00    -0.237 OA
ATOM     84  O   UNL A   1      38.773  32.852  41.363  1.00  0.00    -0.744 OA
ENDBRANCH  77  81
ENDBRANCH  50  74
BRANCH  62  85
ATOM     85  C   UNL A   1      44.011  28.824  35.473  1.00  0.00     0.023 A 
ATOM     86  C   UNL A   1      43.928  27.611  36.178  1.00  0.00     0.031 A 
ATOM     87  C   UNL A   1      45.242  29.506  35.479  1.00  0.00     0.131 A 
ATOM     88  C   UNL A   1      45.033  27.147  36.907  1.00  0.00     0.055 A 
ATOM     89  C   UNL A   1      46.359  29.005  36.150  1.00  0.00     0.041 A 
ATOM     90  F   UNL A   1      45.381  30.672  34.827  1.00  0.00    -0.206 F 
ATOM     91  C   UNL A   1      46.254  27.825  36.881  1.00  0.00     0.022 A 
BRANCH  88  92
ATOM     92  S   UNL A   1      44.824  25.697  37.977  1.00  0.00     0.124 S 
ATOM     93  O   UNL A   1      45.253  26.213  39.273  1.00  0.00    -0.237 OA
ATOM     94  O   UNL A   1      43.399  25.413  37.845  1.00  0.00    -0.237 OA
ATOM     95  O   UNL A   1      45.712  24.700  37.381  1.00  0.00    -0.744 OA
ENDBRANCH  88  92
ENDBRANCH  62  85
ENDBRANCH  36  37
ENDBRANCH  28  31
ENDBRANCH  26  27
ENDBRANCH  25  26
ENDBRANCH   1  25
TORSDOF 19
ENDMDL
MODEL 3
REMARK VINA RESULT:     -11.3      6.110      9.387
REMARK SMILES C[NH2+][C@]1(C(=O)NCCCCCCNC(=O)c2ccc(-c3c4nc(c(-c5cc(S(=O)(=O)[O-])ccc5F)c5ccc([nH]5)c(-c5cc(S(=O)(=O)[O-])ccc5F)c5nc(c(-c6cc(S(=O)(=O)[O-])ccc6F)c6ccc3[nH]6)C=C5)C=C4)cc2)CCC[C@@H](Sc2nncs2)C1
REMARK SMILES IDX 10 1 9 2 8 3 7 4 6 5 4 6 5 7 3 9 79 10 89 11 80 12 82 13
REMARK SMILES IDX 81 14 2 15 1 16 83 19 84 20 85 21 88 22 86 23 87 24 11 25
REMARK SMILES IDX 12 26 13 27 14 28 15 30 16 31 17 32 78 33 18 34 77 35 19 36
REMARK SMILES IDX 20 37 21 38 71 39 22 40 76 41 70 42 72 43 23 44 75 45 69 46
REMARK SMILES IDX 68 47 24 49 56 50 36 51 55 52 37 53 40 54 54 55 73 56 38 57
REMARK SMILES IDX 39 58 53 60 74 61 41 62 25 63 26 64 34 65 27 66 33 67 35 68
REMARK SMILES IDX 32 69 28 70 29 71 30 72 31 73 57 74 58 75 66 76 59 77 65 78
REMARK SMILES IDX 67 79 64 80 60 81 61 82 62 83 63 84 42 85 43 86 51 87 44 88
REMARK SMILES IDX 50 89 52 90 49 91 45 92 46 93 47 94 48 95
REMARK H PARENT 6 8 2 17 2 18 13 29 72 48 40 59
REMARK Flexibility Score: inf
ROOT
ATOM      1  C   UNL A   1      35.337  34.248  28.302  1.00  0.00     0.002 C 
ENDROOT
BRANCH   1   2
ATOM      2  C   UNL A   1      35.019  32.815  28.740  1.00  0.00     0.002 C 
BRANCH   2   3
ATOM      3  C   UNL A   1      35.692  31.717  27.911  1.00  0.00     0.021 C 
BRANCH   3   4
ATOM      4  C   UNL A   1      34.772  30.563  27.528  1.00  0.00     0.116 C 
BRANCH   4   5
ATOM      5  N   UNL A   1      33.416  31.019  27.273  1.00  0.00    -0.351 N 
ATOM      6  C   UNL A   1      32.434  30.520  26.473  1.00  0.00     0.281 C 
ATOM      7  O   UNL A   1      31.382  31.173  26.419  1.00  0.00    -0.268 OA
ATOM      8  H   UNL A   1      33.162  31.833  27.766  1.00  0.00     0.163 HD
BRANCH   6   9
ATOM      9  C   UNL A   1      32.617  29.216  25.596  1.00  0.00     0.176 C 
ATOM     10  C   UNL A   1      33.180  28.114  26.533  1.00  0.00     0.079 C 
ATOM     11  C   UNL A   1      31.270  28.864  24.909  1.00  0.00     0.094 C 
ATOM     12  C   UNL A   1      32.985  26.679  26.056  1.00  0.00     0.008 C 
ATOM     13  C   UNL A   1      31.118  27.391  24.513  1.00  0.00     0.061 C 
ATOM     14  C   UNL A   1      31.556  26.415  25.606  1.00  0.00     0.015 C 
BRANCH   9  15
ATOM     15  N   UNL A   1      33.550  29.617  24.494  1.00  0.00    -0.336 N 
ATOM     16  C   UNL A   1      33.938  28.639  23.503  1.00  0.00     0.331 C 
ATOM     17  H   UNL A   1      33.104  30.386  23.993  1.00  0.00     0.346 HD
ATOM     18  H   UNL A   1      34.421  29.826  24.980  1.00  0.00     0.346 HD
ENDBRANCH   9  15
BRANCH  13  19
ATOM     19  S   UNL A   1      29.426  27.016  23.895  1.00  0.00    -0.090 SA
BRANCH  19  20
ATOM     20  C   UNL A   1      29.069  28.388  22.870  1.00  0.00     0.174 A 
ATOM     21  N   UNL A   1      29.904  28.826  21.952  1.00  0.00    -0.132 NA
ATOM     22  S   UNL A   1      27.620  29.297  22.994  1.00  0.00    -0.094 S 
ATOM     23  N   UNL A   1      29.429  29.951  21.305  1.00  0.00    -0.146 NA
ATOM     24  C   UNL A   1      28.239  30.300  21.748  1.00  0.00     0.203 A 
ENDBRANCH  19  20
ENDBRANCH  13  19
ENDBRANCH   6   9
ENDBRANCH   4   5
ENDBRANCH   3   4
ENDBRANCH   2   3
ENDBRANCH   1   2
BRANCH   1  25
ATOM     25  C   UNL A   1      34.199  35.256  28.488  1.00  0.00     0.021 C 
BRANCH  25  26
ATOM     26  C   UNL A   1      32.979  34.715  29.223  1.00  0.00     0.116 C 
BRANCH  26  27
ATOM     27  N   UNL A   1      32.632  35.524  30.381  1.00  0.00    -0.352 N 
ATOM     28  C   UNL A   1      33.151  35.489  31.650  1.00  0.00     0.251 C 
ATOM     29  H   UNL A   1      31.924  36.192  30.231  1.00  0.00     0.163 HD
ATOM     30  O   UNL A   1      32.595  36.113  32.553  1.00  0.00    -0.269 OA
BRANCH  28  31
ATOM     31  C   UNL A   1      34.357  34.684  31.932  1.00  0.00     0.039 A 
ATOM     32  C   UNL A   1      35.614  35.276  31.785  1.00  0.00     0.014 A 
ATOM     33  C   UNL A   1      34.253  33.351  32.342  1.00  0.00     0.014 A 
ATOM     34  C   UNL A   1      36.762  34.550  32.106  1.00  0.00     0.010 A 
ATOM     35  C   UNL A   1      35.393  32.655  32.735  1.00  0.00     0.010 A 
ATOM     36  C   UNL A   1      36.662  33.245  32.620  1.00  0.00    -0.014 A 
BRANCH  36  37
ATOM     37  C   UNL A   1      37.871  32.488  33.037  1.00  0.00     0.031 A 
ATOM     38  C   UNL A   1      38.525  32.777  34.361  1.00  0.00     0.074 A 
ATOM     39  C   UNL A   1      38.410  31.579  32.201  1.00  0.00     0.049 A 
ATOM     40  N   UNL A   1      39.619  32.272  34.872  1.00  0.00    -0.248 NA
ATOM     41  C   UNL A   1      37.877  33.788  35.210  1.00  0.00     0.031 C 
ATOM     42  C   UNL A   1      37.885  31.235  30.877  1.00  0.00     0.029 A 
ATOM     43  N   UNL A   1      39.518  30.779  32.334  1.00  0.00    -0.354 N 
ATOM     44  C   UNL A   1      39.795  32.908  36.097  1.00  0.00     0.074 A 
ATOM     45  C   UNL A   1      38.732  33.883  36.218  1.00  0.00     0.031 C 
ATOM     46  C   UNL A   1      38.652  30.275  30.335  1.00  0.00     0.029 A 
ATOM     47  C   UNL A   1      39.754  29.973  31.244  1.00  0.00     0.049 A 
ATOM     48  H   UNL A   1      40.091  30.783  33.134  1.00  0.00     0.167 HD
ATOM     49  C   UNL A   1      40.743  32.684  37.041  1.00  0.00     0.034 A 
ATOM     50  C   UNL A   1      40.750  29.099  30.997  1.00  0.00     0.034 A 
ATOM     51  C   UNL A   1      41.793  31.703  36.906  1.00  0.00     0.049 A 
ATOM     52  C   UNL A   1      41.816  28.896  32.044  1.00  0.00     0.074 A 
ATOM     53  C   UNL A   1      42.772  31.359  37.821  1.00  0.00     0.029 A 
ATOM     54  N   UNL A   1      42.007  30.914  35.782  1.00  0.00    -0.354 N 
ATOM     55  N   UNL A   1      41.942  29.473  33.218  1.00  0.00    -0.248 NA
ATOM     56  C   UNL A   1      42.867  27.918  31.740  1.00  0.00     0.031 C 
ATOM     57  C   UNL A   1      43.625  30.427  37.221  1.00  0.00     0.029 A 
ATOM     58  C   UNL A   1      43.126  30.116  35.966  1.00  0.00     0.049 A 
ATOM     59  H   UNL A   1      41.447  30.921  34.973  1.00  0.00     0.167 HD
ATOM     60  C   UNL A   1      43.068  28.900  33.803  1.00  0.00     0.074 A 
ATOM     61  C   UNL A   1      43.573  27.923  32.861  1.00  0.00     0.031 C 
ATOM     62  C   UNL A   1      43.630  29.154  35.013  1.00  0.00     0.034 A 
BRANCH  49  63
ATOM     63  C   UNL A   1      40.701  33.538  38.288  1.00  0.00     0.023 A 
ATOM     64  C   UNL A   1      39.742  33.331  39.295  1.00  0.00     0.031 A 
ATOM     65  C   UNL A   1      41.621  34.586  38.465  1.00  0.00     0.131 A 
ATOM     66  C   UNL A   1      39.675  34.206  40.391  1.00  0.00     0.055 A 
ATOM     67  C   UNL A   1      41.606  35.399  39.601  1.00  0.00     0.041 A 
ATOM     68  F   UNL A   1      42.547  34.849  37.528  1.00  0.00    -0.206 F 
ATOM     69  C   UNL A   1      40.618  35.220  40.565  1.00  0.00     0.022 A 
BRANCH  66  70
ATOM     70  S   UNL A   1      38.246  34.093  41.502  1.00  0.00     0.124 S 
ATOM     71  O   UNL A   1      37.903  35.502  41.683  1.00  0.00    -0.237 OA
ATOM     72  O   UNL A   1      37.302  33.301  40.724  1.00  0.00    -0.237 OA
ATOM     73  O   UNL A   1      38.786  33.435  42.689  1.00  0.00    -0.744 OA
ENDBRANCH  66  70
ENDBRANCH  49  63
BRANCH  50  74
ATOM     74  C   UNL A   1      40.804  28.359  29.701  1.00  0.00     0.023 A 
ATOM     75  C   UNL A   1      41.738  28.700  28.710  1.00  0.00     0.031 A 
ATOM     76  C   UNL A   1      39.889  27.328  29.416  1.00  0.00     0.131 A 
ATOM     77  C   UNL A   1      41.704  28.055  27.464  1.00  0.00     0.055 A 
ATOM     78  C   UNL A   1      39.900  26.647  28.198  1.00  0.00     0.041 A 
ATOM     79  F   UNL A   1      38.975  26.960  30.328  1.00  0.00    -0.206 F 
ATOM     80  C   UNL A   1      40.802  27.020  27.207  1.00  0.00     0.022 A 
BRANCH  77  81
ATOM     81  S   UNL A   1      42.793  28.658  26.144  1.00  0.00     0.124 S 
ATOM     82  O   UNL A   1      43.940  27.768  26.279  1.00  0.00    -0.237 OA
ATOM     83  O   UNL A   1      41.966  28.466  24.959  1.00  0.00    -0.237 OA
ATOM     84  O   UNL A   1      43.035  30.051  26.515  1.00  0.00    -0.744 OA
ENDBRANCH  77  81
ENDBRANCH  50  74
BRANCH  62  85
ATOM     85  C   UNL A   1      44.830  28.324  35.403  1.00  0.00     0.023 A 
ATOM     86  C   UNL A   1      44.697  27.059  36.002  1.00  0.00     0.031 A 
ATOM     87  C   UNL A   1      46.130  28.812  35.177  1.00  0.00     0.131 A 
ATOM     88  C   UNL A   1      45.839  26.353  36.409  1.00  0.00     0.055 A 
ATOM     89  C   UNL A   1      47.264  28.074  35.520  1.00  0.00     0.041 A 
ATOM     90  F   UNL A   1      46.320  30.015  34.611  1.00  0.00    -0.206 F 
ATOM     91  C   UNL A   1      47.122  26.843  36.153  1.00  0.00     0.022 A 
BRANCH  88  92
ATOM     92  S   UNL A   1      45.625  24.830  37.371  1.00  0.00     0.124 S 
ATOM     93  O   UNL A   1      44.576  24.145  36.623  1.00  0.00    -0.237 OA
ATOM     94  O   UNL A   1      46.953  24.228  37.303  1.00  0.00    -0.237 OA
ATOM     95  O   UNL A   1      45.231  25.311  38.694  1.00  0.00    -0.744 OA
ENDBRANCH  88  92
ENDBRANCH  62  85
ENDBRANCH  36  37
ENDBRANCH  28  31
ENDBRANCH  26  27
ENDBRANCH  25  26
ENDBRANCH   1  25
TORSDOF 19
ENDMDL
