MODEL 1
REMARK VINA RESULT:     -10.7      0.000      0.000
REMARK SMILES COc1ccc(OC)c([C@@](C)(O)[C@H](F)C(=O)NCCCCCCNC(=O)c2ccc(-c3c4nc(c(-c5cc(S(=O)(=O)[O-])ccc5F)c5ccc([nH]5)c(-c5cc(S(=O)(=O)[O-])ccc5F)c5nc(c(-c6cc(S(=O)(=O)[O-])ccc6F)c6ccc3[nH]6)C=C5)C=C4)cc2)c1
REMARK SMILES IDX 20 1 19 2 18 3 17 4 15 5 16 6 13 8 14 9 10 10 11 11 9 12
REMARK SMILES IDX 3 13 4 14 90 15 5 16 6 17 2 18 1 19 7 20 8 21 12 22 21 24
REMARK SMILES IDX 22 25 23 26 24 27 25 28 26 30 27 31 28 32 89 33 29 34 88 35
REMARK SMILES IDX 30 36 31 37 32 38 82 39 33 40 87 41 81 42 83 43 34 44 86 45
REMARK SMILES IDX 80 46 79 47 35 49 67 50 47 51 66 52 48 53 51 54 65 55 84 56
REMARK SMILES IDX 49 57 50 58 64 60 85 61 52 62 36 63 37 64 45 65 38 66 44 67
REMARK SMILES IDX 46 68 43 69 39 70 40 71 41 72 42 73 68 74 69 75 77 76 70 77
REMARK SMILES IDX 76 78 78 79 75 80 71 81 72 82 73 83 74 84 53 85 54 86 62 87
REMARK SMILES IDX 55 88 61 89 63 90 60 91 56 92 57 93 58 94 59 95
REMARK H PARENT 17 7 12 23 24 29 83 48 51 59
REMARK Flexibility Score: inf
ROOT
ATOM      1  C   UNL A   1      31.469  28.333  24.728  1.00  0.00     0.002 C 
ENDROOT
BRANCH   1   2
ATOM      2  C   UNL A   1      30.163  27.933  24.033  1.00  0.00     0.021 C 
BRANCH   2   3
ATOM      3  C   UNL A   1      30.110  26.497  23.520  1.00  0.00     0.116 C 
BRANCH   3   4
ATOM      4  N   UNL A   1      29.855  25.540  24.577  1.00  0.00    -0.353 N 
ATOM      5  C   UNL A   1      30.710  24.658  25.160  1.00  0.00     0.257 C 
ATOM      6  O   UNL A   1      30.272  23.992  26.106  1.00  0.00    -0.272 OA
ATOM      7  H   UNL A   1      28.934  25.529  24.923  1.00  0.00     0.163 HD
BRANCH   5   8
ATOM      8  C   UNL A   1      32.165  24.488  24.710  1.00  0.00     0.291 C 
ATOM      9  F   UNL A   1      32.998  24.190  25.760  1.00  0.00    -0.233 F 
BRANCH   8  10
ATOM     10  C   UNL A   1      32.414  23.462  23.560  1.00  0.00     0.131 C 
ATOM     11  C   UNL A   1      33.251  24.143  22.459  1.00  0.00     0.051 C 
BRANCH  10  12
ATOM     12  C   UNL A   1      33.076  22.126  23.970  1.00  0.00     0.032 A 
ATOM     13  C   UNL A   1      32.817  19.791  24.735  1.00  0.00     0.119 A 
ATOM     14  C   UNL A   1      34.179  19.719  24.991  1.00  0.00     0.050 A 
ATOM     15  C   UNL A   1      32.284  20.968  24.193  1.00  0.00     0.057 A 
ATOM     16  C   UNL A   1      35.001  20.807  24.715  1.00  0.00     0.050 A 
ATOM     17  C   UNL A   1      34.467  22.001  24.211  1.00  0.00     0.125 A 
BRANCH  13  18
ATOM     18  O   UNL A   1      32.112  18.677  25.099  1.00  0.00    -0.497 OA
ATOM     19  C   UNL A   1      32.644  17.409  24.739  1.00  0.00     0.278 C 
ENDBRANCH  13  18
BRANCH  17  20
ATOM     20  O   UNL A   1      35.383  23.021  24.180  1.00  0.00    -0.496 OA
ATOM     21  C   UNL A   1      36.597  22.756  23.482  1.00  0.00     0.278 C 
ENDBRANCH  17  20
ENDBRANCH  10  12
BRANCH  10  22
ATOM     22  O   UNL A   1      31.121  23.106  23.048  1.00  0.00    -0.382 OA
ATOM     23  H   UNL A   1      30.435  23.417  23.658  1.00  0.00     0.212 HD
ENDBRANCH  10  22
ENDBRANCH   8  10
ENDBRANCH   5   8
ENDBRANCH   3   4
ENDBRANCH   2   3
ENDBRANCH   1   2
BRANCH   1  24
ATOM     24  C   UNL A   1      31.563  27.993  26.218  1.00  0.00     0.002 C 
BRANCH  24  25
ATOM     25  C   UNL A   1      32.938  28.198  26.856  1.00  0.00     0.021 C 
BRANCH  25  26
ATOM     26  C   UNL A   1      33.832  29.220  26.162  1.00  0.00     0.116 C 
BRANCH  26  27
ATOM     27  N   UNL A   1      33.704  30.554  26.722  1.00  0.00    -0.352 N 
ATOM     28  C   UNL A   1      34.477  31.171  27.677  1.00  0.00     0.251 C 
ATOM     29  H   UNL A   1      32.959  31.092  26.368  1.00  0.00     0.163 HD
ATOM     30  O   UNL A   1      34.130  32.249  28.140  1.00  0.00    -0.269 OA
BRANCH  28  31
ATOM     31  C   UNL A   1      35.708  30.505  28.162  1.00  0.00     0.039 A 
ATOM     32  C   UNL A   1      36.901  30.702  27.463  1.00  0.00     0.014 A 
ATOM     33  C   UNL A   1      35.688  29.699  29.303  1.00  0.00     0.014 A 
ATOM     34  C   UNL A   1      38.085  30.133  27.941  1.00  0.00     0.010 A 
ATOM     35  C   UNL A   1      36.879  29.202  29.822  1.00  0.00     0.010 A 
ATOM     36  C   UNL A   1      38.090  29.404  29.141  1.00  0.00    -0.014 A 
BRANCH  36  37
ATOM     37  C   UNL A   1      39.345  28.825  29.686  1.00  0.00     0.031 A 
ATOM     38  C   UNL A   1      39.992  29.438  30.899  1.00  0.00     0.074 A 
ATOM     39  C   UNL A   1      39.933  27.788  29.058  1.00  0.00     0.049 A 
ATOM     40  N   UNL A   1      41.114  29.119  31.493  1.00  0.00    -0.248 NA
ATOM     41  C   UNL A   1      39.298  30.586  31.499  1.00  0.00     0.031 C 
ATOM     42  C   UNL A   1      39.421  27.129  27.855  1.00  0.00     0.029 A 
ATOM     43  N   UNL A   1      41.088  27.106  29.344  1.00  0.00    -0.354 N 
ATOM     44  C   UNL A   1      41.268  30.037  32.527  1.00  0.00     0.074 A 
ATOM     45  C   UNL A   1      40.165  30.967  32.425  1.00  0.00     0.031 C 
ATOM     46  C   UNL A   1      40.236  26.113  27.532  1.00  0.00     0.029 A 
ATOM     47  C   UNL A   1      41.354  26.078  28.470  1.00  0.00     0.049 A 
ATOM     48  H   UNL A   1      41.673  27.331  30.103  1.00  0.00     0.167 HD
ATOM     49  C   UNL A   1      42.228  30.084  33.486  1.00  0.00     0.034 A 
ATOM     50  C   UNL A   1      42.382  25.208  28.427  1.00  0.00     0.034 A 
ATOM     51  C   UNL A   1      43.318  29.142  33.571  1.00  0.00     0.049 A 
ATOM     52  C   UNL A   1      43.461  25.303  29.476  1.00  0.00     0.074 A 
ATOM     53  C   UNL A   1      44.312  29.057  34.530  1.00  0.00     0.029 A 
ATOM     54  N   UNL A   1      43.569  28.129  32.653  1.00  0.00    -0.354 N 
ATOM     55  N   UNL A   1      43.569  26.143  30.480  1.00  0.00    -0.248 NA
ATOM     56  C   UNL A   1      44.552  24.325  29.387  1.00  0.00     0.031 C 
ATOM     57  C   UNL A   1      45.207  28.051  34.148  1.00  0.00     0.029 A 
ATOM     58  C   UNL A   1      44.724  27.443  33.000  1.00  0.00     0.049 A 
ATOM     59  H   UNL A   1      43.008  27.928  31.869  1.00  0.00     0.167 HD
ATOM     60  C   UNL A   1      44.722  25.768  31.167  1.00  0.00     0.074 A 
ATOM     61  C   UNL A   1      45.267  24.624  30.464  1.00  0.00     0.031 C 
ATOM     62  C   UNL A   1      45.270  26.312  32.284  1.00  0.00     0.034 A 
BRANCH  49  63
ATOM     63  C   UNL A   1      42.147  31.219  34.485  1.00  0.00     0.023 A 
ATOM     64  C   UNL A   1      41.159  31.257  35.486  1.00  0.00     0.031 A 
ATOM     65  C   UNL A   1      43.028  32.312  34.396  1.00  0.00     0.131 A 
ATOM     66  C   UNL A   1      41.000  32.407  36.273  1.00  0.00     0.055 A 
ATOM     67  C   UNL A   1      42.931  33.410  35.255  1.00  0.00     0.041 A 
ATOM     68  F   UNL A   1      43.981  32.348  33.452  1.00  0.00    -0.206 F 
ATOM     69  C   UNL A   1      41.898  33.473  36.185  1.00  0.00     0.022 A 
BRANCH  66  70
ATOM     70  S   UNL A   1      39.489  32.572  37.264  1.00  0.00     0.124 S 
ATOM     71  O   UNL A   1      38.801  31.319  36.962  1.00  0.00    -0.237 OA
ATOM     72  O   UNL A   1      40.013  32.704  38.619  1.00  0.00    -0.237 OA
ATOM     73  O   UNL A   1      38.851  33.769  36.719  1.00  0.00    -0.744 OA
ENDBRANCH  66  70
ENDBRANCH  49  63
BRANCH  50  74
ATOM     74  C   UNL A   1      42.436  24.162  27.368  1.00  0.00     0.023 A 
ATOM     75  C   UNL A   1      41.791  22.927  27.545  1.00  0.00     0.031 A 
ATOM     76  C   UNL A   1      43.145  24.370  26.172  1.00  0.00     0.131 A 
ATOM     77  C   UNL A   1      41.895  21.935  26.559  1.00  0.00     0.055 A 
ATOM     78  C   UNL A   1      43.205  23.399  25.172  1.00  0.00     0.041 A 
ATOM     79  F   UNL A   1      43.775  25.535  25.951  1.00  0.00    -0.206 F 
ATOM     80  C   UNL A   1      42.586  22.168  25.367  1.00  0.00     0.022 A 
BRANCH  77  81
ATOM     81  S   UNL A   1      41.166  20.307  26.884  1.00  0.00     0.124 S 
ATOM     82  O   UNL A   1      40.799  20.421  28.291  1.00  0.00    -0.237 OA
ATOM     83  O   UNL A   1      40.060  20.274  25.932  1.00  0.00    -0.237 OA
ATOM     84  O   UNL A   1      42.260  19.380  26.595  1.00  0.00    -0.744 OA
ENDBRANCH  77  81
ENDBRANCH  50  74
BRANCH  62  85
ATOM     85  C   UNL A   1      46.501  25.638  32.844  1.00  0.00     0.023 A 
ATOM     86  C   UNL A   1      47.788  25.890  32.335  1.00  0.00     0.031 A 
ATOM     87  C   UNL A   1      46.378  24.717  33.900  1.00  0.00     0.131 A 
ATOM     88  C   UNL A   1      48.891  25.184  32.842  1.00  0.00     0.055 A 
ATOM     89  C   UNL A   1      47.488  24.070  34.447  1.00  0.00     0.041 A 
ATOM     90  F   UNL A   1      45.176  24.432  34.424  1.00  0.00    -0.206 F 
ATOM     91  C   UNL A   1      48.752  24.292  33.907  1.00  0.00     0.022 A 
BRANCH  88  92
ATOM     92  S   UNL A   1      50.497  25.371  32.021  1.00  0.00     0.124 S 
ATOM     93  O   UNL A   1      50.158  26.215  30.880  1.00  0.00    -0.237 OA
ATOM     94  O   UNL A   1      51.308  25.999  33.059  1.00  0.00    -0.237 OA
ATOM     95  O   UNL A   1      50.873  23.999  31.687  1.00  0.00    -0.744 OA
ENDBRANCH  88  92
ENDBRANCH  62  85
ENDBRANCH  36  37
ENDBRANCH  28  31
ENDBRANCH  26  27
ENDBRANCH  25  26
ENDBRANCH  24  25
ENDBRANCH   1  24
TORSDOF 21
ENDMDL
MODEL 2
REMARK VINA RESULT:     -10.5      1.842      2.187
REMARK SMILES COc1ccc(OC)c([C@@](C)(O)[C@H](F)C(=O)NCCCCCCNC(=O)c2ccc(-c3c4nc(c(-c5cc(S(=O)(=O)[O-])ccc5F)c5ccc([nH]5)c(-c5cc(S(=O)(=O)[O-])ccc5F)c5nc(c(-c6cc(S(=O)(=O)[O-])ccc6F)c6ccc3[nH]6)C=C5)C=C4)cc2)c1
REMARK SMILES IDX 20 1 19 2 18 3 17 4 15 5 16 6 13 8 14 9 10 10 11 11 9 12
REMARK SMILES IDX 3 13 4 14 90 15 5 16 6 17 2 18 1 19 7 20 8 21 12 22 21 24
REMARK SMILES IDX 22 25 23 26 24 27 25 28 26 30 27 31 28 32 89 33 29 34 88 35
REMARK SMILES IDX 30 36 31 37 32 38 82 39 33 40 87 41 81 42 83 43 34 44 86 45
REMARK SMILES IDX 80 46 79 47 35 49 67 50 47 51 66 52 48 53 51 54 65 55 84 56
REMARK SMILES IDX 49 57 50 58 64 60 85 61 52 62 36 63 37 64 45 65 38 66 44 67
REMARK SMILES IDX 46 68 43 69 39 70 40 71 41 72 42 73 68 74 69 75 77 76 70 77
REMARK SMILES IDX 76 78 78 79 75 80 71 81 72 82 73 83 74 84 53 85 54 86 62 87
REMARK SMILES IDX 55 88 61 89 63 90 60 91 56 92 57 93 58 94 59 95
REMARK H PARENT 17 7 12 23 24 29 83 48 51 59
REMARK Flexibility Score: inf
ROOT
ATOM      1  C   UNL A   1      31.106  28.366  24.368  1.00  0.00     0.002 C 
ENDROOT
BRANCH   1   2
ATOM      2  C   UNL A   1      29.991  27.498  23.772  1.00  0.00     0.021 C 
BRANCH   2   3
ATOM      3  C   UNL A   1      30.457  26.213  23.094  1.00  0.00     0.116 C 
BRANCH   3   4
ATOM      4  N   UNL A   1      31.791  26.331  22.542  1.00  0.00    -0.353 N 
ATOM      5  C   UNL A   1      32.726  25.364  22.346  1.00  0.00     0.257 C 
ATOM      6  O   UNL A   1      33.774  25.702  21.781  1.00  0.00    -0.272 OA
ATOM      7  H   UNL A   1      32.057  27.239  22.270  1.00  0.00     0.163 HD
BRANCH   5   8
ATOM      8  C   UNL A   1      32.516  23.905  22.765  1.00  0.00     0.291 C 
ATOM      9  F   UNL A   1      33.047  23.024  21.856  1.00  0.00    -0.233 F 
BRANCH   8  10
ATOM     10  C   UNL A   1      33.020  23.522  24.193  1.00  0.00     0.131 C 
ATOM     11  C   UNL A   1      31.914  23.852  25.215  1.00  0.00     0.051 C 
BRANCH  10  12
ATOM     12  C   UNL A   1      33.486  22.059  24.381  1.00  0.00     0.032 A 
ATOM     13  C   UNL A   1      32.907  19.705  24.858  1.00  0.00     0.119 A 
ATOM     14  C   UNL A   1      34.253  19.399  25.005  1.00  0.00     0.050 A 
ATOM     15  C   UNL A   1      32.536  21.010  24.510  1.00  0.00     0.057 A 
ATOM     16  C   UNL A   1      35.218  20.382  24.812  1.00  0.00     0.050 A 
ATOM     17  C   UNL A   1      34.851  21.699  24.503  1.00  0.00     0.125 A 
BRANCH  13  18
ATOM     18  O   UNL A   1      32.058  18.668  25.126  1.00  0.00    -0.497 OA
ATOM     19  C   UNL A   1      32.589  17.350  25.090  1.00  0.00     0.278 C 
ENDBRANCH  13  18
BRANCH  17  20
ATOM     20  O   UNL A   1      35.912  22.568  24.538  1.00  0.00    -0.496 OA
ATOM     21  C   UNL A   1      37.207  21.978  24.623  1.00  0.00     0.278 C 
ENDBRANCH  17  20
ENDBRANCH  10  12
BRANCH  10  22
ATOM     22  O   UNL A   1      34.181  24.328  24.443  1.00  0.00    -0.382 OA
ATOM     23  H   UNL A   1      34.016  25.234  24.142  1.00  0.00     0.212 HD
ENDBRANCH  10  22
ENDBRANCH   8  10
ENDBRANCH   5   8
ENDBRANCH   3   4
ENDBRANCH   2   3
ENDBRANCH   1   2
BRANCH   1  24
ATOM     24  C   UNL A   1      31.387  28.161  25.859  1.00  0.00     0.002 C 
BRANCH  24  25
ATOM     25  C   UNL A   1      32.859  28.229  26.268  1.00  0.00     0.021 C 
BRANCH  25  26
ATOM     26  C   UNL A   1      33.634  29.420  25.716  1.00  0.00     0.116 C 
BRANCH  26  27
ATOM     27  N   UNL A   1      33.273  30.673  26.355  1.00  0.00    -0.352 N 
ATOM     28  C   UNL A   1      33.882  31.318  27.406  1.00  0.00     0.251 C 
ATOM     29  H   UNL A   1      32.480  31.124  25.984  1.00  0.00     0.163 HD
ATOM     30  O   UNL A   1      33.349  32.294  27.915  1.00  0.00    -0.269 OA
BRANCH  28  31
ATOM     31  C   UNL A   1      35.165  30.800  27.935  1.00  0.00     0.039 A 
ATOM     32  C   UNL A   1      36.289  31.628  27.908  1.00  0.00     0.014 A 
ATOM     33  C   UNL A   1      35.257  29.509  28.461  1.00  0.00     0.014 A 
ATOM     34  C   UNL A   1      37.492  31.181  28.459  1.00  0.00     0.010 A 
ATOM     35  C   UNL A   1      36.431  29.095  29.082  1.00  0.00     0.010 A 
ATOM     36  C   UNL A   1      37.566  29.922  29.080  1.00  0.00    -0.014 A 
BRANCH  36  37
ATOM     37  C   UNL A   1      38.826  29.444  29.706  1.00  0.00     0.031 A 
ATOM     38  C   UNL A   1      39.263  29.999  31.035  1.00  0.00     0.074 A 
ATOM     39  C   UNL A   1      39.603  28.558  29.055  1.00  0.00     0.049 A 
ATOM     40  N   UNL A   1      40.351  29.756  31.719  1.00  0.00    -0.248 NA
ATOM     41  C   UNL A   1      38.368  30.986  31.657  1.00  0.00     0.031 C 
ATOM     42  C   UNL A   1      39.305  27.972  27.747  1.00  0.00     0.029 A 
ATOM     43  N   UNL A   1      40.804  27.993  29.405  1.00  0.00    -0.354 N 
ATOM     44  C   UNL A   1      40.280  30.572  32.844  1.00  0.00     0.074 A 
ATOM     45  C   UNL A   1      39.080  31.369  32.705  1.00  0.00     0.031 C 
ATOM     46  C   UNL A   1      40.274  27.101  27.425  1.00  0.00     0.029 A 
ATOM     47  C   UNL A   1      41.288  27.102  28.476  1.00  0.00     0.049 A 
ATOM     48  H   UNL A   1      41.276  28.206  30.243  1.00  0.00     0.167 HD
ATOM     49  C   UNL A   1      41.125  30.634  33.905  1.00  0.00     0.034 A 
ATOM     50  C   UNL A   1      42.420  26.372  28.469  1.00  0.00     0.034 A 
ATOM     51  C   UNL A   1      42.316  29.826  34.025  1.00  0.00     0.049 A 
ATOM     52  C   UNL A   1      43.368  26.486  29.636  1.00  0.00     0.074 A 
ATOM     53  C   UNL A   1      43.212  29.761  35.078  1.00  0.00     0.029 A 
ATOM     54  N   UNL A   1      42.787  28.953  33.051  1.00  0.00    -0.354 N 
ATOM     55  N   UNL A   1      43.264  27.222  30.719  1.00  0.00    -0.248 NA
ATOM     56  C   UNL A   1      44.581  25.661  29.581  1.00  0.00     0.031 C 
ATOM     57  C   UNL A   1      44.264  28.916  34.708  1.00  0.00     0.029 A 
ATOM     58  C   UNL A   1      43.982  28.378  33.461  1.00  0.00     0.049 A 
ATOM     59  H   UNL A   1      42.339  28.769  32.195  1.00  0.00     0.167 HD
ATOM     60  C   UNL A   1      44.382  26.918  31.493  1.00  0.00     0.074 A 
ATOM     61  C   UNL A   1      45.139  25.928  30.753  1.00  0.00     0.031 C 
ATOM     62  C   UNL A   1      44.740  27.403  32.710  1.00  0.00     0.034 A 
BRANCH  49  63
ATOM     63  C   UNL A   1      40.798  31.639  34.989  1.00  0.00     0.023 A 
ATOM     64  C   UNL A   1      39.843  31.369  35.987  1.00  0.00     0.031 A 
ATOM     65  C   UNL A   1      41.397  32.911  34.987  1.00  0.00     0.131 A 
ATOM     66  C   UNL A   1      39.433  32.386  36.860  1.00  0.00     0.055 A 
ATOM     67  C   UNL A   1      41.061  33.887  35.928  1.00  0.00     0.041 A 
ATOM     68  F   UNL A   1      42.301  33.241  34.052  1.00  0.00    -0.206 F 
ATOM     69  C   UNL A   1      40.056  33.636  36.858  1.00  0.00     0.022 A 
BRANCH  66  70
ATOM     70  S   UNL A   1      37.941  32.118  37.857  1.00  0.00     0.124 S 
ATOM     71  O   UNL A   1      37.614  30.731  37.530  1.00  0.00    -0.237 OA
ATOM     72  O   UNL A   1      38.418  32.360  39.213  1.00  0.00    -0.237 OA
ATOM     73  O   UNL A   1      36.999  33.109  37.338  1.00  0.00    -0.744 OA
ENDBRANCH  66  70
ENDBRANCH  49  63
BRANCH  50  74
ATOM     74  C   UNL A   1      42.716  25.457  27.331  1.00  0.00     0.023 A 
ATOM     75  C   UNL A   1      42.247  24.134  27.333  1.00  0.00     0.031 A 
ATOM     76  C   UNL A   1      43.485  25.883  26.233  1.00  0.00     0.131 A 
ATOM     77  C   UNL A   1      42.579  23.272  26.276  1.00  0.00     0.055 A 
ATOM     78  C   UNL A   1      43.770  25.037  25.161  1.00  0.00     0.041 A 
ATOM     79  F   UNL A   1      43.953  27.141  26.179  1.00  0.00    -0.206 F 
ATOM     80  C   UNL A   1      43.325  23.719  25.183  1.00  0.00     0.022 A 
BRANCH  77  81
ATOM     81  S   UNL A   1      42.072  21.534  26.382  1.00  0.00     0.124 S 
ATOM     82  O   UNL A   1      43.085  20.879  25.563  1.00  0.00    -0.237 OA
ATOM     83  O   UNL A   1      42.145  21.283  27.817  1.00  0.00    -0.237 OA
ATOM     84  O   UNL A   1      40.721  21.539  25.821  1.00  0.00    -0.744 OA
ENDBRANCH  77  81
ENDBRANCH  50  74
BRANCH  62  85
ATOM     85  C   UNL A   1      45.986  26.827  33.340  1.00  0.00     0.023 A 
ATOM     86  C   UNL A   1      45.979  25.596  34.021  1.00  0.00     0.031 A 
ATOM     87  C   UNL A   1      47.201  27.533  33.267  1.00  0.00     0.131 A 
ATOM     88  C   UNL A   1      47.148  25.139  34.651  1.00  0.00     0.055 A 
ATOM     89  C   UNL A   1      48.376  27.039  33.837  1.00  0.00     0.041 A 
ATOM     90  F   UNL A   1      47.269  28.716  32.636  1.00  0.00    -0.206 F 
ATOM     91  C   UNL A   1      48.350  25.842  34.546  1.00  0.00     0.022 A 
BRANCH  88  92
ATOM     92  S   UNL A   1      47.051  23.662  35.699  1.00  0.00     0.124 S 
ATOM     93  O   UNL A   1      46.970  22.592  34.709  1.00  0.00    -0.237 OA
ATOM     94  O   UNL A   1      48.295  23.735  36.458  1.00  0.00    -0.237 OA
ATOM     95  O   UNL A   1      45.835  23.875  36.482  1.00  0.00    -0.744 OA
ENDBRANCH  88  92
ENDBRANCH  62  85
ENDBRANCH  36  37
ENDBRANCH  28  31
ENDBRANCH  26  27
ENDBRANCH  25  26
ENDBRANCH  24  25
ENDBRANCH   1  24
TORSDOF 21
ENDMDL
MODEL 3
REMARK VINA RESULT:     -10.5      2.922      3.722
REMARK SMILES COc1ccc(OC)c([C@@](C)(O)[C@H](F)C(=O)NCCCCCCNC(=O)c2ccc(-c3c4nc(c(-c5cc(S(=O)(=O)[O-])ccc5F)c5ccc([nH]5)c(-c5cc(S(=O)(=O)[O-])ccc5F)c5nc(c(-c6cc(S(=O)(=O)[O-])ccc6F)c6ccc3[nH]6)C=C5)C=C4)cc2)c1
REMARK SMILES IDX 20 1 19 2 18 3 17 4 15 5 16 6 13 8 14 9 10 10 11 11 9 12
REMARK SMILES IDX 3 13 4 14 90 15 5 16 6 17 2 18 1 19 7 20 8 21 12 22 21 24
REMARK SMILES IDX 22 25 23 26 24 27 25 28 26 30 27 31 28 32 89 33 29 34 88 35
REMARK SMILES IDX 30 36 31 37 32 38 82 39 33 40 87 41 81 42 83 43 34 44 86 45
REMARK SMILES IDX 80 46 79 47 35 49 67 50 47 51 66 52 48 53 51 54 65 55 84 56
REMARK SMILES IDX 49 57 50 58 64 60 85 61 52 62 36 63 37 64 45 65 38 66 44 67
REMARK SMILES IDX 46 68 43 69 39 70 40 71 41 72 42 73 68 74 69 75 77 76 70 77
REMARK SMILES IDX 76 78 78 79 75 80 71 81 72 82 73 83 74 84 53 85 54 86 62 87
REMARK SMILES IDX 55 88 61 89 63 90 60 91 56 92 57 93 58 94 59 95
REMARK H PARENT 17 7 12 23 24 29 83 48 51 59
REMARK Flexibility Score: inf
ROOT
ATOM      1  C   UNL A   1      31.283  28.190  24.417  1.00  0.00     0.002 C 
ENDROOT
BRANCH   1   2
ATOM      2  C   UNL A   1      30.140  27.424  23.740  1.00  0.00     0.021 C 
BRANCH   2   3
ATOM      3  C   UNL A   1      30.555  26.162  22.991  1.00  0.00     0.116 C 
BRANCH   3   4
ATOM      4  N   UNL A   1      31.959  26.165  22.635  1.00  0.00    -0.353 N 
ATOM      5  C   UNL A   1      32.803  25.114  22.465  1.00  0.00     0.257 C 
ATOM      6  O   UNL A   1      33.951  25.370  22.081  1.00  0.00    -0.272 OA
ATOM      7  H   UNL A   1      32.357  27.054  22.495  1.00  0.00     0.163 HD
BRANCH   5   8
ATOM      8  C   UNL A   1      32.380  23.660  22.701  1.00  0.00     0.291 C 
ATOM      9  F   UNL A   1      33.064  22.784  21.895  1.00  0.00    -0.233 F 
BRANCH   8  10
ATOM     10  C   UNL A   1      32.456  23.152  24.176  1.00  0.00     0.131 C 
ATOM     11  C   UNL A   1      31.035  23.146  24.774  1.00  0.00     0.051 C 
BRANCH  10  12
ATOM     12  C   UNL A   1      33.120  21.771  24.388  1.00  0.00     0.032 A 
ATOM     13  C   UNL A   1      32.871  19.369  24.907  1.00  0.00     0.119 A 
ATOM     14  C   UNL A   1      34.246  19.254  25.058  1.00  0.00     0.050 A 
ATOM     15  C   UNL A   1      32.324  20.604  24.538  1.00  0.00     0.057 A 
ATOM     16  C   UNL A   1      35.067  20.358  24.846  1.00  0.00     0.050 A 
ATOM     17  C   UNL A   1      34.521  21.606  24.515  1.00  0.00     0.125 A 
BRANCH  13  18
ATOM     18  O   UNL A   1      32.172  18.229  25.195  1.00  0.00    -0.497 OA
ATOM     19  C   UNL A   1      32.914  17.067  25.539  1.00  0.00     0.278 C 
ENDBRANCH  13  18
BRANCH  17  20
ATOM     20  O   UNL A   1      35.452  22.614  24.533  1.00  0.00    -0.496 OA
ATOM     21  C   UNL A   1      36.186  22.813  23.327  1.00  0.00     0.278 C 
ENDBRANCH  17  20
ENDBRANCH  10  12
BRANCH  10  22
ATOM     22  O   UNL A   1      33.285  24.087  24.883  1.00  0.00    -0.382 OA
ATOM     23  H   UNL A   1      32.727  24.684  25.405  1.00  0.00     0.212 HD
ENDBRANCH  10  22
ENDBRANCH   8  10
ENDBRANCH   5   8
ENDBRANCH   3   4
ENDBRANCH   2   3
ENDBRANCH   1   2
BRANCH   1  24
ATOM     24  C   UNL A   1      31.439  27.963  25.924  1.00  0.00     0.002 C 
BRANCH  24  25
ATOM     25  C   UNL A   1      32.852  28.152  26.477  1.00  0.00     0.021 C 
BRANCH  25  26
ATOM     26  C   UNL A   1      33.683  29.228  25.786  1.00  0.00     0.116 C 
BRANCH  26  27
ATOM     27  N   UNL A   1      33.281  30.574  26.154  1.00  0.00    -0.352 N 
ATOM     28  C   UNL A   1      33.798  31.398  27.128  1.00  0.00     0.251 C 
ATOM     29  H   UNL A   1      32.534  30.950  25.635  1.00  0.00     0.163 HD
ATOM     30  O   UNL A   1      33.234  32.448  27.401  1.00  0.00    -0.269 OA
BRANCH  28  31
ATOM     31  C   UNL A   1      35.017  30.986  27.860  1.00  0.00     0.039 A 
ATOM     32  C   UNL A   1      36.108  31.857  27.899  1.00  0.00     0.014 A 
ATOM     33  C   UNL A   1      35.081  29.751  28.512  1.00  0.00     0.014 A 
ATOM     34  C   UNL A   1      37.243  31.513  28.637  1.00  0.00     0.010 A 
ATOM     35  C   UNL A   1      36.178  29.446  29.313  1.00  0.00     0.010 A 
ATOM     36  C   UNL A   1      37.276  30.319  29.377  1.00  0.00    -0.014 A 
BRANCH  36  37
ATOM     37  C   UNL A   1      38.458  29.954  30.199  1.00  0.00     0.031 A 
ATOM     38  C   UNL A   1      38.618  30.527  31.582  1.00  0.00     0.074 A 
ATOM     39  C   UNL A   1      39.413  29.157  29.684  1.00  0.00     0.049 A 
ATOM     40  N   UNL A   1      39.600  30.379  32.434  1.00  0.00    -0.248 NA
ATOM     41  C   UNL A   1      37.543  31.413  32.050  1.00  0.00     0.031 C 
ATOM     42  C   UNL A   1      39.388  28.566  28.344  1.00  0.00     0.029 A 
ATOM     43  N   UNL A   1      40.590  28.704  30.224  1.00  0.00    -0.354 N 
ATOM     44  C   UNL A   1      39.269  31.166  33.532  1.00  0.00     0.074 A 
ATOM     45  C   UNL A   1      38.036  31.846  33.200  1.00  0.00     0.031 C 
ATOM     46  C   UNL A   1      40.477  27.798  28.184  1.00  0.00     0.029 A 
ATOM     47  C   UNL A   1      41.302  27.879  29.385  1.00  0.00     0.049 A 
ATOM     48  H   UNL A   1      40.898  28.948  31.127  1.00  0.00     0.167 HD
ATOM     49  C   UNL A   1      39.921  31.291  34.717  1.00  0.00     0.034 A 
ATOM     50  C   UNL A   1      42.486  27.261  29.563  1.00  0.00     0.034 A 
ATOM     51  C   UNL A   1      41.149  30.600  35.028  1.00  0.00     0.049 A 
ATOM     52  C   UNL A   1      43.217  27.446  30.868  1.00  0.00     0.074 A 
ATOM     53  C   UNL A   1      41.865  30.604  36.213  1.00  0.00     0.029 A 
ATOM     54  N   UNL A   1      41.855  29.792  34.144  1.00  0.00    -0.354 N 
ATOM     55  N   UNL A   1      42.869  28.152  31.920  1.00  0.00    -0.248 NA
ATOM     56  C   UNL A   1      44.498  26.743  31.011  1.00  0.00     0.031 C 
ATOM     57  C   UNL A   1      43.040  29.870  36.019  1.00  0.00     0.029 A 
ATOM     58  C   UNL A   1      43.017  29.327  34.743  1.00  0.00     0.049 A 
ATOM     59  H   UNL A   1      41.571  29.579  33.226  1.00  0.00     0.167 HD
ATOM     60  C   UNL A   1      43.871  27.944  32.865  1.00  0.00     0.074 A 
ATOM     61  C   UNL A   1      44.830  27.043  32.259  1.00  0.00     0.031 C 
ATOM     62  C   UNL A   1      43.978  28.442  34.125  1.00  0.00     0.034 A 
BRANCH  49  63
ATOM     63  C   UNL A   1      39.326  32.243  35.733  1.00  0.00     0.023 A 
ATOM     64  C   UNL A   1      39.705  33.597  35.791  1.00  0.00     0.031 A 
ATOM     65  C   UNL A   1      38.420  31.777  36.702  1.00  0.00     0.131 A 
ATOM     66  C   UNL A   1      39.275  34.401  36.857  1.00  0.00     0.055 A 
ATOM     67  C   UNL A   1      37.911  32.612  37.699  1.00  0.00     0.041 A 
ATOM     68  F   UNL A   1      38.032  30.492  36.715  1.00  0.00    -0.206 F 
ATOM     69  C   UNL A   1      38.357  33.927  37.796  1.00  0.00     0.022 A 
BRANCH  66  70
ATOM     70  S   UNL A   1      40.088  36.003  37.110  1.00  0.00     0.124 S 
ATOM     71  O   UNL A   1      39.316  36.552  38.223  1.00  0.00    -0.237 OA
ATOM     72  O   UNL A   1      41.461  35.616  37.414  1.00  0.00    -0.237 OA
ATOM     73  O   UNL A   1      39.899  36.690  35.834  1.00  0.00    -0.744 OA
ENDBRANCH  66  70
ENDBRANCH  49  63
BRANCH  50  74
ATOM     74  C   UNL A   1      43.051  26.397  28.488  1.00  0.00     0.023 A 
ATOM     75  C   UNL A   1      44.112  26.849  27.687  1.00  0.00     0.031 A 
ATOM     76  C   UNL A   1      42.530  25.117  28.231  1.00  0.00     0.131 A 
ATOM     77  C   UNL A   1      44.597  26.042  26.647  1.00  0.00     0.055 A 
ATOM     78  C   UNL A   1      43.048  24.297  27.228  1.00  0.00     0.041 A 
ATOM     79  F   UNL A   1      41.518  24.635  28.972  1.00  0.00    -0.206 F 
ATOM     80  C   UNL A   1      44.082  24.763  26.421  1.00  0.00     0.022 A 
BRANCH  77  81
ATOM     81  S   UNL A   1      45.873  26.714  25.548  1.00  0.00     0.124 S 
ATOM     82  O   UNL A   1      46.941  27.029  26.490  1.00  0.00    -0.237 OA
ATOM     83  O   UNL A   1      46.120  25.593  24.648  1.00  0.00    -0.237 OA
ATOM     84  O   UNL A   1      45.220  27.870  24.935  1.00  0.00    -0.744 OA
ENDBRANCH  77  81
ENDBRANCH  50  74
BRANCH  62  85
ATOM     85  C   UNL A   1      45.156  27.978  34.949  1.00  0.00     0.023 A 
ATOM     86  C   UNL A   1      45.096  26.828  35.757  1.00  0.00     0.031 A 
ATOM     87  C   UNL A   1      46.357  28.711  34.933  1.00  0.00     0.131 A 
ATOM     88  C   UNL A   1      46.195  26.480  36.559  1.00  0.00     0.055 A 
ATOM     89  C   UNL A   1      47.469  28.320  35.681  1.00  0.00     0.041 A 
ATOM     90  F   UNL A   1      46.472  29.820  34.186  1.00  0.00    -0.206 F 
ATOM     91  C   UNL A   1      47.387  27.206  36.511  1.00  0.00     0.022 A 
BRANCH  88  92
ATOM     92  S   UNL A   1      46.010  25.122  37.748  1.00  0.00     0.124 S 
ATOM     93  O   UNL A   1      47.116  24.244  37.381  1.00  0.00    -0.237 OA
ATOM     94  O   UNL A   1      46.138  25.808  39.029  1.00  0.00    -0.237 OA
ATOM     95  O   UNL A   1      44.678  24.593  37.460  1.00  0.00    -0.744 OA
ENDBRANCH  88  92
ENDBRANCH  62  85
ENDBRANCH  36  37
ENDBRANCH  28  31
ENDBRANCH  26  27
ENDBRANCH  25  26
ENDBRANCH  24  25
ENDBRANCH   1  24
TORSDOF 21
ENDMDL
