MODEL 1
REMARK VINA RESULT:     -12.0      0.000      0.000
REMARK SMILES Cc1ccccc1N(CCC(=O)NCCCCCCNC(=O)c1ccc(-c2c3nc(c(-c4cc(S(=O)(=O)[O-])ccc4F)c4ccc([nH]4)c(-c4cc(S(=O)(=O)[O-])ccc4F)c4nc(c(-c5cc(S(=O)(=O)[O-])ccc5F)c5ccc2[nH]5)C=C4)C=C3)cc1)C(=O)[C@@H]1C=C[C@H]([NH3+])C1
REMARK SMILES IDX 15 1 14 2 13 3 11 4 12 5 10 7 9 8 8 9 7 10 1 11 2 12 3 13
REMARK SMILES IDX 4 14 6 15 5 16 86 17 87 18 88 19 89 20 93 21 90 22 91 23
REMARK SMILES IDX 92 24 16 28 17 29 18 30 19 31 20 32 21 33 22 35 23 36 24 37
REMARK SMILES IDX 85 38 25 39 84 40 26 41 27 42 28 43 78 44 29 45 83 46 77 47
REMARK SMILES IDX 79 48 30 49 82 50 76 51 75 52 31 54 63 55 43 56 62 57 44 58
REMARK SMILES IDX 47 59 61 60 80 61 45 62 46 63 60 65 81 66 48 67 32 68 33 69
REMARK SMILES IDX 41 70 34 71 40 72 42 73 39 74 35 75 36 76 37 77 38 78 64 79
REMARK SMILES IDX 65 80 73 81 66 82 72 83 74 84 71 85 67 86 68 87 69 88 70 89
REMARK SMILES IDX 49 90 50 91 58 92 51 93 57 94 59 95 56 96 52 97 53 98 54 99
REMARK SMILES IDX 55 100
REMARK H PARENT 13 6 92 25 92 26 92 27 20 34 79 53 47 64
REMARK Flexibility Score: inf
ROOT
ATOM      1  C   UNL A   1      32.437  27.120  26.145  1.00  0.00     0.021 C 
ENDROOT
BRANCH   1   2
ATOM      2  C   UNL A   1      33.004  26.113  25.149  1.00  0.00     0.116 C 
BRANCH   2   3
ATOM      3  N   UNL A   1      32.424  26.248  23.821  1.00  0.00    -0.356 N 
ATOM      4  C   UNL A   1      31.796  25.337  23.030  1.00  0.00     0.221 C 
ATOM      5  O   UNL A   1      31.338  25.711  21.946  1.00  0.00    -0.275 OA
ATOM      6  H   UNL A   1      32.500  27.149  23.430  1.00  0.00     0.163 HD
BRANCH   4   7
ATOM      7  C   UNL A   1      31.662  23.890  23.444  1.00  0.00     0.122 C 
BRANCH   7   8
ATOM      8  C   UNL A   1      32.746  23.034  22.783  1.00  0.00     0.135 C 
BRANCH   8   9
ATOM      9  N   UNL A   1      33.414  22.123  23.748  1.00  0.00    -0.311 N 
BRANCH   9  10
ATOM     10  C   UNL A   1      34.633  22.674  24.428  1.00  0.00     0.047 A 
ATOM     11  C   UNL A   1      33.762  23.072  26.884  1.00  0.00     0.046 C 
ATOM     12  C   UNL A   1      34.799  23.042  25.793  1.00  0.00    -0.027 A 
ATOM     13  C   UNL A   1      36.081  23.467  26.269  1.00  0.00     0.005 A 
ATOM     14  C   UNL A   1      37.196  23.563  25.456  1.00  0.00     0.000 A 
ATOM     15  C   UNL A   1      35.811  22.837  23.636  1.00  0.00     0.026 A 
ATOM     16  C   UNL A   1      37.055  23.262  24.124  1.00  0.00     0.002 A 
ENDBRANCH   9  10
BRANCH   9  17
ATOM     17  C   UNL A   1      32.919  20.803  23.915  1.00  0.00     0.234 C 
ATOM     18  O   UNL A   1      32.078  20.287  23.177  1.00  0.00    -0.274 OA
BRANCH  17  19
ATOM     19  C   UNL A   1      33.474  19.890  25.056  1.00  0.00     0.108 C 
ATOM     20  C   UNL A   1      34.742  19.221  24.600  1.00  0.00    -0.012 C 
ATOM     21  C   UNL A   1      32.576  18.674  25.361  1.00  0.00     0.087 C 
ATOM     22  C   UNL A   1      34.555  17.919  24.345  1.00  0.00     0.033 C 
ATOM     23  C   UNL A   1      33.147  17.481  24.585  1.00  0.00     0.205 C 
BRANCH  23  24
ATOM     24  N   UNL A   1      32.498  17.234  23.316  1.00  0.00    -0.352 N 
ATOM     25  H   UNL A   1      32.218  18.122  22.898  1.00  0.00     0.345 HD
ATOM     26  H   UNL A   1      31.674  16.652  23.462  1.00  0.00     0.345 HD
ATOM     27  H   UNL A   1      33.145  16.754  22.691  1.00  0.00     0.345 HD
ENDBRANCH  23  24
ENDBRANCH  17  19
ENDBRANCH   9  17
ENDBRANCH   8   9
ENDBRANCH   7   8
ENDBRANCH   4   7
ENDBRANCH   2   3
ENDBRANCH   1   2
BRANCH   1  28
ATOM     28  C   UNL A   1      32.405  28.576  25.657  1.00  0.00     0.002 C 
BRANCH  28  29
ATOM     29  C   UNL A   1      31.796  29.600  26.627  1.00  0.00     0.002 C 
BRANCH  29  30
ATOM     30  C   UNL A   1      32.716  30.738  27.066  1.00  0.00     0.021 C 
BRANCH  30  31
ATOM     31  C   UNL A   1      34.106  30.307  27.527  1.00  0.00     0.116 C 
BRANCH  31  32
ATOM     32  N   UNL A   1      34.728  31.231  28.457  1.00  0.00    -0.352 N 
ATOM     33  C   UNL A   1      35.854  31.072  29.237  1.00  0.00     0.251 C 
ATOM     34  H   UNL A   1      34.280  32.103  28.544  1.00  0.00     0.163 HD
ATOM     35  O   UNL A   1      36.108  31.894  30.122  1.00  0.00    -0.269 OA
BRANCH  33  36
ATOM     36  C   UNL A   1      36.842  30.001  28.939  1.00  0.00     0.039 A 
ATOM     37  C   UNL A   1      37.103  29.075  29.961  1.00  0.00     0.014 A 
ATOM     38  C   UNL A   1      37.615  29.975  27.780  1.00  0.00     0.014 A 
ATOM     39  C   UNL A   1      38.244  28.275  29.906  1.00  0.00     0.010 A 
ATOM     40  C   UNL A   1      38.782  29.233  27.750  1.00  0.00     0.010 A 
ATOM     41  C   UNL A   1      39.125  28.426  28.836  1.00  0.00    -0.014 A 
BRANCH  41  42
ATOM     42  C   UNL A   1      40.475  27.883  28.832  1.00  0.00     0.031 A 
ATOM     43  C   UNL A   1      40.748  26.504  28.400  1.00  0.00     0.074 A 
ATOM     44  C   UNL A   1      41.512  28.653  29.222  1.00  0.00     0.049 A 
ATOM     45  N   UNL A   1      41.663  25.759  28.926  1.00  0.00    -0.248 NA
ATOM     46  C   UNL A   1      39.993  25.851  27.337  1.00  0.00     0.031 C 
ATOM     47  C   UNL A   1      42.935  28.346  29.119  1.00  0.00     0.029 A 
ATOM     48  N   UNL A   1      41.453  29.779  30.041  1.00  0.00    -0.354 N 
ATOM     49  C   UNL A   1      41.826  24.686  28.090  1.00  0.00     0.074 A 
ATOM     50  C   UNL A   1      40.704  24.730  27.177  1.00  0.00     0.031 C 
ATOM     51  C   UNL A   1      43.591  29.051  30.053  1.00  0.00     0.029 A 
ATOM     52  C   UNL A   1      42.595  29.727  30.865  1.00  0.00     0.049 A 
ATOM     53  H   UNL A   1      40.754  30.471  30.044  1.00  0.00     0.167 HD
ATOM     54  C   UNL A   1      42.976  23.956  28.115  1.00  0.00     0.034 A 
ATOM     55  C   UNL A   1      42.483  29.657  32.221  1.00  0.00     0.034 A 
ATOM     56  C   UNL A   1      43.965  24.479  29.052  1.00  0.00     0.049 A 
ATOM     57  C   UNL A   1      43.171  28.451  32.838  1.00  0.00     0.074 A 
ATOM     58  C   UNL A   1      45.135  25.206  28.892  1.00  0.00     0.029 A 
ATOM     59  N   UNL A   1      43.685  24.506  30.411  1.00  0.00    -0.354 N 
ATOM     60  N   UNL A   1      43.642  27.438  32.163  1.00  0.00    -0.248 NA
ATOM     61  C   UNL A   1      43.310  28.259  34.279  1.00  0.00     0.031 C 
ATOM     62  C   UNL A   1      45.569  25.646  30.170  1.00  0.00     0.029 A 
ATOM     63  C   UNL A   1      44.669  25.181  31.110  1.00  0.00     0.049 A 
ATOM     64  H   UNL A   1      42.889  24.099  30.824  1.00  0.00     0.167 HD
ATOM     65  C   UNL A   1      44.094  26.465  33.026  1.00  0.00     0.074 A 
ATOM     66  C   UNL A   1      43.852  27.029  34.342  1.00  0.00     0.031 C 
ATOM     67  C   UNL A   1      44.595  25.275  32.563  1.00  0.00     0.034 A 
BRANCH  54  68
ATOM     68  C   UNL A   1      43.280  22.960  27.029  1.00  0.00     0.023 A 
ATOM     69  C   UNL A   1      42.768  21.652  27.103  1.00  0.00     0.031 A 
ATOM     70  C   UNL A   1      44.103  23.244  25.923  1.00  0.00     0.131 A 
ATOM     71  C   UNL A   1      43.154  20.668  26.178  1.00  0.00     0.055 A 
ATOM     72  C   UNL A   1      44.529  22.254  25.029  1.00  0.00     0.041 A 
ATOM     73  F   UNL A   1      44.530  24.494  25.680  1.00  0.00    -0.206 F 
ATOM     74  C   UNL A   1      44.066  20.952  25.164  1.00  0.00     0.022 A 
BRANCH  71  75
ATOM     75  S   UNL A   1      42.453  19.002  26.329  1.00  0.00     0.124 S 
ATOM     76  O   UNL A   1      41.129  19.165  25.739  1.00  0.00    -0.237 OA
ATOM     77  O   UNL A   1      43.403  18.198  25.568  1.00  0.00    -0.237 OA
ATOM     78  O   UNL A   1      42.458  18.762  27.771  1.00  0.00    -0.744 OA
ENDBRANCH  71  75
ENDBRANCH  54  68
BRANCH  55  79
ATOM     79  C   UNL A   1      41.236  30.306  32.738  1.00  0.00     0.023 A 
ATOM     80  C   UNL A   1      41.160  31.722  32.708  1.00  0.00     0.031 A 
ATOM     81  C   UNL A   1      40.041  29.592  32.890  1.00  0.00     0.131 A 
ATOM     82  C   UNL A   1      39.915  32.367  32.672  1.00  0.00     0.055 A 
ATOM     83  C   UNL A   1      38.802  30.244  32.925  1.00  0.00     0.041 A 
ATOM     84  F   UNL A   1      40.039  28.251  32.894  1.00  0.00    -0.206 F 
ATOM     85  C   UNL A   1      38.732  31.630  32.774  1.00  0.00     0.022 A 
BRANCH  82  86
ATOM     86  S   UNL A   1      39.821  34.139  32.253  1.00  0.00     0.124 S 
ATOM     87  O   UNL A   1      38.958  34.128  31.076  1.00  0.00    -0.237 OA
ATOM     88  O   UNL A   1      39.250  34.758  33.448  1.00  0.00    -0.237 OA
ATOM     89  O   UNL A   1      41.215  34.504  32.002  1.00  0.00    -0.744 OA
ENDBRANCH  82  86
ENDBRANCH  55  79
BRANCH  67  90
ATOM     90  C   UNL A   1      45.079  24.084  33.386  1.00  0.00     0.023 A 
ATOM     91  C   UNL A   1      46.375  23.955  33.907  1.00  0.00     0.031 A 
ATOM     92  C   UNL A   1      44.219  22.980  33.642  1.00  0.00     0.131 A 
ATOM     93  C   UNL A   1      46.746  22.837  34.687  1.00  0.00     0.055 A 
ATOM     94  C   UNL A   1      44.598  21.858  34.386  1.00  0.00     0.041 A 
ATOM     95  F   UNL A   1      42.957  22.935  33.193  1.00  0.00    -0.206 F 
ATOM     96  C   UNL A   1      45.867  21.786  34.929  1.00  0.00     0.022 A 
BRANCH  93  97
ATOM     97  S   UNL A   1      48.411  22.793  35.403  1.00  0.00     0.124 S 
ATOM     98  O   UNL A   1      49.231  23.321  34.317  1.00  0.00    -0.237 OA
ATOM     99  O   UNL A   1      48.265  23.661  36.567  1.00  0.00    -0.237 OA
ATOM    100  O   UNL A   1      48.621  21.378  35.708  1.00  0.00    -0.744 OA
ENDBRANCH  93  97
ENDBRANCH  67  90
ENDBRANCH  41  42
ENDBRANCH  33  36
ENDBRANCH  31  32
ENDBRANCH  30  31
ENDBRANCH  29  30
ENDBRANCH  28  29
ENDBRANCH   1  28
TORSDOF 22
ENDMDL
MODEL 2
REMARK VINA RESULT:     -11.9      1.227      2.573
REMARK SMILES Cc1ccccc1N(CCC(=O)NCCCCCCNC(=O)c1ccc(-c2c3nc(c(-c4cc(S(=O)(=O)[O-])ccc4F)c4ccc([nH]4)c(-c4cc(S(=O)(=O)[O-])ccc4F)c4nc(c(-c5cc(S(=O)(=O)[O-])ccc5F)c5ccc2[nH]5)C=C4)C=C3)cc1)C(=O)[C@@H]1C=C[C@H]([NH3+])C1
REMARK SMILES IDX 15 1 14 2 13 3 11 4 12 5 10 7 9 8 8 9 7 10 1 11 2 12 3 13
REMARK SMILES IDX 4 14 6 15 5 16 86 17 87 18 88 19 89 20 93 21 90 22 91 23
REMARK SMILES IDX 92 24 16 28 17 29 18 30 19 31 20 32 21 33 22 35 23 36 24 37
REMARK SMILES IDX 85 38 25 39 84 40 26 41 27 42 28 43 78 44 29 45 83 46 77 47
REMARK SMILES IDX 79 48 30 49 82 50 76 51 75 52 31 54 63 55 43 56 62 57 44 58
REMARK SMILES IDX 47 59 61 60 80 61 45 62 46 63 60 65 81 66 48 67 32 68 33 69
REMARK SMILES IDX 41 70 34 71 40 72 42 73 39 74 35 75 36 76 37 77 38 78 64 79
REMARK SMILES IDX 65 80 73 81 66 82 72 83 74 84 71 85 67 86 68 87 69 88 70 89
REMARK SMILES IDX 49 90 50 91 58 92 51 93 57 94 59 95 56 96 52 97 53 98 54 99
REMARK SMILES IDX 55 100
REMARK H PARENT 13 6 92 25 92 26 92 27 20 34 79 53 47 64
REMARK Flexibility Score: inf
ROOT
ATOM      1  C   UNL A   1      31.495  27.513  26.234  1.00  0.00     0.021 C 
ENDROOT
BRANCH   1   2
ATOM      2  C   UNL A   1      30.960  26.300  25.479  1.00  0.00     0.116 C 
BRANCH   2   3
ATOM      3  N   UNL A   1      30.395  25.291  26.365  1.00  0.00    -0.356 N 
ATOM      4  C   UNL A   1      30.655  23.960  26.472  1.00  0.00     0.221 C 
ATOM      5  O   UNL A   1      30.075  23.314  27.349  1.00  0.00    -0.275 OA
ATOM      6  H   UNL A   1      29.712  25.628  26.989  1.00  0.00     0.163 HD
BRANCH   4   7
ATOM      7  C   UNL A   1      31.621  23.265  25.540  1.00  0.00     0.122 C 
BRANCH   7   8
ATOM      8  C   UNL A   1      31.520  21.745  25.691  1.00  0.00     0.135 C 
BRANCH   8   9
ATOM      9  N   UNL A   1      32.811  21.062  25.414  1.00  0.00    -0.311 N 
BRANCH   9  10
ATOM     10  C   UNL A   1      32.727  19.828  24.567  1.00  0.00     0.047 A 
ATOM     11  C   UNL A   1      31.996  20.811  22.231  1.00  0.00     0.046 C 
ATOM     12  C   UNL A   1      32.419  19.721  23.180  1.00  0.00    -0.027 A 
ATOM     13  C   UNL A   1      32.478  18.447  22.530  1.00  0.00     0.005 A 
ATOM     14  C   UNL A   1      32.806  17.275  23.190  1.00  0.00     0.000 A 
ATOM     15  C   UNL A   1      33.015  18.577  25.194  1.00  0.00     0.026 A 
ATOM     16  C   UNL A   1      33.060  17.339  24.537  1.00  0.00     0.002 A 
ENDBRANCH   9  10
BRANCH   9  17
ATOM     17  C   UNL A   1      34.002  21.561  26.006  1.00  0.00     0.234 C 
ATOM     18  O   UNL A   1      34.113  21.829  27.203  1.00  0.00    -0.274 OA
BRANCH  17  19
ATOM     19  C   UNL A   1      35.290  21.753  25.143  1.00  0.00     0.108 C 
ATOM     20  C   UNL A   1      36.251  22.663  25.859  1.00  0.00    -0.012 C 
ATOM     21  C   UNL A   1      35.044  22.532  23.835  1.00  0.00     0.087 C 
ATOM     22  C   UNL A   1      36.306  23.876  25.291  1.00  0.00     0.033 C 
ATOM     23  C   UNL A   1      35.408  23.997  24.103  1.00  0.00     0.205 C 
BRANCH  23  24
ATOM     24  N   UNL A   1      34.279  24.838  24.438  1.00  0.00    -0.352 N 
ATOM     25  H   UNL A   1      34.485  25.361  25.289  1.00  0.00     0.345 HD
ATOM     26  H   UNL A   1      33.454  24.257  24.588  1.00  0.00     0.345 HD
ATOM     27  H   UNL A   1      34.101  25.489  23.674  1.00  0.00     0.345 HD
ENDBRANCH  23  24
ENDBRANCH  17  19
ENDBRANCH   9  17
ENDBRANCH   8   9
ENDBRANCH   7   8
ENDBRANCH   4   7
ENDBRANCH   2   3
ENDBRANCH   1   2
BRANCH   1  28
ATOM     28  C   UNL A   1      32.023  28.653  25.351  1.00  0.00     0.002 C 
BRANCH  28  29
ATOM     29  C   UNL A   1      32.110  30.036  26.014  1.00  0.00     0.002 C 
BRANCH  29  30
ATOM     30  C   UNL A   1      33.504  30.486  26.449  1.00  0.00     0.021 C 
BRANCH  30  31
ATOM     31  C   UNL A   1      33.888  30.116  27.879  1.00  0.00     0.116 C 
BRANCH  31  32
ATOM     32  N   UNL A   1      34.587  31.170  28.590  1.00  0.00    -0.352 N 
ATOM     33  C   UNL A   1      35.812  31.145  29.223  1.00  0.00     0.251 C 
ATOM     34  H   UNL A   1      34.116  32.034  28.626  1.00  0.00     0.163 HD
ATOM     35  O   UNL A   1      36.144  32.083  29.953  1.00  0.00    -0.269 OA
BRANCH  33  36
ATOM     36  C   UNL A   1      36.798  30.071  28.930  1.00  0.00     0.039 A 
ATOM     37  C   UNL A   1      37.045  29.140  29.952  1.00  0.00     0.014 A 
ATOM     38  C   UNL A   1      37.582  30.045  27.779  1.00  0.00     0.014 A 
ATOM     39  C   UNL A   1      38.183  28.335  29.905  1.00  0.00     0.010 A 
ATOM     40  C   UNL A   1      38.746  29.297  27.757  1.00  0.00     0.010 A 
ATOM     41  C   UNL A   1      39.074  28.486  28.844  1.00  0.00    -0.014 A 
BRANCH  41  42
ATOM     42  C   UNL A   1      40.422  27.936  28.851  1.00  0.00     0.031 A 
ATOM     43  C   UNL A   1      40.692  26.557  28.419  1.00  0.00     0.074 A 
ATOM     44  C   UNL A   1      41.459  28.700  29.252  1.00  0.00     0.049 A 
ATOM     45  N   UNL A   1      41.599  25.806  28.952  1.00  0.00    -0.248 NA
ATOM     46  C   UNL A   1      39.944  25.909  27.348  1.00  0.00     0.031 C 
ATOM     47  C   UNL A   1      42.881  28.388  29.161  1.00  0.00     0.029 A 
ATOM     48  N   UNL A   1      41.397  29.825  30.072  1.00  0.00    -0.354 N 
ATOM     49  C   UNL A   1      41.765  24.734  28.115  1.00  0.00     0.074 A 
ATOM     50  C   UNL A   1      40.651  24.785  27.192  1.00  0.00     0.031 C 
ATOM     51  C   UNL A   1      43.533  29.087  30.102  1.00  0.00     0.029 A 
ATOM     52  C   UNL A   1      42.532  29.766  30.906  1.00  0.00     0.049 A 
ATOM     53  H   UNL A   1      40.702  30.521  30.070  1.00  0.00     0.167 HD
ATOM     54  C   UNL A   1      42.911  23.999  28.149  1.00  0.00     0.034 A 
ATOM     55  C   UNL A   1      42.408  29.694  32.261  1.00  0.00     0.034 A 
ATOM     56  C   UNL A   1      43.894  24.516  29.096  1.00  0.00     0.049 A 
ATOM     57  C   UNL A   1      43.084  28.485  32.882  1.00  0.00     0.074 A 
ATOM     58  C   UNL A   1      45.069  25.237  28.948  1.00  0.00     0.029 A 
ATOM     59  N   UNL A   1      43.602  24.542  30.452  1.00  0.00    -0.354 N 
ATOM     60  N   UNL A   1      43.557  27.471  32.210  1.00  0.00    -0.248 NA
ATOM     61  C   UNL A   1      43.209  28.289  34.324  1.00  0.00     0.031 C 
ATOM     62  C   UNL A   1      45.494  25.673  30.230  1.00  0.00     0.029 A 
ATOM     63  C   UNL A   1      44.583  25.210  31.162  1.00  0.00     0.049 A 
ATOM     64  H   UNL A   1      42.801  24.138  30.857  1.00  0.00     0.167 HD
ATOM     65  C   UNL A   1      43.996  26.494  33.075  1.00  0.00     0.074 A 
ATOM     66  C   UNL A   1      43.745  27.056  34.389  1.00  0.00     0.031 C 
ATOM     67  C   UNL A   1      44.496  25.302  32.614  1.00  0.00     0.034 A 
BRANCH  54  68
ATOM     68  C   UNL A   1      43.221  23.003  27.064  1.00  0.00     0.023 A 
ATOM     69  C   UNL A   1      42.665  21.712  27.107  1.00  0.00     0.031 A 
ATOM     70  C   UNL A   1      44.089  23.271  25.989  1.00  0.00     0.131 A 
ATOM     71  C   UNL A   1      43.052  20.725  26.186  1.00  0.00     0.055 A 
ATOM     72  C   UNL A   1      44.514  22.276  25.100  1.00  0.00     0.041 A 
ATOM     73  F   UNL A   1      44.562  24.510  25.773  1.00  0.00    -0.206 F 
ATOM     74  C   UNL A   1      44.006  20.988  25.206  1.00  0.00     0.022 A 
BRANCH  71  75
ATOM     75  S   UNL A   1      42.294  19.080  26.297  1.00  0.00     0.124 S 
ATOM     76  O   UNL A   1      42.370  18.796  27.726  1.00  0.00    -0.237 OA
ATOM     77  O   UNL A   1      40.960  19.319  25.758  1.00  0.00    -0.237 OA
ATOM     78  O   UNL A   1      43.159  18.251  25.458  1.00  0.00    -0.744 OA
ENDBRANCH  71  75
ENDBRANCH  54  68
BRANCH  55  79
ATOM     79  C   UNL A   1      41.159  30.349  32.768  1.00  0.00     0.023 A 
ATOM     80  C   UNL A   1      41.106  31.766  32.778  1.00  0.00     0.031 A 
ATOM     81  C   UNL A   1      39.950  29.650  32.871  1.00  0.00     0.131 A 
ATOM     82  C   UNL A   1      39.872  32.431  32.733  1.00  0.00     0.055 A 
ATOM     83  C   UNL A   1      38.721  30.321  32.896  1.00  0.00     0.041 A 
ATOM     84  F   UNL A   1      39.927  28.309  32.835  1.00  0.00    -0.206 F 
ATOM     85  C   UNL A   1      38.676  31.712  32.785  1.00  0.00     0.022 A 
BRANCH  82  86
ATOM     86  S   UNL A   1      39.816  34.217  32.365  1.00  0.00     0.124 S 
ATOM     87  O   UNL A   1      41.088  34.425  31.679  1.00  0.00    -0.237 OA
ATOM     88  O   UNL A   1      38.621  34.371  31.536  1.00  0.00    -0.237 OA
ATOM     89  O   UNL A   1      39.709  34.834  33.686  1.00  0.00    -0.744 OA
ENDBRANCH  82  86
ENDBRANCH  55  79
BRANCH  67  90
ATOM     90  C   UNL A   1      44.967  24.108  33.439  1.00  0.00     0.023 A 
ATOM     91  C   UNL A   1      46.308  23.840  33.752  1.00  0.00     0.031 A 
ATOM     92  C   UNL A   1      44.038  23.142  33.917  1.00  0.00     0.131 A 
ATOM     93  C   UNL A   1      46.670  22.731  34.548  1.00  0.00     0.055 A 
ATOM     94  C   UNL A   1      44.401  22.025  34.675  1.00  0.00     0.041 A 
ATOM     95  F   UNL A   1      42.722  23.237  33.682  1.00  0.00    -0.206 F 
ATOM     96  C   UNL A   1      45.726  21.819  35.010  1.00  0.00     0.022 A 
BRANCH  93  97
ATOM     97  S   UNL A   1      48.416  22.510  34.987  1.00  0.00     0.124 S 
ATOM     98  O   UNL A   1      49.010  23.767  34.543  1.00  0.00    -0.237 OA
ATOM     99  O   UNL A   1      48.344  22.316  36.431  1.00  0.00    -0.237 OA
ATOM    100  O   UNL A   1      48.820  21.330  34.224  1.00  0.00    -0.744 OA
ENDBRANCH  93  97
ENDBRANCH  67  90
ENDBRANCH  41  42
ENDBRANCH  33  36
ENDBRANCH  31  32
ENDBRANCH  30  31
ENDBRANCH  29  30
ENDBRANCH  28  29
ENDBRANCH   1  28
TORSDOF 22
ENDMDL
MODEL 3
REMARK VINA RESULT:     -11.4      2.505      3.339
REMARK SMILES Cc1ccccc1N(CCC(=O)NCCCCCCNC(=O)c1ccc(-c2c3nc(c(-c4cc(S(=O)(=O)[O-])ccc4F)c4ccc([nH]4)c(-c4cc(S(=O)(=O)[O-])ccc4F)c4nc(c(-c5cc(S(=O)(=O)[O-])ccc5F)c5ccc2[nH]5)C=C4)C=C3)cc1)C(=O)[C@@H]1C=C[C@H]([NH3+])C1
REMARK SMILES IDX 15 1 14 2 13 3 11 4 12 5 10 7 9 8 8 9 7 10 1 11 2 12 3 13
REMARK SMILES IDX 4 14 6 15 5 16 86 17 87 18 88 19 89 20 93 21 90 22 91 23
REMARK SMILES IDX 92 24 16 28 17 29 18 30 19 31 20 32 21 33 22 35 23 36 24 37
REMARK SMILES IDX 85 38 25 39 84 40 26 41 27 42 28 43 78 44 29 45 83 46 77 47
REMARK SMILES IDX 79 48 30 49 82 50 76 51 75 52 31 54 63 55 43 56 62 57 44 58
REMARK SMILES IDX 47 59 61 60 80 61 45 62 46 63 60 65 81 66 48 67 32 68 33 69
REMARK SMILES IDX 41 70 34 71 40 72 42 73 39 74 35 75 36 76 37 77 38 78 64 79
REMARK SMILES IDX 65 80 73 81 66 82 72 83 74 84 71 85 67 86 68 87 69 88 70 89
REMARK SMILES IDX 49 90 50 91 58 92 51 93 57 94 59 95 56 96 52 97 53 98 54 99
REMARK SMILES IDX 55 100
REMARK H PARENT 13 6 92 25 92 26 92 27 20 34 79 53 47 64
REMARK Flexibility Score: inf
ROOT
ATOM      1  C   UNL A   1      30.937  27.170  26.300  1.00  0.00     0.021 C 
ENDROOT
BRANCH   1   2
ATOM      2  C   UNL A   1      30.242  25.968  25.667  1.00  0.00     0.116 C 
BRANCH   2   3
ATOM      3  N   UNL A   1      29.956  24.913  26.629  1.00  0.00    -0.356 N 
ATOM      4  C   UNL A   1      30.348  23.611  26.659  1.00  0.00     0.221 C 
ATOM      5  O   UNL A   1      30.013  22.916  27.623  1.00  0.00    -0.275 OA
ATOM      6  H   UNL A   1      29.385  25.188  27.383  1.00  0.00     0.163 HD
BRANCH   4   7
ATOM      7  C   UNL A   1      31.165  23.005  25.542  1.00  0.00     0.122 C 
BRANCH   7   8
ATOM      8  C   UNL A   1      32.564  22.627  26.036  1.00  0.00     0.135 C 
BRANCH   8   9
ATOM      9  N   UNL A   1      33.592  22.745  24.970  1.00  0.00    -0.311 N 
BRANCH   9  10
ATOM     10  C   UNL A   1      33.451  23.927  24.056  1.00  0.00     0.047 A 
ATOM     11  C   UNL A   1      34.255  25.912  25.594  1.00  0.00     0.046 C 
ATOM     12  C   UNL A   1      33.780  25.289  24.308  1.00  0.00    -0.027 A 
ATOM     13  C   UNL A   1      33.654  26.261  23.264  1.00  0.00     0.005 A 
ATOM     14  C   UNL A   1      33.200  25.952  21.993  1.00  0.00     0.000 A 
ATOM     15  C   UNL A   1      32.951  23.685  22.740  1.00  0.00     0.026 A 
ATOM     16  C   UNL A   1      32.829  24.656  21.735  1.00  0.00     0.002 A 
ENDBRANCH   9  10
BRANCH   9  17
ATOM     17  C   UNL A   1      34.576  21.729  24.838  1.00  0.00     0.234 C 
ATOM     18  O   UNL A   1      34.449  20.589  25.285  1.00  0.00    -0.274 OA
BRANCH  17  19
ATOM     19  C   UNL A   1      35.894  22.007  24.046  1.00  0.00     0.108 C 
ATOM     20  C   UNL A   1      36.981  21.084  24.527  1.00  0.00    -0.012 C 
ATOM     21  C   UNL A   1      36.510  23.389  24.342  1.00  0.00     0.087 C 
ATOM     22  C   UNL A   1      37.891  21.730  25.268  1.00  0.00     0.033 C 
ATOM     23  C   UNL A   1      37.589  23.186  25.412  1.00  0.00     0.205 C 
BRANCH  23  24
ATOM     24  N   UNL A   1      37.144  23.453  26.762  1.00  0.00    -0.352 N 
ATOM     25  H   UNL A   1      37.908  23.865  27.297  1.00  0.00     0.345 HD
ATOM     26  H   UNL A   1      36.853  22.581  27.203  1.00  0.00     0.345 HD
ATOM     27  H   UNL A   1      36.357  24.101  26.739  1.00  0.00     0.345 HD
ENDBRANCH  23  24
ENDBRANCH  17  19
ENDBRANCH   9  17
ENDBRANCH   8   9
ENDBRANCH   7   8
ENDBRANCH   4   7
ENDBRANCH   2   3
ENDBRANCH   1   2
BRANCH   1  28
ATOM     28  C   UNL A   1      31.554  28.167  25.307  1.00  0.00     0.002 C 
BRANCH  28  29
ATOM     29  C   UNL A   1      31.755  29.599  25.826  1.00  0.00     0.002 C 
BRANCH  29  30
ATOM     30  C   UNL A   1      33.170  29.956  26.277  1.00  0.00     0.021 C 
BRANCH  30  31
ATOM     31  C   UNL A   1      33.372  30.021  27.789  1.00  0.00     0.116 C 
BRANCH  31  32
ATOM     32  N   UNL A   1      34.051  31.221  28.240  1.00  0.00    -0.352 N 
ATOM     33  C   UNL A   1      35.315  31.374  28.770  1.00  0.00     0.251 C 
ATOM     34  H   UNL A   1      33.531  32.053  28.154  1.00  0.00     0.163 HD
ATOM     35  O   UNL A   1      35.637  32.446  29.289  1.00  0.00    -0.269 OA
BRANCH  33  36
ATOM     36  C   UNL A   1      36.343  30.312  28.603  1.00  0.00     0.039 A 
ATOM     37  C   UNL A   1      36.800  29.681  29.770  1.00  0.00     0.014 A 
ATOM     38  C   UNL A   1      36.969  30.038  27.389  1.00  0.00     0.014 A 
ATOM     39  C   UNL A   1      37.988  28.950  29.751  1.00  0.00     0.010 A 
ATOM     40  C   UNL A   1      38.181  29.370  27.377  1.00  0.00     0.010 A 
ATOM     41  C   UNL A   1      38.717  28.875  28.566  1.00  0.00    -0.014 A 
BRANCH  41  42
ATOM     42  C   UNL A   1      40.096  28.414  28.506  1.00  0.00     0.031 A 
ATOM     43  C   UNL A   1      40.426  26.985  28.402  1.00  0.00     0.074 A 
ATOM     44  C   UNL A   1      41.107  29.308  28.537  1.00  0.00     0.049 A 
ATOM     45  N   UNL A   1      41.458  26.448  28.962  1.00  0.00    -0.248 NA
ATOM     46  C   UNL A   1      39.600  26.042  27.657  1.00  0.00     0.031 C 
ATOM     47  C   UNL A   1      42.526  29.053  28.312  1.00  0.00     0.029 A 
ATOM     48  N   UNL A   1      41.057  30.604  29.045  1.00  0.00    -0.354 N 
ATOM     49  C   UNL A   1      41.604  25.202  28.409  1.00  0.00     0.074 A 
ATOM     50  C   UNL A   1      40.376  24.953  27.685  1.00  0.00     0.031 C 
ATOM     51  C   UNL A   1      43.233  30.008  28.935  1.00  0.00     0.029 A 
ATOM     52  C   UNL A   1      42.294  30.824  29.683  1.00  0.00     0.049 A 
ATOM     53  H   UNL A   1      40.309  31.239  28.973  1.00  0.00     0.167 HD
ATOM     54  C   UNL A   1      42.804  24.561  28.453  1.00  0.00     0.034 A 
ATOM     55  C   UNL A   1      42.360  31.105  31.015  1.00  0.00     0.034 A 
ATOM     56  C   UNL A   1      43.857  25.357  29.077  1.00  0.00     0.049 A 
ATOM     57  C   UNL A   1      43.218  30.137  31.811  1.00  0.00     0.074 A 
ATOM     58  C   UNL A   1      44.933  26.071  28.573  1.00  0.00     0.029 A 
ATOM     59  N   UNL A   1      43.748  25.724  30.411  1.00  0.00    -0.354 N 
ATOM     60  N   UNL A   1      43.683  29.007  31.354  1.00  0.00    -0.248 NA
ATOM     61  C   UNL A   1      43.552  30.335  33.219  1.00  0.00     0.031 C 
ATOM     62  C   UNL A   1      45.486  26.850  29.623  1.00  0.00     0.029 A 
ATOM     63  C   UNL A   1      44.753  26.604  30.769  1.00  0.00     0.049 A 
ATOM     64  H   UNL A   1      43.047  25.402  31.022  1.00  0.00     0.167 HD
ATOM     65  C   UNL A   1      44.319  28.316  32.361  1.00  0.00     0.074 A 
ATOM     66  C   UNL A   1      44.198  29.191  33.512  1.00  0.00     0.031 C 
ATOM     67  C   UNL A   1      44.854  27.071  32.146  1.00  0.00     0.034 A 
BRANCH  54  68
ATOM     68  C   UNL A   1      43.052  23.331  27.622  1.00  0.00     0.023 A 
ATOM     69  C   UNL A   1      43.990  23.360  26.574  1.00  0.00     0.031 A 
ATOM     70  C   UNL A   1      42.358  22.119  27.803  1.00  0.00     0.131 A 
ATOM     71  C   UNL A   1      44.133  22.271  25.699  1.00  0.00     0.055 A 
ATOM     72  C   UNL A   1      42.463  21.051  26.902  1.00  0.00     0.041 A 
ATOM     73  F   UNL A   1      41.546  21.936  28.857  1.00  0.00    -0.206 F 
ATOM     74  C   UNL A   1      43.344  21.131  25.832  1.00  0.00     0.022 A 
BRANCH  71  75
ATOM     75  S   UNL A   1      45.364  22.374  24.369  1.00  0.00     0.124 S 
ATOM     76  O   UNL A   1      46.051  23.624  24.676  1.00  0.00    -0.237 OA
ATOM     77  O   UNL A   1      46.133  21.151  24.567  1.00  0.00    -0.237 OA
ATOM     78  O   UNL A   1      44.549  22.402  23.155  1.00  0.00    -0.744 OA
ENDBRANCH  71  75
ENDBRANCH  54  68
BRANCH  55  79
ATOM     79  C   UNL A   1      41.138  31.807  31.524  1.00  0.00     0.023 A 
ATOM     80  C   UNL A   1      40.207  31.057  32.286  1.00  0.00     0.031 A 
ATOM     81  C   UNL A   1      41.067  33.204  31.597  1.00  0.00     0.131 A 
ATOM     82  C   UNL A   1      39.356  31.698  33.199  1.00  0.00     0.055 A 
ATOM     83  C   UNL A   1      40.167  33.843  32.459  1.00  0.00     0.041 A 
ATOM     84  F   UNL A   1      41.939  33.972  30.927  1.00  0.00    -0.206 F 
ATOM     85  C   UNL A   1      39.337  33.092  33.293  1.00  0.00     0.022 A 
BRANCH  82  86
ATOM     86  S   UNL A   1      38.444  30.714  34.434  1.00  0.00     0.124 S 
ATOM     87  O   UNL A   1      37.242  31.517  34.635  1.00  0.00    -0.237 OA
ATOM     88  O   UNL A   1      38.238  29.423  33.778  1.00  0.00    -0.237 OA
ATOM     89  O   UNL A   1      39.360  30.664  35.573  1.00  0.00    -0.744 OA
ENDBRANCH  82  86
ENDBRANCH  55  79
BRANCH  67  90
ATOM     90  C   UNL A   1      45.535  26.162  33.165  1.00  0.00     0.023 A 
ATOM     91  C   UNL A   1      44.979  24.976  33.665  1.00  0.00     0.031 A 
ATOM     92  C   UNL A   1      46.801  26.505  33.715  1.00  0.00     0.131 A 
ATOM     93  C   UNL A   1      45.679  24.165  34.586  1.00  0.00     0.055 A 
ATOM     94  C   UNL A   1      47.479  25.720  34.652  1.00  0.00     0.041 A 
ATOM     95  F   UNL A   1      47.457  27.620  33.362  1.00  0.00    -0.206 F 
ATOM     96  C   UNL A   1      46.926  24.530  35.085  1.00  0.00     0.022 A 
BRANCH  93  97
ATOM     97  S   UNL A   1      44.930  22.599  35.109  1.00  0.00     0.124 S 
ATOM     98  O   UNL A   1      43.545  22.755  34.675  1.00  0.00    -0.237 OA
ATOM     99  O   UNL A   1      45.721  21.621  34.369  1.00  0.00    -0.237 OA
ATOM    100  O   UNL A   1      45.128  22.585  36.558  1.00  0.00    -0.744 OA
ENDBRANCH  93  97
ENDBRANCH  67  90
ENDBRANCH  41  42
ENDBRANCH  33  36
ENDBRANCH  31  32
ENDBRANCH  30  31
ENDBRANCH  29  30
ENDBRANCH  28  29
ENDBRANCH   1  28
TORSDOF 22
ENDMDL
