MODEL 1
REMARK VINA RESULT:     -12.9      0.000      0.000
REMARK SMILES C[C@@H]1Cc2ccccc2N1S(=O)(=O)c1cccc(C(=O)NCCCCCCNC(=O)c2ccc(-c3c4nc(c(-c5cc(S(=O)(=O)[O-])ccc5F)c5ccc([nH]5)c(-c5cc(S(=O)(=O)[O-])ccc5F)c5nc(c(-c6cc(S(=O)(=O)[O-])ccc6F)c6ccc3[nH]6)C=C5)C=C4)cc2)c1
REMARK SMILES IDX 25 1 24 2 23 3 22 4 21 5 19 6 20 7 18 9 14 10 15 11 94 12
REMARK SMILES IDX 16 13 17 14 11 15 12 16 13 17 10 18 1 19 2 20 3 21 4 22 9 23
REMARK SMILES IDX 5 24 8 25 6 26 7 27 26 28 27 29 28 30 29 31 30 33 31 34
REMARK SMILES IDX 32 35 93 36 33 37 92 38 34 39 35 40 36 41 86 42 37 43 91 44
REMARK SMILES IDX 85 45 87 46 38 47 90 48 84 49 83 50 39 52 71 53 51 54 70 55
REMARK SMILES IDX 52 56 55 57 69 58 88 59 53 60 54 61 68 63 89 64 56 65 40 66
REMARK SMILES IDX 41 67 49 68 42 69 48 70 50 71 47 72 43 73 44 74 45 75 46 76
REMARK SMILES IDX 72 77 73 78 81 79 74 80 80 81 82 82 79 83 75 84 76 85 77 86
REMARK SMILES IDX 78 87 57 88 58 89 66 90 59 91 65 92 67 93 64 94 60 95 61 96
REMARK SMILES IDX 62 97 63 98
REMARK H PARENT 21 8 28 32 87 51 55 62
REMARK Flexibility Score: inf
ROOT
ATOM      1  C   UNL A   1      34.939  20.954  24.657  1.00  0.00     0.002 C 
ENDROOT
BRANCH   1   2
ATOM      2  C   UNL A   1      34.075  19.710  24.861  1.00  0.00     0.002 C 
BRANCH   2   3
ATOM      3  C   UNL A   1      32.560  19.880  24.760  1.00  0.00     0.021 C 
BRANCH   3   4
ATOM      4  C   UNL A   1      32.012  21.300  24.693  1.00  0.00     0.116 C 
BRANCH   4   5
ATOM      5  N   UNL A   1      31.502  21.818  25.947  1.00  0.00    -0.352 N 
ATOM      6  C   UNL A   1      31.579  23.068  26.514  1.00  0.00     0.251 C 
ATOM      7  O   UNL A   1      31.013  23.241  27.596  1.00  0.00    -0.269 OA
ATOM      8  H   UNL A   1      31.014  21.156  26.488  1.00  0.00     0.163 HD
BRANCH   6   9
ATOM      9  C   UNL A   1      32.373  24.193  25.931  1.00  0.00     0.041 A 
ATOM     10  C   UNL A   1      32.654  26.177  24.587  1.00  0.00     0.088 A 
ATOM     11  C   UNL A   1      34.046  26.068  24.654  1.00  0.00     0.022 A 
ATOM     12  C   UNL A   1      31.824  25.318  25.314  1.00  0.00     0.036 A 
ATOM     13  C   UNL A   1      34.609  25.013  25.360  1.00  0.00     0.002 A 
ATOM     14  C   UNL A   1      33.777  24.065  25.965  1.00  0.00     0.014 A 
BRANCH  10  15
ATOM     15  S   UNL A   1      31.937  27.355  23.467  1.00  0.00     0.264 S 
ATOM     16  O   UNL A   1      31.157  26.607  22.504  1.00  0.00    -0.201 OA
ATOM     17  O   UNL A   1      33.012  28.226  23.027  1.00  0.00    -0.201 OA
BRANCH  15  18
ATOM     18  N   UNL A   1      30.854  28.323  24.412  1.00  0.00    -0.263 N 
ATOM     19  C   UNL A   1      31.658  28.889  26.707  1.00  0.00     0.032 C 
ATOM     20  C   UNL A   1      31.639  29.334  25.253  1.00  0.00     0.101 C 
ATOM     21  C   UNL A   1      30.957  30.709  25.067  1.00  0.00     0.063 C 
ATOM     22  C   UNL A   1      29.895  30.431  24.058  1.00  0.00    -0.021 A 
ATOM     23  C   UNL A   1      29.832  29.081  23.742  1.00  0.00     0.055 A 
ATOM     24  C   UNL A   1      28.992  31.344  23.524  1.00  0.00     0.006 A 
ATOM     25  C   UNL A   1      28.766  28.601  22.998  1.00  0.00     0.027 A 
ATOM     26  C   UNL A   1      27.981  30.874  22.686  1.00  0.00     0.000 A 
ATOM     27  C   UNL A   1      27.856  29.504  22.440  1.00  0.00     0.002 A 
ENDBRANCH  15  18
ENDBRANCH  10  15
ENDBRANCH   6   9
ENDBRANCH   4   5
ENDBRANCH   3   4
ENDBRANCH   2   3
ENDBRANCH   1   2
BRANCH   1  28
ATOM     28  C   UNL A   1      36.087  21.170  25.640  1.00  0.00     0.021 C 
BRANCH  28  29
ATOM     29  C   UNL A   1      37.475  21.344  25.037  1.00  0.00     0.116 C 
BRANCH  29  30
ATOM     30  N   UNL A   1      38.443  20.365  25.502  1.00  0.00    -0.352 N 
ATOM     31  C   UNL A   1      39.626  20.557  26.182  1.00  0.00     0.251 C 
ATOM     32  H   UNL A   1      38.222  19.427  25.301  1.00  0.00     0.163 HD
ATOM     33  O   UNL A   1      40.358  19.596  26.407  1.00  0.00    -0.269 OA
BRANCH  31  34
ATOM     34  C   UNL A   1      40.035  21.920  26.599  1.00  0.00     0.039 A 
ATOM     35  C   UNL A   1      39.359  23.048  26.136  1.00  0.00     0.014 A 
ATOM     36  C   UNL A   1      41.134  22.070  27.451  1.00  0.00     0.014 A 
ATOM     37  C   UNL A   1      39.888  24.315  26.366  1.00  0.00     0.010 A 
ATOM     38  C   UNL A   1      41.606  23.350  27.764  1.00  0.00     0.010 A 
ATOM     39  C   UNL A   1      41.022  24.484  27.179  1.00  0.00    -0.014 A 
BRANCH  39  40
ATOM     40  C   UNL A   1      41.546  25.857  27.419  1.00  0.00     0.031 A 
ATOM     41  C   UNL A   1      40.784  26.857  28.247  1.00  0.00     0.074 A 
ATOM     42  C   UNL A   1      42.753  26.187  26.919  1.00  0.00     0.049 A 
ATOM     43  N   UNL A   1      41.147  28.057  28.623  1.00  0.00    -0.248 NA
ATOM     44  C   UNL A   1      39.441  26.471  28.704  1.00  0.00     0.031 C 
ATOM     45  C   UNL A   1      43.571  25.312  26.080  1.00  0.00     0.029 A 
ATOM     46  N   UNL A   1      43.513  27.322  27.060  1.00  0.00    -0.354 N 
ATOM     47  C   UNL A   1      40.075  28.578  29.338  1.00  0.00     0.074 A 
ATOM     48  C   UNL A   1      39.033  27.575  29.315  1.00  0.00     0.031 C 
ATOM     49  C   UNL A   1      44.743  25.912  25.836  1.00  0.00     0.029 A 
ATOM     50  C   UNL A   1      44.738  27.242  26.440  1.00  0.00     0.049 A 
ATOM     51  H   UNL A   1      43.210  28.116  27.556  1.00  0.00     0.167 HD
ATOM     52  C   UNL A   1      39.976  29.776  29.964  1.00  0.00     0.034 A 
ATOM     53  C   UNL A   1      45.749  28.132  26.357  1.00  0.00     0.034 A 
ATOM     54  C   UNL A   1      41.036  30.753  30.004  1.00  0.00     0.049 A 
ATOM     55  C   UNL A   1      45.620  29.452  27.069  1.00  0.00     0.074 A 
ATOM     56  C   UNL A   1      41.057  31.958  30.686  1.00  0.00     0.029 A 
ATOM     57  N   UNL A   1      42.248  30.655  29.336  1.00  0.00    -0.354 N 
ATOM     58  N   UNL A   1      44.635  29.890  27.817  1.00  0.00    -0.248 NA
ATOM     59  C   UNL A   1      46.735  30.396  26.932  1.00  0.00     0.031 C 
ATOM     60  C   UNL A   1      42.245  32.620  30.368  1.00  0.00     0.029 A 
ATOM     61  C   UNL A   1      43.005  31.796  29.554  1.00  0.00     0.049 A 
ATOM     62  H   UNL A   1      42.530  29.886  28.789  1.00  0.00     0.167 HD
ATOM     63  C   UNL A   1      45.011  31.160  28.242  1.00  0.00     0.074 A 
ATOM     64  C   UNL A   1      46.333  31.402  27.701  1.00  0.00     0.031 C 
ATOM     65  C   UNL A   1      44.317  32.047  29.002  1.00  0.00     0.034 A 
BRANCH  52  66
ATOM     66  C   UNL A   1      38.687  30.120  30.674  1.00  0.00     0.023 A 
ATOM     67  C   UNL A   1      37.727  30.925  30.029  1.00  0.00     0.031 A 
ATOM     68  C   UNL A   1      38.464  29.772  32.018  1.00  0.00     0.131 A 
ATOM     69  C   UNL A   1      36.606  31.377  30.735  1.00  0.00     0.055 A 
ATOM     70  C   UNL A   1      37.322  30.189  32.705  1.00  0.00     0.041 A 
ATOM     71  F   UNL A   1      39.350  29.013  32.682  1.00  0.00    -0.206 F 
ATOM     72  C   UNL A   1      36.393  31.006  32.067  1.00  0.00     0.022 A 
BRANCH  69  73
ATOM     73  S   UNL A   1      35.417  32.519  29.980  1.00  0.00     0.124 S 
ATOM     74  O   UNL A   1      34.357  32.556  30.985  1.00  0.00    -0.237 OA
ATOM     75  O   UNL A   1      36.203  33.744  29.859  1.00  0.00    -0.237 OA
ATOM     76  O   UNL A   1      35.058  31.874  28.722  1.00  0.00    -0.744 OA
ENDBRANCH  69  73
ENDBRANCH  52  66
BRANCH  53  77
ATOM     77  C   UNL A   1      46.982  27.743  25.613  1.00  0.00     0.023 A 
ATOM     78  C   UNL A   1      47.156  28.120  24.267  1.00  0.00     0.031 A 
ATOM     79  C   UNL A   1      47.917  26.864  26.181  1.00  0.00     0.131 A 
ATOM     80  C   UNL A   1      48.179  27.537  23.510  1.00  0.00     0.055 A 
ATOM     81  C   UNL A   1      48.986  26.352  25.444  1.00  0.00     0.041 A 
ATOM     82  F   UNL A   1      47.786  26.467  27.456  1.00  0.00    -0.206 F 
ATOM     83  C   UNL A   1      49.106  26.669  24.094  1.00  0.00     0.022 A 
BRANCH  80  84
ATOM     84  S   UNL A   1      48.238  27.756  21.710  1.00  0.00     0.124 S 
ATOM     85  O   UNL A   1      48.465  26.393  21.242  1.00  0.00    -0.237 OA
ATOM     86  O   UNL A   1      46.913  28.305  21.437  1.00  0.00    -0.237 OA
ATOM     87  O   UNL A   1      49.347  28.684  21.512  1.00  0.00    -0.744 OA
ENDBRANCH  80  84
ENDBRANCH  53  77
BRANCH  65  88
ATOM     88  C   UNL A   1      44.942  33.394  29.287  1.00  0.00     0.023 A 
ATOM     89  C   UNL A   1      44.763  34.465  28.392  1.00  0.00     0.031 A 
ATOM     90  C   UNL A   1      45.823  33.574  30.368  1.00  0.00     0.131 A 
ATOM     91  C   UNL A   1      45.484  35.653  28.571  1.00  0.00     0.055 A 
ATOM     92  C   UNL A   1      46.500  34.777  30.571  1.00  0.00     0.041 A 
ATOM     93  F   UNL A   1      46.037  32.581  31.246  1.00  0.00    -0.206 F 
ATOM     94  C   UNL A   1      46.344  35.819  29.661  1.00  0.00     0.022 A 
BRANCH  91  95
ATOM     95  S   UNL A   1      45.404  36.992  27.348  1.00  0.00     0.124 S 
ATOM     96  O   UNL A   1      43.971  37.058  27.067  1.00  0.00    -0.237 OA
ATOM     97  O   UNL A   1      45.946  38.124  28.094  1.00  0.00    -0.237 OA
ATOM     98  O   UNL A   1      46.232  36.513  26.247  1.00  0.00    -0.744 OA
ENDBRANCH  91  95
ENDBRANCH  65  88
ENDBRANCH  39  40
ENDBRANCH  31  34
ENDBRANCH  29  30
ENDBRANCH  28  29
ENDBRANCH   1  28
TORSDOF 18
ENDMDL
MODEL 2
REMARK VINA RESULT:     -12.5      1.999      7.662
REMARK SMILES C[C@@H]1Cc2ccccc2N1S(=O)(=O)c1cccc(C(=O)NCCCCCCNC(=O)c2ccc(-c3c4nc(c(-c5cc(S(=O)(=O)[O-])ccc5F)c5ccc([nH]5)c(-c5cc(S(=O)(=O)[O-])ccc5F)c5nc(c(-c6cc(S(=O)(=O)[O-])ccc6F)c6ccc3[nH]6)C=C5)C=C4)cc2)c1
REMARK SMILES IDX 25 1 24 2 23 3 22 4 21 5 19 6 20 7 18 9 14 10 15 11 94 12
REMARK SMILES IDX 16 13 17 14 11 15 12 16 13 17 10 18 1 19 2 20 3 21 4 22 9 23
REMARK SMILES IDX 5 24 8 25 6 26 7 27 26 28 27 29 28 30 29 31 30 33 31 34
REMARK SMILES IDX 32 35 93 36 33 37 92 38 34 39 35 40 36 41 86 42 37 43 91 44
REMARK SMILES IDX 85 45 87 46 38 47 90 48 84 49 83 50 39 52 71 53 51 54 70 55
REMARK SMILES IDX 52 56 55 57 69 58 88 59 53 60 54 61 68 63 89 64 56 65 40 66
REMARK SMILES IDX 41 67 49 68 42 69 48 70 50 71 47 72 43 73 44 74 45 75 46 76
REMARK SMILES IDX 72 77 73 78 81 79 74 80 80 81 82 82 79 83 75 84 76 85 77 86
REMARK SMILES IDX 78 87 57 88 58 89 66 90 59 91 65 92 67 93 64 94 60 95 61 96
REMARK SMILES IDX 62 97 63 98
REMARK H PARENT 21 8 28 32 87 51 55 62
REMARK Flexibility Score: inf
ROOT
ATOM      1  C   UNL A   1      34.716  20.987  24.877  1.00  0.00     0.002 C 
ENDROOT
BRANCH   1   2
ATOM      2  C   UNL A   1      33.647  20.909  25.966  1.00  0.00     0.002 C 
BRANCH   2   3
ATOM      3  C   UNL A   1      32.532  21.954  25.934  1.00  0.00     0.021 C 
BRANCH   3   4
ATOM      4  C   UNL A   1      32.821  23.314  26.560  1.00  0.00     0.116 C 
BRANCH   4   5
ATOM      5  N   UNL A   1      34.177  23.792  26.384  1.00  0.00    -0.352 N 
ATOM      6  C   UNL A   1      34.764  24.516  25.372  1.00  0.00     0.251 C 
ATOM      7  O   UNL A   1      35.951  24.820  25.502  1.00  0.00    -0.269 OA
ATOM      8  H   UNL A   1      34.787  23.557  27.120  1.00  0.00     0.163 HD
BRANCH   6   9
ATOM      9  C   UNL A   1      34.064  24.876  24.101  1.00  0.00     0.041 A 
ATOM     10  C   UNL A   1      32.696  26.295  22.710  1.00  0.00     0.088 A 
ATOM     11  C   UNL A   1      32.541  25.277  21.764  1.00  0.00     0.022 A 
ATOM     12  C   UNL A   1      33.544  26.138  23.811  1.00  0.00     0.036 A 
ATOM     13  C   UNL A   1      33.147  24.048  21.988  1.00  0.00     0.002 A 
ATOM     14  C   UNL A   1      33.874  23.840  23.164  1.00  0.00     0.014 A 
BRANCH  10  15
ATOM     15  S   UNL A   1      31.707  27.763  22.564  1.00  0.00     0.264 S 
ATOM     16  O   UNL A   1      30.798  27.557  21.457  1.00  0.00    -0.201 OA
ATOM     17  O   UNL A   1      32.622  28.890  22.564  1.00  0.00    -0.201 OA
BRANCH  15  18
ATOM     18  N   UNL A   1      30.776  27.866  24.022  1.00  0.00    -0.263 N 
ATOM     19  C   UNL A   1      28.792  26.354  24.130  1.00  0.00     0.032 C 
ATOM     20  C   UNL A   1      30.277  26.478  24.435  1.00  0.00     0.101 C 
ATOM     21  C   UNL A   1      30.584  26.313  25.942  1.00  0.00     0.063 C 
ATOM     22  C   UNL A   1      31.328  27.560  26.278  1.00  0.00    -0.021 A 
ATOM     23  C   UNL A   1      31.383  28.430  25.198  1.00  0.00     0.055 A 
ATOM     24  C   UNL A   1      31.853  27.911  27.518  1.00  0.00     0.006 A 
ATOM     25  C   UNL A   1      31.835  29.726  25.385  1.00  0.00     0.027 A 
ATOM     26  C   UNL A   1      32.406  29.181  27.677  1.00  0.00     0.000 A 
ATOM     27  C   UNL A   1      32.379  30.094  26.619  1.00  0.00     0.002 A 
ENDBRANCH  15  18
ENDBRANCH  10  15
ENDBRANCH   6   9
ENDBRANCH   4   5
ENDBRANCH   3   4
ENDBRANCH   2   3
ENDBRANCH   1   2
BRANCH   1  28
ATOM     28  C   UNL A   1      35.897  20.026  24.995  1.00  0.00     0.021 C 
BRANCH  28  29
ATOM     29  C   UNL A   1      37.264  20.654  25.232  1.00  0.00     0.116 C 
BRANCH  29  30
ATOM     30  N   UNL A   1      38.339  19.687  25.367  1.00  0.00    -0.352 N 
ATOM     31  C   UNL A   1      39.625  19.863  25.829  1.00  0.00     0.251 C 
ATOM     32  H   UNL A   1      38.117  18.769  25.086  1.00  0.00     0.163 HD
ATOM     33  O   UNL A   1      40.421  18.929  25.778  1.00  0.00    -0.269 OA
BRANCH  31  34
ATOM     34  C   UNL A   1      40.058  21.186  26.342  1.00  0.00     0.039 A 
ATOM     35  C   UNL A   1      39.591  22.369  25.771  1.00  0.00     0.014 A 
ATOM     36  C   UNL A   1      40.971  21.239  27.401  1.00  0.00     0.014 A 
ATOM     37  C   UNL A   1      40.171  23.584  26.124  1.00  0.00     0.010 A 
ATOM     38  C   UNL A   1      41.480  22.473  27.823  1.00  0.00     0.010 A 
ATOM     39  C   UNL A   1      41.127  23.653  27.152  1.00  0.00    -0.014 A 
BRANCH  39  40
ATOM     40  C   UNL A   1      41.710  24.974  27.515  1.00  0.00     0.031 A 
ATOM     41  C   UNL A   1      43.086  25.380  27.059  1.00  0.00     0.074 A 
ATOM     42  C   UNL A   1      40.963  25.838  28.231  1.00  0.00     0.049 A 
ATOM     43  N   UNL A   1      43.696  26.527  27.214  1.00  0.00    -0.248 NA
ATOM     44  C   UNL A   1      43.886  24.371  26.348  1.00  0.00     0.031 C 
ATOM     45  C   UNL A   1      39.628  25.547  28.751  1.00  0.00     0.029 A 
ATOM     46  N   UNL A   1      41.198  27.134  28.618  1.00  0.00    -0.354 N 
ATOM     47  C   UNL A   1      44.955  26.374  26.644  1.00  0.00     0.074 A 
ATOM     48  C   UNL A   1      45.034  25.011  26.168  1.00  0.00     0.031 C 
ATOM     49  C   UNL A   1      39.135  26.649  29.330  1.00  0.00     0.029 A 
ATOM     50  C   UNL A   1      40.142  27.706  29.287  1.00  0.00     0.049 A 
ATOM     51  H   UNL A   1      42.042  27.607  28.436  1.00  0.00     0.167 HD
ATOM     52  C   UNL A   1      45.946  27.291  26.519  1.00  0.00     0.034 A 
ATOM     53  C   UNL A   1      39.990  28.940  29.813  1.00  0.00     0.034 A 
ATOM     54  C   UNL A   1      45.841  28.656  26.972  1.00  0.00     0.049 A 
ATOM     55  C   UNL A   1      41.100  29.943  29.654  1.00  0.00     0.074 A 
ATOM     56  C   UNL A   1      46.760  29.679  26.812  1.00  0.00     0.029 A 
ATOM     57  N   UNL A   1      44.772  29.192  27.676  1.00  0.00    -0.354 N 
ATOM     58  N   UNL A   1      42.247  29.809  29.030  1.00  0.00    -0.248 NA
ATOM     59  C   UNL A   1      40.899  31.265  30.262  1.00  0.00     0.031 C 
ATOM     60  C   UNL A   1      46.283  30.806  27.485  1.00  0.00     0.029 A 
ATOM     61  C   UNL A   1      45.028  30.516  27.996  1.00  0.00     0.049 A 
ATOM     62  H   UNL A   1      43.951  28.702  27.913  1.00  0.00     0.167 HD
ATOM     63  C   UNL A   1      42.905  31.027  29.170  1.00  0.00     0.074 A 
ATOM     64  C   UNL A   1      42.008  31.900  29.900  1.00  0.00     0.031 C 
ATOM     65  C   UNL A   1      44.143  31.383  28.739  1.00  0.00     0.034 A 
BRANCH  52  66
ATOM     66  C   UNL A   1      47.242  26.875  25.863  1.00  0.00     0.023 A 
ATOM     67  C   UNL A   1      48.245  26.249  26.629  1.00  0.00     0.031 A 
ATOM     68  C   UNL A   1      47.539  27.209  24.529  1.00  0.00     0.131 A 
ATOM     69  C   UNL A   1      49.504  26.005  26.067  1.00  0.00     0.055 A 
ATOM     70  C   UNL A   1      48.782  26.923  23.961  1.00  0.00     0.041 A 
ATOM     71  F   UNL A   1      46.622  27.812  23.757  1.00  0.00    -0.206 F 
ATOM     72  C   UNL A   1      49.775  26.330  24.734  1.00  0.00     0.022 A 
BRANCH  69  73
ATOM     73  S   UNL A   1      50.860  25.322  27.060  1.00  0.00     0.124 S 
ATOM     74  O   UNL A   1      51.315  26.500  27.794  1.00  0.00    -0.237 OA
ATOM     75  O   UNL A   1      50.173  24.315  27.864  1.00  0.00    -0.237 OA
ATOM     76  O   UNL A   1      51.797  24.807  26.068  1.00  0.00    -0.744 OA
ENDBRANCH  69  73
ENDBRANCH  52  66
BRANCH  53  77
ATOM     77  C   UNL A   1      38.698  29.277  30.479  1.00  0.00     0.023 A 
ATOM     78  C   UNL A   1      37.754  30.100  29.836  1.00  0.00     0.031 A 
ATOM     79  C   UNL A   1      38.463  28.916  31.814  1.00  0.00     0.131 A 
ATOM     80  C   UNL A   1      36.675  30.616  30.563  1.00  0.00     0.055 A 
ATOM     81  C   UNL A   1      37.339  29.366  32.510  1.00  0.00     0.041 A 
ATOM     82  F   UNL A   1      39.341  28.143  32.472  1.00  0.00    -0.206 F 
ATOM     83  C   UNL A   1      36.451  30.240  31.891  1.00  0.00     0.022 A 
BRANCH  80  84
ATOM     84  S   UNL A   1      35.624  31.920  29.861  1.00  0.00     0.124 S 
ATOM     85  O   UNL A   1      34.729  32.224  30.973  1.00  0.00    -0.237 OA
ATOM     86  O   UNL A   1      36.608  32.950  29.542  1.00  0.00    -0.237 OA
ATOM     87  O   UNL A   1      35.002  31.277  28.709  1.00  0.00    -0.744 OA
ENDBRANCH  80  84
ENDBRANCH  53  77
BRANCH  65  88
ATOM     88  C   UNL A   1      44.644  32.773  29.062  1.00  0.00     0.023 A 
ATOM     89  C   UNL A   1      44.615  33.785  28.083  1.00  0.00     0.031 A 
ATOM     90  C   UNL A   1      45.274  33.055  30.286  1.00  0.00     0.131 A 
ATOM     91  C   UNL A   1      45.237  35.014  28.330  1.00  0.00     0.055 A 
ATOM     92  C   UNL A   1      45.849  34.300  30.547  1.00  0.00     0.041 A 
ATOM     93  F   UNL A   1      45.339  32.122  31.250  1.00  0.00    -0.206 F 
ATOM     94  C   UNL A   1      45.845  35.281  29.561  1.00  0.00     0.022 A 
BRANCH  91  95
ATOM     95  S   UNL A   1      45.363  36.280  27.035  1.00  0.00     0.124 S 
ATOM     96  O   UNL A   1      45.613  35.469  25.844  1.00  0.00    -0.237 OA
ATOM     97  O   UNL A   1      44.048  36.912  27.093  1.00  0.00    -0.237 OA
ATOM     98  O   UNL A   1      46.479  37.115  27.465  1.00  0.00    -0.744 OA
ENDBRANCH  91  95
ENDBRANCH  65  88
ENDBRANCH  39  40
ENDBRANCH  31  34
ENDBRANCH  29  30
ENDBRANCH  28  29
ENDBRANCH   1  28
TORSDOF 18
ENDMDL
MODEL 3
REMARK VINA RESULT:     -12.5      5.030     10.681
REMARK SMILES C[C@@H]1Cc2ccccc2N1S(=O)(=O)c1cccc(C(=O)NCCCCCCNC(=O)c2ccc(-c3c4nc(c(-c5cc(S(=O)(=O)[O-])ccc5F)c5ccc([nH]5)c(-c5cc(S(=O)(=O)[O-])ccc5F)c5nc(c(-c6cc(S(=O)(=O)[O-])ccc6F)c6ccc3[nH]6)C=C5)C=C4)cc2)c1
REMARK SMILES IDX 25 1 24 2 23 3 22 4 21 5 19 6 20 7 18 9 14 10 15 11 94 12
REMARK SMILES IDX 16 13 17 14 11 15 12 16 13 17 10 18 1 19 2 20 3 21 4 22 9 23
REMARK SMILES IDX 5 24 8 25 6 26 7 27 26 28 27 29 28 30 29 31 30 33 31 34
REMARK SMILES IDX 32 35 93 36 33 37 92 38 34 39 35 40 36 41 86 42 37 43 91 44
REMARK SMILES IDX 85 45 87 46 38 47 90 48 84 49 83 50 39 52 71 53 51 54 70 55
REMARK SMILES IDX 52 56 55 57 69 58 88 59 53 60 54 61 68 63 89 64 56 65 40 66
REMARK SMILES IDX 41 67 49 68 42 69 48 70 50 71 47 72 43 73 44 74 45 75 46 76
REMARK SMILES IDX 72 77 73 78 81 79 74 80 80 81 82 82 79 83 75 84 76 85 77 86
REMARK SMILES IDX 78 87 57 88 58 89 66 90 59 91 65 92 67 93 64 94 60 95 61 96
REMARK SMILES IDX 62 97 63 98
REMARK H PARENT 21 8 28 32 87 51 55 62
REMARK Flexibility Score: inf
ROOT
ATOM      1  C   UNL A   1      32.637  28.618  25.868  1.00  0.00     0.002 C 
ENDROOT
BRANCH   1   2
ATOM      2  C   UNL A   1      33.819  28.062  25.076  1.00  0.00     0.002 C 
BRANCH   2   3
ATOM      3  C   UNL A   1      34.030  28.595  23.659  1.00  0.00     0.021 C 
BRANCH   3   4
ATOM      4  C   UNL A   1      32.906  28.384  22.651  1.00  0.00     0.116 C 
BRANCH   4   5
ATOM      5  N   UNL A   1      33.178  27.390  21.632  1.00  0.00    -0.352 N 
ATOM      6  C   UNL A   1      32.969  26.031  21.607  1.00  0.00     0.251 C 
ATOM      7  O   UNL A   1      33.269  25.425  20.576  1.00  0.00    -0.269 OA
ATOM      8  H   UNL A   1      33.585  27.752  20.812  1.00  0.00     0.163 HD
BRANCH   6   9
ATOM      9  C   UNL A   1      32.478  25.249  22.783  1.00  0.00     0.041 A 
ATOM     10  C   UNL A   1      32.761  23.792  24.686  1.00  0.00     0.088 A 
ATOM     11  C   UNL A   1      31.382  23.576  24.769  1.00  0.00     0.022 A 
ATOM     12  C   UNL A   1      33.296  24.711  23.778  1.00  0.00     0.036 A 
ATOM     13  C   UNL A   1      30.543  24.196  23.852  1.00  0.00     0.002 A 
ATOM     14  C   UNL A   1      31.092  24.999  22.847  1.00  0.00     0.014 A 
BRANCH  10  15
ATOM     15  S   UNL A   1      33.849  22.795  25.674  1.00  0.00     0.264 S 
ATOM     16  O   UNL A   1      33.023  22.054  26.602  1.00  0.00    -0.201 OA
ATOM     17  O   UNL A   1      34.898  23.672  26.161  1.00  0.00    -0.201 OA
BRANCH  15  18
ATOM     18  N   UNL A   1      34.593  21.670  24.586  1.00  0.00    -0.263 N 
ATOM     19  C   UNL A   1      37.019  22.061  24.143  1.00  0.00     0.032 C 
ATOM     20  C   UNL A   1      36.020  21.350  25.044  1.00  0.00     0.101 C 
ATOM     21  C   UNL A   1      36.178  19.813  25.001  1.00  0.00     0.063 C 
ATOM     22  C   UNL A   1      34.816  19.338  24.627  1.00  0.00    -0.021 A 
ATOM     23  C   UNL A   1      33.960  20.398  24.359  1.00  0.00     0.055 A 
ATOM     24  C   UNL A   1      34.407  18.018  24.465  1.00  0.00     0.006 A 
ATOM     25  C   UNL A   1      32.726  20.152  23.781  1.00  0.00     0.027 A 
ATOM     26  C   UNL A   1      33.122  17.769  23.984  1.00  0.00     0.000 A 
ATOM     27  C   UNL A   1      32.290  18.833  23.623  1.00  0.00     0.002 A 
ENDBRANCH  15  18
ENDBRANCH  10  15
ENDBRANCH   6   9
ENDBRANCH   4   5
ENDBRANCH   3   4
ENDBRANCH   2   3
ENDBRANCH   1   2
BRANCH   1  28
ATOM     28  C   UNL A   1      32.447  30.133  25.862  1.00  0.00     0.021 C 
BRANCH  28  29
ATOM     29  C   UNL A   1      32.260  30.801  27.218  1.00  0.00     0.116 C 
BRANCH  29  30
ATOM     30  N   UNL A   1      32.467  32.238  27.198  1.00  0.00    -0.352 N 
ATOM     31  C   UNL A   1      33.550  32.974  27.626  1.00  0.00     0.251 C 
ATOM     32  H   UNL A   1      31.723  32.764  26.823  1.00  0.00     0.163 HD
ATOM     33  O   UNL A   1      33.494  34.201  27.609  1.00  0.00    -0.269 OA
BRANCH  31  34
ATOM     34  C   UNL A   1      34.757  32.290  28.149  1.00  0.00     0.039 A 
ATOM     35  C   UNL A   1      34.728  30.938  28.490  1.00  0.00     0.014 A 
ATOM     36  C   UNL A   1      35.934  33.026  28.324  1.00  0.00     0.014 A 
ATOM     37  C   UNL A   1      35.802  30.375  29.174  1.00  0.00     0.010 A 
ATOM     38  C   UNL A   1      37.049  32.428  28.923  1.00  0.00     0.010 A 
ATOM     39  C   UNL A   1      36.976  31.113  29.405  1.00  0.00    -0.014 A 
BRANCH  39  40
ATOM     40  C   UNL A   1      38.111  30.469  30.122  1.00  0.00     0.031 A 
ATOM     41  C   UNL A   1      39.007  29.470  29.440  1.00  0.00     0.074 A 
ATOM     42  C   UNL A   1      38.361  30.829  31.396  1.00  0.00     0.049 A 
ATOM     43  N   UNL A   1      40.088  28.891  29.898  1.00  0.00    -0.248 NA
ATOM     44  C   UNL A   1      38.643  29.056  28.077  1.00  0.00     0.031 C 
ATOM     45  C   UNL A   1      37.547  31.766  32.169  1.00  0.00     0.029 A 
ATOM     46  N   UNL A   1      39.375  30.481  32.253  1.00  0.00    -0.354 N 
ATOM     47  C   UNL A   1      40.520  28.032  28.895  1.00  0.00     0.074 A 
ATOM     48  C   UNL A   1      39.565  28.140  27.815  1.00  0.00     0.031 C 
ATOM     49  C   UNL A   1      38.126  31.970  33.358  1.00  0.00     0.029 A 
ATOM     50  C   UNL A   1      39.315  31.129  33.465  1.00  0.00     0.049 A 
ATOM     51  H   UNL A   1      40.078  29.831  32.023  1.00  0.00     0.167 HD
ATOM     52  C   UNL A   1      41.619  27.238  28.874  1.00  0.00     0.034 A 
ATOM     53  C   UNL A   1      40.119  31.059  34.548  1.00  0.00     0.034 A 
ATOM     54  C   UNL A   1      42.579  27.165  29.947  1.00  0.00     0.049 A 
ATOM     55  C   UNL A   1      41.337  30.178  34.498  1.00  0.00     0.074 A 
ATOM     56  C   UNL A   1      43.767  26.453  29.980  1.00  0.00     0.029 A 
ATOM     57  N   UNL A   1      42.468  27.806  31.173  1.00  0.00    -0.354 N 
ATOM     58  N   UNL A   1      41.780  29.442  33.505  1.00  0.00    -0.248 NA
ATOM     59  C   UNL A   1      42.168  30.117  35.706  1.00  0.00     0.031 C 
ATOM     60  C   UNL A   1      44.331  26.601  31.248  1.00  0.00     0.029 A 
ATOM     61  C   UNL A   1      43.542  27.471  31.984  1.00  0.00     0.049 A 
ATOM     62  H   UNL A   1      41.735  28.411  31.428  1.00  0.00     0.167 HD
ATOM     63  C   UNL A   1      42.941  28.832  33.968  1.00  0.00     0.074 A 
ATOM     64  C   UNL A   1      43.155  29.318  35.316  1.00  0.00     0.031 C 
ATOM     65  C   UNL A   1      43.748  27.942  33.334  1.00  0.00     0.034 A 
BRANCH  52  66
ATOM     66  C   UNL A   1      41.870  26.377  27.658  1.00  0.00     0.023 A 
ATOM     67  C   UNL A   1      41.499  25.018  27.674  1.00  0.00     0.031 A 
ATOM     68  C   UNL A   1      42.585  26.855  26.545  1.00  0.00     0.131 A 
ATOM     69  C   UNL A   1      41.869  24.179  26.616  1.00  0.00     0.055 A 
ATOM     70  C   UNL A   1      42.913  26.024  25.472  1.00  0.00     0.041 A 
ATOM     71  F   UNL A   1      42.968  28.139  26.481  1.00  0.00    -0.206 F 
ATOM     72  C   UNL A   1      42.567  24.677  25.511  1.00  0.00     0.022 A 
BRANCH  69  73
ATOM     73  S   UNL A   1      41.525  22.399  26.662  1.00  0.00     0.124 S 
ATOM     74  O   UNL A   1      42.302  21.975  27.825  1.00  0.00    -0.237 OA
ATOM     75  O   UNL A   1      40.076  22.373  26.839  1.00  0.00    -0.237 OA
ATOM     76  O   UNL A   1      42.013  21.912  25.377  1.00  0.00    -0.744 OA
ENDBRANCH  69  73
ENDBRANCH  52  66
BRANCH  53  77
ATOM     77  C   UNL A   1      39.796  31.910  35.730  1.00  0.00     0.023 A 
ATOM     78  C   UNL A   1      38.937  31.438  36.740  1.00  0.00     0.031 A 
ATOM     79  C   UNL A   1      40.210  33.250  35.784  1.00  0.00     0.131 A 
ATOM     80  C   UNL A   1      38.439  32.327  37.700  1.00  0.00     0.055 A 
ATOM     81  C   UNL A   1      39.777  34.112  36.794  1.00  0.00     0.041 A 
ATOM     82  F   UNL A   1      41.019  33.748  34.837  1.00  0.00    -0.206 F 
ATOM     83  C   UNL A   1      38.868  33.657  37.744  1.00  0.00     0.022 A 
BRANCH  80  84
ATOM     84  S   UNL A   1      37.097  31.830  38.815  1.00  0.00     0.124 S 
ATOM     85  O   UNL A   1      36.006  32.701  38.390  1.00  0.00    -0.237 OA
ATOM     86  O   UNL A   1      36.944  30.417  38.480  1.00  0.00    -0.237 OA
ATOM     87  O   UNL A   1      37.636  32.098  40.144  1.00  0.00    -0.744 OA
ENDBRANCH  80  84
ENDBRANCH  53  77
BRANCH  65  88
ATOM     88  C   UNL A   1      44.940  27.390  34.085  1.00  0.00     0.023 A 
ATOM     89  C   UNL A   1      44.808  26.234  34.877  1.00  0.00     0.031 A 
ATOM     90  C   UNL A   1      46.162  28.085  34.125  1.00  0.00     0.131 A 
ATOM     91  C   UNL A   1      45.864  25.830  35.704  1.00  0.00     0.055 A 
ATOM     92  C   UNL A   1      47.229  27.649  34.912  1.00  0.00     0.041 A 
ATOM     93  F   UNL A   1      46.336  29.199  33.397  1.00  0.00    -0.206 F 
ATOM     94  C   UNL A   1      47.077  26.525  35.718  1.00  0.00     0.022 A 
BRANCH  91  95
ATOM     95  S   UNL A   1      45.673  24.443  36.859  1.00  0.00     0.124 S 
ATOM     96  O   UNL A   1      44.649  24.949  37.772  1.00  0.00    -0.237 OA
ATOM     97  O   UNL A   1      45.241  23.363  35.976  1.00  0.00    -0.237 OA
ATOM     98  O   UNL A   1      47.001  24.283  37.441  1.00  0.00    -0.744 OA
ENDBRANCH  91  95
ENDBRANCH  65  88
ENDBRANCH  39  40
ENDBRANCH  31  34
ENDBRANCH  29  30
ENDBRANCH  28  29
ENDBRANCH   1  28
TORSDOF 18
ENDMDL
