MODEL 1
REMARK VINA RESULT:     -12.8      0.000      0.000
REMARK SMILES Cc1cc2n(n1)[C@H](C(F)(F)F)CCN2C(=O)c1cnn([C@@H](C)C(=O)NCCCCCCNC(=O)c2ccc(-c3c4nc(c(-c5cc(S(=O)(=O)[O-])ccc5F)c5ccc([nH]5)c(-c5cc(S(=O)(=O)[O-])ccc5F)c5nc(c(-c6cc(S(=O)(=O)[O-])ccc6F)c6ccc3[nH]6)C=C5)C=C4)cc2)c1
REMARK SMILES IDX 28 1 27 2 26 3 25 4 23 5 24 6 21 8 22 9 20 10 17 11 18 12
REMARK SMILES IDX 98 13 19 14 15 15 16 16 14 17 1 18 2 19 3 20 6 21 4 22 5 23
REMARK SMILES IDX 7 24 13 25 12 26 8 27 9 28 10 29 11 30 29 31 30 32 31 33
REMARK SMILES IDX 32 34 33 35 34 37 35 38 36 39 97 40 37 41 96 42 38 43 39 44
REMARK SMILES IDX 40 45 90 46 41 47 95 48 89 49 91 50 42 51 94 52 88 53 87 54
REMARK SMILES IDX 43 56 75 57 55 58 74 59 56 60 59 61 73 62 92 63 57 64 58 65
REMARK SMILES IDX 72 67 93 68 60 69 44 70 45 71 53 72 46 73 52 74 54 75 51 76
REMARK SMILES IDX 47 77 48 78 49 79 50 80 76 81 77 82 85 83 78 84 84 85 86 86
REMARK SMILES IDX 83 87 79 88 80 89 81 90 82 91 61 92 62 93 70 94 63 95 69 96
REMARK SMILES IDX 71 97 68 98 64 99 65 100 66 101 67 102
REMARK H PARENT 25 7 32 36 91 55 59 66
REMARK Flexibility Score: inf
ROOT
ATOM      1  C   UNL A   1      33.833  28.473  23.506  1.00  0.00     0.002 C 
ENDROOT
BRANCH   1   2
ATOM      2  C   UNL A   1      33.191  27.117  23.201  1.00  0.00     0.021 C 
BRANCH   2   3
ATOM      3  C   UNL A   1      32.097  27.151  22.133  1.00  0.00     0.116 C 
BRANCH   3   4
ATOM      4  N   UNL A   1      31.077  28.143  22.420  1.00  0.00    -0.354 N 
ATOM      5  C   UNL A   1      29.849  28.017  22.996  1.00  0.00     0.244 C 
ATOM      6  O   UNL A   1      29.157  29.043  23.056  1.00  0.00    -0.273 OA
ATOM      7  H   UNL A   1      31.312  29.061  22.155  1.00  0.00     0.163 HD
BRANCH   5   8
ATOM      8  C   UNL A   1      29.319  26.722  23.603  1.00  0.00     0.193 C 
ATOM      9  C   UNL A   1      27.823  26.728  23.903  1.00  0.00     0.044 C 
BRANCH   8  10
ATOM     10  N   UNL A   1      30.158  26.224  24.689  1.00  0.00    -0.260 N 
ATOM     11  C   UNL A   1      31.374  24.924  26.006  1.00  0.00     0.078 A 
ATOM     12  C   UNL A   1      31.446  26.284  26.363  1.00  0.00     0.149 A 
ATOM     13  C   UNL A   1      30.560  24.930  24.883  1.00  0.00     0.123 A 
ATOM     14  N   UNL A   1      30.589  27.035  25.672  1.00  0.00    -0.180 NA
BRANCH  11  15
ATOM     15  C   UNL A   1      32.055  23.775  26.536  1.00  0.00     0.262 C 
ATOM     16  O   UNL A   1      31.734  23.262  27.612  1.00  0.00    -0.269 OA
BRANCH  15  17
ATOM     17  N   UNL A   1      33.244  23.353  25.806  1.00  0.00    -0.293 N 
ATOM     18  C   UNL A   1      32.732  18.453  24.790  1.00  0.00     0.069 C 
ATOM     19  C   UNL A   1      33.225  19.841  24.985  1.00  0.00     0.062 A 
ATOM     20  C   UNL A   1      32.532  20.937  25.553  1.00  0.00     0.072 A 
ATOM     21  N   UNL A   1      34.446  20.197  24.571  1.00  0.00    -0.176 NA
ATOM     22  C   UNL A   1      33.390  22.009  25.438  1.00  0.00     0.134 A 
ATOM     23  N   UNL A   1      34.494  21.510  24.801  1.00  0.00    -0.237 N 
ATOM     24  C   UNL A   1      35.591  22.304  24.297  1.00  0.00     0.216 C 
ATOM     25  C   UNL A   1      34.432  24.222  25.622  1.00  0.00     0.130 C 
ATOM     26  C   UNL A   1      35.298  23.807  24.430  1.00  0.00     0.059 C 
BRANCH  24  27
ATOM     27  C   UNL A   1      36.885  21.915  24.977  1.00  0.00     0.410 C 
ATOM     28  F   UNL A   1      36.621  21.184  26.091  1.00  0.00    -0.169 F 
ATOM     29  F   UNL A   1      37.641  21.127  24.176  1.00  0.00    -0.169 F 
ATOM     30  F   UNL A   1      37.633  22.961  25.372  1.00  0.00    -0.169 F 
ENDBRANCH  24  27
ENDBRANCH  15  17
ENDBRANCH  11  15
ENDBRANCH   8  10
ENDBRANCH   5   8
ENDBRANCH   3   4
ENDBRANCH   2   3
ENDBRANCH   1   2
BRANCH   1  31
ATOM     31  C   UNL A   1      33.375  29.167  24.796  1.00  0.00     0.002 C 
BRANCH  31  32
ATOM     32  C   UNL A   1      34.014  28.691  26.108  1.00  0.00     0.021 C 
BRANCH  32  33
ATOM     33  C   UNL A   1      33.725  29.570  27.318  1.00  0.00     0.116 C 
BRANCH  33  34
ATOM     34  N   UNL A   1      34.086  30.967  27.092  1.00  0.00    -0.352 N 
ATOM     35  C   UNL A   1      35.156  31.675  27.603  1.00  0.00     0.251 C 
ATOM     36  H   UNL A   1      33.487  31.471  26.496  1.00  0.00     0.163 HD
ATOM     37  O   UNL A   1      35.125  32.901  27.626  1.00  0.00    -0.269 OA
BRANCH  35  38
ATOM     38  C   UNL A   1      36.312  30.935  28.143  1.00  0.00     0.039 A 
ATOM     39  C   UNL A   1      36.492  29.577  27.875  1.00  0.00     0.014 A 
ATOM     40  C   UNL A   1      37.252  31.634  28.893  1.00  0.00     0.014 A 
ATOM     41  C   UNL A   1      37.673  28.956  28.285  1.00  0.00     0.010 A 
ATOM     42  C   UNL A   1      38.476  31.061  29.160  1.00  0.00     0.010 A 
ATOM     43  C   UNL A   1      38.684  29.707  28.907  1.00  0.00    -0.014 A 
BRANCH  43  44
ATOM     44  C   UNL A   1      39.973  29.092  29.243  1.00  0.00     0.031 A 
ATOM     45  C   UNL A   1      40.271  28.886  30.691  1.00  0.00     0.074 A 
ATOM     46  C   UNL A   1      40.806  28.548  28.329  1.00  0.00     0.049 A 
ATOM     47  N   UNL A   1      41.247  29.381  31.378  1.00  0.00    -0.248 NA
ATOM     48  C   UNL A   1      39.343  28.074  31.491  1.00  0.00     0.031 C 
ATOM     49  C   UNL A   1      40.600  28.379  26.886  1.00  0.00     0.029 A 
ATOM     50  N   UNL A   1      41.999  27.920  28.536  1.00  0.00    -0.354 N 
ATOM     51  C   UNL A   1      41.170  28.825  32.654  1.00  0.00     0.074 A 
ATOM     52  C   UNL A   1      39.911  28.125  32.698  1.00  0.00     0.031 C 
ATOM     53  C   UNL A   1      41.495  27.495  26.398  1.00  0.00     0.029 A 
ATOM     54  C   UNL A   1      42.454  27.195  27.444  1.00  0.00     0.049 A 
ATOM     55  H   UNL A   1      42.493  27.975  29.386  1.00  0.00     0.167 HD
ATOM     56  C   UNL A   1      42.224  28.865  33.519  1.00  0.00     0.034 A 
ATOM     57  C   UNL A   1      43.542  26.393  27.379  1.00  0.00     0.034 A 
ATOM     58  C   UNL A   1      43.201  29.846  33.105  1.00  0.00     0.049 A 
ATOM     59  C   UNL A   1      44.472  26.815  28.444  1.00  0.00     0.074 A 
ATOM     60  C   UNL A   1      43.175  31.213  32.899  1.00  0.00     0.029 A 
ATOM     61  N   UNL A   1      44.351  29.410  32.489  1.00  0.00    -0.354 N 
ATOM     62  N   UNL A   1      45.069  27.973  28.445  1.00  0.00    -0.248 NA
ATOM     63  C   UNL A   1      44.416  26.145  29.733  1.00  0.00     0.031 C 
ATOM     64  C   UNL A   1      43.997  31.425  31.752  1.00  0.00     0.029 A 
ATOM     65  C   UNL A   1      44.519  30.188  31.370  1.00  0.00     0.049 A 
ATOM     66  H   UNL A   1      44.940  28.682  32.792  1.00  0.00     0.167 HD
ATOM     67  C   UNL A   1      45.063  28.372  29.769  1.00  0.00     0.074 A 
ATOM     68  C   UNL A   1      44.769  27.159  30.527  1.00  0.00     0.031 C 
ATOM     69  C   UNL A   1      45.015  29.695  30.103  1.00  0.00     0.034 A 
BRANCH  56  70
ATOM     70  C   UNL A   1      42.531  27.850  34.601  1.00  0.00     0.023 A 
ATOM     71  C   UNL A   1      43.266  26.702  34.236  1.00  0.00     0.031 A 
ATOM     72  C   UNL A   1      41.930  27.806  35.878  1.00  0.00     0.131 A 
ATOM     73  C   UNL A   1      43.307  25.566  35.064  1.00  0.00     0.055 A 
ATOM     74  C   UNL A   1      42.038  26.702  36.733  1.00  0.00     0.041 A 
ATOM     75  F   UNL A   1      41.129  28.778  36.331  1.00  0.00    -0.206 F 
ATOM     76  C   UNL A   1      42.702  25.561  36.317  1.00  0.00     0.022 A 
BRANCH  73  77
ATOM     77  S   UNL A   1      43.989  24.027  34.391  1.00  0.00     0.124 S 
ATOM     78  O   UNL A   1      45.006  23.696  35.384  1.00  0.00    -0.237 OA
ATOM     79  O   UNL A   1      42.812  23.167  34.359  1.00  0.00    -0.237 OA
ATOM     80  O   UNL A   1      44.505  24.431  33.084  1.00  0.00    -0.744 OA
ENDBRANCH  73  77
ENDBRANCH  56  70
BRANCH  57  81
ATOM     81  C   UNL A   1      43.649  25.117  26.643  1.00  0.00     0.023 A 
ATOM     82  C   UNL A   1      42.878  23.987  26.970  1.00  0.00     0.031 A 
ATOM     83  C   UNL A   1      44.364  25.086  25.428  1.00  0.00     0.131 A 
ATOM     84  C   UNL A   1      42.829  22.893  26.083  1.00  0.00     0.055 A 
ATOM     85  C   UNL A   1      44.323  23.996  24.568  1.00  0.00     0.041 A 
ATOM     86  F   UNL A   1      45.053  26.151  24.985  1.00  0.00    -0.206 F 
ATOM     87  C   UNL A   1      43.538  22.902  24.882  1.00  0.00     0.022 A 
BRANCH  84  88
ATOM     88  S   UNL A   1      41.769  21.460  26.442  1.00  0.00     0.124 S 
ATOM     89  O   UNL A   1      40.457  21.940  26.029  1.00  0.00    -0.237 OA
ATOM     90  O   UNL A   1      42.377  20.419  25.621  1.00  0.00    -0.237 OA
ATOM     91  O   UNL A   1      41.929  21.278  27.886  1.00  0.00    -0.744 OA
ENDBRANCH  84  88
ENDBRANCH  57  81
BRANCH  69  92
ATOM     92  C   UNL A   1      45.243  30.715  29.006  1.00  0.00     0.023 A 
ATOM     93  C   UNL A   1      46.516  31.169  28.592  1.00  0.00     0.031 A 
ATOM     94  C   UNL A   1      44.126  31.150  28.274  1.00  0.00     0.131 A 
ATOM     95  C   UNL A   1      46.634  32.040  27.492  1.00  0.00     0.055 A 
ATOM     96  C   UNL A   1      44.248  31.997  27.173  1.00  0.00     0.041 A 
ATOM     97  F   UNL A   1      42.894  30.727  28.599  1.00  0.00    -0.206 F 
ATOM     98  C   UNL A   1      45.503  32.451  26.780  1.00  0.00     0.022 A 
BRANCH  95  99
ATOM     99  S   UNL A   1      48.271  32.653  26.976  1.00  0.00     0.124 S 
ATOM    100  O   UNL A   1      47.962  33.581  25.894  1.00  0.00    -0.237 OA
ATOM    101  O   UNL A   1      48.786  33.256  28.203  1.00  0.00    -0.237 OA
ATOM    102  O   UNL A   1      48.972  31.438  26.555  1.00  0.00    -0.744 OA
ENDBRANCH  95  99
ENDBRANCH  69  92
ENDBRANCH  43  44
ENDBRANCH  35  38
ENDBRANCH  33  34
ENDBRANCH  32  33
ENDBRANCH  31  32
ENDBRANCH   1  31
TORSDOF 20
ENDMDL
MODEL 2
REMARK VINA RESULT:     -12.7      3.361      9.160
REMARK SMILES Cc1cc2n(n1)[C@H](C(F)(F)F)CCN2C(=O)c1cnn([C@@H](C)C(=O)NCCCCCCNC(=O)c2ccc(-c3c4nc(c(-c5cc(S(=O)(=O)[O-])ccc5F)c5ccc([nH]5)c(-c5cc(S(=O)(=O)[O-])ccc5F)c5nc(c(-c6cc(S(=O)(=O)[O-])ccc6F)c6ccc3[nH]6)C=C5)C=C4)cc2)c1
REMARK SMILES IDX 28 1 27 2 26 3 25 4 23 5 24 6 21 8 22 9 20 10 17 11 18 12
REMARK SMILES IDX 98 13 19 14 15 15 16 16 14 17 1 18 2 19 3 20 6 21 4 22 5 23
REMARK SMILES IDX 7 24 13 25 12 26 8 27 9 28 10 29 11 30 29 31 30 32 31 33
REMARK SMILES IDX 32 34 33 35 34 37 35 38 36 39 97 40 37 41 96 42 38 43 39 44
REMARK SMILES IDX 40 45 90 46 41 47 95 48 89 49 91 50 42 51 94 52 88 53 87 54
REMARK SMILES IDX 43 56 75 57 55 58 74 59 56 60 59 61 73 62 92 63 57 64 58 65
REMARK SMILES IDX 72 67 93 68 60 69 44 70 45 71 53 72 46 73 52 74 54 75 51 76
REMARK SMILES IDX 47 77 48 78 49 79 50 80 76 81 77 82 85 83 78 84 84 85 86 86
REMARK SMILES IDX 83 87 79 88 80 89 81 90 82 91 61 92 62 93 70 94 63 95 69 96
REMARK SMILES IDX 71 97 68 98 64 99 65 100 66 101 67 102
REMARK H PARENT 25 7 32 36 91 55 59 66
REMARK Flexibility Score: inf
ROOT
ATOM      1  C   UNL A   1      40.874  21.357  27.167  1.00  0.00     0.002 C 
ENDROOT
BRANCH   1   2
ATOM      2  C   UNL A   1      40.008  21.640  25.936  1.00  0.00     0.021 C 
BRANCH   2   3
ATOM      3  C   UNL A   1      38.742  22.451  26.216  1.00  0.00     0.116 C 
BRANCH   3   4
ATOM      4  N   UNL A   1      38.022  22.785  25.001  1.00  0.00    -0.354 N 
ATOM      5  C   UNL A   1      36.829  22.337  24.520  1.00  0.00     0.244 C 
ATOM      6  O   UNL A   1      36.488  22.757  23.406  1.00  0.00    -0.273 OA
ATOM      7  H   UNL A   1      38.471  23.447  24.427  1.00  0.00     0.163 HD
BRANCH   5   8
ATOM      8  C   UNL A   1      35.892  21.411  25.289  1.00  0.00     0.193 C 
ATOM      9  C   UNL A   1      36.033  19.933  24.938  1.00  0.00     0.044 C 
BRANCH   8  10
ATOM     10  N   UNL A   1      34.518  21.902  25.325  1.00  0.00    -0.260 N 
ATOM     11  C   UNL A   1      32.723  23.166  25.612  1.00  0.00     0.078 A 
ATOM     12  C   UNL A   1      32.446  21.974  24.917  1.00  0.00     0.149 A 
ATOM     13  C   UNL A   1      34.093  23.104  25.822  1.00  0.00     0.123 A 
ATOM     14  N   UNL A   1      33.491  21.148  24.892  1.00  0.00    -0.180 NA
BRANCH  11  15
ATOM     15  C   UNL A   1      31.879  24.284  25.937  1.00  0.00     0.262 C 
ATOM     16  O   UNL A   1      31.146  24.283  26.930  1.00  0.00    -0.269 OA
BRANCH  15  17
ATOM     17  N   UNL A   1      31.824  25.345  24.940  1.00  0.00    -0.293 N 
ATOM     18  C   UNL A   1      34.546  29.198  26.687  1.00  0.00     0.069 C 
ATOM     19  C   UNL A   1      33.631  28.307  25.929  1.00  0.00     0.062 A 
ATOM     20  C   UNL A   1      33.268  26.972  26.235  1.00  0.00     0.072 A 
ATOM     21  N   UNL A   1      33.063  28.718  24.791  1.00  0.00    -0.176 NA
ATOM     22  C   UNL A   1      32.462  26.567  25.194  1.00  0.00     0.134 A 
ATOM     23  N   UNL A   1      32.419  27.639  24.343  1.00  0.00    -0.237 N 
ATOM     24  C   UNL A   1      31.840  27.625  23.019  1.00  0.00     0.216 C 
ATOM     25  C   UNL A   1      30.937  25.296  23.753  1.00  0.00     0.130 C 
ATOM     26  C   UNL A   1      31.407  26.206  22.616  1.00  0.00     0.059 C 
BRANCH  24  27
ATOM     27  C   UNL A   1      30.701  28.615  22.926  1.00  0.00     0.410 C 
ATOM     28  F   UNL A   1      29.591  28.001  22.440  1.00  0.00    -0.169 F 
ATOM     29  F   UNL A   1      30.366  29.092  24.149  1.00  0.00    -0.169 F 
ATOM     30  F   UNL A   1      30.947  29.661  22.116  1.00  0.00    -0.169 F 
ENDBRANCH  24  27
ENDBRANCH  15  17
ENDBRANCH  11  15
ENDBRANCH   8  10
ENDBRANCH   5   8
ENDBRANCH   3   4
ENDBRANCH   2   3
ENDBRANCH   1   2
BRANCH   1  31
ATOM     31  C   UNL A   1      41.375  19.915  27.327  1.00  0.00     0.002 C 
BRANCH  31  32
ATOM     32  C   UNL A   1      41.991  19.249  26.088  1.00  0.00     0.021 C 
BRANCH  32  33
ATOM     33  C   UNL A   1      43.463  18.882  26.223  1.00  0.00     0.116 C 
BRANCH  33  34
ATOM     34  N   UNL A   1      44.168  18.920  24.946  1.00  0.00    -0.352 N 
ATOM     35  C   UNL A   1      44.509  20.018  24.180  1.00  0.00     0.251 C 
ATOM     36  H   UNL A   1      44.438  18.047  24.581  1.00  0.00     0.163 HD
ATOM     37  O   UNL A   1      44.760  19.880  22.987  1.00  0.00    -0.269 OA
BRANCH  35  38
ATOM     38  C   UNL A   1      44.534  21.352  24.810  1.00  0.00     0.039 A 
ATOM     39  C   UNL A   1      43.522  22.283  24.573  1.00  0.00     0.014 A 
ATOM     40  C   UNL A   1      45.569  21.648  25.690  1.00  0.00     0.014 A 
ATOM     41  C   UNL A   1      43.512  23.473  25.303  1.00  0.00     0.010 A 
ATOM     42  C   UNL A   1      45.473  22.747  26.514  1.00  0.00     0.010 A 
ATOM     43  C   UNL A   1      44.475  23.696  26.299  1.00  0.00    -0.014 A 
BRANCH  43  44
ATOM     44  C   UNL A   1      44.411  24.890  27.150  1.00  0.00     0.031 A 
ATOM     45  C   UNL A   1      45.548  25.853  27.056  1.00  0.00     0.074 A 
ATOM     46  C   UNL A   1      43.319  25.249  27.859  1.00  0.00     0.049 A 
ATOM     47  N   UNL A   1      46.356  26.220  27.996  1.00  0.00    -0.248 NA
ATOM     48  C   UNL A   1      45.864  26.443  25.747  1.00  0.00     0.031 C 
ATOM     49  C   UNL A   1      41.995  24.616  27.886  1.00  0.00     0.029 A 
ATOM     50  N   UNL A   1      43.140  26.351  28.642  1.00  0.00    -0.354 N 
ATOM     51  C   UNL A   1      47.181  27.207  27.461  1.00  0.00     0.074 A 
ATOM     52  C   UNL A   1      46.912  27.214  26.045  1.00  0.00     0.031 C 
ATOM     53  C   UNL A   1      41.097  25.462  28.435  1.00  0.00     0.029 A 
ATOM     54  C   UNL A   1      41.816  26.599  28.975  1.00  0.00     0.049 A 
ATOM     55  H   UNL A   1      43.884  26.921  28.944  1.00  0.00     0.167 HD
ATOM     56  C   UNL A   1      47.911  28.042  28.255  1.00  0.00     0.034 A 
ATOM     57  C   UNL A   1      41.319  27.663  29.648  1.00  0.00     0.034 A 
ATOM     58  C   UNL A   1      48.012  27.523  29.601  1.00  0.00     0.049 A 
ATOM     59  C   UNL A   1      42.417  28.242  30.444  1.00  0.00     0.074 A 
ATOM     60  C   UNL A   1      48.521  26.365  30.157  1.00  0.00     0.029 A 
ATOM     61  N   UNL A   1      47.220  28.076  30.580  1.00  0.00    -0.354 N 
ATOM     62  N   UNL A   1      42.979  27.614  31.438  1.00  0.00    -0.248 NA
ATOM     63  C   UNL A   1      43.196  29.333  29.880  1.00  0.00     0.031 C 
ATOM     64  C   UNL A   1      47.609  26.029  31.201  1.00  0.00     0.029 A 
ATOM     65  C   UNL A   1      46.638  27.031  31.255  1.00  0.00     0.049 A 
ATOM     66  H   UNL A   1      47.095  29.035  30.762  1.00  0.00     0.167 HD
ATOM     67  C   UNL A   1      44.323  27.921  31.334  1.00  0.00     0.074 A 
ATOM     68  C   UNL A   1      44.379  29.077  30.444  1.00  0.00     0.031 C 
ATOM     69  C   UNL A   1      45.278  27.038  31.750  1.00  0.00     0.034 A 
BRANCH  56  70
ATOM     70  C   UNL A   1      48.325  29.460  27.920  1.00  0.00     0.023 A 
ATOM     71  C   UNL A   1      47.303  30.406  27.693  1.00  0.00     0.031 A 
ATOM     72  C   UNL A   1      49.626  29.870  27.554  1.00  0.00     0.131 A 
ATOM     73  C   UNL A   1      47.571  31.632  27.056  1.00  0.00     0.055 A 
ATOM     74  C   UNL A   1      49.899  31.122  26.991  1.00  0.00     0.041 A 
ATOM     75  F   UNL A   1      50.684  29.054  27.625  1.00  0.00    -0.206 F 
ATOM     76  C   UNL A   1      48.866  32.000  26.710  1.00  0.00     0.022 A 
BRANCH  73  77
ATOM     77  S   UNL A   1      46.171  32.645  26.506  1.00  0.00     0.124 S 
ATOM     78  O   UNL A   1      45.429  31.699  25.678  1.00  0.00    -0.237 OA
ATOM     79  O   UNL A   1      45.554  33.018  27.774  1.00  0.00    -0.237 OA
ATOM     80  O   UNL A   1      46.813  33.737  25.777  1.00  0.00    -0.744 OA
ENDBRANCH  73  77
ENDBRANCH  56  70
BRANCH  57  81
ATOM     81  C   UNL A   1      40.038  28.349  29.381  1.00  0.00     0.023 A 
ATOM     82  C   UNL A   1      39.197  28.812  30.410  1.00  0.00     0.031 A 
ATOM     83  C   UNL A   1      39.749  28.771  28.067  1.00  0.00     0.131 A 
ATOM     84  C   UNL A   1      38.130  29.680  30.104  1.00  0.00     0.055 A 
ATOM     85  C   UNL A   1      38.684  29.614  27.773  1.00  0.00     0.041 A 
ATOM     86  F   UNL A   1      40.547  28.458  27.032  1.00  0.00    -0.206 F 
ATOM     87  C   UNL A   1      37.883  30.089  28.794  1.00  0.00     0.022 A 
BRANCH  84  88
ATOM     88  S   UNL A   1      37.087  30.362  31.427  1.00  0.00     0.124 S 
ATOM     89  O   UNL A   1      38.018  31.234  32.131  1.00  0.00    -0.237 OA
ATOM     90  O   UNL A   1      36.022  31.010  30.671  1.00  0.00    -0.237 OA
ATOM     91  O   UNL A   1      36.674  29.173  32.176  1.00  0.00    -0.744 OA
ENDBRANCH  84  88
ENDBRANCH  57  81
BRANCH  69  92
ATOM     92  C   UNL A   1      44.835  25.843  32.569  1.00  0.00     0.023 A 
ATOM     93  C   UNL A   1      44.559  25.886  33.955  1.00  0.00     0.031 A 
ATOM     94  C   UNL A   1      44.570  24.644  31.888  1.00  0.00     0.131 A 
ATOM     95  C   UNL A   1      44.051  24.749  34.611  1.00  0.00     0.055 A 
ATOM     96  C   UNL A   1      44.047  23.525  32.537  1.00  0.00     0.041 A 
ATOM     97  F   UNL A   1      44.781  24.553  30.565  1.00  0.00    -0.206 F 
ATOM     98  C   UNL A   1      43.791  23.571  33.904  1.00  0.00     0.022 A 
BRANCH  95  99
ATOM     99  S   UNL A   1      43.724  24.791  36.404  1.00  0.00     0.124 S 
ATOM    100  O   UNL A   1      44.191  26.113  36.805  1.00  0.00    -0.237 OA
ATOM    101  O   UNL A   1      42.280  24.579  36.468  1.00  0.00    -0.237 OA
ATOM    102  O   UNL A   1      44.525  23.679  36.921  1.00  0.00    -0.744 OA
ENDBRANCH  95  99
ENDBRANCH  69  92
ENDBRANCH  43  44
ENDBRANCH  35  38
ENDBRANCH  33  34
ENDBRANCH  32  33
ENDBRANCH  31  32
ENDBRANCH   1  31
TORSDOF 20
ENDMDL
MODEL 3
REMARK VINA RESULT:     -12.6      3.187      9.134
REMARK SMILES Cc1cc2n(n1)[C@H](C(F)(F)F)CCN2C(=O)c1cnn([C@@H](C)C(=O)NCCCCCCNC(=O)c2ccc(-c3c4nc(c(-c5cc(S(=O)(=O)[O-])ccc5F)c5ccc([nH]5)c(-c5cc(S(=O)(=O)[O-])ccc5F)c5nc(c(-c6cc(S(=O)(=O)[O-])ccc6F)c6ccc3[nH]6)C=C5)C=C4)cc2)c1
REMARK SMILES IDX 28 1 27 2 26 3 25 4 23 5 24 6 21 8 22 9 20 10 17 11 18 12
REMARK SMILES IDX 98 13 19 14 15 15 16 16 14 17 1 18 2 19 3 20 6 21 4 22 5 23
REMARK SMILES IDX 7 24 13 25 12 26 8 27 9 28 10 29 11 30 29 31 30 32 31 33
REMARK SMILES IDX 32 34 33 35 34 37 35 38 36 39 97 40 37 41 96 42 38 43 39 44
REMARK SMILES IDX 40 45 90 46 41 47 95 48 89 49 91 50 42 51 94 52 88 53 87 54
REMARK SMILES IDX 43 56 75 57 55 58 74 59 56 60 59 61 73 62 92 63 57 64 58 65
REMARK SMILES IDX 72 67 93 68 60 69 44 70 45 71 53 72 46 73 52 74 54 75 51 76
REMARK SMILES IDX 47 77 48 78 49 79 50 80 76 81 77 82 85 83 78 84 84 85 86 86
REMARK SMILES IDX 83 87 79 88 80 89 81 90 82 91 61 92 62 93 70 94 63 95 69 96
REMARK SMILES IDX 71 97 68 98 64 99 65 100 66 101 67 102
REMARK H PARENT 25 7 32 36 91 55 59 66
REMARK Flexibility Score: inf
ROOT
ATOM      1  C   UNL A   1      41.480  21.094  27.309  1.00  0.00     0.002 C 
ENDROOT
BRANCH   1   2
ATOM      2  C   UNL A   1      40.536  21.318  26.124  1.00  0.00     0.021 C 
BRANCH   2   3
ATOM      3  C   UNL A   1      39.216  22.004  26.478  1.00  0.00     0.116 C 
BRANCH   3   4
ATOM      4  N   UNL A   1      38.548  22.550  25.310  1.00  0.00    -0.354 N 
ATOM      5  C   UNL A   1      37.325  22.282  24.776  1.00  0.00     0.244 C 
ATOM      6  O   UNL A   1      37.042  22.864  23.720  1.00  0.00    -0.273 OA
ATOM      7  H   UNL A   1      39.068  23.229  24.822  1.00  0.00     0.163 HD
BRANCH   5   8
ATOM      8  C   UNL A   1      36.292  21.367  25.426  1.00  0.00     0.193 C 
ATOM      9  C   UNL A   1      36.338  19.918  24.947  1.00  0.00     0.044 C 
BRANCH   8  10
ATOM     10  N   UNL A   1      34.957  21.957  25.459  1.00  0.00    -0.260 N 
ATOM     11  C   UNL A   1      33.220  23.250  25.919  1.00  0.00     0.078 A 
ATOM     12  C   UNL A   1      32.965  22.346  24.871  1.00  0.00     0.149 A 
ATOM     13  C   UNL A   1      34.544  22.996  26.247  1.00  0.00     0.123 A 
ATOM     14  N   UNL A   1      33.954  21.466  24.710  1.00  0.00    -0.180 NA
BRANCH  11  15
ATOM     15  C   UNL A   1      32.409  24.300  26.474  1.00  0.00     0.262 C 
ATOM     16  O   UNL A   1      31.568  24.083  27.351  1.00  0.00    -0.269 OA
BRANCH  15  17
ATOM     17  N   UNL A   1      32.531  25.600  25.826  1.00  0.00    -0.293 N 
ATOM     18  C   UNL A   1      28.055  26.707  23.814  1.00  0.00     0.069 C 
ATOM     19  C   UNL A   1      29.487  26.660  24.206  1.00  0.00     0.062 A 
ATOM     20  C   UNL A   1      30.137  25.689  25.007  1.00  0.00     0.072 A 
ATOM     21  N   UNL A   1      30.330  27.628  23.832  1.00  0.00    -0.176 NA
ATOM     22  C   UNL A   1      31.435  26.133  25.135  1.00  0.00     0.134 A 
ATOM     23  N   UNL A   1      31.471  27.318  24.450  1.00  0.00    -0.237 N 
ATOM     24  C   UNL A   1      32.579  28.246  24.455  1.00  0.00     0.216 C 
ATOM     25  C   UNL A   1      33.826  26.303  25.658  1.00  0.00     0.130 C 
ATOM     26  C   UNL A   1      33.666  27.811  25.451  1.00  0.00     0.059 C 
BRANCH  24  27
ATOM     27  C   UNL A   1      33.128  28.426  23.058  1.00  0.00     0.410 C 
ATOM     28  F   UNL A   1      34.418  28.848  23.117  1.00  0.00    -0.169 F 
ATOM     29  F   UNL A   1      33.143  27.252  22.383  1.00  0.00    -0.169 F 
ATOM     30  F   UNL A   1      32.462  29.331  22.318  1.00  0.00    -0.169 F 
ENDBRANCH  24  27
ENDBRANCH  15  17
ENDBRANCH  11  15
ENDBRANCH   8  10
ENDBRANCH   5   8
ENDBRANCH   3   4
ENDBRANCH   2   3
ENDBRANCH   1   2
BRANCH   1  31
ATOM     31  C   UNL A   1      42.098  19.693  27.429  1.00  0.00     0.002 C 
BRANCH  31  32
ATOM     32  C   UNL A   1      42.490  18.990  26.121  1.00  0.00     0.021 C 
BRANCH  32  33
ATOM     33  C   UNL A   1      43.952  18.574  26.032  1.00  0.00     0.116 C 
BRANCH  33  34
ATOM     34  N   UNL A   1      44.464  18.625  24.666  1.00  0.00    -0.352 N 
ATOM     35  C   UNL A   1      44.636  19.725  23.848  1.00  0.00     0.251 C 
ATOM     36  H   UNL A   1      44.724  17.760  24.275  1.00  0.00     0.163 HD
ATOM     37  O   UNL A   1      44.721  19.579  22.633  1.00  0.00    -0.269 OA
BRANCH  35  38
ATOM     38  C   UNL A   1      44.682  21.069  24.456  1.00  0.00     0.039 A 
ATOM     39  C   UNL A   1      43.759  22.055  24.103  1.00  0.00     0.014 A 
ATOM     40  C   UNL A   1      45.643  21.321  25.429  1.00  0.00     0.014 A 
ATOM     41  C   UNL A   1      43.752  23.259  24.809  1.00  0.00     0.010 A 
ATOM     42  C   UNL A   1      45.535  22.442  26.221  1.00  0.00     0.010 A 
ATOM     43  C   UNL A   1      44.625  23.445  25.892  1.00  0.00    -0.014 A 
BRANCH  43  44
ATOM     44  C   UNL A   1      44.553  24.661  26.712  1.00  0.00     0.031 A 
ATOM     45  C   UNL A   1      45.667  25.644  26.570  1.00  0.00     0.074 A 
ATOM     46  C   UNL A   1      43.467  25.016  27.433  1.00  0.00     0.049 A 
ATOM     47  N   UNL A   1      46.485  26.052  27.483  1.00  0.00    -0.248 NA
ATOM     48  C   UNL A   1      45.945  26.204  25.239  1.00  0.00     0.031 C 
ATOM     49  C   UNL A   1      42.157  24.358  27.504  1.00  0.00     0.029 A 
ATOM     50  N   UNL A   1      43.281  26.135  28.190  1.00  0.00    -0.354 N 
ATOM     51  C   UNL A   1      47.279  27.041  26.905  1.00  0.00     0.074 A 
ATOM     52  C   UNL A   1      46.983  27.004  25.495  1.00  0.00     0.031 C 
ATOM     53  C   UNL A   1      41.254  25.199  28.048  1.00  0.00     0.029 A 
ATOM     54  C   UNL A   1      41.959  26.365  28.543  1.00  0.00     0.049 A 
ATOM     55  H   UNL A   1      44.019  26.728  28.462  1.00  0.00     0.167 HD
ATOM     56  C   UNL A   1      48.007  27.911  27.663  1.00  0.00     0.034 A 
ATOM     57  C   UNL A   1      41.453  27.436  29.198  1.00  0.00     0.034 A 
ATOM     58  C   UNL A   1      48.146  27.431  29.019  1.00  0.00     0.049 A 
ATOM     59  C   UNL A   1      42.554  28.059  29.956  1.00  0.00     0.074 A 
ATOM     60  C   UNL A   1      48.690  26.298  29.596  1.00  0.00     0.029 A 
ATOM     61  N   UNL A   1      47.362  27.993  29.999  1.00  0.00    -0.354 N 
ATOM     62  N   UNL A   1      43.148  27.469  30.954  1.00  0.00    -0.248 NA
ATOM     63  C   UNL A   1      43.299  29.149  29.347  1.00  0.00     0.031 C 
ATOM     64  C   UNL A   1      47.805  25.972  30.666  1.00  0.00     0.029 A 
ATOM     65  C   UNL A   1      46.815  26.955  30.713  1.00  0.00     0.049 A 
ATOM     66  H   UNL A   1      47.221  28.955  30.159  1.00  0.00     0.167 HD
ATOM     67  C   UNL A   1      44.484  27.800  30.816  1.00  0.00     0.074 A 
ATOM     68  C   UNL A   1      44.498  28.933  29.895  1.00  0.00     0.031 C 
ATOM     69  C   UNL A   1      45.465  26.948  31.235  1.00  0.00     0.034 A 
BRANCH  56  70
ATOM     70  C   UNL A   1      48.385  29.328  27.282  1.00  0.00     0.023 A 
ATOM     71  C   UNL A   1      49.757  29.657  27.254  1.00  0.00     0.031 A 
ATOM     72  C   UNL A   1      47.495  30.422  27.211  1.00  0.00     0.131 A 
ATOM     73  C   UNL A   1      50.187  30.996  27.249  1.00  0.00     0.055 A 
ATOM     74  C   UNL A   1      47.928  31.751  27.128  1.00  0.00     0.041 A 
ATOM     75  F   UNL A   1      46.169  30.280  27.316  1.00  0.00    -0.206 F 
ATOM     76  C   UNL A   1      49.280  32.048  27.178  1.00  0.00     0.022 A 
BRANCH  73  77
ATOM     77  S   UNL A   1      51.943  31.343  27.543  1.00  0.00     0.124 S 
ATOM     78  O   UNL A   1      52.439  31.525  26.182  1.00  0.00    -0.237 OA
ATOM     79  O   UNL A   1      51.876  32.540  28.373  1.00  0.00    -0.237 OA
ATOM     80  O   UNL A   1      52.415  30.137  28.219  1.00  0.00    -0.744 OA
ENDBRANCH  73  77
ENDBRANCH  56  70
BRANCH  57  81
ATOM     81  C   UNL A   1      40.153  28.088  28.939  1.00  0.00     0.023 A 
ATOM     82  C   UNL A   1      39.236  28.384  29.964  1.00  0.00     0.031 A 
ATOM     83  C   UNL A   1      39.912  28.652  27.669  1.00  0.00     0.131 A 
ATOM     84  C   UNL A   1      38.141  29.232  29.700  1.00  0.00     0.055 A 
ATOM     85  C   UNL A   1      38.820  29.473  27.415  1.00  0.00     0.041 A 
ATOM     86  F   UNL A   1      40.778  28.503  26.653  1.00  0.00    -0.206 F 
ATOM     87  C   UNL A   1      37.942  29.784  28.435  1.00  0.00     0.022 A 
BRANCH  84  88
ATOM     88  S   UNL A   1      36.995  29.701  31.031  1.00  0.00     0.124 S 
ATOM     89  O   UNL A   1      37.395  28.804  32.108  1.00  0.00    -0.237 OA
ATOM     90  O   UNL A   1      37.297  31.116  31.208  1.00  0.00    -0.237 OA
ATOM     91  O   UNL A   1      35.679  29.419  30.456  1.00  0.00    -0.744 OA
ENDBRANCH  84  88
ENDBRANCH  57  81
BRANCH  69  92
ATOM     92  C   UNL A   1      45.064  25.767  32.095  1.00  0.00     0.023 A 
ATOM     93  C   UNL A   1      44.836  25.837  33.488  1.00  0.00     0.031 A 
ATOM     94  C   UNL A   1      44.786  24.551  31.449  1.00  0.00     0.131 A 
ATOM     95  C   UNL A   1      44.363  24.709  34.186  1.00  0.00     0.055 A 
ATOM     96  C   UNL A   1      44.298  23.442  32.139  1.00  0.00     0.041 A 
ATOM     97  F   UNL A   1      44.951  24.434  30.121  1.00  0.00    -0.206 F 
ATOM     98  C   UNL A   1      44.089  23.514  33.513  1.00  0.00     0.022 A 
BRANCH  95  99
ATOM     99  S   UNL A   1      44.099  24.786  35.987  1.00  0.00     0.124 S 
ATOM    100  O   UNL A   1      44.383  26.179  36.314  1.00  0.00    -0.237 OA
ATOM    101  O   UNL A   1      42.705  24.372  36.123  1.00  0.00    -0.237 OA
ATOM    102  O   UNL A   1      45.072  23.827  36.514  1.00  0.00    -0.744 OA
ENDBRANCH  95  99
ENDBRANCH  69  92
ENDBRANCH  43  44
ENDBRANCH  35  38
ENDBRANCH  33  34
ENDBRANCH  32  33
ENDBRANCH  31  32
ENDBRANCH   1  31
TORSDOF 20
ENDMDL
