MODEL 1
REMARK VINA RESULT:     -11.9      0.000      0.000
REMARK SMILES C[C@H](c1ccccc1)N1C(=O)c2ccc(C(=O)NCCCCCCNC(=O)c3ccc(-c4c5nc(c(-c6cc(S(=O)(=O)[O-])ccc6F)c6ccc([nH]6)c(-c6cc(S(=O)(=O)[O-])ccc6F)c6nc(c(-c7cc(S(=O)(=O)[O-])ccc7F)c7ccc4[nH]7)C=C6)C=C5)cc3)cc2C1=O
REMARK SMILES IDX 22 1 21 2 20 3 19 4 18 5 16 6 17 7 15 9 9 10 10 11 93 12
REMARK SMILES IDX 11 13 12 14 92 15 94 16 13 17 91 18 14 19 2 20 1 21 3 22
REMARK SMILES IDX 4 23 8 24 5 25 7 26 6 27 23 28 24 29 25 30 26 31 27 33 28 34
REMARK SMILES IDX 29 35 90 36 30 37 89 38 31 39 32 40 33 41 83 42 34 43 88 44
REMARK SMILES IDX 82 45 84 46 35 47 87 48 81 49 80 50 36 52 68 53 48 54 67 55
REMARK SMILES IDX 49 56 52 57 66 58 85 59 50 60 51 61 65 63 86 64 53 65 37 66
REMARK SMILES IDX 38 67 46 68 39 69 45 70 47 71 44 72 40 73 41 74 42 75 43 76
REMARK SMILES IDX 69 77 70 78 78 79 71 80 77 81 79 82 76 83 72 84 73 85 74 86
REMARK SMILES IDX 75 87 54 88 55 89 63 90 56 91 62 92 64 93 61 94 57 95 58 96
REMARK SMILES IDX 59 97 60 98
REMARK H PARENT 18 8 25 32 84 51 52 62
REMARK Flexibility Score: inf
ROOT
ATOM      1  C   UNL A   1      34.049  28.167  24.293  1.00  0.00     0.002 C 
ENDROOT
BRANCH   1   2
ATOM      2  C   UNL A   1      33.124  28.946  23.356  1.00  0.00     0.002 C 
BRANCH   2   3
ATOM      3  C   UNL A   1      31.621  28.839  23.633  1.00  0.00     0.021 C 
BRANCH   3   4
ATOM      4  C   UNL A   1      30.784  28.116  22.577  1.00  0.00     0.116 C 
BRANCH   4   5
ATOM      5  N   UNL A   1      29.436  27.819  23.027  1.00  0.00    -0.352 N 
ATOM      6  C   UNL A   1      28.941  26.776  23.762  1.00  0.00     0.251 C 
ATOM      7  O   UNL A   1      27.731  26.689  23.955  1.00  0.00    -0.269 OA
ATOM      8  H   UNL A   1      28.761  28.482  22.755  1.00  0.00     0.163 HD
BRANCH   6   9
ATOM      9  C   UNL A   1      29.824  25.712  24.293  1.00  0.00     0.040 A 
ATOM     10  N   UNL A   1      32.537  22.020  24.619  1.00  0.00    -0.267 N 
ATOM     11  C   UNL A   1      32.276  22.675  25.791  1.00  0.00     0.262 C 
ATOM     12  C   UNL A   1      31.839  22.572  23.577  1.00  0.00     0.262 C 
ATOM     13  O   UNL A   1      32.597  22.421  26.936  1.00  0.00    -0.269 OA
ATOM     14  C   UNL A   1      31.445  23.821  25.453  1.00  0.00     0.053 A 
ATOM     15  C   UNL A   1      31.130  23.736  24.111  1.00  0.00     0.054 A 
ATOM     16  O   UNL A   1      31.783  22.227  22.412  1.00  0.00    -0.269 OA
ATOM     17  C   UNL A   1      31.028  24.868  26.249  1.00  0.00     0.015 A 
ATOM     18  C   UNL A   1      30.320  24.672  23.492  1.00  0.00     0.028 A 
ATOM     19  C   UNL A   1      30.214  25.830  25.650  1.00  0.00     0.015 A 
BRANCH  10  20
ATOM     20  C   UNL A   1      33.491  20.919  24.465  1.00  0.00     0.121 C 
ATOM     21  C   UNL A   1      33.219  19.766  25.434  1.00  0.00     0.037 C 
BRANCH  20  22
ATOM     22  C   UNL A   1      34.918  21.464  24.520  1.00  0.00    -0.025 A 
ATOM     23  C   UNL A   1      35.909  20.868  25.319  1.00  0.00     0.006 A 
ATOM     24  C   UNL A   1      35.233  22.662  23.860  1.00  0.00     0.006 A 
ATOM     25  C   UNL A   1      37.148  21.481  25.507  1.00  0.00     0.000 A 
ATOM     26  C   UNL A   1      36.484  23.261  24.027  1.00  0.00     0.000 A 
ATOM     27  C   UNL A   1      37.433  22.681  24.865  1.00  0.00     0.000 A 
ENDBRANCH  20  22
ENDBRANCH  10  20
ENDBRANCH   6   9
ENDBRANCH   4   5
ENDBRANCH   3   4
ENDBRANCH   2   3
ENDBRANCH   1   2
BRANCH   1  28
ATOM     28  C   UNL A   1      33.401  27.576  25.548  1.00  0.00     0.021 C 
BRANCH  28  29
ATOM     29  C   UNL A   1      33.867  28.164  26.876  1.00  0.00     0.116 C 
BRANCH  29  30
ATOM     30  N   UNL A   1      33.658  29.599  26.963  1.00  0.00    -0.352 N 
ATOM     31  C   UNL A   1      34.426  30.558  27.581  1.00  0.00     0.251 C 
ATOM     32  H   UNL A   1      32.847  29.933  26.516  1.00  0.00     0.163 HD
ATOM     33  O   UNL A   1      34.001  31.707  27.672  1.00  0.00    -0.269 OA
BRANCH  31  34
ATOM     34  C   UNL A   1      35.741  30.204  28.162  1.00  0.00     0.039 A 
ATOM     35  C   UNL A   1      35.788  29.689  29.461  1.00  0.00     0.014 A 
ATOM     36  C   UNL A   1      36.925  30.376  27.437  1.00  0.00     0.014 A 
ATOM     37  C   UNL A   1      37.007  29.275  30.003  1.00  0.00     0.010 A 
ATOM     38  C   UNL A   1      38.131  29.904  27.954  1.00  0.00     0.010 A 
ATOM     39  C   UNL A   1      38.184  29.340  29.239  1.00  0.00    -0.014 A 
BRANCH  39  40
ATOM     40  C   UNL A   1      39.470  28.802  29.754  1.00  0.00     0.031 A 
ATOM     41  C   UNL A   1      40.212  29.520  30.849  1.00  0.00     0.074 A 
ATOM     42  C   UNL A   1      40.010  27.709  29.181  1.00  0.00     0.049 A 
ATOM     43  N   UNL A   1      41.385  29.257  31.366  1.00  0.00    -0.248 NA
ATOM     44  C   UNL A   1      39.557  30.708  31.410  1.00  0.00     0.031 C 
ATOM     45  C   UNL A   1      39.412  26.955  28.077  1.00  0.00     0.029 A 
ATOM     46  N   UNL A   1      41.190  27.055  29.428  1.00  0.00    -0.354 N 
ATOM     47  C   UNL A   1      41.613  30.249  32.312  1.00  0.00     0.074 A 
ATOM     48  C   UNL A   1      40.484  31.154  32.244  1.00  0.00     0.031 C 
ATOM     49  C   UNL A   1      40.227  25.940  27.745  1.00  0.00     0.029 A 
ATOM     50  C   UNL A   1      41.421  25.995  28.583  1.00  0.00     0.049 A 
ATOM     51  H   UNL A   1      41.813  27.320  30.144  1.00  0.00     0.167 HD
ATOM     52  C   UNL A   1      42.655  30.381  33.174  1.00  0.00     0.034 A 
ATOM     53  C   UNL A   1      42.482  25.171  28.478  1.00  0.00     0.034 A 
ATOM     54  C   UNL A   1      43.775  29.472  33.224  1.00  0.00     0.049 A 
ATOM     55  C   UNL A   1      43.643  25.348  29.419  1.00  0.00     0.074 A 
ATOM     56  C   UNL A   1      44.853  29.473  34.093  1.00  0.00     0.029 A 
ATOM     57  N   UNL A   1      43.974  28.405  32.354  1.00  0.00    -0.354 N 
ATOM     58  N   UNL A   1      43.817  26.257  30.351  1.00  0.00    -0.248 NA
ATOM     59  C   UNL A   1      44.745  24.385  29.301  1.00  0.00     0.031 C 
ATOM     60  C   UNL A   1      45.731  28.453  33.710  1.00  0.00     0.029 A 
ATOM     61  C   UNL A   1      45.172  27.767  32.643  1.00  0.00     0.049 A 
ATOM     62  H   UNL A   1      43.354  28.141  31.637  1.00  0.00     0.167 HD
ATOM     63  C   UNL A   1      45.045  25.966  30.939  1.00  0.00     0.074 A 
ATOM     64  C   UNL A   1      45.556  24.786  30.269  1.00  0.00     0.031 C 
ATOM     65  C   UNL A   1      45.688  26.613  31.944  1.00  0.00     0.034 A 
BRANCH  52  66
ATOM     66  C   UNL A   1      42.629  31.571  34.106  1.00  0.00     0.023 A 
ATOM     67  C   UNL A   1      42.035  31.494  35.379  1.00  0.00     0.031 A 
ATOM     68  C   UNL A   1      43.154  32.811  33.702  1.00  0.00     0.131 A 
ATOM     69  C   UNL A   1      41.890  32.652  36.157  1.00  0.00     0.055 A 
ATOM     70  C   UNL A   1      43.088  33.941  34.521  1.00  0.00     0.041 A 
ATOM     71  F   UNL A   1      43.720  32.953  32.492  1.00  0.00    -0.206 F 
ATOM     72  C   UNL A   1      42.435  33.871  35.748  1.00  0.00     0.022 A 
BRANCH  69  73
ATOM     73  S   UNL A   1      40.830  32.577  37.627  1.00  0.00     0.124 S 
ATOM     74  O   UNL A   1      40.616  33.995  37.909  1.00  0.00    -0.237 OA
ATOM     75  O   UNL A   1      39.670  31.839  37.142  1.00  0.00    -0.237 OA
ATOM     76  O   UNL A   1      41.654  31.873  38.607  1.00  0.00    -0.744 OA
ENDBRANCH  69  73
ENDBRANCH  52  66
BRANCH  53  77
ATOM     77  C   UNL A   1      42.506  24.123  27.420  1.00  0.00     0.023 A 
ATOM     78  C   UNL A   1      41.929  22.862  27.632  1.00  0.00     0.031 A 
ATOM     79  C   UNL A   1      43.114  24.374  26.177  1.00  0.00     0.131 A 
ATOM     80  C   UNL A   1      41.996  21.887  26.624  1.00  0.00     0.055 A 
ATOM     81  C   UNL A   1      43.141  23.416  25.163  1.00  0.00     0.041 A 
ATOM     82  F   UNL A   1      43.669  25.570  25.923  1.00  0.00    -0.206 F 
ATOM     83  C   UNL A   1      42.587  22.160  25.388  1.00  0.00     0.022 A 
BRANCH  80  84
ATOM     84  S   UNL A   1      41.335  20.233  26.968  1.00  0.00     0.124 S 
ATOM     85  O   UNL A   1      42.509  19.394  26.758  1.00  0.00    -0.237 OA
ATOM     86  O   UNL A   1      40.881  20.369  28.348  1.00  0.00    -0.237 OA
ATOM     87  O   UNL A   1      40.272  20.079  25.978  1.00  0.00    -0.744 OA
ENDBRANCH  80  84
ENDBRANCH  53  77
BRANCH  65  88
ATOM     88  C   UNL A   1      47.013  26.040  32.383  1.00  0.00     0.023 A 
ATOM     89  C   UNL A   1      48.216  26.389  31.743  1.00  0.00     0.031 A 
ATOM     90  C   UNL A   1      47.071  25.119  33.445  1.00  0.00     0.131 A 
ATOM     91  C   UNL A   1      49.418  25.786  32.138  1.00  0.00     0.055 A 
ATOM     92  C   UNL A   1      48.279  24.563  33.869  1.00  0.00     0.041 A 
ATOM     93  F   UNL A   1      45.954  24.747  34.089  1.00  0.00    -0.206 F 
ATOM     94  C   UNL A   1      49.460  24.886  33.207  1.00  0.00     0.022 A 
BRANCH  91  95
ATOM     95  S   UNL A   1      50.922  26.130  31.185  1.00  0.00     0.124 S 
ATOM     96  O   UNL A   1      50.413  26.159  29.816  1.00  0.00    -0.237 OA
ATOM     97  O   UNL A   1      51.353  27.412  31.731  1.00  0.00    -0.237 OA
ATOM     98  O   UNL A   1      51.794  24.999  31.497  1.00  0.00    -0.744 OA
ENDBRANCH  91  95
ENDBRANCH  65  88
ENDBRANCH  39  40
ENDBRANCH  31  34
ENDBRANCH  29  30
ENDBRANCH  28  29
ENDBRANCH   1  28
TORSDOF 18
ENDMDL
MODEL 2
REMARK VINA RESULT:     -11.8      2.024      2.368
REMARK SMILES C[C@H](c1ccccc1)N1C(=O)c2ccc(C(=O)NCCCCCCNC(=O)c3ccc(-c4c5nc(c(-c6cc(S(=O)(=O)[O-])ccc6F)c6ccc([nH]6)c(-c6cc(S(=O)(=O)[O-])ccc6F)c6nc(c(-c7cc(S(=O)(=O)[O-])ccc7F)c7ccc4[nH]7)C=C6)C=C5)cc3)cc2C1=O
REMARK SMILES IDX 22 1 21 2 20 3 19 4 18 5 16 6 17 7 15 9 9 10 10 11 93 12
REMARK SMILES IDX 11 13 12 14 92 15 94 16 13 17 91 18 14 19 2 20 1 21 3 22
REMARK SMILES IDX 4 23 8 24 5 25 7 26 6 27 23 28 24 29 25 30 26 31 27 33 28 34
REMARK SMILES IDX 29 35 90 36 30 37 89 38 31 39 32 40 33 41 83 42 34 43 88 44
REMARK SMILES IDX 82 45 84 46 35 47 87 48 81 49 80 50 36 52 68 53 48 54 67 55
REMARK SMILES IDX 49 56 52 57 66 58 85 59 50 60 51 61 65 63 86 64 53 65 37 66
REMARK SMILES IDX 38 67 46 68 39 69 45 70 47 71 44 72 40 73 41 74 42 75 43 76
REMARK SMILES IDX 69 77 70 78 78 79 71 80 77 81 79 82 76 83 72 84 73 85 74 86
REMARK SMILES IDX 75 87 54 88 55 89 63 90 56 91 62 92 64 93 61 94 57 95 58 96
REMARK SMILES IDX 59 97 60 98
REMARK H PARENT 18 8 25 32 84 51 52 62
REMARK Flexibility Score: inf
ROOT
ATOM      1  C   UNL A   1      33.252  28.238  25.322  1.00  0.00     0.002 C 
ENDROOT
BRANCH   1   2
ATOM      2  C   UNL A   1      32.943  27.974  23.847  1.00  0.00     0.002 C 
BRANCH   2   3
ATOM      3  C   UNL A   1      31.795  28.783  23.232  1.00  0.00     0.021 C 
BRANCH   3   4
ATOM      4  C   UNL A   1      30.854  28.024  22.296  1.00  0.00     0.116 C 
BRANCH   4   5
ATOM      5  N   UNL A   1      29.525  27.844  22.852  1.00  0.00    -0.352 N 
ATOM      6  C   UNL A   1      29.023  26.889  23.693  1.00  0.00     0.251 C 
ATOM      7  O   UNL A   1      27.825  26.891  23.969  1.00  0.00    -0.269 OA
ATOM      8  H   UNL A   1      28.872  28.527  22.574  1.00  0.00     0.163 HD
BRANCH   6   9
ATOM      9  C   UNL A   1      29.877  25.812  24.245  1.00  0.00     0.040 A 
ATOM     10  N   UNL A   1      32.460  22.036  24.653  1.00  0.00    -0.267 N 
ATOM     11  C   UNL A   1      32.248  22.743  25.805  1.00  0.00     0.262 C 
ATOM     12  C   UNL A   1      31.760  22.575  23.605  1.00  0.00     0.262 C 
ATOM     13  O   UNL A   1      32.585  22.518  26.951  1.00  0.00    -0.269 OA
ATOM     14  C   UNL A   1      31.453  23.906  25.442  1.00  0.00     0.053 A 
ATOM     15  C   UNL A   1      31.106  23.784  24.110  1.00  0.00     0.054 A 
ATOM     16  O   UNL A   1      31.665  22.190  22.456  1.00  0.00    -0.269 OA
ATOM     17  C   UNL A   1      31.092  24.996  26.206  1.00  0.00     0.015 A 
ATOM     18  C   UNL A   1      30.317  24.726  23.473  1.00  0.00     0.028 A 
ATOM     19  C   UNL A   1      30.301  25.965  25.588  1.00  0.00     0.015 A 
BRANCH  10  20
ATOM     20  C   UNL A   1      33.369  20.895  24.521  1.00  0.00     0.121 C 
ATOM     21  C   UNL A   1      33.042  19.766  25.500  1.00  0.00     0.037 C 
BRANCH  20  22
ATOM     22  C   UNL A   1      34.817  21.382  24.582  1.00  0.00    -0.025 A 
ATOM     23  C   UNL A   1      35.267  22.469  23.813  1.00  0.00     0.006 A 
ATOM     24  C   UNL A   1      35.764  20.660  25.326  1.00  0.00     0.006 A 
ATOM     25  C   UNL A   1      36.624  22.782  23.735  1.00  0.00     0.000 A 
ATOM     26  C   UNL A   1      37.120  20.993  25.268  1.00  0.00     0.000 A 
ATOM     27  C   UNL A   1      37.551  22.040  24.458  1.00  0.00     0.000 A 
ENDBRANCH  20  22
ENDBRANCH  10  20
ENDBRANCH   6   9
ENDBRANCH   4   5
ENDBRANCH   3   4
ENDBRANCH   2   3
ENDBRANCH   1   2
BRANCH   1  28
ATOM     28  C   UNL A   1      32.256  29.123  26.075  1.00  0.00     0.021 C 
BRANCH  28  29
ATOM     29  C   UNL A   1      32.769  29.750  27.368  1.00  0.00     0.116 C 
BRANCH  29  30
ATOM     30  N   UNL A   1      32.986  31.182  27.255  1.00  0.00    -0.352 N 
ATOM     31  C   UNL A   1      34.071  31.934  27.639  1.00  0.00     0.251 C 
ATOM     32  H   UNL A   1      32.248  31.687  26.843  1.00  0.00     0.163 HD
ATOM     33  O   UNL A   1      34.004  33.160  27.595  1.00  0.00    -0.269 OA
BRANCH  31  34
ATOM     34  C   UNL A   1      35.301  31.275  28.137  1.00  0.00     0.039 A 
ATOM     35  C   UNL A   1      36.507  31.981  28.098  1.00  0.00     0.014 A 
ATOM     36  C   UNL A   1      35.272  29.970  28.639  1.00  0.00     0.014 A 
ATOM     37  C   UNL A   1      37.665  31.410  28.633  1.00  0.00     0.010 A 
ATOM     38  C   UNL A   1      36.413  29.428  29.228  1.00  0.00     0.010 A 
ATOM     39  C   UNL A   1      37.620  30.145  29.240  1.00  0.00    -0.014 A 
BRANCH  39  40
ATOM     40  C   UNL A   1      38.814  29.568  29.912  1.00  0.00     0.031 A 
ATOM     41  C   UNL A   1      39.257  30.086  31.252  1.00  0.00     0.074 A 
ATOM     42  C   UNL A   1      39.544  28.631  29.277  1.00  0.00     0.049 A 
ATOM     43  N   UNL A   1      40.319  29.773  31.952  1.00  0.00    -0.248 NA
ATOM     44  C   UNL A   1      38.410  31.114  31.868  1.00  0.00     0.031 C 
ATOM     45  C   UNL A   1      39.245  28.084  27.951  1.00  0.00     0.029 A 
ATOM     46  N   UNL A   1      40.698  27.988  29.648  1.00  0.00    -0.354 N 
ATOM     47  C   UNL A   1      40.270  30.569  33.091  1.00  0.00     0.074 A 
ATOM     48  C   UNL A   1      39.109  31.425  32.949  1.00  0.00     0.031 C 
ATOM     49  C   UNL A   1      40.189  27.188  27.623  1.00  0.00     0.029 A 
ATOM     50  C   UNL A   1      41.180  27.124  28.693  1.00  0.00     0.049 A 
ATOM     51  H   UNL A   1      41.140  28.132  30.517  1.00  0.00     0.167 HD
ATOM     52  C   UNL A   1      41.101  30.571  34.165  1.00  0.00     0.034 A 
ATOM     53  C   UNL A   1      42.303  26.380  28.668  1.00  0.00     0.034 A 
ATOM     54  C   UNL A   1      42.257  29.715  34.287  1.00  0.00     0.049 A 
ATOM     55  C   UNL A   1      43.231  26.415  29.853  1.00  0.00     0.074 A 
ATOM     56  C   UNL A   1      43.132  29.588  35.352  1.00  0.00     0.029 A 
ATOM     57  N   UNL A   1      42.713  28.848  33.299  1.00  0.00    -0.354 N 
ATOM     58  N   UNL A   1      43.139  27.129  30.950  1.00  0.00    -0.248 NA
ATOM     59  C   UNL A   1      44.407  25.539  29.799  1.00  0.00     0.031 C 
ATOM     60  C   UNL A   1      44.149  28.699  34.986  1.00  0.00     0.029 A 
ATOM     61  C   UNL A   1      43.875  28.214  33.717  1.00  0.00     0.049 A 
ATOM     62  H   UNL A   1      42.275  28.705  32.430  1.00  0.00     0.167 HD
ATOM     63  C   UNL A   1      44.241  26.778  31.724  1.00  0.00     0.074 A 
ATOM     64  C   UNL A   1      44.970  25.773  30.975  1.00  0.00     0.031 C 
ATOM     65  C   UNL A   1      44.613  27.240  32.945  1.00  0.00     0.034 A 
BRANCH  52  66
ATOM     66  C   UNL A   1      40.792  31.553  35.272  1.00  0.00     0.023 A 
ATOM     67  C   UNL A   1      39.739  31.330  36.178  1.00  0.00     0.031 A 
ATOM     68  C   UNL A   1      41.518  32.751  35.392  1.00  0.00     0.131 A 
ATOM     69  C   UNL A   1      39.380  32.329  37.096  1.00  0.00     0.055 A 
ATOM     70  C   UNL A   1      41.212  33.702  36.369  1.00  0.00     0.041 A 
ATOM     71  F   UNL A   1      42.523  33.030  34.547  1.00  0.00    -0.206 F 
ATOM     72  C   UNL A   1      40.124  33.504  37.214  1.00  0.00     0.022 A 
BRANCH  69  73
ATOM     73  S   UNL A   1      37.822  32.142  38.008  1.00  0.00     0.124 S 
ATOM     74  O   UNL A   1      36.987  33.163  37.377  1.00  0.00    -0.237 OA
ATOM     75  O   UNL A   1      37.459  30.758  37.731  1.00  0.00    -0.237 OA
ATOM     76  O   UNL A   1      38.200  32.425  39.391  1.00  0.00    -0.744 OA
ENDBRANCH  69  73
ENDBRANCH  52  66
BRANCH  53  77
ATOM     77  C   UNL A   1      42.624  25.561  27.467  1.00  0.00     0.023 A 
ATOM     78  C   UNL A   1      42.251  24.212  27.384  1.00  0.00     0.031 A 
ATOM     79  C   UNL A   1      43.318  26.126  26.380  1.00  0.00     0.131 A 
ATOM     80  C   UNL A   1      42.596  23.461  26.249  1.00  0.00     0.055 A 
ATOM     81  C   UNL A   1      43.623  25.386  25.237  1.00  0.00     0.041 A 
ATOM     82  F   UNL A   1      43.687  27.416  26.409  1.00  0.00    -0.206 F 
ATOM     83  C   UNL A   1      43.268  24.043  25.171  1.00  0.00     0.022 A 
BRANCH  80  84
ATOM     84  S   UNL A   1      42.192  21.694  26.218  1.00  0.00     0.124 S 
ATOM     85  O   UNL A   1      43.139  21.188  25.231  1.00  0.00    -0.237 OA
ATOM     86  O   UNL A   1      42.437  21.302  27.602  1.00  0.00    -0.237 OA
ATOM     87  O   UNL A   1      40.790  21.672  25.807  1.00  0.00    -0.744 OA
ENDBRANCH  80  84
ENDBRANCH  53  77
BRANCH  65  88
ATOM     88  C   UNL A   1      45.863  26.645  33.546  1.00  0.00     0.023 A 
ATOM     89  C   UNL A   1      45.826  25.456  34.296  1.00  0.00     0.031 A 
ATOM     90  C   UNL A   1      47.104  27.285  33.380  1.00  0.00     0.131 A 
ATOM     91  C   UNL A   1      46.998  24.970  34.893  1.00  0.00     0.055 A 
ATOM     92  C   UNL A   1      48.277  26.767  33.931  1.00  0.00     0.041 A 
ATOM     93  F   UNL A   1      47.197  28.425  32.677  1.00  0.00    -0.206 F 
ATOM     94  C   UNL A   1      48.226  25.609  34.703  1.00  0.00     0.022 A 
BRANCH  91  95
ATOM     95  S   UNL A   1      46.886  23.530  35.990  1.00  0.00     0.124 S 
ATOM     96  O   UNL A   1      45.448  23.443  36.229  1.00  0.00    -0.237 OA
ATOM     97  O   UNL A   1      47.463  22.468  35.174  1.00  0.00    -0.237 OA
ATOM     98  O   UNL A   1      47.683  23.921  37.152  1.00  0.00    -0.744 OA
ENDBRANCH  91  95
ENDBRANCH  65  88
ENDBRANCH  39  40
ENDBRANCH  31  34
ENDBRANCH  29  30
ENDBRANCH  28  29
ENDBRANCH   1  28
TORSDOF 18
ENDMDL
MODEL 3
REMARK VINA RESULT:     -11.7      3.980      5.726
REMARK SMILES C[C@H](c1ccccc1)N1C(=O)c2ccc(C(=O)NCCCCCCNC(=O)c3ccc(-c4c5nc(c(-c6cc(S(=O)(=O)[O-])ccc6F)c6ccc([nH]6)c(-c6cc(S(=O)(=O)[O-])ccc6F)c6nc(c(-c7cc(S(=O)(=O)[O-])ccc7F)c7ccc4[nH]7)C=C6)C=C5)cc3)cc2C1=O
REMARK SMILES IDX 22 1 21 2 20 3 19 4 18 5 16 6 17 7 15 9 9 10 10 11 93 12
REMARK SMILES IDX 11 13 12 14 92 15 94 16 13 17 91 18 14 19 2 20 1 21 3 22
REMARK SMILES IDX 4 23 8 24 5 25 7 26 6 27 23 28 24 29 25 30 26 31 27 33 28 34
REMARK SMILES IDX 29 35 90 36 30 37 89 38 31 39 32 40 33 41 83 42 34 43 88 44
REMARK SMILES IDX 82 45 84 46 35 47 87 48 81 49 80 50 36 52 68 53 48 54 67 55
REMARK SMILES IDX 49 56 52 57 66 58 85 59 50 60 51 61 65 63 86 64 53 65 37 66
REMARK SMILES IDX 38 67 46 68 39 69 45 70 47 71 44 72 40 73 41 74 42 75 43 76
REMARK SMILES IDX 69 77 70 78 78 79 71 80 77 81 79 82 76 83 72 84 73 85 74 86
REMARK SMILES IDX 75 87 54 88 55 89 63 90 56 91 62 92 64 93 61 94 57 95 58 96
REMARK SMILES IDX 59 97 60 98
REMARK H PARENT 18 8 25 32 84 51 52 62
REMARK Flexibility Score: inf
ROOT
ATOM      1  C   UNL A   1      35.854  33.813  28.753  1.00  0.00     0.002 C 
ENDROOT
BRANCH   1   2
ATOM      2  C   UNL A   1      35.423  32.354  28.923  1.00  0.00     0.002 C 
BRANCH   2   3
ATOM      3  C   UNL A   1      36.092  31.331  28.000  1.00  0.00     0.021 C 
BRANCH   3   4
ATOM      4  C   UNL A   1      35.251  30.114  27.612  1.00  0.00     0.116 C 
BRANCH   4   5
ATOM      5  N   UNL A   1      33.823  30.367  27.675  1.00  0.00    -0.352 N 
ATOM      6  C   UNL A   1      32.785  29.854  26.947  1.00  0.00     0.251 C 
ATOM      7  O   UNL A   1      31.647  30.285  27.123  1.00  0.00    -0.269 OA
ATOM      8  H   UNL A   1      33.556  31.023  28.360  1.00  0.00     0.163 HD
BRANCH   6   9
ATOM      9  C   UNL A   1      33.000  28.822  25.907  1.00  0.00     0.040 A 
ATOM     10  N   UNL A   1      33.513  24.790  23.767  1.00  0.00    -0.267 N 
ATOM     11  C   UNL A   1      33.656  25.904  22.985  1.00  0.00     0.262 C 
ATOM     12  C   UNL A   1      33.329  25.128  25.082  1.00  0.00     0.262 C 
ATOM     13  O   UNL A   1      33.952  26.023  21.812  1.00  0.00    -0.269 OA
ATOM     14  C   UNL A   1      33.414  27.052  23.846  1.00  0.00     0.053 A 
ATOM     15  C   UNL A   1      33.265  26.590  25.139  1.00  0.00     0.054 A 
ATOM     16  O   UNL A   1      33.217  24.412  26.058  1.00  0.00    -0.269 OA
ATOM     17  C   UNL A   1      33.299  28.388  23.517  1.00  0.00     0.015 A 
ATOM     18  C   UNL A   1      33.051  27.451  26.202  1.00  0.00     0.028 A 
ATOM     19  C   UNL A   1      33.079  29.279  24.568  1.00  0.00     0.015 A 
BRANCH  10  20
ATOM     20  C   UNL A   1      33.484  23.413  23.270  1.00  0.00     0.121 C 
ATOM     21  C   UNL A   1      32.115  22.753  23.448  1.00  0.00     0.037 C 
BRANCH  20  22
ATOM     22  C   UNL A   1      34.646  22.624  23.873  1.00  0.00    -0.025 A 
ATOM     23  C   UNL A   1      35.985  22.980  23.638  1.00  0.00     0.006 A 
ATOM     24  C   UNL A   1      34.391  21.437  24.578  1.00  0.00     0.006 A 
ATOM     25  C   UNL A   1      37.031  22.147  24.034  1.00  0.00     0.000 A 
ATOM     26  C   UNL A   1      35.441  20.617  24.999  1.00  0.00     0.000 A 
ATOM     27  C   UNL A   1      36.759  20.963  24.710  1.00  0.00     0.000 A 
ENDBRANCH  20  22
ENDBRANCH  10  20
ENDBRANCH   6   9
ENDBRANCH   4   5
ENDBRANCH   3   4
ENDBRANCH   2   3
ENDBRANCH   1   2
BRANCH   1  28
ATOM     28  C   UNL A   1      34.728  34.843  28.637  1.00  0.00     0.021 C 
BRANCH  28  29
ATOM     29  C   UNL A   1      33.356  34.385  29.124  1.00  0.00     0.116 C 
BRANCH  29  30
ATOM     30  N   UNL A   1      32.769  35.293  30.094  1.00  0.00    -0.352 N 
ATOM     31  C   UNL A   1      33.070  35.463  31.425  1.00  0.00     0.251 C 
ATOM     32  H   UNL A   1      32.050  35.869  29.748  1.00  0.00     0.163 HD
ATOM     33  O   UNL A   1      32.356  36.180  32.120  1.00  0.00    -0.269 OA
BRANCH  31  34
ATOM     34  C   UNL A   1      34.228  34.761  32.026  1.00  0.00     0.039 A 
ATOM     35  C   UNL A   1      34.043  33.475  32.542  1.00  0.00     0.014 A 
ATOM     36  C   UNL A   1      35.490  35.361  32.084  1.00  0.00     0.014 A 
ATOM     37  C   UNL A   1      35.135  32.762  33.043  1.00  0.00     0.010 A 
ATOM     38  C   UNL A   1      36.589  34.625  32.526  1.00  0.00     0.010 A 
ATOM     39  C   UNL A   1      36.425  33.314  33.002  1.00  0.00    -0.014 A 
BRANCH  39  40
ATOM     40  C   UNL A   1      37.615  32.531  33.426  1.00  0.00     0.031 A 
ATOM     41  C   UNL A   1      38.351  32.887  34.688  1.00  0.00     0.074 A 
ATOM     42  C   UNL A   1      38.079  31.547  32.632  1.00  0.00     0.049 A 
ATOM     43  N   UNL A   1      39.456  32.381  35.175  1.00  0.00    -0.248 NA
ATOM     44  C   UNL A   1      37.782  33.979  35.489  1.00  0.00     0.031 C 
ATOM     45  C   UNL A   1      37.482  31.140  31.357  1.00  0.00     0.029 A 
ATOM     46  N   UNL A   1      39.169  30.724  32.764  1.00  0.00    -0.354 N 
ATOM     47  C   UNL A   1      39.719  33.095  36.339  1.00  0.00     0.074 A 
ATOM     48  C   UNL A   1      38.692  34.113  36.441  1.00  0.00     0.031 C 
ATOM     49  C   UNL A   1      38.212  30.145  30.828  1.00  0.00     0.029 A 
ATOM     50  C   UNL A   1      39.348  29.869  31.702  1.00  0.00     0.049 A 
ATOM     51  H   UNL A   1      39.767  30.744  33.547  1.00  0.00     0.167 HD
ATOM     52  C   UNL A   1      40.710  32.906  37.248  1.00  0.00     0.034 A 
ATOM     53  C   UNL A   1      40.326  28.978  31.446  1.00  0.00     0.034 A 
ATOM     54  C   UNL A   1      41.728  31.890  37.126  1.00  0.00     0.049 A 
ATOM     55  C   UNL A   1      41.435  28.801  32.449  1.00  0.00     0.074 A 
ATOM     56  C   UNL A   1      42.741  31.568  38.013  1.00  0.00     0.029 A 
ATOM     57  N   UNL A   1      41.876  31.038  36.036  1.00  0.00    -0.354 N 
ATOM     58  N   UNL A   1      41.637  29.443  33.576  1.00  0.00    -0.248 NA
ATOM     59  C   UNL A   1      42.440  27.774  32.150  1.00  0.00     0.031 C 
ATOM     60  C   UNL A   1      43.537  30.573  37.434  1.00  0.00     0.029 A 
ATOM     61  C   UNL A   1      42.983  30.220  36.214  1.00  0.00     0.049 A 
ATOM     62  H   UNL A   1      41.281  31.019  35.253  1.00  0.00     0.167 HD
ATOM     63  C   UNL A   1      42.788  28.888  34.127  1.00  0.00     0.074 A 
ATOM     64  C   UNL A   1      43.222  27.846  33.217  1.00  0.00     0.031 C 
ATOM     65  C   UNL A   1      43.426  29.208  35.282  1.00  0.00     0.034 A 
BRANCH  52  66
ATOM     66  C   UNL A   1      40.742  33.843  38.434  1.00  0.00     0.023 A 
ATOM     67  C   UNL A   1      39.971  33.597  39.585  1.00  0.00     0.031 A 
ATOM     68  C   UNL A   1      41.507  35.022  38.397  1.00  0.00     0.131 A 
ATOM     69  C   UNL A   1      39.904  34.560  40.603  1.00  0.00     0.055 A 
ATOM     70  C   UNL A   1      41.506  35.934  39.455  1.00  0.00     0.041 A 
ATOM     71  F   UNL A   1      42.251  35.321  37.320  1.00  0.00    -0.206 F 
ATOM     72  C   UNL A   1      40.686  35.716  40.558  1.00  0.00     0.022 A 
BRANCH  69  73
ATOM     73  S   UNL A   1      38.650  34.359  41.899  1.00  0.00     0.124 S 
ATOM     74  O   UNL A   1      37.937  33.170  41.437  1.00  0.00    -0.237 OA
ATOM     75  O   UNL A   1      39.460  34.193  43.099  1.00  0.00    -0.237 OA
ATOM     76  O   UNL A   1      37.883  35.601  41.828  1.00  0.00    -0.744 OA
ENDBRANCH  69  73
ENDBRANCH  52  66
BRANCH  53  77
ATOM     77  C   UNL A   1      40.314  28.208  30.173  1.00  0.00     0.023 A 
ATOM     78  C   UNL A   1      41.207  28.505  29.133  1.00  0.00     0.031 A 
ATOM     79  C   UNL A   1      39.397  27.157  29.980  1.00  0.00     0.131 A 
ATOM     80  C   UNL A   1      41.148  27.778  27.934  1.00  0.00     0.055 A 
ATOM     81  C   UNL A   1      39.370  26.410  28.802  1.00  0.00     0.041 A 
ATOM     82  F   UNL A   1      38.530  26.828  30.951  1.00  0.00    -0.206 F 
ATOM     83  C   UNL A   1      40.245  26.725  27.767  1.00  0.00     0.022 A 
BRANCH  80  84
ATOM     84  S   UNL A   1      42.245  28.256  26.571  1.00  0.00     0.124 S 
ATOM     85  O   UNL A   1      41.549  27.695  25.418  1.00  0.00    -0.237 OA
ATOM     86  O   UNL A   1      42.242  29.712  26.676  1.00  0.00    -0.237 OA
ATOM     87  O   UNL A   1      43.511  27.613  26.911  1.00  0.00    -0.744 OA
ENDBRANCH  80  84
ENDBRANCH  53  77
BRANCH  65  88
ATOM     88  C   UNL A   1      44.655  28.404  35.626  1.00  0.00     0.023 A 
ATOM     89  C   UNL A   1      44.569  27.196  36.340  1.00  0.00     0.031 A 
ATOM     90  C   UNL A   1      45.931  28.861  35.249  1.00  0.00     0.131 A 
ATOM     91  C   UNL A   1      45.739  26.510  36.697  1.00  0.00     0.055 A 
ATOM     92  C   UNL A   1      47.088  28.146  35.560  1.00  0.00     0.041 A 
ATOM     93  F   UNL A   1      46.072  30.010  34.569  1.00  0.00    -0.206 F 
ATOM     94  C   UNL A   1      46.997  26.970  36.298  1.00  0.00     0.022 A 
BRANCH  91  95
ATOM     95  S   UNL A   1      45.604  25.047  37.760  1.00  0.00     0.124 S 
ATOM     96  O   UNL A   1      44.541  25.440  38.682  1.00  0.00    -0.237 OA
ATOM     97  O   UNL A   1      45.265  23.996  36.807  1.00  0.00    -0.237 OA
ATOM     98  O   UNL A   1      46.932  24.933  38.360  1.00  0.00    -0.744 OA
ENDBRANCH  91  95
ENDBRANCH  65  88
ENDBRANCH  39  40
ENDBRANCH  31  34
ENDBRANCH  29  30
ENDBRANCH  28  29
ENDBRANCH   1  28
TORSDOF 18
ENDMDL
