MODEL 1
REMARK VINA RESULT:     -11.9      0.000      0.000
REMARK SMILES CC(C)(C(=O)N1C[C@@H]2c3ccccc3OC[C@]2(C(=O)NCCCCCCNC(=O)c2ccc(-c3c4nc(c(-c5cc(S(=O)(=O)[O-])ccc5F)c5ccc([nH]5)c(-c5cc(S(=O)(=O)[O-])ccc5F)c5nc(c(-c6cc(S(=O)(=O)[O-])ccc6F)c6ccc3[nH]6)C=C5)C=C4)cc2)C1)[NH+]1CCOCC1
REMARK SMILES IDX 23 1 22 2 21 3 20 4 18 5 19 6 17 8 6 9 7 10 93 11 8 12 9 13
REMARK SMILES IDX 16 14 10 15 14 16 15 17 11 18 13 19 12 20 4 21 5 22 2 23
REMARK SMILES IDX 1 24 3 25 94 26 95 27 99 28 96 30 98 31 97 32 24 33 25 34
REMARK SMILES IDX 26 35 27 36 28 37 29 39 30 40 31 41 92 42 32 43 91 44 33 45
REMARK SMILES IDX 34 46 35 47 85 48 36 49 90 50 84 51 86 52 37 53 89 54 83 55
REMARK SMILES IDX 82 56 38 58 70 59 50 60 69 61 51 62 54 63 68 64 87 65 52 66
REMARK SMILES IDX 53 67 67 69 88 70 55 71 39 72 40 73 48 74 41 75 47 76 49 77
REMARK SMILES IDX 46 78 42 79 43 80 44 81 45 82 71 83 72 84 80 85 73 86 79 87
REMARK SMILES IDX 81 88 78 89 74 90 75 91 76 92 77 93 56 94 57 95 65 96 58 97
REMARK SMILES IDX 64 98 66 99 63 100 59 101 60 102 61 103 62 104
REMARK H PARENT 20 7 94 29 27 38 86 57 54 68
REMARK Flexibility Score: inf
ROOT
ATOM      1  C   UNL A   1      32.377  26.319  26.485  1.00  0.00     0.002 C 
ENDROOT
BRANCH   1   2
ATOM      2  C   UNL A   1      31.456  25.102  26.388  1.00  0.00     0.021 C 
BRANCH   2   3
ATOM      3  C   UNL A   1      31.840  24.005  25.407  1.00  0.00     0.116 C 
BRANCH   3   4
ATOM      4  N   UNL A   1      32.475  24.458  24.178  1.00  0.00    -0.355 N 
ATOM      5  C   UNL A   1      33.513  23.809  23.526  1.00  0.00     0.232 C 
ATOM      6  O   UNL A   1      33.656  23.974  22.313  1.00  0.00    -0.274 OA
ATOM      7  H   UNL A   1      32.140  25.293  23.776  1.00  0.00     0.163 HD
BRANCH   5   8
ATOM      8  C   UNL A   1      34.460  22.945  24.431  1.00  0.00     0.109 C 
ATOM      9  N   UNL A   1      33.998  20.529  24.239  1.00  0.00    -0.335 N 
ATOM     10  C   UNL A   1      35.198  20.699  25.007  1.00  0.00     0.129 C 
ATOM     11  C   UNL A   1      33.772  21.771  23.526  1.00  0.00     0.141 C 
ATOM     12  C   UNL A   1      35.766  22.014  24.462  1.00  0.00     0.063 C 
ATOM     13  C   UNL A   1      36.973  22.410  25.282  1.00  0.00     0.000 A 
ATOM     14  C   UNL A   1      35.285  24.309  24.506  1.00  0.00     0.249 C 
ATOM     15  C   UNL A   1      38.112  21.598  25.375  1.00  0.00     0.008 A 
ATOM     16  C   UNL A   1      36.989  23.647  25.905  1.00  0.00     0.122 A 
ATOM     17  O   UNL A   1      35.914  24.472  25.797  1.00  0.00    -0.492 OA
ATOM     18  C   UNL A   1      39.232  22.027  26.093  1.00  0.00     0.001 A 
ATOM     19  C   UNL A   1      38.090  24.080  26.638  1.00  0.00     0.047 A 
ATOM     20  C   UNL A   1      39.222  23.271  26.723  1.00  0.00     0.004 A 
BRANCH   9  21
ATOM     21  C   UNL A   1      32.996  19.662  24.666  1.00  0.00     0.283 C 
ATOM     22  O   UNL A   1      32.217  20.066  25.533  1.00  0.00    -0.268 OA
BRANCH  21  23
ATOM     23  C   UNL A   1      33.037  18.150  24.176  1.00  0.00     0.171 C 
ATOM     24  C   UNL A   1      31.807  17.739  23.344  1.00  0.00     0.090 C 
ATOM     25  C   UNL A   1      34.253  18.050  23.223  1.00  0.00     0.090 C 
BRANCH  23  26
ATOM     26  N   UNL A   1      33.274  17.174  25.275  1.00  0.00    -0.319 N 
ATOM     27  C   UNL A   1      34.577  16.549  25.511  1.00  0.00     0.291 C 
ATOM     28  C   UNL A   1      32.187  16.303  25.751  1.00  0.00     0.291 C 
ATOM     29  H   UNL A   1      33.290  18.010  25.859  1.00  0.00     0.349 HD
ATOM     30  C   UNL A   1      34.649  15.106  25.007  1.00  0.00     0.221 C 
ATOM     31  C   UNL A   1      32.346  14.808  25.378  1.00  0.00     0.221 C 
ATOM     32  O   UNL A   1      33.658  14.301  25.648  1.00  0.00    -0.370 OA
ENDBRANCH  23  26
ENDBRANCH  21  23
ENDBRANCH   9  21
ENDBRANCH   5   8
ENDBRANCH   3   4
ENDBRANCH   2   3
ENDBRANCH   1   2
BRANCH   1  33
ATOM     33  C   UNL A   1      31.765  27.668  26.868  1.00  0.00     0.002 C 
BRANCH  33  34
ATOM     34  C   UNL A   1      31.604  28.712  25.767  1.00  0.00     0.021 C 
BRANCH  34  35
ATOM     35  C   UNL A   1      32.698  29.764  25.660  1.00  0.00     0.116 C 
BRANCH  35  36
ATOM     36  N   UNL A   1      32.349  31.039  26.263  1.00  0.00    -0.352 N 
ATOM     37  C   UNL A   1      33.061  31.794  27.172  1.00  0.00     0.251 C 
ATOM     38  H   UNL A   1      31.484  31.417  25.984  1.00  0.00     0.163 HD
ATOM     39  O   UNL A   1      32.579  32.821  27.628  1.00  0.00    -0.269 OA
BRANCH  37  40
ATOM     40  C   UNL A   1      34.387  31.315  27.634  1.00  0.00     0.039 A 
ATOM     41  C   UNL A   1      34.597  29.972  27.955  1.00  0.00     0.014 A 
ATOM     42  C   UNL A   1      35.411  32.248  27.816  1.00  0.00     0.014 A 
ATOM     43  C   UNL A   1      35.754  29.598  28.632  1.00  0.00     0.010 A 
ATOM     44  C   UNL A   1      36.606  31.853  28.424  1.00  0.00     0.010 A 
ATOM     45  C   UNL A   1      36.762  30.539  28.894  1.00  0.00    -0.014 A 
BRANCH  45  46
ATOM     46  C   UNL A   1      37.953  30.154  29.698  1.00  0.00     0.031 A 
ATOM     47  C   UNL A   1      39.011  29.260  29.107  1.00  0.00     0.074 A 
ATOM     48  C   UNL A   1      38.103  30.642  30.945  1.00  0.00     0.049 A 
ATOM     49  N   UNL A   1      40.096  28.784  29.663  1.00  0.00    -0.248 NA
ATOM     50  C   UNL A   1      38.829  28.843  27.706  1.00  0.00     0.031 C 
ATOM     51  C   UNL A   1      37.162  31.546  31.605  1.00  0.00     0.029 A 
ATOM     52  N   UNL A   1      39.101  30.466  31.871  1.00  0.00    -0.354 N 
ATOM     53  C   UNL A   1      40.714  28.004  28.691  1.00  0.00     0.074 A 
ATOM     54  C   UNL A   1      39.867  28.038  27.521  1.00  0.00     0.031 C 
ATOM     55  C   UNL A   1      37.648  31.881  32.809  1.00  0.00     0.029 A 
ATOM     56  C   UNL A   1      38.897  31.159  33.041  1.00  0.00     0.049 A 
ATOM     57  H   UNL A   1      39.888  29.896  31.712  1.00  0.00     0.167 HD
ATOM     58  C   UNL A   1      41.888  27.331  28.769  1.00  0.00     0.034 A 
ATOM     59  C   UNL A   1      39.621  31.199  34.179  1.00  0.00     0.034 A 
ATOM     60  C   UNL A   1      42.732  27.323  29.936  1.00  0.00     0.049 A 
ATOM     61  C   UNL A   1      40.896  30.399  34.258  1.00  0.00     0.074 A 
ATOM     62  C   UNL A   1      43.936  26.667  30.115  1.00  0.00     0.029 A 
ATOM     63  N   UNL A   1      42.473  28.013  31.113  1.00  0.00    -0.354 N 
ATOM     64  N   UNL A   1      41.466  29.665  33.331  1.00  0.00    -0.248 NA
ATOM     65  C   UNL A   1      41.628  30.425  35.532  1.00  0.00     0.031 C 
ATOM     66  C   UNL A   1      44.380  26.916  31.414  1.00  0.00     0.029 A 
ATOM     67  C   UNL A   1      43.488  27.782  32.026  1.00  0.00     0.049 A 
ATOM     68  H   UNL A   1      41.685  28.581  31.274  1.00  0.00     0.167 HD
ATOM     69  C   UNL A   1      42.636  29.167  33.899  1.00  0.00     0.074 A 
ATOM     70  C   UNL A   1      42.701  29.697  35.245  1.00  0.00     0.031 C 
ATOM     71  C   UNL A   1      43.565  28.342  33.354  1.00  0.00     0.034 A 
BRANCH  58  72
ATOM     72  C   UNL A   1      42.358  26.549  27.566  1.00  0.00     0.023 A 
ATOM     73  C   UNL A   1      42.368  25.141  27.599  1.00  0.00     0.031 A 
ATOM     74  C   UNL A   1      42.919  27.192  26.448  1.00  0.00     0.131 A 
ATOM     75  C   UNL A   1      42.962  24.423  26.554  1.00  0.00     0.055 A 
ATOM     76  C   UNL A   1      43.476  26.471  25.391  1.00  0.00     0.041 A 
ATOM     77  F   UNL A   1      42.928  28.533  26.366  1.00  0.00    -0.206 F 
ATOM     78  C   UNL A   1      43.510  25.081  25.447  1.00  0.00     0.022 A 
BRANCH  75  79
ATOM     79  S   UNL A   1      43.101  22.616  26.614  1.00  0.00     0.124 S 
ATOM     80  O   UNL A   1      44.549  22.430  26.680  1.00  0.00    -0.237 OA
ATOM     81  O   UNL A   1      42.374  22.294  27.839  1.00  0.00    -0.237 OA
ATOM     82  O   UNL A   1      42.474  22.174  25.373  1.00  0.00    -0.744 OA
ENDBRANCH  75  79
ENDBRANCH  58  72
BRANCH  59  83
ATOM     83  C   UNL A   1      39.161  32.064  35.305  1.00  0.00     0.023 A 
ATOM     84  C   UNL A   1      39.557  33.412  35.396  1.00  0.00     0.031 A 
ATOM     85  C   UNL A   1      38.408  31.526  36.361  1.00  0.00     0.131 A 
ATOM     86  C   UNL A   1      39.264  34.150  36.550  1.00  0.00     0.055 A 
ATOM     87  C   UNL A   1      38.054  32.288  37.477  1.00  0.00     0.041 A 
ATOM     88  F   UNL A   1      38.013  30.245  36.326  1.00  0.00    -0.206 F 
ATOM     89  C   UNL A   1      38.500  33.601  37.585  1.00  0.00     0.022 A 
BRANCH  86  90
ATOM     90  S   UNL A   1      39.983  35.796  36.808  1.00  0.00     0.124 S 
ATOM     91  O   UNL A   1      41.395  35.483  37.003  1.00  0.00    -0.237 OA
ATOM     92  O   UNL A   1      39.653  36.468  35.552  1.00  0.00    -0.237 OA
ATOM     93  O   UNL A   1      39.279  36.300  37.982  1.00  0.00    -0.744 OA
ENDBRANCH  86  90
ENDBRANCH  59  83
BRANCH  71  94
ATOM     94  C   UNL A   1      44.767  27.954  34.178  1.00  0.00     0.023 A 
ATOM     95  C   UNL A   1      44.677  26.876  35.081  1.00  0.00     0.031 A 
ATOM     96  C   UNL A   1      45.922  28.754  34.207  1.00  0.00     0.131 A 
ATOM     97  C   UNL A   1      45.702  26.659  36.009  1.00  0.00     0.055 A 
ATOM     98  C   UNL A   1      46.962  28.502  35.103  1.00  0.00     0.041 A 
ATOM     99  F   UNL A   1      46.048  29.799  33.374  1.00  0.00    -0.206 F 
ATOM    100  C   UNL A   1      46.847  27.462  36.021  1.00  0.00     0.022 A 
BRANCH  97 101
ATOM    101  S   UNL A   1      45.545  25.389  37.296  1.00  0.00     0.124 S 
ATOM    102  O   UNL A   1      44.165  25.577  37.740  1.00  0.00    -0.237 OA
ATOM    103  O   UNL A   1      45.797  24.161  36.548  1.00  0.00    -0.237 OA
ATOM    104  O   UNL A   1      46.565  25.750  38.275  1.00  0.00    -0.744 OA
ENDBRANCH  97 101
ENDBRANCH  71  94
ENDBRANCH  45  46
ENDBRANCH  37  40
ENDBRANCH  35  36
ENDBRANCH  34  35
ENDBRANCH  33  34
ENDBRANCH   1  33
TORSDOF 19
ENDMDL
MODEL 2
REMARK VINA RESULT:     -11.6      0.374      7.346
REMARK SMILES CC(C)(C(=O)N1C[C@@H]2c3ccccc3OC[C@]2(C(=O)NCCCCCCNC(=O)c2ccc(-c3c4nc(c(-c5cc(S(=O)(=O)[O-])ccc5F)c5ccc([nH]5)c(-c5cc(S(=O)(=O)[O-])ccc5F)c5nc(c(-c6cc(S(=O)(=O)[O-])ccc6F)c6ccc3[nH]6)C=C5)C=C4)cc2)C1)[NH+]1CCOCC1
REMARK SMILES IDX 23 1 22 2 21 3 20 4 18 5 19 6 17 8 6 9 7 10 93 11 8 12 9 13
REMARK SMILES IDX 16 14 10 15 14 16 15 17 11 18 13 19 12 20 4 21 5 22 2 23
REMARK SMILES IDX 1 24 3 25 94 26 95 27 99 28 96 30 98 31 97 32 24 33 25 34
REMARK SMILES IDX 26 35 27 36 28 37 29 39 30 40 31 41 92 42 32 43 91 44 33 45
REMARK SMILES IDX 34 46 35 47 85 48 36 49 90 50 84 51 86 52 37 53 89 54 83 55
REMARK SMILES IDX 82 56 38 58 70 59 50 60 69 61 51 62 54 63 68 64 87 65 52 66
REMARK SMILES IDX 53 67 67 69 88 70 55 71 39 72 40 73 48 74 41 75 47 76 49 77
REMARK SMILES IDX 46 78 42 79 43 80 44 81 45 82 71 83 72 84 80 85 73 86 79 87
REMARK SMILES IDX 81 88 78 89 74 90 75 91 76 92 77 93 56 94 57 95 65 96 58 97
REMARK SMILES IDX 64 98 66 99 63 100 59 101 60 102 61 103 62 104
REMARK H PARENT 20 7 94 29 27 38 86 57 54 68
REMARK Flexibility Score: inf
ROOT
ATOM      1  C   UNL A   1      31.956  26.187  26.241  1.00  0.00     0.002 C 
ENDROOT
BRANCH   1   2
ATOM      2  C   UNL A   1      31.204  24.856  26.171  1.00  0.00     0.021 C 
BRANCH   2   3
ATOM      3  C   UNL A   1      31.722  23.806  25.202  1.00  0.00     0.116 C 
BRANCH   3   4
ATOM      4  N   UNL A   1      32.404  24.322  24.023  1.00  0.00    -0.355 N 
ATOM      5  C   UNL A   1      33.515  23.748  23.424  1.00  0.00     0.232 C 
ATOM      6  O   UNL A   1      33.721  23.948  22.226  1.00  0.00    -0.274 OA
ATOM      7  H   UNL A   1      32.046  25.146  23.618  1.00  0.00     0.163 HD
BRANCH   5   8
ATOM      8  C   UNL A   1      34.454  22.917  24.369  1.00  0.00     0.109 C 
ATOM      9  N   UNL A   1      34.006  20.494  24.245  1.00  0.00    -0.335 N 
ATOM     10  C   UNL A   1      35.194  20.695  25.025  1.00  0.00     0.129 C 
ATOM     11  C   UNL A   1      33.784  21.712  23.491  1.00  0.00     0.141 C 
ATOM     12  C   UNL A   1      35.763  21.995  24.447  1.00  0.00     0.063 C 
ATOM     13  C   UNL A   1      36.956  22.422  25.271  1.00  0.00     0.000 A 
ATOM     14  C   UNL A   1      35.270  24.287  24.413  1.00  0.00     0.249 C 
ATOM     15  C   UNL A   1      38.099  21.620  25.406  1.00  0.00     0.008 A 
ATOM     16  C   UNL A   1      36.957  23.679  25.856  1.00  0.00     0.122 A 
ATOM     17  O   UNL A   1      35.880  24.494  25.707  1.00  0.00    -0.492 OA
ATOM     18  C   UNL A   1      39.205  22.078  26.126  1.00  0.00     0.001 A 
ATOM     19  C   UNL A   1      38.046  24.140  26.590  1.00  0.00     0.047 A 
ATOM     20  C   UNL A   1      39.181  23.340  26.717  1.00  0.00     0.004 A 
BRANCH   9  21
ATOM     21  C   UNL A   1      33.003  19.635  24.684  1.00  0.00     0.283 C 
ATOM     22  O   UNL A   1      32.240  20.045  25.563  1.00  0.00    -0.268 OA
BRANCH  21  23
ATOM     23  C   UNL A   1      33.024  18.124  24.192  1.00  0.00     0.171 C 
ATOM     24  C   UNL A   1      31.777  17.724  23.379  1.00  0.00     0.090 C 
ATOM     25  C   UNL A   1      34.223  18.016  23.219  1.00  0.00     0.090 C 
BRANCH  23  26
ATOM     26  N   UNL A   1      33.270  17.144  25.285  1.00  0.00    -0.319 N 
ATOM     27  C   UNL A   1      34.578  16.522  25.510  1.00  0.00     0.291 C 
ATOM     28  C   UNL A   1      32.190  16.267  25.764  1.00  0.00     0.291 C 
ATOM     29  H   UNL A   1      33.288  17.977  25.873  1.00  0.00     0.349 HD
ATOM     30  C   UNL A   1      34.651  15.081  25.000  1.00  0.00     0.221 C 
ATOM     31  C   UNL A   1      32.351  14.774  25.384  1.00  0.00     0.221 C 
ATOM     32  O   UNL A   1      33.667  14.270  25.644  1.00  0.00    -0.370 OA
ENDBRANCH  23  26
ENDBRANCH  21  23
ENDBRANCH   9  21
ENDBRANCH   5   8
ENDBRANCH   3   4
ENDBRANCH   2   3
ENDBRANCH   1   2
BRANCH   1  33
ATOM     33  C   UNL A   1      31.143  27.479  26.354  1.00  0.00     0.002 C 
BRANCH  33  34
ATOM     34  C   UNL A   1      31.773  28.651  27.100  1.00  0.00     0.021 C 
BRANCH  34  35
ATOM     35  C   UNL A   1      32.546  29.657  26.261  1.00  0.00     0.116 C 
BRANCH  35  36
ATOM     36  N   UNL A   1      32.330  31.039  26.653  1.00  0.00    -0.352 N 
ATOM     37  C   UNL A   1      33.182  31.896  27.318  1.00  0.00     0.251 C 
ATOM     38  H   UNL A   1      31.454  31.416  26.411  1.00  0.00     0.163 HD
ATOM     39  O   UNL A   1      32.805  33.018  27.628  1.00  0.00    -0.269 OA
BRANCH  37  40
ATOM     40  C   UNL A   1      34.533  31.423  27.706  1.00  0.00     0.039 A 
ATOM     41  C   UNL A   1      34.771  30.076  27.990  1.00  0.00     0.014 A 
ATOM     42  C   UNL A   1      35.556  32.363  27.855  1.00  0.00     0.014 A 
ATOM     43  C   UNL A   1      35.964  29.701  28.602  1.00  0.00     0.010 A 
ATOM     44  C   UNL A   1      36.784  31.968  28.395  1.00  0.00     0.010 A 
ATOM     45  C   UNL A   1      36.975  30.648  28.832  1.00  0.00    -0.014 A 
BRANCH  45  46
ATOM     46  C   UNL A   1      38.208  30.260  29.569  1.00  0.00     0.031 A 
ATOM     47  C   UNL A   1      38.424  30.727  30.985  1.00  0.00     0.074 A 
ATOM     48  C   UNL A   1      39.113  29.455  28.979  1.00  0.00     0.049 A 
ATOM     49  N   UNL A   1      39.450  30.528  31.772  1.00  0.00    -0.248 NA
ATOM     50  C   UNL A   1      37.349  31.525  31.599  1.00  0.00     0.031 C 
ATOM     51  C   UNL A   1      38.990  28.912  27.627  1.00  0.00     0.029 A 
ATOM     52  N   UNL A   1      40.299  28.940  29.439  1.00  0.00    -0.354 N 
ATOM     53  C   UNL A   1      39.152  31.184  32.963  1.00  0.00     0.074 A 
ATOM     54  C   UNL A   1      37.866  31.820  32.784  1.00  0.00     0.031 C 
ATOM     55  C   UNL A   1      40.032  28.105  27.384  1.00  0.00     0.029 A 
ATOM     56  C   UNL A   1      40.938  28.130  28.529  1.00  0.00     0.049 A 
ATOM     57  H   UNL A   1      40.659  29.133  30.335  1.00  0.00     0.167 HD
ATOM     58  C   UNL A   1      39.882  31.239  34.103  1.00  0.00     0.034 A 
ATOM     59  C   UNL A   1      42.125  27.492  28.599  1.00  0.00     0.034 A 
ATOM     60  C   UNL A   1      41.153  30.583  34.273  1.00  0.00     0.049 A 
ATOM     61  C   UNL A   1      42.942  27.612  29.860  1.00  0.00     0.074 A 
ATOM     62  C   UNL A   1      41.972  30.584  35.388  1.00  0.00     0.029 A 
ATOM     63  N   UNL A   1      41.781  29.797  33.316  1.00  0.00    -0.354 N 
ATOM     64  N   UNL A   1      42.647  28.237  30.976  1.00  0.00    -0.248 NA
ATOM     65  C   UNL A   1      44.253  26.947  29.877  1.00  0.00     0.031 C 
ATOM     66  C   UNL A   1      43.118  29.845  35.089  1.00  0.00     0.029 A 
ATOM     67  C   UNL A   1      42.984  29.325  33.811  1.00  0.00     0.049 A 
ATOM     68  H   UNL A   1      41.424  29.606  32.419  1.00  0.00     0.167 HD
ATOM     69  C   UNL A   1      43.720  28.017  31.835  1.00  0.00     0.074 A 
ATOM     70  C   UNL A   1      44.663  27.187  31.117  1.00  0.00     0.031 C 
ATOM     71  C   UNL A   1      43.904  28.468  33.101  1.00  0.00     0.034 A 
BRANCH  58  72
ATOM     72  C   UNL A   1      39.340  32.019  35.276  1.00  0.00     0.023 A 
ATOM     73  C   UNL A   1      39.765  33.343  35.500  1.00  0.00     0.031 A 
ATOM     74  C   UNL A   1      38.516  31.413  36.240  1.00  0.00     0.131 A 
ATOM     75  C   UNL A   1      39.395  34.004  36.678  1.00  0.00     0.055 A 
ATOM     76  C   UNL A   1      38.119  32.089  37.395  1.00  0.00     0.041 A 
ATOM     77  F   UNL A   1      38.078  30.154  36.070  1.00  0.00    -0.206 F 
ATOM     78  C   UNL A   1      38.570  33.386  37.624  1.00  0.00     0.022 A 
BRANCH  75  79
ATOM     79  S   UNL A   1      40.017  35.664  37.060  1.00  0.00     0.124 S 
ATOM     80  O   UNL A   1      39.279  35.987  38.279  1.00  0.00    -0.237 OA
ATOM     81  O   UNL A   1      41.445  35.421  37.243  1.00  0.00    -0.237 OA
ATOM     82  O   UNL A   1      39.655  36.453  35.888  1.00  0.00    -0.744 OA
ENDBRANCH  75  79
ENDBRANCH  58  72
BRANCH  59  83
ATOM     83  C   UNL A   1      42.571  26.655  27.446  1.00  0.00     0.023 A 
ATOM     84  C   UNL A   1      42.437  25.253  27.470  1.00  0.00     0.031 A 
ATOM     85  C   UNL A   1      43.234  27.235  26.352  1.00  0.00     0.131 A 
ATOM     86  C   UNL A   1      43.024  24.479  26.461  1.00  0.00     0.055 A 
ATOM     87  C   UNL A   1      43.753  26.463  25.311  1.00  0.00     0.041 A 
ATOM     88  F   UNL A   1      43.394  28.565  26.287  1.00  0.00    -0.206 F 
ATOM     89  C   UNL A   1      43.668  25.075  25.373  1.00  0.00     0.022 A 
BRANCH  86  90
ATOM     90  S   UNL A   1      43.097  22.671  26.601  1.00  0.00     0.124 S 
ATOM     91  O   UNL A   1      44.535  22.426  26.627  1.00  0.00    -0.237 OA
ATOM     92  O   UNL A   1      42.395  22.439  27.863  1.00  0.00    -0.237 OA
ATOM     93  O   UNL A   1      42.396  22.204  25.410  1.00  0.00    -0.744 OA
ENDBRANCH  86  90
ENDBRANCH  59  83
BRANCH  71  94
ATOM     94  C   UNL A   1      45.160  28.073  33.839  1.00  0.00     0.023 A 
ATOM     95  C   UNL A   1      45.148  26.947  34.686  1.00  0.00     0.031 A 
ATOM     96  C   UNL A   1      46.293  28.904  33.850  1.00  0.00     0.131 A 
ATOM     97  C   UNL A   1      46.227  26.712  35.546  1.00  0.00     0.055 A 
ATOM     98  C   UNL A   1      47.386  28.637  34.676  1.00  0.00     0.041 A 
ATOM     99  F   UNL A   1      46.345  29.995  33.069  1.00  0.00    -0.206 F 
ATOM    100  C   UNL A   1      47.349  27.547  35.540  1.00  0.00     0.022 A 
BRANCH  97 101
ATOM    101  S   UNL A   1      46.174  25.372  36.769  1.00  0.00     0.124 S 
ATOM    102  O   UNL A   1      44.760  25.356  37.138  1.00  0.00    -0.237 OA
ATOM    103  O   UNL A   1      46.627  24.225  35.988  1.00  0.00    -0.237 OA
ATOM    104  O   UNL A   1      47.084  25.817  37.820  1.00  0.00    -0.744 OA
ENDBRANCH  97 101
ENDBRANCH  71  94
ENDBRANCH  45  46
ENDBRANCH  37  40
ENDBRANCH  35  36
ENDBRANCH  34  35
ENDBRANCH  33  34
ENDBRANCH   1  33
TORSDOF 19
ENDMDL
MODEL 3
REMARK VINA RESULT:     -11.6      2.014      4.512
REMARK SMILES CC(C)(C(=O)N1C[C@@H]2c3ccccc3OC[C@]2(C(=O)NCCCCCCNC(=O)c2ccc(-c3c4nc(c(-c5cc(S(=O)(=O)[O-])ccc5F)c5ccc([nH]5)c(-c5cc(S(=O)(=O)[O-])ccc5F)c5nc(c(-c6cc(S(=O)(=O)[O-])ccc6F)c6ccc3[nH]6)C=C5)C=C4)cc2)C1)[NH+]1CCOCC1
REMARK SMILES IDX 23 1 22 2 21 3 20 4 18 5 19 6 17 8 6 9 7 10 93 11 8 12 9 13
REMARK SMILES IDX 16 14 10 15 14 16 15 17 11 18 13 19 12 20 4 21 5 22 2 23
REMARK SMILES IDX 1 24 3 25 94 26 95 27 99 28 96 30 98 31 97 32 24 33 25 34
REMARK SMILES IDX 26 35 27 36 28 37 29 39 30 40 31 41 92 42 32 43 91 44 33 45
REMARK SMILES IDX 34 46 35 47 85 48 36 49 90 50 84 51 86 52 37 53 89 54 83 55
REMARK SMILES IDX 82 56 38 58 70 59 50 60 69 61 51 62 54 63 68 64 87 65 52 66
REMARK SMILES IDX 53 67 67 69 88 70 55 71 39 72 40 73 48 74 41 75 47 76 49 77
REMARK SMILES IDX 46 78 42 79 43 80 44 81 45 82 71 83 72 84 80 85 73 86 79 87
REMARK SMILES IDX 81 88 78 89 74 90 75 91 76 92 77 93 56 94 57 95 65 96 58 97
REMARK SMILES IDX 64 98 66 99 63 100 59 101 60 102 61 103 62 104
REMARK H PARENT 20 7 94 29 27 38 86 57 54 68
REMARK Flexibility Score: inf
ROOT
ATOM      1  C   UNL A   1      33.446  27.707  26.848  1.00  0.00     0.002 C 
ENDROOT
BRANCH   1   2
ATOM      2  C   UNL A   1      33.548  26.639  25.757  1.00  0.00     0.021 C 
BRANCH   2   3
ATOM      3  C   UNL A   1      33.663  25.190  26.201  1.00  0.00     0.116 C 
BRANCH   3   4
ATOM      4  N   UNL A   1      34.939  24.546  25.917  1.00  0.00    -0.355 N 
ATOM      5  C   UNL A   1      35.144  23.561  24.962  1.00  0.00     0.232 C 
ATOM      6  O   UNL A   1      36.266  23.427  24.471  1.00  0.00    -0.274 OA
ATOM      7  H   UNL A   1      35.718  24.834  26.445  1.00  0.00     0.163 HD
BRANCH   5   8
ATOM      8  C   UNL A   1      33.906  22.656  24.630  1.00  0.00     0.109 C 
ATOM      9  N   UNL A   1      32.432  23.668  22.929  1.00  0.00    -0.335 N 
ATOM     10  C   UNL A   1      31.988  22.324  23.169  1.00  0.00     0.129 C 
ATOM     11  C   UNL A   1      33.789  23.762  23.432  1.00  0.00     0.141 C 
ATOM     12  C   UNL A   1      33.278  21.611  23.588  1.00  0.00     0.063 C 
ATOM     13  C   UNL A   1      32.947  20.201  24.019  1.00  0.00     0.000 A 
ATOM     14  C   UNL A   1      34.770  21.556  25.397  1.00  0.00     0.249 C 
ATOM     15  C   UNL A   1      32.351  19.274  23.152  1.00  0.00     0.008 A 
ATOM     16  C   UNL A   1      33.308  19.781  25.289  1.00  0.00     0.122 A 
ATOM     17  O   UNL A   1      33.925  20.647  26.137  1.00  0.00    -0.492 OA
ATOM     18  C   UNL A   1      32.116  17.961  23.570  1.00  0.00     0.001 A 
ATOM     19  C   UNL A   1      33.065  18.482  25.725  1.00  0.00     0.047 A 
ATOM     20  C   UNL A   1      32.476  17.563  24.856  1.00  0.00     0.004 A 
BRANCH   9  21
ATOM     21  C   UNL A   1      31.523  24.721  22.887  1.00  0.00     0.283 C 
ATOM     22  O   UNL A   1      30.335  24.463  23.098  1.00  0.00    -0.268 OA
BRANCH  21  23
ATOM     23  C   UNL A   1      32.022  26.139  22.368  1.00  0.00     0.171 C 
ATOM     24  C   UNL A   1      33.553  26.240  22.235  1.00  0.00     0.090 C 
ATOM     25  C   UNL A   1      31.456  26.285  20.935  1.00  0.00     0.090 C 
BRANCH  23  26
ATOM     26  N   UNL A   1      31.490  27.283  23.157  1.00  0.00    -0.319 N 
ATOM     27  C   UNL A   1      30.257  27.197  23.945  1.00  0.00     0.291 C 
ATOM     28  C   UNL A   1      31.732  28.669  22.725  1.00  0.00     0.291 C 
ATOM     29  H   UNL A   1      32.223  27.022  23.816  1.00  0.00     0.349 HD
ATOM     30  C   UNL A   1      29.064  27.872  23.265  1.00  0.00     0.221 C 
ATOM     31  C   UNL A   1      30.482  29.408  22.187  1.00  0.00     0.221 C 
ATOM     32  O   UNL A   1      29.336  29.255  23.033  1.00  0.00    -0.370 OA
ENDBRANCH  23  26
ENDBRANCH  21  23
ENDBRANCH   9  21
ENDBRANCH   5   8
ENDBRANCH   3   4
ENDBRANCH   2   3
ENDBRANCH   1   2
BRANCH   1  33
ATOM     33  C   UNL A   1      32.055  28.163  27.295  1.00  0.00     0.002 C 
BRANCH  33  34
ATOM     34  C   UNL A   1      31.590  29.549  26.860  1.00  0.00     0.021 C 
BRANCH  34  35
ATOM     35  C   UNL A   1      32.656  30.486  26.312  1.00  0.00     0.116 C 
BRANCH  35  36
ATOM     36  N   UNL A   1      32.548  31.849  26.800  1.00  0.00    -0.352 N 
ATOM     37  C   UNL A   1      33.444  32.574  27.559  1.00  0.00     0.251 C 
ATOM     38  H   UNL A   1      31.720  32.323  26.555  1.00  0.00     0.163 HD
ATOM     39  O   UNL A   1      33.156  33.700  27.940  1.00  0.00    -0.269 OA
BRANCH  37  40
ATOM     40  C   UNL A   1      34.729  31.951  27.959  1.00  0.00     0.039 A 
ATOM     41  C   UNL A   1      34.799  30.598  28.301  1.00  0.00     0.014 A 
ATOM     42  C   UNL A   1      35.864  32.760  28.059  1.00  0.00     0.014 A 
ATOM     43  C   UNL A   1      35.943  30.103  28.921  1.00  0.00     0.010 A 
ATOM     44  C   UNL A   1      37.039  32.238  28.608  1.00  0.00     0.010 A 
ATOM     45  C   UNL A   1      37.067  30.924  29.102  1.00  0.00    -0.014 A 
BRANCH  45  46
ATOM     46  C   UNL A   1      38.251  30.416  29.848  1.00  0.00     0.031 A 
ATOM     47  C   UNL A   1      39.213  29.465  29.186  1.00  0.00     0.074 A 
ATOM     48  C   UNL A   1      38.481  30.842  31.105  1.00  0.00     0.049 A 
ATOM     49  N   UNL A   1      40.274  28.884  29.685  1.00  0.00    -0.248 NA
ATOM     50  C   UNL A   1      38.951  29.117  27.779  1.00  0.00     0.031 C 
ATOM     51  C   UNL A   1      37.638  31.791  31.831  1.00  0.00     0.029 A 
ATOM     52  N   UNL A   1      39.493  30.552  31.986  1.00  0.00    -0.354 N 
ATOM     53  C   UNL A   1      40.795  28.095  28.664  1.00  0.00     0.074 A 
ATOM     54  C   UNL A   1      39.914  28.241  27.527  1.00  0.00     0.031 C 
ATOM     55  C   UNL A   1      38.190  32.040  33.027  1.00  0.00     0.029 A 
ATOM     56  C   UNL A   1      39.384  31.214  33.187  1.00  0.00     0.049 A 
ATOM     57  H   UNL A   1      40.226  29.929  31.778  1.00  0.00     0.167 HD
ATOM     58  C   UNL A   1      41.913  27.330  28.674  1.00  0.00     0.034 A 
ATOM     59  C   UNL A   1      40.147  31.153  34.298  1.00  0.00     0.034 A 
ATOM     60  C   UNL A   1      42.793  27.211  29.809  1.00  0.00     0.049 A 
ATOM     61  C   UNL A   1      41.357  30.253  34.302  1.00  0.00     0.074 A 
ATOM     62  C   UNL A   1      43.947  26.456  29.919  1.00  0.00     0.029 A 
ATOM     63  N   UNL A   1      42.631  27.873  31.018  1.00  0.00    -0.354 N 
ATOM     64  N   UNL A   1      41.835  29.512  33.329  1.00  0.00    -0.248 NA
ATOM     65  C   UNL A   1      42.131  30.173  35.548  1.00  0.00     0.031 C 
ATOM     66  C   UNL A   1      44.453  26.619  31.209  1.00  0.00     0.029 A 
ATOM     67  C   UNL A   1      43.654  27.529  31.884  1.00  0.00     0.049 A 
ATOM     68  H   UNL A   1      41.897  28.494  31.228  1.00  0.00     0.167 HD
ATOM     69  C   UNL A   1      42.979  28.903  33.835  1.00  0.00     0.074 A 
ATOM     70  C   UNL A   1      43.132  29.374  35.196  1.00  0.00     0.031 C 
ATOM     71  C   UNL A   1      43.820  28.030  33.227  1.00  0.00     0.034 A 
BRANCH  58  72
ATOM     72  C   UNL A   1      42.278  26.560  27.428  1.00  0.00     0.023 A 
ATOM     73  C   UNL A   1      41.963  25.191  27.326  1.00  0.00     0.031 A 
ATOM     74  C   UNL A   1      43.052  27.142  26.408  1.00  0.00     0.131 A 
ATOM     75  C   UNL A   1      42.451  24.442  26.248  1.00  0.00     0.055 A 
ATOM     76  C   UNL A   1      43.504  26.400  25.317  1.00  0.00     0.041 A 
ATOM     77  F   UNL A   1      43.374  28.445  26.456  1.00  0.00    -0.206 F 
ATOM     78  C   UNL A   1      43.216  25.040  25.240  1.00  0.00     0.022 A 
BRANCH  75  79
ATOM     79  S   UNL A   1      42.168  22.654  26.141  1.00  0.00     0.124 S 
ATOM     80  O   UNL A   1      42.860  22.169  27.333  1.00  0.00    -0.237 OA
ATOM     81  O   UNL A   1      40.711  22.572  26.190  1.00  0.00    -0.237 OA
ATOM     82  O   UNL A   1      42.780  22.277  24.872  1.00  0.00    -0.744 OA
ENDBRANCH  75  79
ENDBRANCH  58  72
BRANCH  59  83
ATOM     83  C   UNL A   1      39.796  32.008  35.471  1.00  0.00     0.023 A 
ATOM     84  C   UNL A   1      38.977  31.521  36.507  1.00  0.00     0.031 A 
ATOM     85  C   UNL A   1      40.186  33.357  35.518  1.00  0.00     0.131 A 
ATOM     86  C   UNL A   1      38.515  32.393  37.501  1.00  0.00     0.055 A 
ATOM     87  C   UNL A   1      39.782  34.204  36.551  1.00  0.00     0.041 A 
ATOM     88  F   UNL A   1      40.959  33.871  34.550  1.00  0.00    -0.206 F 
ATOM     89  C   UNL A   1      38.926  33.729  37.539  1.00  0.00     0.022 A 
BRANCH  86  90
ATOM     90  S   UNL A   1      37.255  31.859  38.693  1.00  0.00     0.124 S 
ATOM     91  O   UNL A   1      37.072  30.457  38.333  1.00  0.00    -0.237 OA
ATOM     92  O   UNL A   1      37.927  32.101  39.968  1.00  0.00    -0.237 OA
ATOM     93  O   UNL A   1      36.123  32.737  38.415  1.00  0.00    -0.744 OA
ENDBRANCH  86  90
ENDBRANCH  59  83
BRANCH  71  94
ATOM     94  C   UNL A   1      45.015  27.517  33.993  1.00  0.00     0.023 A 
ATOM     95  C   UNL A   1      44.871  26.411  34.854  1.00  0.00     0.031 A 
ATOM     96  C   UNL A   1      46.229  28.224  34.012  1.00  0.00     0.131 A 
ATOM     97  C   UNL A   1      45.906  26.078  35.737  1.00  0.00     0.055 A 
ATOM     98  C   UNL A   1      47.275  27.857  34.861  1.00  0.00     0.041 A 
ATOM     99  F   UNL A   1      46.408  29.292  33.218  1.00  0.00    -0.206 F 
ATOM    100  C   UNL A   1      47.109  26.791  35.740  1.00  0.00     0.022 A 
BRANCH  97 101
ATOM    101  S   UNL A   1      45.693  24.770  36.977  1.00  0.00     0.124 S 
ATOM    102  O   UNL A   1      45.639  23.570  36.144  1.00  0.00    -0.237 OA
ATOM    103  O   UNL A   1      46.900  24.914  37.785  1.00  0.00    -0.237 OA
ATOM    104  O   UNL A   1      44.443  25.117  37.645  1.00  0.00    -0.744 OA
ENDBRANCH  97 101
ENDBRANCH  71  94
ENDBRANCH  45  46
ENDBRANCH  37  40
ENDBRANCH  35  36
ENDBRANCH  34  35
ENDBRANCH  33  34
ENDBRANCH   1  33
TORSDOF 19
ENDMDL
