MODEL 1
REMARK VINA RESULT:     -12.3      0.000      0.000
REMARK SMILES C[C@@H](C(=O)NCCCCCCNC(=O)c1ccc(-c2c3nc(c(-c4cc(S(=O)(=O)[O-])ccc4F)c4ccc([nH]4)c(-c4cc(S(=O)(=O)[O-])ccc4F)c4nc(c(-c5cc(S(=O)(=O)[O-])ccc5F)c5ccc2[nH]5)C=C4)C=C3)cc1)N1C(=O)/C(=C/c2nc3ccccc3[nH]2)SC1=S
REMARK SMILES IDX 9 1 8 2 7 3 6 4 5 5 3 6 4 7 2 9 1 10 78 11 79 12 93 13 80 14
REMARK SMILES IDX 81 15 92 16 94 17 82 18 83 19 84 20 91 21 85 22 90 23 86 25
REMARK SMILES IDX 89 26 87 27 88 28 10 29 11 30 12 31 13 32 14 34 15 35 16 36
REMARK SMILES IDX 77 37 17 38 76 39 18 40 19 41 20 42 70 43 21 44 75 45 69 46
REMARK SMILES IDX 71 47 22 48 74 49 68 50 67 51 23 53 55 54 35 55 54 56 36 57
REMARK SMILES IDX 39 58 53 59 72 60 37 61 38 62 52 64 73 65 40 66 24 67 25 68
REMARK SMILES IDX 33 69 26 70 32 71 34 72 31 73 27 74 28 75 29 76 30 77 56 78
REMARK SMILES IDX 57 79 65 80 58 81 64 82 66 83 63 84 59 85 60 86 61 87 62 88
REMARK SMILES IDX 41 89 42 90 50 91 43 92 49 93 51 94 48 95 44 96 45 97 46 98
REMARK SMILES IDX 47 99
REMARK H PARENT 5 8 91 24 12 33 71 52 39 63
REMARK Flexibility Score: inf
ROOT
ATOM      1  C   UNL A   1      31.174  31.256  26.792  1.00  0.00     0.002 C 
ENDROOT
BRANCH   1   2
ATOM      2  C   UNL A   1      31.978  30.218  26.004  1.00  0.00     0.002 C 
BRANCH   2   3
ATOM      3  C   UNL A   1      32.552  29.072  26.844  1.00  0.00     0.021 C 
BRANCH   3   4
ATOM      4  C   UNL A   1      31.691  27.811  26.842  1.00  0.00     0.116 C 
BRANCH   4   5
ATOM      5  N   UNL A   1      30.987  27.659  25.585  1.00  0.00    -0.354 N 
ATOM      6  C   UNL A   1      31.399  27.080  24.420  1.00  0.00     0.242 C 
ATOM      7  O   UNL A   1      30.575  26.998  23.506  1.00  0.00    -0.273 OA
ATOM      8  H   UNL A   1      30.074  28.028  25.569  1.00  0.00     0.163 HD
BRANCH   6   9
ATOM      9  C   UNL A   1      32.829  26.505  24.315  1.00  0.00     0.178 C 
ATOM     10  C   UNL A   1      33.734  27.165  23.281  1.00  0.00     0.042 C 
BRANCH   9  11
ATOM     11  N   UNL A   1      32.766  25.046  24.135  1.00  0.00    -0.281 N 
ATOM     12  C   UNL A   1      32.752  24.209  25.245  1.00  0.00     0.267 C 
ATOM     13  C   UNL A   1      32.715  24.433  22.900  1.00  0.00     0.149 C 
ATOM     14  O   UNL A   1      32.678  24.543  26.422  1.00  0.00    -0.268 OA
ATOM     15  C   UNL A   1      32.784  22.788  24.818  1.00  0.00     0.084 C 
ATOM     16  S   UNL A   1      32.621  22.702  23.105  1.00  0.00    -0.054 SA
ATOM     17  S   UNL A   1      32.687  25.126  21.382  1.00  0.00    -0.052 S 
ATOM     18  C   UNL A   1      32.902  21.773  25.690  1.00  0.00     0.068 C 
BRANCH  18  19
ATOM     19  C   UNL A   1      32.964  20.435  25.234  1.00  0.00     0.132 A 
ATOM     20  N   UNL A   1      32.101  19.457  25.408  1.00  0.00    -0.229 NA
ATOM     21  N   UNL A   1      34.090  19.969  24.594  1.00  0.00    -0.338 N 
ATOM     22  C   UNL A   1      32.763  18.311  25.088  1.00  0.00     0.089 A 
ATOM     23  C   UNL A   1      34.014  18.595  24.558  1.00  0.00     0.066 A 
ATOM     24  H   UNL A   1      34.819  20.521  24.228  1.00  0.00     0.168 HD
ATOM     25  C   UNL A   1      32.359  16.984  25.268  1.00  0.00     0.030 A 
ATOM     26  C   UNL A   1      34.908  17.599  24.160  1.00  0.00     0.028 A 
ATOM     27  C   UNL A   1      33.246  15.967  24.909  1.00  0.00     0.002 A 
ATOM     28  C   UNL A   1      34.494  16.272  24.359  1.00  0.00     0.002 A 
ENDBRANCH  18  19
ENDBRANCH   9  11
ENDBRANCH   6   9
ENDBRANCH   4   5
ENDBRANCH   3   4
ENDBRANCH   2   3
ENDBRANCH   1   2
BRANCH   1  29
ATOM     29  C   UNL A   1      31.598  32.709  26.562  1.00  0.00     0.021 C 
BRANCH  29  30
ATOM     30  C   UNL A   1      32.791  33.157  27.397  1.00  0.00     0.116 C 
BRANCH  30  31
ATOM     31  N   UNL A   1      32.679  34.549  27.795  1.00  0.00    -0.352 N 
ATOM     32  C   UNL A   1      33.278  35.202  28.842  1.00  0.00     0.251 C 
ATOM     33  H   UNL A   1      32.089  35.102  27.234  1.00  0.00     0.163 HD
ATOM     34  O   UNL A   1      32.885  36.320  29.162  1.00  0.00    -0.269 OA
BRANCH  32  35
ATOM     35  C   UNL A   1      34.380  34.553  29.587  1.00  0.00     0.039 A 
ATOM     36  C   UNL A   1      35.672  34.598  29.058  1.00  0.00     0.014 A 
ATOM     37  C   UNL A   1      34.139  33.876  30.786  1.00  0.00     0.014 A 
ATOM     38  C   UNL A   1      36.723  33.987  29.745  1.00  0.00     0.010 A 
ATOM     39  C   UNL A   1      35.201  33.344  31.513  1.00  0.00     0.010 A 
ATOM     40  C   UNL A   1      36.501  33.369  30.986  1.00  0.00    -0.014 A 
BRANCH  40  41
ATOM     41  C   UNL A   1      37.607  32.694  31.715  1.00  0.00     0.031 A 
ATOM     42  C   UNL A   1      38.340  31.547  31.068  1.00  0.00     0.074 A 
ATOM     43  C   UNL A   1      37.932  33.089  32.962  1.00  0.00     0.049 A 
ATOM     44  N   UNL A   1      39.312  30.810  31.543  1.00  0.00    -0.248 NA
ATOM     45  C   UNL A   1      37.899  31.158  29.720  1.00  0.00     0.031 C 
ATOM     46  C   UNL A   1      37.271  34.164  33.706  1.00  0.00     0.029 A 
ATOM     47  N   UNL A   1      38.901  32.638  33.823  1.00  0.00    -0.354 N 
ATOM     48  C   UNL A   1      39.585  29.863  30.561  1.00  0.00     0.074 A 
ATOM     49  C   UNL A   1      38.627  30.075  29.498  1.00  0.00     0.031 C 
ATOM     50  C   UNL A   1      37.880  34.316  34.893  1.00  0.00     0.029 A 
ATOM     51  C   UNL A   1      38.942  33.322  35.017  1.00  0.00     0.049 A 
ATOM     52  H   UNL A   1      39.508  31.895  33.607  1.00  0.00     0.167 HD
ATOM     53  C   UNL A   1      40.561  28.920  30.536  1.00  0.00     0.034 A 
ATOM     54  C   UNL A   1      39.745  33.164  36.088  1.00  0.00     0.034 A 
ATOM     55  C   UNL A   1      41.518  28.736  31.600  1.00  0.00     0.049 A 
ATOM     56  C   UNL A   1      40.811  32.097  36.046  1.00  0.00     0.074 A 
ATOM     57  C   UNL A   1      42.582  27.852  31.657  1.00  0.00     0.029 A 
ATOM     58  N   UNL A   1      41.525  29.442  32.797  1.00  0.00    -0.354 N 
ATOM     59  N   UNL A   1      41.090  31.243  35.086  1.00  0.00    -0.248 NA
ATOM     60  C   UNL A   1      41.678  31.983  37.225  1.00  0.00     0.031 C 
ATOM     61  C   UNL A   1      43.179  27.967  32.918  1.00  0.00     0.029 A 
ATOM     62  C   UNL A   1      42.552  28.990  33.611  1.00  0.00     0.049 A 
ATOM     63  H   UNL A   1      40.893  30.159  33.033  1.00  0.00     0.167 HD
ATOM     64  C   UNL A   1      42.198  30.524  35.531  1.00  0.00     0.074 A 
ATOM     65  C   UNL A   1      42.537  31.054  36.836  1.00  0.00     0.031 C 
ATOM     66  C   UNL A   1      42.879  29.524  34.914  1.00  0.00     0.034 A 
BRANCH  53  67
ATOM     67  C   UNL A   1      40.613  28.002  29.336  1.00  0.00     0.023 A 
ATOM     68  C   UNL A   1      41.542  28.187  28.297  1.00  0.00     0.031 A 
ATOM     69  C   UNL A   1      39.698  26.941  29.212  1.00  0.00     0.131 A 
ATOM     70  C   UNL A   1      41.480  27.386  27.147  1.00  0.00     0.055 A 
ATOM     71  C   UNL A   1      39.701  26.088  28.107  1.00  0.00     0.041 A 
ATOM     72  F   UNL A   1      38.769  26.725  30.158  1.00  0.00    -0.206 F 
ATOM     73  C   UNL A   1      40.584  26.318  27.057  1.00  0.00     0.022 A 
BRANCH  70  74
ATOM     74  S   UNL A   1      42.472  27.861  25.703  1.00  0.00     0.124 S 
ATOM     75  O   UNL A   1      43.771  28.131  26.316  1.00  0.00    -0.237 OA
ATOM     76  O   UNL A   1      42.396  26.672  24.864  1.00  0.00    -0.237 OA
ATOM     77  O   UNL A   1      41.780  29.039  25.185  1.00  0.00    -0.744 OA
ENDBRANCH  70  74
ENDBRANCH  53  67
BRANCH  54  78
ATOM     78  C   UNL A   1      39.589  34.036  37.290  1.00  0.00     0.023 A 
ATOM     79  C   UNL A   1      38.984  33.551  38.460  1.00  0.00     0.031 A 
ATOM     80  C   UNL A   1      39.993  35.382  37.268  1.00  0.00     0.131 A 
ATOM     81  C   UNL A   1      38.749  34.417  39.539  1.00  0.00     0.055 A 
ATOM     82  C   UNL A   1      39.813  36.225  38.366  1.00  0.00     0.041 A 
ATOM     83  F   UNL A   1      40.581  35.898  36.177  1.00  0.00    -0.206 F 
ATOM     84  C   UNL A   1      39.173  35.747  39.505  1.00  0.00     0.022 A 
BRANCH  81  85
ATOM     85  S   UNL A   1      37.788  33.805  40.951  1.00  0.00     0.124 S 
ATOM     86  O   UNL A   1      36.705  33.092  40.284  1.00  0.00    -0.237 OA
ATOM     87  O   UNL A   1      38.768  32.979  41.648  1.00  0.00    -0.237 OA
ATOM     88  O   UNL A   1      37.396  35.027  41.649  1.00  0.00    -0.744 OA
ENDBRANCH  81  85
ENDBRANCH  54  78
BRANCH  66  89
ATOM     89  C   UNL A   1      44.102  28.984  35.619  1.00  0.00     0.023 A 
ATOM     90  C   UNL A   1      44.029  27.914  36.528  1.00  0.00     0.031 A 
ATOM     91  C   UNL A   1      45.359  29.573  35.395  1.00  0.00     0.131 A 
ATOM     92  C   UNL A   1      45.176  27.513  37.230  1.00  0.00     0.055 A 
ATOM     93  C   UNL A   1      46.511  29.120  36.040  1.00  0.00     0.041 A 
ATOM     94  F   UNL A   1      45.491  30.602  34.542  1.00  0.00    -0.206 F 
ATOM     95  C   UNL A   1      46.421  28.097  36.977  1.00  0.00     0.022 A 
BRANCH  92  96
ATOM     96  S   UNL A   1      44.999  26.303  38.570  1.00  0.00     0.124 S 
ATOM     97  O   UNL A   1      43.883  25.489  38.098  1.00  0.00    -0.237 OA
ATOM     98  O   UNL A   1      46.304  25.651  38.575  1.00  0.00    -0.237 OA
ATOM     99  O   UNL A   1      44.714  27.128  39.742  1.00  0.00    -0.744 OA
ENDBRANCH  92  96
ENDBRANCH  66  89
ENDBRANCH  40  41
ENDBRANCH  32  35
ENDBRANCH  30  31
ENDBRANCH  29  30
ENDBRANCH   1  29
TORSDOF 18
ENDMDL
MODEL 2
REMARK VINA RESULT:     -12.0      1.646      2.131
REMARK SMILES C[C@@H](C(=O)NCCCCCCNC(=O)c1ccc(-c2c3nc(c(-c4cc(S(=O)(=O)[O-])ccc4F)c4ccc([nH]4)c(-c4cc(S(=O)(=O)[O-])ccc4F)c4nc(c(-c5cc(S(=O)(=O)[O-])ccc5F)c5ccc2[nH]5)C=C4)C=C3)cc1)N1C(=O)/C(=C/c2nc3ccccc3[nH]2)SC1=S
REMARK SMILES IDX 9 1 8 2 7 3 6 4 5 5 3 6 4 7 2 9 1 10 78 11 79 12 93 13 80 14
REMARK SMILES IDX 81 15 92 16 94 17 82 18 83 19 84 20 91 21 85 22 90 23 86 25
REMARK SMILES IDX 89 26 87 27 88 28 10 29 11 30 12 31 13 32 14 34 15 35 16 36
REMARK SMILES IDX 77 37 17 38 76 39 18 40 19 41 20 42 70 43 21 44 75 45 69 46
REMARK SMILES IDX 71 47 22 48 74 49 68 50 67 51 23 53 55 54 35 55 54 56 36 57
REMARK SMILES IDX 39 58 53 59 72 60 37 61 38 62 52 64 73 65 40 66 24 67 25 68
REMARK SMILES IDX 33 69 26 70 32 71 34 72 31 73 27 74 28 75 29 76 30 77 56 78
REMARK SMILES IDX 57 79 65 80 58 81 64 82 66 83 63 84 59 85 60 86 61 87 62 88
REMARK SMILES IDX 41 89 42 90 50 91 43 92 49 93 51 94 48 95 44 96 45 97 46 98
REMARK SMILES IDX 47 99
REMARK H PARENT 5 8 91 24 12 33 71 52 39 63
REMARK Flexibility Score: inf
ROOT
ATOM      1  C   UNL A   1      31.347  30.960  26.682  1.00  0.00     0.002 C 
ENDROOT
BRANCH   1   2
ATOM      2  C   UNL A   1      31.755  30.083  25.493  1.00  0.00     0.002 C 
BRANCH   2   3
ATOM      3  C   UNL A   1      33.159  29.478  25.589  1.00  0.00     0.021 C 
BRANCH   3   4
ATOM      4  C   UNL A   1      33.178  27.951  25.582  1.00  0.00     0.116 C 
BRANCH   4   5
ATOM      5  N   UNL A   1      32.012  27.409  26.251  1.00  0.00    -0.354 N 
ATOM      6  C   UNL A   1      31.115  26.477  25.819  1.00  0.00     0.242 C 
ATOM      7  O   UNL A   1      30.246  26.114  26.616  1.00  0.00    -0.273 OA
ATOM      8  H   UNL A   1      31.844  27.767  27.153  1.00  0.00     0.163 HD
BRANCH   6   9
ATOM      9  C   UNL A   1      31.255  25.879  24.402  1.00  0.00     0.178 C 
ATOM     10  C   UNL A   1      30.053  25.092  23.892  1.00  0.00     0.042 C 
BRANCH   9  11
ATOM     11  N   UNL A   1      32.498  25.094  24.314  1.00  0.00    -0.281 N 
ATOM     12  C   UNL A   1      32.769  24.115  25.262  1.00  0.00     0.267 C 
ATOM     13  C   UNL A   1      33.439  25.268  23.320  1.00  0.00     0.149 C 
ATOM     14  O   UNL A   1      32.026  23.723  26.155  1.00  0.00    -0.268 OA
ATOM     15  C   UNL A   1      34.112  23.529  25.026  1.00  0.00     0.084 C 
ATOM     16  S   UNL A   1      34.748  24.136  23.544  1.00  0.00    -0.054 SA
ATOM     17  S   UNL A   1      33.418  26.320  22.024  1.00  0.00    -0.052 S 
ATOM     18  C   UNL A   1      34.675  22.647  25.869  1.00  0.00     0.068 C 
BRANCH  18  19
ATOM     19  C   UNL A   1      35.973  22.141  25.621  1.00  0.00     0.132 A 
ATOM     20  N   UNL A   1      36.329  21.001  25.070  1.00  0.00    -0.229 NA
ATOM     21  N   UNL A   1      37.083  22.821  26.071  1.00  0.00    -0.338 N 
ATOM     22  C   UNL A   1      37.647  20.835  25.369  1.00  0.00     0.089 A 
ATOM     23  C   UNL A   1      38.160  21.968  25.987  1.00  0.00     0.066 A 
ATOM     24  H   UNL A   1      37.101  23.751  26.395  1.00  0.00     0.168 HD
ATOM     25  C   UNL A   1      38.458  19.711  25.173  1.00  0.00     0.030 A 
ATOM     26  C   UNL A   1      39.486  22.058  26.414  1.00  0.00     0.028 A 
ATOM     27  C   UNL A   1      39.780  19.762  25.620  1.00  0.00     0.002 A 
ATOM     28  C   UNL A   1      40.283  20.919  26.222  1.00  0.00     0.002 A 
ENDBRANCH  18  19
ENDBRANCH   9  11
ENDBRANCH   6   9
ENDBRANCH   4   5
ENDBRANCH   3   4
ENDBRANCH   2   3
ENDBRANCH   1   2
BRANCH   1  29
ATOM     29  C   UNL A   1      31.654  32.450  26.518  1.00  0.00     0.021 C 
BRANCH  29  30
ATOM     30  C   UNL A   1      32.876  32.930  27.290  1.00  0.00     0.116 C 
BRANCH  30  31
ATOM     31  N   UNL A   1      32.733  34.309  27.724  1.00  0.00    -0.352 N 
ATOM     32  C   UNL A   1      33.312  34.947  28.791  1.00  0.00     0.251 C 
ATOM     33  H   UNL A   1      32.136  34.865  27.173  1.00  0.00     0.163 HD
ATOM     34  O   UNL A   1      32.894  36.048  29.138  1.00  0.00    -0.269 OA
BRANCH  32  35
ATOM     35  C   UNL A   1      34.422  34.300  29.528  1.00  0.00     0.039 A 
ATOM     36  C   UNL A   1      35.736  34.549  29.124  1.00  0.00     0.014 A 
ATOM     37  C   UNL A   1      34.170  33.428  30.592  1.00  0.00     0.014 A 
ATOM     38  C   UNL A   1      36.795  33.944  29.804  1.00  0.00     0.010 A 
ATOM     39  C   UNL A   1      35.229  32.897  31.323  1.00  0.00     0.010 A 
ATOM     40  C   UNL A   1      36.553  33.126  30.920  1.00  0.00    -0.014 A 
BRANCH  40  41
ATOM     41  C   UNL A   1      37.671  32.457  31.637  1.00  0.00     0.031 A 
ATOM     42  C   UNL A   1      38.408  31.320  30.978  1.00  0.00     0.074 A 
ATOM     43  C   UNL A   1      38.002  32.849  32.882  1.00  0.00     0.049 A 
ATOM     44  N   UNL A   1      39.390  30.589  31.442  1.00  0.00    -0.248 NA
ATOM     45  C   UNL A   1      37.960  30.933  29.631  1.00  0.00     0.031 C 
ATOM     46  C   UNL A   1      37.337  33.915  33.637  1.00  0.00     0.029 A 
ATOM     47  N   UNL A   1      38.982  32.403  33.733  1.00  0.00    -0.354 N 
ATOM     48  C   UNL A   1      39.663  29.649  30.453  1.00  0.00     0.074 A 
ATOM     49  C   UNL A   1      38.696  29.858  29.399  1.00  0.00     0.031 C 
ATOM     50  C   UNL A   1      37.955  34.067  34.820  1.00  0.00     0.029 A 
ATOM     51  C   UNL A   1      39.027  33.081  34.930  1.00  0.00     0.049 A 
ATOM     52  H   UNL A   1      39.594  31.666  33.509  1.00  0.00     0.167 HD
ATOM     53  C   UNL A   1      40.647  28.715  30.416  1.00  0.00     0.034 A 
ATOM     54  C   UNL A   1      39.840  32.925  35.994  1.00  0.00     0.034 A 
ATOM     55  C   UNL A   1      41.615  28.534  31.471  1.00  0.00     0.049 A 
ATOM     56  C   UNL A   1      40.914  31.867  35.939  1.00  0.00     0.074 A 
ATOM     57  C   UNL A   1      42.687  27.660  31.516  1.00  0.00     0.029 A 
ATOM     58  N   UNL A   1      41.625  29.235  32.671  1.00  0.00    -0.354 N 
ATOM     59  N   UNL A   1      41.194  31.021  34.973  1.00  0.00    -0.248 NA
ATOM     60  C   UNL A   1      41.792  31.756  37.110  1.00  0.00     0.031 C 
ATOM     61  C   UNL A   1      43.293  27.774  32.772  1.00  0.00     0.029 A 
ATOM     62  C   UNL A   1      42.662  28.788  33.475  1.00  0.00     0.049 A 
ATOM     63  H   UNL A   1      40.989  29.944  32.915  1.00  0.00     0.167 HD
ATOM     64  C   UNL A   1      42.311  30.310  35.405  1.00  0.00     0.074 A 
ATOM     65  C   UNL A   1      42.656  30.836  36.710  1.00  0.00     0.031 C 
ATOM     66  C   UNL A   1      42.996  29.318  34.777  1.00  0.00     0.034 A 
BRANCH  53  67
ATOM     67  C   UNL A   1      40.698  27.803  29.211  1.00  0.00     0.023 A 
ATOM     68  C   UNL A   1      41.622  27.996  28.169  1.00  0.00     0.031 A 
ATOM     69  C   UNL A   1      39.785  26.740  29.085  1.00  0.00     0.131 A 
ATOM     70  C   UNL A   1      41.558  27.200  27.015  1.00  0.00     0.055 A 
ATOM     71  C   UNL A   1      39.787  25.892  27.976  1.00  0.00     0.041 A 
ATOM     72  F   UNL A   1      38.861  26.516  30.033  1.00  0.00    -0.206 F 
ATOM     73  C   UNL A   1      40.665  26.130  26.923  1.00  0.00     0.022 A 
BRANCH  70  74
ATOM     74  S   UNL A   1      42.543  27.685  25.570  1.00  0.00     0.124 S 
ATOM     75  O   UNL A   1      43.846  27.946  26.178  1.00  0.00    -0.237 OA
ATOM     76  O   UNL A   1      42.459  26.505  24.721  1.00  0.00    -0.237 OA
ATOM     77  O   UNL A   1      41.852  28.871  25.067  1.00  0.00    -0.744 OA
ENDBRANCH  70  74
ENDBRANCH  53  67
BRANCH  54  78
ATOM     78  C   UNL A   1      39.686  33.790  37.202  1.00  0.00     0.023 A 
ATOM     79  C   UNL A   1      38.998  33.331  38.336  1.00  0.00     0.031 A 
ATOM     80  C   UNL A   1      40.177  35.107  37.219  1.00  0.00     0.131 A 
ATOM     81  C   UNL A   1      38.771  34.197  39.417  1.00  0.00     0.055 A 
ATOM     82  C   UNL A   1      40.002  35.946  38.321  1.00  0.00     0.041 A 
ATOM     83  F   UNL A   1      40.846  35.597  36.163  1.00  0.00    -0.206 F 
ATOM     84  C   UNL A   1      39.281  35.496  39.423  1.00  0.00     0.022 A 
BRANCH  81  85
ATOM     85  S   UNL A   1      37.709  33.631  40.774  1.00  0.00     0.124 S 
ATOM     86  O   UNL A   1      37.309  34.894  41.383  1.00  0.00    -0.237 OA
ATOM     87  O   UNL A   1      36.666  32.904  40.059  1.00  0.00    -0.237 OA
ATOM     88  O   UNL A   1      38.602  32.803  41.581  1.00  0.00    -0.744 OA
ENDBRANCH  81  85
ENDBRANCH  54  78
BRANCH  66  89
ATOM     89  C   UNL A   1      44.228  28.786  35.471  1.00  0.00     0.023 A 
ATOM     90  C   UNL A   1      44.162  27.765  36.435  1.00  0.00     0.031 A 
ATOM     91  C   UNL A   1      45.491  29.332  35.176  1.00  0.00     0.131 A 
ATOM     92  C   UNL A   1      45.323  27.374  37.120  1.00  0.00     0.055 A 
ATOM     93  C   UNL A   1      46.653  28.885  35.806  1.00  0.00     0.041 A 
ATOM     94  F   UNL A   1      45.618  30.312  34.267  1.00  0.00    -0.206 F 
ATOM     95  C   UNL A   1      46.571  27.913  36.798  1.00  0.00     0.022 A 
BRANCH  92  96
ATOM     96  S   UNL A   1      45.163  26.238  38.526  1.00  0.00     0.124 S 
ATOM     97  O   UNL A   1      46.253  26.674  39.393  1.00  0.00    -0.237 OA
ATOM     98  O   UNL A   1      43.815  26.525  39.005  1.00  0.00    -0.237 OA
ATOM     99  O   UNL A   1      45.338  24.919  37.923  1.00  0.00    -0.744 OA
ENDBRANCH  92  96
ENDBRANCH  66  89
ENDBRANCH  40  41
ENDBRANCH  32  35
ENDBRANCH  30  31
ENDBRANCH  29  30
ENDBRANCH   1  29
TORSDOF 18
ENDMDL
MODEL 3
REMARK VINA RESULT:     -11.9      1.684      7.770
REMARK SMILES C[C@@H](C(=O)NCCCCCCNC(=O)c1ccc(-c2c3nc(c(-c4cc(S(=O)(=O)[O-])ccc4F)c4ccc([nH]4)c(-c4cc(S(=O)(=O)[O-])ccc4F)c4nc(c(-c5cc(S(=O)(=O)[O-])ccc5F)c5ccc2[nH]5)C=C4)C=C3)cc1)N1C(=O)/C(=C/c2nc3ccccc3[nH]2)SC1=S
REMARK SMILES IDX 9 1 8 2 7 3 6 4 5 5 3 6 4 7 2 9 1 10 78 11 79 12 93 13 80 14
REMARK SMILES IDX 81 15 92 16 94 17 82 18 83 19 84 20 91 21 85 22 90 23 86 25
REMARK SMILES IDX 89 26 87 27 88 28 10 29 11 30 12 31 13 32 14 34 15 35 16 36
REMARK SMILES IDX 77 37 17 38 76 39 18 40 19 41 20 42 70 43 21 44 75 45 69 46
REMARK SMILES IDX 71 47 22 48 74 49 68 50 67 51 23 53 55 54 35 55 54 56 36 57
REMARK SMILES IDX 39 58 53 59 72 60 37 61 38 62 52 64 73 65 40 66 24 67 25 68
REMARK SMILES IDX 33 69 26 70 32 71 34 72 31 73 27 74 28 75 29 76 30 77 56 78
REMARK SMILES IDX 57 79 65 80 58 81 64 82 66 83 63 84 59 85 60 86 61 87 62 88
REMARK SMILES IDX 41 89 42 90 50 91 43 92 49 93 51 94 48 95 44 96 45 97 46 98
REMARK SMILES IDX 47 99
REMARK H PARENT 5 8 91 24 12 33 71 52 39 63
REMARK Flexibility Score: inf
ROOT
ATOM      1  C   UNL A   1      33.831  31.444  28.303  1.00  0.00     0.002 C 
ENDROOT
BRANCH   1   2
ATOM      2  C   UNL A   1      35.106  30.918  27.635  1.00  0.00     0.002 C 
BRANCH   2   3
ATOM      3  C   UNL A   1      35.165  29.396  27.465  1.00  0.00     0.021 C 
BRANCH   3   4
ATOM      4  C   UNL A   1      34.395  28.878  26.252  1.00  0.00     0.116 C 
BRANCH   4   5
ATOM      5  N   UNL A   1      33.429  27.868  26.636  1.00  0.00    -0.354 N 
ATOM      6  C   UNL A   1      33.214  26.627  26.114  1.00  0.00     0.242 C 
ATOM      7  O   UNL A   1      32.380  25.912  26.676  1.00  0.00    -0.273 OA
ATOM      8  H   UNL A   1      32.841  28.115  27.386  1.00  0.00     0.163 HD
BRANCH   6   9
ATOM      9  C   UNL A   1      34.050  26.149  24.905  1.00  0.00     0.178 C 
ATOM     10  C   UNL A   1      33.729  26.816  23.572  1.00  0.00     0.042 C 
BRANCH   9  11
ATOM     11  N   UNL A   1      33.992  24.682  24.809  1.00  0.00    -0.281 N 
ATOM     12  C   UNL A   1      32.874  24.066  24.256  1.00  0.00     0.267 C 
ATOM     13  C   UNL A   1      35.004  23.850  25.239  1.00  0.00     0.149 C 
ATOM     14  O   UNL A   1      31.920  24.612  23.716  1.00  0.00    -0.268 OA
ATOM     15  C   UNL A   1      33.000  22.590  24.353  1.00  0.00     0.084 C 
ATOM     16  S   UNL A   1      34.574  22.187  24.929  1.00  0.00    -0.054 SA
ATOM     17  S   UNL A   1      36.477  24.249  25.915  1.00  0.00    -0.052 S 
ATOM     18  C   UNL A   1      32.006  21.755  24.007  1.00  0.00     0.068 C 
BRANCH  18  19
ATOM     19  C   UNL A   1      32.159  20.355  24.150  1.00  0.00     0.132 A 
ATOM     20  N   UNL A   1      32.054  19.615  25.233  1.00  0.00    -0.229 NA
ATOM     21  N   UNL A   1      32.569  19.587  23.084  1.00  0.00    -0.338 N 
ATOM     22  C   UNL A   1      32.617  18.415  24.922  1.00  0.00     0.089 A 
ATOM     23  C   UNL A   1      32.941  18.356  23.573  1.00  0.00     0.066 A 
ATOM     24  H   UNL A   1      32.591  19.869  22.141  1.00  0.00     0.168 HD
ATOM     25  C   UNL A   1      32.920  17.342  25.767  1.00  0.00     0.030 A 
ATOM     26  C   UNL A   1      33.548  17.240  22.992  1.00  0.00     0.028 A 
ATOM     27  C   UNL A   1      33.557  16.226  25.219  1.00  0.00     0.002 A 
ATOM     28  C   UNL A   1      33.857  16.176  23.855  1.00  0.00     0.002 A 
ENDBRANCH  18  19
ENDBRANCH   9  11
ENDBRANCH   6   9
ENDBRANCH   4   5
ENDBRANCH   3   4
ENDBRANCH   2   3
ENDBRANCH   1   2
BRANCH   1  29
ATOM     29  C   UNL A   1      33.177  32.633  27.595  1.00  0.00     0.021 C 
BRANCH  29  30
ATOM     30  C   UNL A   1      33.878  33.966  27.825  1.00  0.00     0.116 C 
BRANCH  30  31
ATOM     31  N   UNL A   1      33.303  34.692  28.944  1.00  0.00    -0.352 N 
ATOM     32  C   UNL A   1      33.598  34.602  30.280  1.00  0.00     0.251 C 
ATOM     33  H   UNL A   1      32.602  35.342  28.709  1.00  0.00     0.163 HD
ATOM     34  O   UNL A   1      32.850  35.123  31.102  1.00  0.00    -0.269 OA
BRANCH  32  35
ATOM     35  C   UNL A   1      34.803  33.864  30.724  1.00  0.00     0.039 A 
ATOM     36  C   UNL A   1      36.057  34.288  30.277  1.00  0.00     0.014 A 
ATOM     37  C   UNL A   1      34.698  32.743  31.552  1.00  0.00     0.014 A 
ATOM     38  C   UNL A   1      37.203  33.603  30.683  1.00  0.00     0.010 A 
ATOM     39  C   UNL A   1      35.847  32.116  32.025  1.00  0.00     0.010 A 
ATOM     40  C   UNL A   1      37.111  32.521  31.573  1.00  0.00    -0.014 A 
BRANCH  40  41
ATOM     41  C   UNL A   1      38.324  31.768  31.992  1.00  0.00     0.031 A 
ATOM     42  C   UNL A   1      39.012  32.117  33.286  1.00  0.00     0.074 A 
ATOM     43  C   UNL A   1      38.818  30.796  31.201  1.00  0.00     0.049 A 
ATOM     44  N   UNL A   1      40.092  31.602  33.816  1.00  0.00    -0.248 NA
ATOM     45  C   UNL A   1      38.426  33.214  34.072  1.00  0.00     0.031 C 
ATOM     46  C   UNL A   1      38.258  30.392  29.909  1.00  0.00     0.029 A 
ATOM     47  N   UNL A   1      39.899  29.967  31.366  1.00  0.00    -0.354 N 
ATOM     48  C   UNL A   1      40.323  32.321  34.984  1.00  0.00     0.074 A 
ATOM     49  C   UNL A   1      39.312  33.354  35.045  1.00  0.00     0.031 C 
ATOM     50  C   UNL A   1      38.975  29.366  29.421  1.00  0.00     0.029 A 
ATOM     51  C   UNL A   1      40.072  29.070  30.337  1.00  0.00     0.049 A 
ATOM     52  H   UNL A   1      40.496  30.011  32.148  1.00  0.00     0.167 HD
ATOM     53  C   UNL A   1      41.273  32.123  35.933  1.00  0.00     0.034 A 
ATOM     54  C   UNL A   1      41.009  28.118  30.154  1.00  0.00     0.034 A 
ATOM     55  C   UNL A   1      42.262  31.074  35.862  1.00  0.00     0.049 A 
ATOM     56  C   UNL A   1      42.067  27.927  31.213  1.00  0.00     0.074 A 
ATOM     57  C   UNL A   1      43.235  30.745  36.790  1.00  0.00     0.029 A 
ATOM     58  N   UNL A   1      42.410  30.189  34.801  1.00  0.00    -0.354 N 
ATOM     59  N   UNL A   1      42.239  28.582  32.339  1.00  0.00    -0.248 NA
ATOM     60  C   UNL A   1      43.047  26.859  30.981  1.00  0.00     0.031 C 
ATOM     61  C   UNL A   1      44.020  29.717  36.255  1.00  0.00     0.029 A 
ATOM     62  C   UNL A   1      43.480  29.338  35.037  1.00  0.00     0.049 A 
ATOM     63  H   UNL A   1      41.841  30.169  33.999  1.00  0.00     0.167 HD
ATOM     64  C   UNL A   1      43.320  27.970  32.971  1.00  0.00     0.074 A 
ATOM     65  C   UNL A   1      43.747  26.891  32.104  1.00  0.00     0.031 C 
ATOM     66  C   UNL A   1      43.900  28.266  34.163  1.00  0.00     0.034 A 
BRANCH  53  67
ATOM     67  C   UNL A   1      41.301  33.079  37.103  1.00  0.00     0.023 A 
ATOM     68  C   UNL A   1      40.603  32.819  38.295  1.00  0.00     0.031 A 
ATOM     69  C   UNL A   1      42.013  34.289  37.015  1.00  0.00     0.131 A 
ATOM     70  C   UNL A   1      40.559  33.786  39.311  1.00  0.00     0.055 A 
ATOM     71  C   UNL A   1      42.042  35.207  38.066  1.00  0.00     0.041 A 
ATOM     72  F   UNL A   1      42.681  34.610  35.895  1.00  0.00    -0.206 F 
ATOM     73  C   UNL A   1      41.298  34.967  39.217  1.00  0.00     0.022 A 
BRANCH  70  74
ATOM     74  S   UNL A   1      39.393  33.553  40.681  1.00  0.00     0.124 S 
ATOM     75  O   UNL A   1      39.009  32.153  40.506  1.00  0.00    -0.237 OA
ATOM     76  O   UNL A   1      40.214  33.849  41.848  1.00  0.00    -0.237 OA
ATOM     77  O   UNL A   1      38.334  34.520  40.399  1.00  0.00    -0.744 OA
ENDBRANCH  70  74
ENDBRANCH  53  67
BRANCH  54  78
ATOM     78  C   UNL A   1      40.993  27.261  28.932  1.00  0.00     0.023 A 
ATOM     79  C   UNL A   1      41.946  27.434  27.916  1.00  0.00     0.031 A 
ATOM     80  C   UNL A   1      39.993  26.292  28.736  1.00  0.00     0.131 A 
ATOM     81  C   UNL A   1      41.848  26.693  26.728  1.00  0.00     0.055 A 
ATOM     82  C   UNL A   1      39.935  25.514  27.579  1.00  0.00     0.041 A 
ATOM     83  F   UNL A   1      39.058  26.081  29.677  1.00  0.00    -0.206 F 
ATOM     84  C   UNL A   1      40.857  25.724  26.559  1.00  0.00     0.022 A 
BRANCH  81  85
ATOM     85  S   UNL A   1      42.976  27.088  25.363  1.00  0.00     0.124 S 
ATOM     86  O   UNL A   1      44.191  27.455  26.080  1.00  0.00    -0.237 OA
ATOM     87  O   UNL A   1      43.017  25.827  24.631  1.00  0.00    -0.237 OA
ATOM     88  O   UNL A   1      42.302  28.185  24.672  1.00  0.00    -0.744 OA
ENDBRANCH  81  85
ENDBRANCH  54  78
BRANCH  66  89
ATOM     89  C   UNL A   1      45.020  27.365  34.628  1.00  0.00     0.023 A 
ATOM     90  C   UNL A   1      44.775  26.121  35.237  1.00  0.00     0.031 A 
ATOM     91  C   UNL A   1      46.358  27.773  34.479  1.00  0.00     0.131 A 
ATOM     92  C   UNL A   1      45.846  25.365  35.738  1.00  0.00     0.055 A 
ATOM     93  C   UNL A   1      47.423  26.981  34.911  1.00  0.00     0.041 A 
ATOM     94  F   UNL A   1      46.655  28.952  33.909  1.00  0.00    -0.206 F 
ATOM     95  C   UNL A   1      47.169  25.778  35.562  1.00  0.00     0.022 A 
BRANCH  92  96
ATOM     96  S   UNL A   1      45.481  23.894  36.735  1.00  0.00     0.124 S 
ATOM     97  O   UNL A   1      44.493  23.206  35.910  1.00  0.00    -0.237 OA
ATOM     98  O   UNL A   1      46.788  23.252  36.831  1.00  0.00    -0.237 OA
ATOM     99  O   UNL A   1      44.968  24.446  37.987  1.00  0.00    -0.744 OA
ENDBRANCH  92  96
ENDBRANCH  66  89
ENDBRANCH  40  41
ENDBRANCH  32  35
ENDBRANCH  30  31
ENDBRANCH  29  30
ENDBRANCH   1  29
TORSDOF 18
ENDMDL
