MODEL 1
REMARK VINA RESULT:     -11.4      0.000      0.000
REMARK SMILES O=C(NCCCCCCNC(=O)[C@H]1[C@H]2CC[C@H](C2)[C@@H]1C(=O)Nc1sc2c(c1C(=O)NC1CCCCC1)CCCC2)c1ccc(-c2c3nc(c(-c4cc(S(=O)(=O)[O-])ccc4F)c4ccc([nH]4)c(-c4cc(S(=O)(=O)[O-])ccc4F)c4nc(c(-c5cc(S(=O)(=O)[O-])ccc5F)c5ccc2[nH]5)C=C4)C=C3)cc1
REMARK SMILES IDX 7 1 6 2 5 3 4 4 3 5 1 6 2 7 41 9 42 10 103 11 43 12 102 13
REMARK SMILES IDX 44 14 45 15 46 16 96 17 47 18 101 19 95 20 97 21 48 22
REMARK SMILES IDX 100 23 94 24 93 25 49 27 81 28 61 29 80 30 62 31 65 32 79 33
REMARK SMILES IDX 98 34 63 35 64 36 78 38 99 39 66 40 50 41 51 42 59 43 52 44
REMARK SMILES IDX 58 45 60 46 57 47 53 48 54 49 55 50 56 51 82 52 83 53 91 54
REMARK SMILES IDX 84 55 90 56 92 57 89 58 85 59 86 60 87 61 88 62 67 63 68 64
REMARK SMILES IDX 76 65 69 66 75 67 77 68 74 69 70 70 71 71 72 72 73 73 8 74
REMARK SMILES IDX 9 75 10 76 11 77 12 79 13 80 14 81 19 82 15 83 18 84 17 85
REMARK SMILES IDX 16 86 20 87 21 88 22 89 23 91 24 92 27 93 25 94 26 95 40 96
REMARK SMILES IDX 37 97 39 98 38 99 28 100 29 101 30 102 31 104 32 105 36 106
REMARK SMILES IDX 33 107 35 108 34 109
REMARK H PARENT 3 8 97 26 65 37 10 78 22 90 30 103
REMARK Flexibility Score: inf
ROOT
ATOM      1  C   UNL A   1      32.544  30.129  27.033  1.00  0.00     0.002 C 
ENDROOT
BRANCH   1   2
ATOM      2  C   UNL A   1      33.358  31.299  27.595  1.00  0.00     0.002 C 
BRANCH   2   3
ATOM      3  C   UNL A   1      32.639  32.648  27.571  1.00  0.00     0.021 C 
BRANCH   3   4
ATOM      4  C   UNL A   1      33.569  33.849  27.649  1.00  0.00     0.116 C 
BRANCH   4   5
ATOM      5  N   UNL A   1      33.061  34.884  28.534  1.00  0.00    -0.352 N 
ATOM      6  O   UNL A   1      32.743  35.920  30.515  1.00  0.00    -0.269 OA
ATOM      7  C   UNL A   1      33.377  35.115  29.855  1.00  0.00     0.251 C 
ATOM      8  H   UNL A   1      32.407  35.504  28.137  1.00  0.00     0.163 HD
BRANCH   7   9
ATOM      9  C   UNL A   1      34.489  34.348  30.459  1.00  0.00     0.039 A 
ATOM     10  C   UNL A   1      35.807  34.770  30.273  1.00  0.00     0.014 A 
ATOM     11  C   UNL A   1      34.214  33.188  31.188  1.00  0.00     0.014 A 
ATOM     12  C   UNL A   1      36.851  33.956  30.683  1.00  0.00     0.010 A 
ATOM     13  C   UNL A   1      35.270  32.425  31.696  1.00  0.00     0.010 A 
ATOM     14  C   UNL A   1      36.598  32.791  31.428  1.00  0.00    -0.014 A 
BRANCH  14  15
ATOM     15  C   UNL A   1      37.756  32.044  31.982  1.00  0.00     0.031 A 
ATOM     16  C   UNL A   1      38.439  30.957  31.203  1.00  0.00     0.074 A 
ATOM     17  C   UNL A   1      38.223  32.417  33.191  1.00  0.00     0.049 A 
ATOM     18  N   UNL A   1      39.496  30.256  31.528  1.00  0.00    -0.248 NA
ATOM     19  C   UNL A   1      37.863  30.602  29.897  1.00  0.00     0.031 C 
ATOM     20  C   UNL A   1      37.620  33.452  34.038  1.00  0.00     0.029 A 
ATOM     21  N   UNL A   1      39.317  32.005  33.904  1.00  0.00    -0.354 N 
ATOM     22  C   UNL A   1      39.712  29.374  30.475  1.00  0.00     0.074 A 
ATOM     23  C   UNL A   1      38.651  29.605  29.516  1.00  0.00     0.031 C 
ATOM     24  C   UNL A   1      38.388  33.639  35.119  1.00  0.00     0.029 A 
ATOM     25  C   UNL A   1      39.487  32.683  35.089  1.00  0.00     0.049 A 
ATOM     26  H   UNL A   1      39.925  31.293  33.599  1.00  0.00     0.167 HD
ATOM     27  C   UNL A   1      40.709  28.466  30.324  1.00  0.00     0.034 A 
ATOM     28  C   UNL A   1      40.409  32.539  36.059  1.00  0.00     0.034 A 
ATOM     29  C   UNL A   1      41.753  28.245  31.299  1.00  0.00     0.049 A 
ATOM     30  C   UNL A   1      41.483  31.503  35.874  1.00  0.00     0.074 A 
ATOM     31  C   UNL A   1      42.811  27.353  31.245  1.00  0.00     0.029 A 
ATOM     32  N   UNL A   1      41.869  28.919  32.509  1.00  0.00    -0.354 N 
ATOM     33  N   UNL A   1      41.675  30.687  34.862  1.00  0.00    -0.248 NA
ATOM     34  C   UNL A   1      42.465  31.373  36.955  1.00  0.00     0.031 C 
ATOM     35  C   UNL A   1      43.528  27.445  32.442  1.00  0.00     0.029 A 
ATOM     36  C   UNL A   1      42.967  28.446  33.216  1.00  0.00     0.049 A 
ATOM     37  H   UNL A   1      41.262  29.628  32.820  1.00  0.00     0.167 HD
ATOM     38  C   UNL A   1      42.811  29.951  35.185  1.00  0.00     0.074 A 
ATOM     39  C   UNL A   1      43.281  30.454  36.461  1.00  0.00     0.031 C 
ATOM     40  C   UNL A   1      43.406  28.943  34.499  1.00  0.00     0.034 A 
BRANCH  27  41
ATOM     41  C   UNL A   1      40.703  27.621  29.071  1.00  0.00     0.023 A 
ATOM     42  C   UNL A   1      41.626  27.836  28.034  1.00  0.00     0.031 A 
ATOM     43  C   UNL A   1      39.768  26.582  28.916  1.00  0.00     0.131 A 
ATOM     44  C   UNL A   1      41.565  27.058  26.867  1.00  0.00     0.055 A 
ATOM     45  C   UNL A   1      39.757  25.765  27.782  1.00  0.00     0.041 A 
ATOM     46  F   UNL A   1      38.849  26.341  29.864  1.00  0.00    -0.206 F 
ATOM     47  C   UNL A   1      40.652  26.007  26.745  1.00  0.00     0.022 A 
BRANCH  44  48
ATOM     48  S   UNL A   1      42.626  27.509  25.467  1.00  0.00     0.124 S 
ATOM     49  O   UNL A   1      43.890  27.808  26.138  1.00  0.00    -0.237 OA
ATOM     50  O   UNL A   1      42.610  26.299  24.654  1.00  0.00    -0.237 OA
ATOM     51  O   UNL A   1      41.951  28.665  24.881  1.00  0.00    -0.744 OA
ENDBRANCH  44  48
ENDBRANCH  27  41
BRANCH  28  52
ATOM     52  C   UNL A   1      40.329  33.356  37.303  1.00  0.00     0.023 A 
ATOM     53  C   UNL A   1      39.714  32.860  38.463  1.00  0.00     0.031 A 
ATOM     54  C   UNL A   1      40.829  34.671  37.335  1.00  0.00     0.131 A 
ATOM     55  C   UNL A   1      39.566  33.690  39.584  1.00  0.00     0.055 A 
ATOM     56  C   UNL A   1      40.740  35.469  38.475  1.00  0.00     0.041 A 
ATOM     57  F   UNL A   1      41.429  35.197  36.255  1.00  0.00    -0.206 F 
ATOM     58  C   UNL A   1      40.088  34.985  39.604  1.00  0.00     0.022 A 
BRANCH  55  59
ATOM     59  S   UNL A   1      38.576  33.088  40.980  1.00  0.00     0.124 S 
ATOM     60  O   UNL A   1      37.227  33.121  40.423  1.00  0.00    -0.237 OA
ATOM     61  O   UNL A   1      39.146  31.763  41.203  1.00  0.00    -0.237 OA
ATOM     62  O   UNL A   1      38.842  34.067  42.031  1.00  0.00    -0.744 OA
ENDBRANCH  55  59
ENDBRANCH  28  52
BRANCH  40  63
ATOM     63  C   UNL A   1      44.643  28.346  35.124  1.00  0.00     0.023 A 
ATOM     64  C   UNL A   1      44.567  27.234  35.981  1.00  0.00     0.031 A 
ATOM     65  C   UNL A   1      45.902  28.931  34.910  1.00  0.00     0.131 A 
ATOM     66  C   UNL A   1      45.714  26.793  36.657  1.00  0.00     0.055 A 
ATOM     67  C   UNL A   1      47.053  28.443  35.530  1.00  0.00     0.041 A 
ATOM     68  F   UNL A   1      46.034  29.997  34.104  1.00  0.00    -0.206 F 
ATOM     69  C   UNL A   1      46.960  27.380  36.424  1.00  0.00     0.022 A 
BRANCH  66  70
ATOM     70  S   UNL A   1      45.530  25.526  37.941  1.00  0.00     0.124 S 
ATOM     71  O   UNL A   1      46.203  24.381  37.334  1.00  0.00    -0.237 OA
ATOM     72  O   UNL A   1      46.210  26.135  39.079  1.00  0.00    -0.237 OA
ATOM     73  O   UNL A   1      44.081  25.389  38.084  1.00  0.00    -0.744 OA
ENDBRANCH  66  70
ENDBRANCH  40  63
ENDBRANCH  14  15
ENDBRANCH   7   9
ENDBRANCH   4   5
ENDBRANCH   3   4
ENDBRANCH   2   3
ENDBRANCH   1   2
BRANCH   1  74
ATOM     74  C   UNL A   1      33.058  28.742  27.429  1.00  0.00     0.021 C 
BRANCH  74  75
ATOM     75  C   UNL A   1      33.888  28.074  26.338  1.00  0.00     0.116 C 
BRANCH  75  76
ATOM     76  N   UNL A   1      33.868  28.884  25.133  1.00  0.00    -0.356 N 
ATOM     77  C   UNL A   1      33.396  28.554  23.895  1.00  0.00     0.224 C 
ATOM     78  H   UNL A   1      34.246  29.789  25.220  1.00  0.00     0.163 HD
ATOM     79  O   UNL A   1      33.632  29.296  22.946  1.00  0.00    -0.275 OA
BRANCH  77  80
ATOM     80  C   UNL A   1      32.508  27.332  23.805  1.00  0.00     0.094 C 
ATOM     81  C   UNL A   1      31.180  27.630  24.560  1.00  0.00     0.002 C 
ATOM     82  C   UNL A   1      32.033  26.923  22.398  1.00  0.00     0.094 C 
ATOM     83  C   UNL A   1      30.383  28.786  23.927  1.00  0.00     0.005 C 
ATOM     84  C   UNL A   1      30.349  26.451  24.109  1.00  0.00     0.009 C 
ATOM     85  C   UNL A   1      30.511  26.769  22.612  1.00  0.00     0.002 C 
ATOM     86  C   UNL A   1      29.899  28.190  22.595  1.00  0.00     0.005 C 
BRANCH  82  87
ATOM     87  C   UNL A   1      32.891  25.800  21.762  1.00  0.00     0.229 C 
ATOM     88  O   UNL A   1      33.251  25.944  20.584  1.00  0.00    -0.274 OA
ATOM     89  N   UNL A   1      33.456  24.759  22.441  1.00  0.00    -0.317 N 
ATOM     90  H   UNL A   1      34.299  24.426  22.057  1.00  0.00     0.170 HD
BRANCH  89  91
ATOM     91  C   UNL A   1      33.041  24.102  23.574  1.00  0.00     0.108 A 
ATOM     92  S   UNL A   1      31.768  22.989  23.398  1.00  0.00    -0.122 S 
ATOM     93  C   UNL A   1      33.679  23.995  24.817  1.00  0.00     0.078 A 
ATOM     94  C   UNL A   1      31.606  22.924  25.080  1.00  0.00     0.011 A 
ATOM     95  C   UNL A   1      32.779  23.286  25.729  1.00  0.00    -0.019 A 
ATOM     96  C   UNL A   1      30.328  22.496  25.729  1.00  0.00     0.047 C 
ATOM     97  C   UNL A   1      32.904  23.004  27.201  1.00  0.00     0.037 C 
ATOM     98  C   UNL A   1      30.373  22.872  27.213  1.00  0.00     0.006 C 
ATOM     99  C   UNL A   1      31.667  22.331  27.825  1.00  0.00     0.005 C 
BRANCH  93 100
ATOM    100  C   UNL A   1      35.016  24.608  24.954  1.00  0.00     0.254 C 
ATOM    101  O   UNL A   1      35.133  25.834  24.838  1.00  0.00    -0.269 OA
ATOM    102  N   UNL A   1      36.173  23.960  25.296  1.00  0.00    -0.349 N 
ATOM    103  H   UNL A   1      36.926  24.581  25.428  1.00  0.00     0.164 HD
BRANCH 102 104
ATOM    104  C   UNL A   1      36.555  22.574  25.512  1.00  0.00     0.082 C 
ATOM    105  C   UNL A   1      35.775  21.629  24.581  1.00  0.00     0.025 C 
ATOM    106  C   UNL A   1      38.055  22.325  25.303  1.00  0.00     0.025 C 
ATOM    107  C   UNL A   1      36.097  20.167  24.898  1.00  0.00     0.002 C 
ATOM    108  C   UNL A   1      38.413  20.880  25.660  1.00  0.00     0.002 C 
ATOM    109  C   UNL A   1      37.596  19.878  24.850  1.00  0.00     0.000 C 
ENDBRANCH 102 104
ENDBRANCH  93 100
ENDBRANCH  89  91
ENDBRANCH  82  87
ENDBRANCH  77  80
ENDBRANCH  75  76
ENDBRANCH  74  75
ENDBRANCH   1  74
TORSDOF 20
ENDMDL
MODEL 2
REMARK VINA RESULT:     -11.1      1.572      2.511
REMARK SMILES O=C(NCCCCCCNC(=O)[C@H]1[C@H]2CC[C@H](C2)[C@@H]1C(=O)Nc1sc2c(c1C(=O)NC1CCCCC1)CCCC2)c1ccc(-c2c3nc(c(-c4cc(S(=O)(=O)[O-])ccc4F)c4ccc([nH]4)c(-c4cc(S(=O)(=O)[O-])ccc4F)c4nc(c(-c5cc(S(=O)(=O)[O-])ccc5F)c5ccc2[nH]5)C=C4)C=C3)cc1
REMARK SMILES IDX 7 1 6 2 5 3 4 4 3 5 1 6 2 7 41 9 42 10 103 11 43 12 102 13
REMARK SMILES IDX 44 14 45 15 46 16 96 17 47 18 101 19 95 20 97 21 48 22
REMARK SMILES IDX 100 23 94 24 93 25 49 27 81 28 61 29 80 30 62 31 65 32 79 33
REMARK SMILES IDX 98 34 63 35 64 36 78 38 99 39 66 40 50 41 51 42 59 43 52 44
REMARK SMILES IDX 58 45 60 46 57 47 53 48 54 49 55 50 56 51 82 52 83 53 91 54
REMARK SMILES IDX 84 55 90 56 92 57 89 58 85 59 86 60 87 61 88 62 67 63 68 64
REMARK SMILES IDX 76 65 69 66 75 67 77 68 74 69 70 70 71 71 72 72 73 73 8 74
REMARK SMILES IDX 9 75 10 76 11 77 12 79 13 80 14 81 19 82 15 83 18 84 17 85
REMARK SMILES IDX 16 86 20 87 21 88 22 89 23 91 24 92 27 93 25 94 26 95 40 96
REMARK SMILES IDX 37 97 39 98 38 99 28 100 29 101 30 102 31 104 32 105 36 106
REMARK SMILES IDX 33 107 35 108 34 109
REMARK H PARENT 3 8 97 26 65 37 10 78 22 90 30 103
REMARK Flexibility Score: inf
ROOT
ATOM      1  C   UNL A   1      33.426  30.483  27.308  1.00  0.00     0.002 C 
ENDROOT
BRANCH   1   2
ATOM      2  C   UNL A   1      33.977  31.788  27.894  1.00  0.00     0.002 C 
BRANCH   2   3
ATOM      3  C   UNL A   1      33.013  32.973  27.832  1.00  0.00     0.021 C 
BRANCH   3   4
ATOM      4  C   UNL A   1      33.689  34.329  27.955  1.00  0.00     0.116 C 
BRANCH   4   5
ATOM      5  N   UNL A   1      33.021  35.196  28.911  1.00  0.00    -0.352 N 
ATOM      6  O   UNL A   1      32.442  35.925  30.968  1.00  0.00    -0.269 OA
ATOM      7  C   UNL A   1      33.197  35.264  30.276  1.00  0.00     0.251 C 
ATOM      8  H   UNL A   1      32.356  35.817  28.535  1.00  0.00     0.163 HD
BRANCH   7   9
ATOM      9  C   UNL A   1      34.311  34.502  30.883  1.00  0.00     0.039 A 
ATOM     10  C   UNL A   1      35.623  34.956  30.743  1.00  0.00     0.014 A 
ATOM     11  C   UNL A   1      34.043  33.315  31.568  1.00  0.00     0.014 A 
ATOM     12  C   UNL A   1      36.674  34.151  31.153  1.00  0.00     0.010 A 
ATOM     13  C   UNL A   1      35.102  32.557  32.078  1.00  0.00     0.010 A 
ATOM     14  C   UNL A   1      36.428  32.958  31.855  1.00  0.00    -0.014 A 
BRANCH  14  15
ATOM     15  C   UNL A   1      37.588  32.218  32.414  1.00  0.00     0.031 A 
ATOM     16  C   UNL A   1      38.285  31.139  31.635  1.00  0.00     0.074 A 
ATOM     17  C   UNL A   1      38.044  32.590  33.628  1.00  0.00     0.049 A 
ATOM     18  N   UNL A   1      39.345  30.446  31.964  1.00  0.00    -0.248 NA
ATOM     19  C   UNL A   1      37.720  30.785  30.324  1.00  0.00     0.031 C 
ATOM     20  C   UNL A   1      37.428  33.618  34.474  1.00  0.00     0.029 A 
ATOM     21  N   UNL A   1      39.137  32.184  34.346  1.00  0.00    -0.354 N 
ATOM     22  C   UNL A   1      39.575  29.569  30.909  1.00  0.00     0.074 A 
ATOM     23  C   UNL A   1      38.519  29.796  29.944  1.00  0.00     0.031 C 
ATOM     24  C   UNL A   1      38.187  33.806  35.562  1.00  0.00     0.029 A 
ATOM     25  C   UNL A   1      39.293  32.859  35.535  1.00  0.00     0.049 A 
ATOM     26  H   UNL A   1      39.752  31.478  34.042  1.00  0.00     0.167 HD
ATOM     27  C   UNL A   1      40.580  28.669  30.762  1.00  0.00     0.034 A 
ATOM     28  C   UNL A   1      40.210  32.718  36.511  1.00  0.00     0.034 A 
ATOM     29  C   UNL A   1      41.618  28.453  31.743  1.00  0.00     0.049 A 
ATOM     30  C   UNL A   1      41.293  31.691  36.329  1.00  0.00     0.074 A 
ATOM     31  C   UNL A   1      42.684  27.569  31.692  1.00  0.00     0.029 A 
ATOM     32  N   UNL A   1      41.722  29.123  32.957  1.00  0.00    -0.354 N 
ATOM     33  N   UNL A   1      41.499  30.881  35.315  1.00  0.00    -0.248 NA
ATOM     34  C   UNL A   1      42.269  31.564  37.416  1.00  0.00     0.031 C 
ATOM     35  C   UNL A   1      43.392  27.662  32.895  1.00  0.00     0.029 A 
ATOM     36  C   UNL A   1      42.818  28.656  33.669  1.00  0.00     0.049 A 
ATOM     37  H   UNL A   1      41.107  29.826  33.266  1.00  0.00     0.167 HD
ATOM     38  C   UNL A   1      42.638  30.152  35.643  1.00  0.00     0.074 A 
ATOM     39  C   UNL A   1      43.095  30.654  36.924  1.00  0.00     0.031 C 
ATOM     40  C   UNL A   1      43.245  29.151  34.957  1.00  0.00     0.034 A 
BRANCH  27  41
ATOM     41  C   UNL A   1      40.588  27.830  29.506  1.00  0.00     0.023 A 
ATOM     42  C   UNL A   1      41.492  28.080  28.459  1.00  0.00     0.031 A 
ATOM     43  C   UNL A   1      39.688  26.760  29.356  1.00  0.00     0.131 A 
ATOM     44  C   UNL A   1      41.445  27.304  27.290  1.00  0.00     0.055 A 
ATOM     45  C   UNL A   1      39.692  25.947  28.220  1.00  0.00     0.041 A 
ATOM     46  F   UNL A   1      38.788  26.485  30.314  1.00  0.00    -0.206 F 
ATOM     47  C   UNL A   1      40.567  26.223  27.174  1.00  0.00     0.022 A 
BRANCH  44  48
ATOM     48  S   UNL A   1      42.474  27.796  25.880  1.00  0.00     0.124 S 
ATOM     49  O   UNL A   1      42.071  26.825  24.866  1.00  0.00    -0.237 OA
ATOM     50  O   UNL A   1      42.053  29.172  25.644  1.00  0.00    -0.237 OA
ATOM     51  O   UNL A   1      43.839  27.637  26.378  1.00  0.00    -0.744 OA
ENDBRANCH  44  48
ENDBRANCH  27  41
BRANCH  28  52
ATOM     52  C   UNL A   1      40.116  33.530  37.757  1.00  0.00     0.023 A 
ATOM     53  C   UNL A   1      39.244  33.169  38.797  1.00  0.00     0.031 A 
ATOM     54  C   UNL A   1      40.866  34.710  37.907  1.00  0.00     0.131 A 
ATOM     55  C   UNL A   1      39.105  34.009  39.913  1.00  0.00     0.055 A 
ATOM     56  C   UNL A   1      40.774  35.506  39.049  1.00  0.00     0.041 A 
ATOM     57  F   UNL A   1      41.717  35.102  36.945  1.00  0.00    -0.206 F 
ATOM     58  C   UNL A   1      39.875  35.165  40.053  1.00  0.00     0.022 A 
BRANCH  55  59
ATOM     59  S   UNL A   1      37.815  33.624  41.127  1.00  0.00     0.124 S 
ATOM     60  O   UNL A   1      38.538  32.779  42.072  1.00  0.00    -0.237 OA
ATOM     61  O   UNL A   1      37.447  34.952  41.607  1.00  0.00    -0.237 OA
ATOM     62  O   UNL A   1      36.795  32.942  40.334  1.00  0.00    -0.744 OA
ENDBRANCH  55  59
ENDBRANCH  28  52
BRANCH  40  63
ATOM     63  C   UNL A   1      44.482  28.561  35.588  1.00  0.00     0.023 A 
ATOM     64  C   UNL A   1      44.398  27.657  36.662  1.00  0.00     0.031 A 
ATOM     65  C   UNL A   1      45.760  28.953  35.152  1.00  0.00     0.131 A 
ATOM     66  C   UNL A   1      45.564  27.240  37.317  1.00  0.00     0.055 A 
ATOM     67  C   UNL A   1      46.921  28.477  35.762  1.00  0.00     0.041 A 
ATOM     68  F   UNL A   1      45.901  29.815  34.133  1.00  0.00    -0.206 F 
ATOM     69  C   UNL A   1      46.827  27.631  36.864  1.00  0.00     0.022 A 
BRANCH  66  70
ATOM     70  S   UNL A   1      45.403  26.282  38.848  1.00  0.00     0.124 S 
ATOM     71  O   UNL A   1      43.966  26.347  39.095  1.00  0.00    -0.237 OA
ATOM     72  O   UNL A   1      45.922  24.976  38.454  1.00  0.00    -0.237 OA
ATOM     73  O   UNL A   1      46.231  27.017  39.802  1.00  0.00    -0.744 OA
ENDBRANCH  66  70
ENDBRANCH  40  63
ENDBRANCH  14  15
ENDBRANCH   7   9
ENDBRANCH   4   5
ENDBRANCH   3   4
ENDBRANCH   2   3
ENDBRANCH   1   2
BRANCH   1  74
ATOM     74  C   UNL A   1      34.487  29.423  26.994  1.00  0.00     0.021 C 
BRANCH  74  75
ATOM     75  C   UNL A   1      34.326  28.804  25.610  1.00  0.00     0.116 C 
BRANCH  75  76
ATOM     76  N   UNL A   1      32.995  29.075  25.096  1.00  0.00    -0.356 N 
ATOM     77  C   UNL A   1      32.118  28.210  24.507  1.00  0.00     0.224 C 
ATOM     78  H   UNL A   1      32.685  30.006  25.183  1.00  0.00     0.163 HD
ATOM     79  O   UNL A   1      31.112  28.654  23.963  1.00  0.00    -0.275 OA
BRANCH  77  80
ATOM     80  C   UNL A   1      32.404  26.733  24.668  1.00  0.00     0.094 C 
ATOM     81  C   UNL A   1      32.307  26.373  26.179  1.00  0.00     0.002 C 
ATOM     82  C   UNL A   1      31.410  25.759  24.006  1.00  0.00     0.094 C 
ATOM     83  C   UNL A   1      30.897  26.602  26.755  1.00  0.00     0.005 C 
ATOM     84  C   UNL A   1      32.321  24.864  26.093  1.00  0.00     0.009 C 
ATOM     85  C   UNL A   1      31.092  24.795  25.170  1.00  0.00     0.002 C 
ATOM     86  C   UNL A   1      30.061  25.502  26.082  1.00  0.00     0.005 C 
BRANCH  82  87
ATOM     87  C   UNL A   1      31.882  25.247  22.621  1.00  0.00     0.229 C 
ATOM     88  O   UNL A   1      31.219  25.578  21.626  1.00  0.00    -0.274 OA
ATOM     89  N   UNL A   1      33.074  24.631  22.373  1.00  0.00    -0.317 N 
ATOM     90  H   UNL A   1      33.437  24.784  21.471  1.00  0.00     0.170 HD
BRANCH  89  91
ATOM     91  C   UNL A   1      33.851  23.831  23.178  1.00  0.00     0.108 A 
ATOM     92  S   UNL A   1      35.042  24.602  24.112  1.00  0.00    -0.122 S 
ATOM     93  C   UNL A   1      33.642  22.501  23.564  1.00  0.00     0.078 A 
ATOM     94  C   UNL A   1      35.730  23.097  24.458  1.00  0.00     0.011 A 
ATOM     95  C   UNL A   1      34.810  22.064  24.332  1.00  0.00    -0.019 A 
ATOM     96  C   UNL A   1      37.163  22.965  24.867  1.00  0.00     0.047 C 
ATOM     97  C   UNL A   1      35.168  20.711  24.882  1.00  0.00     0.037 C 
ATOM     98  C   UNL A   1      37.576  21.493  24.766  1.00  0.00     0.006 C 
ATOM     99  C   UNL A   1      36.563  20.638  25.531  1.00  0.00     0.005 C 
BRANCH  93 100
ATOM    100  C   UNL A   1      32.396  21.845  23.119  1.00  0.00     0.254 C 
ATOM    101  O   UNL A   1      31.497  22.533  22.618  1.00  0.00    -0.269 OA
ATOM    102  N   UNL A   1      32.145  20.499  23.115  1.00  0.00    -0.349 N 
ATOM    103  H   UNL A   1      31.289  20.278  22.681  1.00  0.00     0.164 HD
BRANCH 102 104
ATOM    104  C   UNL A   1      32.841  19.317  23.598  1.00  0.00     0.082 C 
ATOM    105  C   UNL A   1      32.260  18.837  24.940  1.00  0.00     0.025 C 
ATOM    106  C   UNL A   1      32.795  18.146  22.607  1.00  0.00     0.025 C 
ATOM    107  C   UNL A   1      33.075  17.668  25.497  1.00  0.00     0.002 C 
ATOM    108  C   UNL A   1      33.643  16.979  23.119  1.00  0.00     0.002 C 
ATOM    109  C   UNL A   1      33.193  16.516  24.501  1.00  0.00     0.000 C 
ENDBRANCH 102 104
ENDBRANCH  93 100
ENDBRANCH  89  91
ENDBRANCH  82  87
ENDBRANCH  77  80
ENDBRANCH  75  76
ENDBRANCH  74  75
ENDBRANCH   1  74
TORSDOF 20
ENDMDL
MODEL 3
REMARK VINA RESULT:     -11.1      5.189     12.195
REMARK SMILES O=C(NCCCCCCNC(=O)[C@H]1[C@H]2CC[C@H](C2)[C@@H]1C(=O)Nc1sc2c(c1C(=O)NC1CCCCC1)CCCC2)c1ccc(-c2c3nc(c(-c4cc(S(=O)(=O)[O-])ccc4F)c4ccc([nH]4)c(-c4cc(S(=O)(=O)[O-])ccc4F)c4nc(c(-c5cc(S(=O)(=O)[O-])ccc5F)c5ccc2[nH]5)C=C4)C=C3)cc1
REMARK SMILES IDX 7 1 6 2 5 3 4 4 3 5 1 6 2 7 41 9 42 10 103 11 43 12 102 13
REMARK SMILES IDX 44 14 45 15 46 16 96 17 47 18 101 19 95 20 97 21 48 22
REMARK SMILES IDX 100 23 94 24 93 25 49 27 81 28 61 29 80 30 62 31 65 32 79 33
REMARK SMILES IDX 98 34 63 35 64 36 78 38 99 39 66 40 50 41 51 42 59 43 52 44
REMARK SMILES IDX 58 45 60 46 57 47 53 48 54 49 55 50 56 51 82 52 83 53 91 54
REMARK SMILES IDX 84 55 90 56 92 57 89 58 85 59 86 60 87 61 88 62 67 63 68 64
REMARK SMILES IDX 76 65 69 66 75 67 77 68 74 69 70 70 71 71 72 72 73 73 8 74
REMARK SMILES IDX 9 75 10 76 11 77 12 79 13 80 14 81 19 82 15 83 18 84 17 85
REMARK SMILES IDX 16 86 20 87 21 88 22 89 23 91 24 92 27 93 25 94 26 95 40 96
REMARK SMILES IDX 37 97 39 98 38 99 28 100 29 101 30 102 31 104 32 105 36 106
REMARK SMILES IDX 33 107 35 108 34 109
REMARK H PARENT 3 8 97 26 65 37 10 78 22 90 30 103
REMARK Flexibility Score: inf
ROOT
ATOM      1  C   UNL A   1      42.757  23.533  28.397  1.00  0.00     0.002 C 
ENDROOT
BRANCH   1   2
ATOM      2  C   UNL A   1      43.112  23.059  26.983  1.00  0.00     0.002 C 
BRANCH   2   3
ATOM      3  C   UNL A   1      42.265  21.896  26.467  1.00  0.00     0.021 C 
BRANCH   3   4
ATOM      4  C   UNL A   1      41.021  21.619  27.295  1.00  0.00     0.116 C 
BRANCH   4   5
ATOM      5  N   UNL A   1      39.802  21.710  26.509  1.00  0.00    -0.352 N 
ATOM      6  O   UNL A   1      37.886  22.665  25.791  1.00  0.00    -0.269 OA
ATOM      7  C   UNL A   1      38.964  22.791  26.347  1.00  0.00     0.251 C 
ATOM      8  H   UNL A   1      39.541  20.891  26.027  1.00  0.00     0.163 HD
BRANCH   7   9
ATOM      9  C   UNL A   1      39.392  24.102  26.882  1.00  0.00     0.039 A 
ATOM     10  C   UNL A   1      40.031  25.020  26.046  1.00  0.00     0.014 A 
ATOM     11  C   UNL A   1      39.181  24.402  28.230  1.00  0.00     0.014 A 
ATOM     12  C   UNL A   1      40.591  26.167  26.587  1.00  0.00     0.010 A 
ATOM     13  C   UNL A   1      39.652  25.612  28.751  1.00  0.00     0.010 A 
ATOM     14  C   UNL A   1      40.381  26.494  27.938  1.00  0.00    -0.014 A 
BRANCH  14  15
ATOM     15  C   UNL A   1      40.863  27.811  28.427  1.00  0.00     0.031 A 
ATOM     16  C   UNL A   1      42.318  28.182  28.390  1.00  0.00     0.074 A 
ATOM     17  C   UNL A   1      39.939  28.700  28.848  1.00  0.00     0.049 A 
ATOM     18  N   UNL A   1      42.883  29.314  28.726  1.00  0.00    -0.248 NA
ATOM     19  C   UNL A   1      43.262  27.154  27.927  1.00  0.00     0.031 C 
ATOM     20  C   UNL A   1      38.500  28.432  28.938  1.00  0.00     0.029 A 
ATOM     21  N   UNL A   1      40.056  30.005  29.245  1.00  0.00    -0.354 N 
ATOM     22  C   UNL A   1      44.248  29.138  28.522  1.00  0.00     0.074 A 
ATOM     23  C   UNL A   1      44.427  27.774  28.066  1.00  0.00     0.031 C 
ATOM     24  C   UNL A   1      37.864  29.555  29.297  1.00  0.00     0.029 A 
ATOM     25  C   UNL A   1      38.851  30.597  29.547  1.00  0.00     0.049 A 
ATOM     26  H   UNL A   1      40.919  30.476  29.308  1.00  0.00     0.167 HD
ATOM     27  C   UNL A   1      45.250  30.036  28.691  1.00  0.00     0.034 A 
ATOM     28  C   UNL A   1      38.569  31.833  29.998  1.00  0.00     0.034 A 
ATOM     29  C   UNL A   1      45.049  31.390  29.156  1.00  0.00     0.049 A 
ATOM     30  C   UNL A   1      39.706  32.795  30.203  1.00  0.00     0.074 A 
ATOM     31  C   UNL A   1      45.994  32.382  29.360  1.00  0.00     0.029 A 
ATOM     32  N   UNL A   1      43.820  31.943  29.495  1.00  0.00    -0.354 N 
ATOM     33  N   UNL A   1      40.990  32.611  29.990  1.00  0.00    -0.248 NA
ATOM     34  C   UNL A   1      39.358  34.130  30.700  1.00  0.00     0.031 C 
ATOM     35  C   UNL A   1      45.347  33.509  29.877  1.00  0.00     0.029 A 
ATOM     36  C   UNL A   1      43.987  33.252  29.927  1.00  0.00     0.049 A 
ATOM     37  H   UNL A   1      42.957  31.475  29.438  1.00  0.00     0.167 HD
ATOM     38  C   UNL A   1      41.601  33.816  30.322  1.00  0.00     0.074 A 
ATOM     39  C   UNL A   1      40.540  34.727  30.702  1.00  0.00     0.031 C 
ATOM     40  C   UNL A   1      42.919  34.138  30.326  1.00  0.00     0.034 A 
BRANCH  27  41
ATOM     41  C   UNL A   1      46.659  29.576  28.399  1.00  0.00     0.023 A 
ATOM     42  C   UNL A   1      47.475  29.023  29.402  1.00  0.00     0.031 A 
ATOM     43  C   UNL A   1      47.190  29.681  27.102  1.00  0.00     0.131 A 
ATOM     44  C   UNL A   1      48.793  28.643  29.103  1.00  0.00     0.055 A 
ATOM     45  C   UNL A   1      48.479  29.237  26.795  1.00  0.00     0.041 A 
ATOM     46  F   UNL A   1      46.465  30.219  26.108  1.00  0.00    -0.206 F 
ATOM     47  C   UNL A   1      49.292  28.723  27.800  1.00  0.00     0.022 A 
BRANCH  44  48
ATOM     48  S   UNL A   1      49.881  28.141  30.465  1.00  0.00     0.124 S 
ATOM     49  O   UNL A   1      51.149  28.752  30.071  1.00  0.00    -0.237 OA
ATOM     50  O   UNL A   1      49.226  28.730  31.627  1.00  0.00    -0.237 OA
ATOM     51  O   UNL A   1      49.856  26.682  30.406  1.00  0.00    -0.744 OA
ENDBRANCH  44  48
ENDBRANCH  27  41
BRANCH  28  52
ATOM     52  C   UNL A   1      37.166  32.213  30.329  1.00  0.00     0.023 A 
ATOM     53  C   UNL A   1      36.246  32.551  29.324  1.00  0.00     0.031 A 
ATOM     54  C   UNL A   1      36.736  32.289  31.667  1.00  0.00     0.131 A 
ATOM     55  C   UNL A   1      34.964  33.001  29.675  1.00  0.00     0.055 A 
ATOM     56  C   UNL A   1      35.439  32.671  32.007  1.00  0.00     0.041 A 
ATOM     57  F   UNL A   1      37.574  31.975  32.669  1.00  0.00    -0.206 F 
ATOM     58  C   UNL A   1      34.550  33.048  31.007  1.00  0.00     0.022 A 
BRANCH  55  59
ATOM     59  S   UNL A   1      33.883  33.633  28.364  1.00  0.00     0.124 S 
ATOM     60  O   UNL A   1      32.906  34.401  29.129  1.00  0.00    -0.237 OA
ATOM     61  O   UNL A   1      34.815  34.409  27.553  1.00  0.00    -0.237 OA
ATOM     62  O   UNL A   1      33.368  32.420  27.734  1.00  0.00    -0.744 OA
ENDBRANCH  55  59
ENDBRANCH  28  52
BRANCH  40  63
ATOM     63  C   UNL A   1      43.262  35.549  30.738  1.00  0.00     0.023 A 
ATOM     64  C   UNL A   1      43.329  36.592  29.797  1.00  0.00     0.031 A 
ATOM     65  C   UNL A   1      43.584  35.842  32.074  1.00  0.00     0.131 A 
ATOM     66  C   UNL A   1      43.788  37.857  30.188  1.00  0.00     0.055 A 
ATOM     67  C   UNL A   1      43.972  37.123  32.471  1.00  0.00     0.041 A 
ATOM     68  F   UNL A   1      43.540  34.885  33.015  1.00  0.00    -0.206 F 
ATOM     69  C   UNL A   1      44.095  38.134  31.522  1.00  0.00     0.022 A 
BRANCH  66  70
ATOM     70  S   UNL A   1      44.102  39.100  28.905  1.00  0.00     0.124 S 
ATOM     71  O   UNL A   1      42.755  39.582  28.615  1.00  0.00    -0.237 OA
ATOM     72  O   UNL A   1      44.981  40.040  29.591  1.00  0.00    -0.237 OA
ATOM     73  O   UNL A   1      44.731  38.333  27.831  1.00  0.00    -0.744 OA
ENDBRANCH  66  70
ENDBRANCH  40  63
ENDBRANCH  14  15
ENDBRANCH   7   9
ENDBRANCH   4   5
ENDBRANCH   3   4
ENDBRANCH   2   3
ENDBRANCH   1   2
BRANCH   1  74
ATOM     74  C   UNL A   1      43.962  23.845  29.290  1.00  0.00     0.021 C 
BRANCH  74  75
ATOM     75  C   UNL A   1      43.585  24.577  30.573  1.00  0.00     0.116 C 
BRANCH  75  76
ATOM     76  N   UNL A   1      44.780  25.087  31.224  1.00  0.00    -0.356 N 
ATOM     77  C   UNL A   1      45.037  25.199  32.560  1.00  0.00     0.224 C 
ATOM     78  H   UNL A   1      45.497  25.391  30.622  1.00  0.00     0.163 HD
ATOM     79  O   UNL A   1      46.025  25.826  32.929  1.00  0.00    -0.275 OA
BRANCH  77  80
ATOM     80  C   UNL A   1      44.128  24.435  33.498  1.00  0.00     0.094 C 
ATOM     81  C   UNL A   1      44.761  23.040  33.773  1.00  0.00     0.002 C 
ATOM     82  C   UNL A   1      43.936  25.024  34.909  1.00  0.00     0.094 C 
ATOM     83  C   UNL A   1      46.125  23.137  34.482  1.00  0.00     0.005 C 
ATOM     84  C   UNL A   1      43.892  22.578  34.921  1.00  0.00     0.009 C 
ATOM     85  C   UNL A   1      44.217  23.796  35.802  1.00  0.00     0.002 C 
ATOM     86  C   UNL A   1      45.753  23.633  35.889  1.00  0.00     0.005 C 
BRANCH  82  87
ATOM     87  C   UNL A   1      42.643  25.867  35.053  1.00  0.00     0.229 C 
ATOM     88  O   UNL A   1      41.571  25.260  35.194  1.00  0.00    -0.274 OA
ATOM     89  N   UNL A   1      42.600  27.217  35.242  1.00  0.00    -0.317 N 
ATOM     90  H   UNL A   1      41.828  27.536  35.763  1.00  0.00     0.170 HD
BRANCH  89  91
ATOM     91  C   UNL A   1      43.459  28.206  34.824  1.00  0.00     0.108 A 
ATOM     92  S   UNL A   1      44.983  28.272  35.573  1.00  0.00    -0.122 S 
ATOM     93  C   UNL A   1      43.389  29.010  33.678  1.00  0.00     0.078 A 
ATOM     94  C   UNL A   1      45.244  29.795  34.886  1.00  0.00     0.011 A 
ATOM     95  C   UNL A   1      44.479  29.986  33.743  1.00  0.00    -0.019 A 
ATOM     96  C   UNL A   1      46.216  30.766  35.477  1.00  0.00     0.047 C 
ATOM     97  C   UNL A   1      44.800  31.152  32.849  1.00  0.00     0.037 C 
ATOM     98  C   UNL A   1      45.974  32.148  34.861  1.00  0.00     0.006 C 
ATOM     99  C   UNL A   1      45.974  32.021  33.336  1.00  0.00     0.005 C 
BRANCH  93 100
ATOM    100  C   UNL A   1      42.288  28.753  32.728  1.00  0.00     0.254 C 
ATOM    101  O   UNL A   1      42.394  27.824  31.917  1.00  0.00    -0.269 OA
ATOM    102  N   UNL A   1      41.077  29.393  32.698  1.00  0.00    -0.349 N 
ATOM    103  H   UNL A   1      40.457  28.992  32.047  1.00  0.00     0.164 HD
BRANCH 102 104
ATOM    104  C   UNL A   1      40.489  30.523  33.398  1.00  0.00     0.082 C 
ATOM    105  C   UNL A   1      40.276  30.206  34.890  1.00  0.00     0.025 C 
ATOM    106  C   UNL A   1      41.334  31.800  33.294  1.00  0.00     0.025 C 
ATOM    107  C   UNL A   1      39.549  31.356  35.590  1.00  0.00     0.002 C 
ATOM    108  C   UNL A   1      40.607  32.979  33.947  1.00  0.00     0.002 C 
ATOM    109  C   UNL A   1      40.263  32.694  35.406  1.00  0.00     0.000 C 
ENDBRANCH 102 104
ENDBRANCH  93 100
ENDBRANCH  89  91
ENDBRANCH  82  87
ENDBRANCH  77  80
ENDBRANCH  75  76
ENDBRANCH  74  75
ENDBRANCH   1  74
TORSDOF 20
ENDMDL
