MODEL 1
REMARK VINA RESULT:     -12.5      0.000      0.000
REMARK SMILES Cn1cc(C(=O)NCCCCCCNC(=O)c2ccc(-c3c4nc(c(-c5cc(S(=O)(=O)[O-])ccc5F)c5ccc([nH]5)c(-c5cc(S(=O)(=O)[O-])ccc5F)c5nc(c(-c6cc(S(=O)(=O)[O-])ccc6F)c6ccc3[nH]6)C=C5)C=C4)cc2)c(C(=O)Nc2ccc(-n3cncn3)cc2)n1
REMARK SMILES IDX 10 1 9 2 8 3 7 4 5 5 6 6 4 8 1 9 2 10 3 11 95 12 80 13 81 14
REMARK SMILES IDX 82 15 83 16 84 18 85 19 94 20 86 21 93 22 87 23 88 24 89 25
REMARK SMILES IDX 92 26 90 27 91 28 11 29 12 30 13 31 14 32 15 33 16 35 17 36
REMARK SMILES IDX 18 37 79 38 19 39 78 40 20 41 21 42 22 43 72 44 23 45 77 46
REMARK SMILES IDX 71 47 73 48 24 49 76 50 70 51 69 52 25 54 57 55 37 56 56 57
REMARK SMILES IDX 38 58 41 59 55 60 74 61 39 62 40 63 54 65 75 66 42 67 26 68
REMARK SMILES IDX 27 69 35 70 28 71 34 72 36 73 33 74 29 75 30 76 31 77 32 78
REMARK SMILES IDX 58 79 59 80 67 81 60 82 66 83 68 84 65 85 61 86 62 87 63 88
REMARK SMILES IDX 64 89 43 90 44 91 52 92 45 93 51 94 53 95 50 96 46 97 47 98
REMARK SMILES IDX 48 99 49 100
REMARK H PARENT 7 7 83 17 14 34 73 53 41 64
REMARK Flexibility Score: inf
ROOT
ATOM      1  C   UNL A   1      33.092  29.779  26.174  1.00  0.00     0.002 C 
ENDROOT
BRANCH   1   2
ATOM      2  C   UNL A   1      33.432  28.559  25.310  1.00  0.00     0.021 C 
BRANCH   2   3
ATOM      3  C   UNL A   1      33.955  27.340  26.067  1.00  0.00     0.116 C 
BRANCH   3   4
ATOM      4  N   UNL A   1      32.990  26.270  26.224  1.00  0.00    -0.352 N 
ATOM      5  C   UNL A   1      32.957  24.965  25.802  1.00  0.00     0.255 C 
ATOM      6  O   UNL A   1      32.029  24.272  26.220  1.00  0.00    -0.269 OA
ATOM      7  H   UNL A   1      32.194  26.534  26.740  1.00  0.00     0.163 HD
BRANCH   5   8
ATOM      8  C   UNL A   1      33.943  24.421  24.882  1.00  0.00     0.090 A 
ATOM      9  C   UNL A   1      37.051  22.986  23.736  1.00  0.00     0.173 C 
ATOM     10  N   UNL A   1      35.740  23.552  23.946  1.00  0.00    -0.274 N 
ATOM     11  C   UNL A   1      35.294  24.190  25.064  1.00  0.00     0.123 A 
ATOM     12  N   UNL A   1      34.800  23.392  23.010  1.00  0.00    -0.167 NA
ATOM     13  C   UNL A   1      33.673  23.868  23.577  1.00  0.00     0.163 A 
BRANCH  13  14
ATOM     14  C   UNL A   1      32.377  23.688  22.897  1.00  0.00     0.276 C 
ATOM     15  O   UNL A   1      31.750  24.650  22.442  1.00  0.00    -0.267 OA
ATOM     16  N   UNL A   1      31.848  22.436  22.674  1.00  0.00    -0.321 N 
ATOM     17  H   UNL A   1      31.137  22.422  21.993  1.00  0.00     0.170 HD
BRANCH  16  18
ATOM     18  C   UNL A   1      32.124  21.178  23.224  1.00  0.00     0.041 A 
ATOM     19  C   UNL A   1      32.082  20.086  22.350  1.00  0.00     0.028 A 
ATOM     20  C   UNL A   1      32.396  20.957  24.574  1.00  0.00     0.028 A 
ATOM     21  C   UNL A   1      32.388  18.801  22.801  1.00  0.00     0.030 A 
ATOM     22  C   UNL A   1      32.680  19.664  25.040  1.00  0.00     0.030 A 
ATOM     23  C   UNL A   1      32.706  18.584  24.147  1.00  0.00     0.067 A 
BRANCH  23  24
ATOM     24  N   UNL A   1      33.081  17.281  24.565  1.00  0.00    -0.221 N 
ATOM     25  C   UNL A   1      34.215  16.563  24.269  1.00  0.00     0.225 A 
ATOM     26  N   UNL A   1      32.266  16.517  25.337  1.00  0.00    -0.155 NA
ATOM     27  N   UNL A   1      34.152  15.361  24.796  1.00  0.00    -0.223 NA
ATOM     28  C   UNL A   1      32.948  15.376  25.428  1.00  0.00     0.246 A 
ENDBRANCH  23  24
ENDBRANCH  16  18
ENDBRANCH  13  14
ENDBRANCH   5   8
ENDBRANCH   3   4
ENDBRANCH   2   3
ENDBRANCH   1   2
BRANCH   1  29
ATOM     29  C   UNL A   1      31.684  30.369  26.028  1.00  0.00     0.002 C 
BRANCH  29  30
ATOM     30  C   UNL A   1      31.477  31.788  26.563  1.00  0.00     0.021 C 
BRANCH  30  31
ATOM     31  C   UNL A   1      32.681  32.420  27.259  1.00  0.00     0.116 C 
BRANCH  31  32
ATOM     32  N   UNL A   1      32.460  33.818  27.590  1.00  0.00    -0.352 N 
ATOM     33  C   UNL A   1      33.087  34.616  28.520  1.00  0.00     0.251 C 
ATOM     34  H   UNL A   1      31.753  34.263  27.070  1.00  0.00     0.163 HD
ATOM     35  O   UNL A   1      32.626  35.727  28.768  1.00  0.00    -0.269 OA
BRANCH  33  36
ATOM     36  C   UNL A   1      34.294  34.146  29.240  1.00  0.00     0.039 A 
ATOM     37  C   UNL A   1      34.131  33.313  30.354  1.00  0.00     0.014 A 
ATOM     38  C   UNL A   1      35.577  34.551  28.858  1.00  0.00     0.014 A 
ATOM     39  C   UNL A   1      35.252  32.831  31.039  1.00  0.00     0.010 A 
ATOM     40  C   UNL A   1      36.696  34.038  29.517  1.00  0.00     0.010 A 
ATOM     41  C   UNL A   1      36.544  33.166  30.607  1.00  0.00    -0.014 A 
BRANCH  41  42
ATOM     42  C   UNL A   1      37.750  32.613  31.271  1.00  0.00     0.031 A 
ATOM     43  C   UNL A   1      38.528  31.500  30.625  1.00  0.00     0.074 A 
ATOM     44  C   UNL A   1      38.095  33.046  32.498  1.00  0.00     0.049 A 
ATOM     45  N   UNL A   1      39.482  30.759  31.127  1.00  0.00    -0.248 NA
ATOM     46  C   UNL A   1      38.158  31.161  29.244  1.00  0.00     0.031 C 
ATOM     47  C   UNL A   1      37.405  34.091  33.256  1.00  0.00     0.029 A 
ATOM     48  N   UNL A   1      39.104  32.638  33.335  1.00  0.00    -0.354 N 
ATOM     49  C   UNL A   1      39.793  29.827  30.144  1.00  0.00     0.074 A 
ATOM     50  C   UNL A   1      38.932  30.109  29.012  1.00  0.00     0.031 C 
ATOM     51  C   UNL A   1      38.001  34.232  34.452  1.00  0.00     0.029 A 
ATOM     52  C   UNL A   1      39.099  33.276  34.551  1.00  0.00     0.049 A 
ATOM     53  H   UNL A   1      39.766  31.953  33.087  1.00  0.00     0.167 HD
ATOM     54  C   UNL A   1      40.700  28.820  30.187  1.00  0.00     0.034 A 
ATOM     55  C   UNL A   1      39.875  33.094  35.634  1.00  0.00     0.034 A 
ATOM     56  C   UNL A   1      41.586  28.563  31.294  1.00  0.00     0.049 A 
ATOM     57  C   UNL A   1      40.944  32.043  35.617  1.00  0.00     0.074 A 
ATOM     58  C   UNL A   1      42.556  27.582  31.419  1.00  0.00     0.029 A 
ATOM     59  N   UNL A   1      41.617  29.302  32.467  1.00  0.00    -0.354 N 
ATOM     60  N   UNL A   1      41.202  31.148  34.696  1.00  0.00    -0.248 NA
ATOM     61  C   UNL A   1      41.827  31.981  36.790  1.00  0.00     0.031 C 
ATOM     62  C   UNL A   1      43.164  27.720  32.676  1.00  0.00     0.029 A 
ATOM     63  C   UNL A   1      42.588  28.802  33.320  1.00  0.00     0.049 A 
ATOM     64  H   UNL A   1      41.033  30.070  32.665  1.00  0.00     0.167 HD
ATOM     65  C   UNL A   1      42.271  30.407  35.182  1.00  0.00     0.074 A 
ATOM     66  C   UNL A   1      42.619  30.965  36.475  1.00  0.00     0.031 C 
ATOM     67  C   UNL A   1      42.909  29.356  34.609  1.00  0.00     0.034 A 
BRANCH  54  68
ATOM     68  C   UNL A   1      40.723  27.884  29.011  1.00  0.00     0.023 A 
ATOM     69  C   UNL A   1      41.672  28.009  27.985  1.00  0.00     0.031 A 
ATOM     70  C   UNL A   1      39.741  26.885  28.896  1.00  0.00     0.131 A 
ATOM     71  C   UNL A   1      41.586  27.179  26.857  1.00  0.00     0.055 A 
ATOM     72  C   UNL A   1      39.691  26.028  27.796  1.00  0.00     0.041 A 
ATOM     73  F   UNL A   1      38.798  26.744  29.841  1.00  0.00    -0.206 F 
ATOM     74  C   UNL A   1      40.612  26.181  26.762  1.00  0.00     0.022 A 
BRANCH  71  75
ATOM     75  S   UNL A   1      42.698  27.495  25.462  1.00  0.00     0.124 S 
ATOM     76  O   UNL A   1      42.019  28.596  24.785  1.00  0.00    -0.237 OA
ATOM     77  O   UNL A   1      43.951  27.829  26.130  1.00  0.00    -0.237 OA
ATOM     78  O   UNL A   1      42.699  26.230  24.731  1.00  0.00    -0.744 OA
ENDBRANCH  71  75
ENDBRANCH  54  68
BRANCH  55  79
ATOM     79  C   UNL A   1      39.625  33.889  36.859  1.00  0.00     0.023 A 
ATOM     80  C   UNL A   1      38.921  33.350  37.942  1.00  0.00     0.031 A 
ATOM     81  C   UNL A   1      40.105  35.205  36.954  1.00  0.00     0.131 A 
ATOM     82  C   UNL A   1      38.704  34.136  39.083  1.00  0.00     0.055 A 
ATOM     83  C   UNL A   1      39.889  35.981  38.093  1.00  0.00     0.041 A 
ATOM     84  F   UNL A   1      40.799  35.745  35.941  1.00  0.00    -0.206 F 
ATOM     85  C   UNL A   1      39.182  35.447  39.166  1.00  0.00     0.022 A 
BRANCH  82  86
ATOM     86  S   UNL A   1      37.789  33.411  40.469  1.00  0.00     0.124 S 
ATOM     87  O   UNL A   1      37.650  34.552  41.365  1.00  0.00    -0.237 OA
ATOM     88  O   UNL A   1      36.566  32.955  39.815  1.00  0.00    -0.237 OA
ATOM     89  O   UNL A   1      38.672  32.347  40.941  1.00  0.00    -0.744 OA
ENDBRANCH  82  86
ENDBRANCH  55  79
BRANCH  67  90
ATOM     90  C   UNL A   1      44.052  28.765  35.379  1.00  0.00     0.023 A 
ATOM     91  C   UNL A   1      43.845  27.730  36.304  1.00  0.00     0.031 A 
ATOM     92  C   UNL A   1      45.355  29.258  35.199  1.00  0.00     0.131 A 
ATOM     93  C   UNL A   1      44.931  27.229  37.036  1.00  0.00     0.055 A 
ATOM     94  C   UNL A   1      46.433  28.747  35.921  1.00  0.00     0.041 A 
ATOM     95  F   UNL A   1      45.592  30.253  34.329  1.00  0.00    -0.206 F 
ATOM     96  C   UNL A   1      46.223  27.730  36.850  1.00  0.00     0.022 A 
BRANCH  93  97
ATOM     97  S   UNL A   1      44.629  25.932  38.267  1.00  0.00     0.124 S 
ATOM     98  O   UNL A   1      43.658  26.569  39.152  1.00  0.00    -0.237 OA
ATOM     99  O   UNL A   1      44.121  24.837  37.446  1.00  0.00    -0.237 OA
ATOM    100  O   UNL A   1      45.946  25.703  38.855  1.00  0.00    -0.744 OA
ENDBRANCH  93  97
ENDBRANCH  67  90
ENDBRANCH  41  42
ENDBRANCH  33  36
ENDBRANCH  31  32
ENDBRANCH  30  31
ENDBRANCH  29  30
ENDBRANCH   1  29
TORSDOF 19
ENDMDL
MODEL 2
REMARK VINA RESULT:     -12.4      2.932      4.833
REMARK SMILES Cn1cc(C(=O)NCCCCCCNC(=O)c2ccc(-c3c4nc(c(-c5cc(S(=O)(=O)[O-])ccc5F)c5ccc([nH]5)c(-c5cc(S(=O)(=O)[O-])ccc5F)c5nc(c(-c6cc(S(=O)(=O)[O-])ccc6F)c6ccc3[nH]6)C=C5)C=C4)cc2)c(C(=O)Nc2ccc(-n3cncn3)cc2)n1
REMARK SMILES IDX 10 1 9 2 8 3 7 4 5 5 6 6 4 8 1 9 2 10 3 11 95 12 80 13 81 14
REMARK SMILES IDX 82 15 83 16 84 18 85 19 94 20 86 21 93 22 87 23 88 24 89 25
REMARK SMILES IDX 92 26 90 27 91 28 11 29 12 30 13 31 14 32 15 33 16 35 17 36
REMARK SMILES IDX 18 37 79 38 19 39 78 40 20 41 21 42 22 43 72 44 23 45 77 46
REMARK SMILES IDX 71 47 73 48 24 49 76 50 70 51 69 52 25 54 57 55 37 56 56 57
REMARK SMILES IDX 38 58 41 59 55 60 74 61 39 62 40 63 54 65 75 66 42 67 26 68
REMARK SMILES IDX 27 69 35 70 28 71 34 72 36 73 33 74 29 75 30 76 31 77 32 78
REMARK SMILES IDX 58 79 59 80 67 81 60 82 66 83 68 84 65 85 61 86 62 87 63 88
REMARK SMILES IDX 64 89 43 90 44 91 52 92 45 93 51 94 53 95 50 96 46 97 47 98
REMARK SMILES IDX 48 99 49 100
REMARK H PARENT 7 7 83 17 14 34 73 53 41 64
REMARK Flexibility Score: inf
ROOT
ATOM      1  C   UNL A   1      32.609  29.258  27.137  1.00  0.00     0.002 C 
ENDROOT
BRANCH   1   2
ATOM      2  C   UNL A   1      32.646  27.770  26.769  1.00  0.00     0.021 C 
BRANCH   2   3
ATOM      3  C   UNL A   1      33.674  27.377  25.711  1.00  0.00     0.116 C 
BRANCH   3   4
ATOM      4  N   UNL A   1      34.031  25.971  25.711  1.00  0.00    -0.352 N 
ATOM      5  C   UNL A   1      33.947  24.981  24.765  1.00  0.00     0.255 C 
ATOM      6  O   UNL A   1      34.462  23.901  25.049  1.00  0.00    -0.269 OA
ATOM      7  H   UNL A   1      34.411  25.664  26.565  1.00  0.00     0.163 HD
BRANCH   5   8
ATOM      8  C   UNL A   1      33.257  25.173  23.499  1.00  0.00     0.090 A 
ATOM      9  C   UNL A   1      32.770  25.397  19.929  1.00  0.00     0.173 C 
ATOM     10  N   UNL A   1      32.714  25.366  21.371  1.00  0.00    -0.274 N 
ATOM     11  C   UNL A   1      33.771  25.369  22.230  1.00  0.00     0.123 A 
ATOM     12  N   UNL A   1      31.531  25.237  21.978  1.00  0.00    -0.167 NA
ATOM     13  C   UNL A   1      31.836  25.064  23.280  1.00  0.00     0.163 A 
BRANCH  13  14
ATOM     14  C   UNL A   1      30.776  24.706  24.241  1.00  0.00     0.276 C 
ATOM     15  O   UNL A   1      30.751  23.600  24.789  1.00  0.00    -0.267 OA
ATOM     16  N   UNL A   1      29.815  25.615  24.625  1.00  0.00    -0.321 N 
ATOM     17  H   UNL A   1      29.338  25.363  25.448  1.00  0.00     0.170 HD
BRANCH  16  18
ATOM     18  C   UNL A   1      29.383  26.829  24.075  1.00  0.00     0.041 A 
ATOM     19  C   UNL A   1      30.364  27.798  23.838  1.00  0.00     0.028 A 
ATOM     20  C   UNL A   1      28.051  27.129  23.791  1.00  0.00     0.028 A 
ATOM     21  C   UNL A   1      30.032  29.019  23.250  1.00  0.00     0.030 A 
ATOM     22  C   UNL A   1      27.706  28.364  23.222  1.00  0.00     0.030 A 
ATOM     23  C   UNL A   1      28.701  29.304  22.922  1.00  0.00     0.067 A 
BRANCH  23  24
ATOM     24  N   UNL A   1      28.401  30.523  22.262  1.00  0.00    -0.221 N 
ATOM     25  C   UNL A   1      27.945  31.709  22.786  1.00  0.00     0.225 A 
ATOM     26  N   UNL A   1      28.500  30.648  20.913  1.00  0.00    -0.155 NA
ATOM     27  N   UNL A   1      27.721  32.581  21.830  1.00  0.00    -0.223 NA
ATOM     28  C   UNL A   1      28.064  31.890  20.709  1.00  0.00     0.246 A 
ENDBRANCH  23  24
ENDBRANCH  16  18
ENDBRANCH  13  14
ENDBRANCH   5   8
ENDBRANCH   3   4
ENDBRANCH   2   3
ENDBRANCH   1   2
BRANCH   1  29
ATOM     29  C   UNL A   1      31.886  30.201  26.168  1.00  0.00     0.002 C 
BRANCH  29  30
ATOM     30  C   UNL A   1      31.691  31.646  26.635  1.00  0.00     0.021 C 
BRANCH  30  31
ATOM     31  C   UNL A   1      32.884  32.284  27.342  1.00  0.00     0.116 C 
BRANCH  31  32
ATOM     32  N   UNL A   1      32.649  33.678  27.682  1.00  0.00    -0.352 N 
ATOM     33  C   UNL A   1      33.252  34.470  28.631  1.00  0.00     0.251 C 
ATOM     34  H   UNL A   1      31.949  34.123  27.152  1.00  0.00     0.163 HD
ATOM     35  O   UNL A   1      32.780  35.576  28.881  1.00  0.00    -0.269 OA
BRANCH  33  36
ATOM     36  C   UNL A   1      34.449  34.001  29.370  1.00  0.00     0.039 A 
ATOM     37  C   UNL A   1      34.269  33.173  30.485  1.00  0.00     0.014 A 
ATOM     38  C   UNL A   1      35.737  34.403  29.004  1.00  0.00     0.014 A 
ATOM     39  C   UNL A   1      35.379  32.692  31.187  1.00  0.00     0.010 A 
ATOM     40  C   UNL A   1      36.846  33.891  29.680  1.00  0.00     0.010 A 
ATOM     41  C   UNL A   1      36.677  33.023  30.772  1.00  0.00    -0.014 A 
BRANCH  41  42
ATOM     42  C   UNL A   1      37.874  32.470  31.455  1.00  0.00     0.031 A 
ATOM     43  C   UNL A   1      38.717  31.426  30.779  1.00  0.00     0.074 A 
ATOM     44  C   UNL A   1      38.150  32.839  32.720  1.00  0.00     0.049 A 
ATOM     45  N   UNL A   1      39.676  30.688  31.277  1.00  0.00    -0.248 NA
ATOM     46  C   UNL A   1      38.419  31.160  29.364  1.00  0.00     0.031 C 
ATOM     47  C   UNL A   1      37.391  33.811  33.508  1.00  0.00     0.029 A 
ATOM     48  N   UNL A   1      39.136  32.413  33.574  1.00  0.00    -0.354 N 
ATOM     49  C   UNL A   1      40.061  29.829  30.255  1.00  0.00     0.074 A 
ATOM     50  C   UNL A   1      39.239  30.151  29.104  1.00  0.00     0.031 C 
ATOM     51  C   UNL A   1      37.930  33.898  34.735  1.00  0.00     0.029 A 
ATOM     52  C   UNL A   1      39.057  32.975  34.825  1.00  0.00     0.049 A 
ATOM     53  H   UNL A   1      39.833  31.767  33.316  1.00  0.00     0.167 HD
ATOM     54  C   UNL A   1      41.001  28.852  30.278  1.00  0.00     0.034 A 
ATOM     55  C   UNL A   1      39.792  32.753  35.930  1.00  0.00     0.034 A 
ATOM     56  C   UNL A   1      41.848  28.557  31.405  1.00  0.00     0.049 A 
ATOM     57  C   UNL A   1      40.898  31.740  35.897  1.00  0.00     0.074 A 
ATOM     58  C   UNL A   1      42.847  27.603  31.514  1.00  0.00     0.029 A 
ATOM     59  N   UNL A   1      41.802  29.223  32.621  1.00  0.00    -0.354 N 
ATOM     60  N   UNL A   1      41.227  30.914  34.936  1.00  0.00    -0.248 NA
ATOM     61  C   UNL A   1      41.732  31.636  37.102  1.00  0.00     0.031 C 
ATOM     62  C   UNL A   1      43.395  27.683  32.803  1.00  0.00     0.029 A 
ATOM     63  C   UNL A   1      42.754  28.704  33.485  1.00  0.00     0.049 A 
ATOM     64  H   UNL A   1      41.184  29.957  32.839  1.00  0.00     0.167 HD
ATOM     65  C   UNL A   1      42.300  30.179  35.424  1.00  0.00     0.074 A 
ATOM     66  C   UNL A   1      42.573  30.668  36.762  1.00  0.00     0.031 C 
ATOM     67  C   UNL A   1      43.000  29.188  34.818  1.00  0.00     0.034 A 
BRANCH  54  68
ATOM     68  C   UNL A   1      41.108  27.991  29.049  1.00  0.00     0.023 A 
ATOM     69  C   UNL A   1      42.131  28.172  28.106  1.00  0.00     0.031 A 
ATOM     70  C   UNL A   1      40.133  27.010  28.800  1.00  0.00     0.131 A 
ATOM     71  C   UNL A   1      42.126  27.415  26.925  1.00  0.00     0.055 A 
ATOM     72  C   UNL A   1      40.162  26.225  27.646  1.00  0.00     0.041 A 
ATOM     73  F   UNL A   1      39.121  26.818  29.661  1.00  0.00    -0.206 F 
ATOM     74  C   UNL A   1      41.158  26.434  26.696  1.00  0.00     0.022 A 
BRANCH  71  75
ATOM     75  S   UNL A   1      43.341  27.809  25.640  1.00  0.00     0.124 S 
ATOM     76  O   UNL A   1      42.490  27.949  24.461  1.00  0.00    -0.237 OA
ATOM     77  O   UNL A   1      43.945  29.036  26.144  1.00  0.00    -0.237 OA
ATOM     78  O   UNL A   1      44.219  26.640  25.629  1.00  0.00    -0.744 OA
ENDBRANCH  71  75
ENDBRANCH  54  68
BRANCH  55  79
ATOM     79  C   UNL A   1      39.462  33.462  37.187  1.00  0.00     0.023 A 
ATOM     80  C   UNL A   1      40.013  34.715  37.480  1.00  0.00     0.031 A 
ATOM     81  C   UNL A   1      38.575  32.883  38.109  1.00  0.00     0.131 A 
ATOM     82  C   UNL A   1      39.677  35.352  38.683  1.00  0.00     0.055 A 
ATOM     83  C   UNL A   1      38.241  33.523  39.303  1.00  0.00     0.041 A 
ATOM     84  F   UNL A   1      38.015  31.691  37.851  1.00  0.00    -0.206 F 
ATOM     85  C   UNL A   1      38.796  34.766  39.596  1.00  0.00     0.022 A 
BRANCH  82  86
ATOM     86  S   UNL A   1      40.405  36.973  39.033  1.00  0.00     0.124 S 
ATOM     87  O   UNL A   1      41.341  37.127  37.926  1.00  0.00    -0.237 OA
ATOM     88  O   UNL A   1      39.232  37.841  39.008  1.00  0.00    -0.237 OA
ATOM     89  O   UNL A   1      41.015  36.796  40.349  1.00  0.00    -0.744 OA
ENDBRANCH  82  86
ENDBRANCH  55  79
BRANCH  67  90
ATOM     90  C   UNL A   1      44.129  28.589  35.602  1.00  0.00     0.023 A 
ATOM     91  C   UNL A   1      43.906  27.545  36.512  1.00  0.00     0.031 A 
ATOM     92  C   UNL A   1      45.435  29.083  35.448  1.00  0.00     0.131 A 
ATOM     93  C   UNL A   1      44.979  27.037  37.258  1.00  0.00     0.055 A 
ATOM     94  C   UNL A   1      46.501  28.565  36.184  1.00  0.00     0.041 A 
ATOM     95  F   UNL A   1      45.687  30.087  34.593  1.00  0.00    -0.206 F 
ATOM     96  C   UNL A   1      46.275  27.539  37.099  1.00  0.00     0.022 A 
BRANCH  93  97
ATOM     97  S   UNL A   1      44.656  25.727  38.470  1.00  0.00     0.124 S 
ATOM     98  O   UNL A   1      45.993  25.188  38.702  1.00  0.00    -0.237 OA
ATOM     99  O   UNL A   1      44.067  26.469  39.580  1.00  0.00    -0.237 OA
ATOM    100  O   UNL A   1      43.739  24.830  37.770  1.00  0.00    -0.744 OA
ENDBRANCH  93  97
ENDBRANCH  67  90
ENDBRANCH  41  42
ENDBRANCH  33  36
ENDBRANCH  31  32
ENDBRANCH  30  31
ENDBRANCH  29  30
ENDBRANCH   1  29
TORSDOF 19
ENDMDL
MODEL 3
REMARK VINA RESULT:     -12.1      2.531      4.548
REMARK SMILES Cn1cc(C(=O)NCCCCCCNC(=O)c2ccc(-c3c4nc(c(-c5cc(S(=O)(=O)[O-])ccc5F)c5ccc([nH]5)c(-c5cc(S(=O)(=O)[O-])ccc5F)c5nc(c(-c6cc(S(=O)(=O)[O-])ccc6F)c6ccc3[nH]6)C=C5)C=C4)cc2)c(C(=O)Nc2ccc(-n3cncn3)cc2)n1
REMARK SMILES IDX 10 1 9 2 8 3 7 4 5 5 6 6 4 8 1 9 2 10 3 11 95 12 80 13 81 14
REMARK SMILES IDX 82 15 83 16 84 18 85 19 94 20 86 21 93 22 87 23 88 24 89 25
REMARK SMILES IDX 92 26 90 27 91 28 11 29 12 30 13 31 14 32 15 33 16 35 17 36
REMARK SMILES IDX 18 37 79 38 19 39 78 40 20 41 21 42 22 43 72 44 23 45 77 46
REMARK SMILES IDX 71 47 73 48 24 49 76 50 70 51 69 52 25 54 57 55 37 56 56 57
REMARK SMILES IDX 38 58 41 59 55 60 74 61 39 62 40 63 54 65 75 66 42 67 26 68
REMARK SMILES IDX 27 69 35 70 28 71 34 72 36 73 33 74 29 75 30 76 31 77 32 78
REMARK SMILES IDX 58 79 59 80 67 81 60 82 66 83 68 84 65 85 61 86 62 87 63 88
REMARK SMILES IDX 64 89 43 90 44 91 52 92 45 93 51 94 53 95 50 96 46 97 47 98
REMARK SMILES IDX 48 99 49 100
REMARK H PARENT 7 7 83 17 14 34 73 53 41 64
REMARK Flexibility Score: inf
ROOT
ATOM      1  C   UNL A   1      31.414  28.886  27.142  1.00  0.00     0.002 C 
ENDROOT
BRANCH   1   2
ATOM      2  C   UNL A   1      31.868  27.456  26.826  1.00  0.00     0.021 C 
BRANCH   2   3
ATOM      3  C   UNL A   1      32.693  27.291  25.551  1.00  0.00     0.116 C 
BRANCH   3   4
ATOM      4  N   UNL A   1      33.824  26.393  25.678  1.00  0.00    -0.352 N 
ATOM      5  C   UNL A   1      33.940  25.027  25.712  1.00  0.00     0.255 C 
ATOM      6  O   UNL A   1      35.082  24.568  25.703  1.00  0.00    -0.269 OA
ATOM      7  H   UNL A   1      34.687  26.861  25.757  1.00  0.00     0.163 HD
BRANCH   5   8
ATOM      8  C   UNL A   1      32.781  24.151  25.787  1.00  0.00     0.090 A 
ATOM      9  C   UNL A   1      29.803  22.611  27.126  1.00  0.00     0.173 C 
ATOM     10  N   UNL A   1      30.958  23.068  26.391  1.00  0.00    -0.274 N 
ATOM     11  C   UNL A   1      31.987  23.822  26.870  1.00  0.00     0.123 A 
ATOM     12  N   UNL A   1      31.039  22.824  25.080  1.00  0.00    -0.167 NA
ATOM     13  C   UNL A   1      32.119  23.520  24.672  1.00  0.00     0.163 A 
BRANCH  13  14
ATOM     14  C   UNL A   1      32.417  23.635  23.232  1.00  0.00     0.276 C 
ATOM     15  O   UNL A   1      33.205  22.864  22.675  1.00  0.00    -0.267 OA
ATOM     16  N   UNL A   1      31.773  24.555  22.434  1.00  0.00    -0.321 N 
ATOM     17  H   UNL A   1      31.848  24.364  21.471  1.00  0.00     0.170 HD
BRANCH  16  18
ATOM     18  C   UNL A   1      31.032  25.707  22.723  1.00  0.00     0.041 A 
ATOM     19  C   UNL A   1      31.501  26.910  22.185  1.00  0.00     0.028 A 
ATOM     20  C   UNL A   1      29.895  25.723  23.532  1.00  0.00     0.028 A 
ATOM     21  C   UNL A   1      30.800  28.101  22.384  1.00  0.00     0.030 A 
ATOM     22  C   UNL A   1      29.199  26.921  23.757  1.00  0.00     0.030 A 
ATOM     23  C   UNL A   1      29.634  28.111  23.158  1.00  0.00     0.067 A 
BRANCH  23  24
ATOM     24  N   UNL A   1      28.903  29.320  23.286  1.00  0.00    -0.221 N 
ATOM     25  C   UNL A   1      27.546  29.529  23.225  1.00  0.00     0.225 A 
ATOM     26  N   UNL A   1      29.525  30.515  23.456  1.00  0.00    -0.155 NA
ATOM     27  N   UNL A   1      27.272  30.810  23.321  1.00  0.00    -0.223 NA
ATOM     28  C   UNL A   1      28.504  31.371  23.452  1.00  0.00     0.246 A 
ENDBRANCH  23  24
ENDBRANCH  16  18
ENDBRANCH  13  14
ENDBRANCH   5   8
ENDBRANCH   3   4
ENDBRANCH   2   3
ENDBRANCH   1   2
BRANCH   1  29
ATOM     29  C   UNL A   1      31.696  29.959  26.084  1.00  0.00     0.002 C 
BRANCH  29  30
ATOM     30  C   UNL A   1      31.500  31.415  26.515  1.00  0.00     0.021 C 
BRANCH  30  31
ATOM     31  C   UNL A   1      32.776  32.242  26.667  1.00  0.00     0.116 C 
BRANCH  31  32
ATOM     32  N   UNL A   1      32.532  33.527  27.300  1.00  0.00    -0.352 N 
ATOM     33  C   UNL A   1      33.155  34.113  28.379  1.00  0.00     0.251 C 
ATOM     34  H   UNL A   1      31.811  34.061  26.897  1.00  0.00     0.163 HD
ATOM     35  O   UNL A   1      32.676  35.131  28.870  1.00  0.00    -0.269 OA
BRANCH  33  36
ATOM     36  C   UNL A   1      34.380  33.521  28.967  1.00  0.00     0.039 A 
ATOM     37  C   UNL A   1      35.609  34.149  28.733  1.00  0.00     0.014 A 
ATOM     38  C   UNL A   1      34.336  32.335  29.706  1.00  0.00     0.014 A 
ATOM     39  C   UNL A   1      36.780  33.631  29.297  1.00  0.00     0.010 A 
ATOM     40  C   UNL A   1      35.498  31.840  30.301  1.00  0.00     0.010 A 
ATOM     41  C   UNL A   1      36.729  32.489  30.109  1.00  0.00    -0.014 A 
BRANCH  41  42
ATOM     42  C   UNL A   1      37.944  31.958  30.777  1.00  0.00     0.031 A 
ATOM     43  C   UNL A   1      38.817  30.955  30.076  1.00  0.00     0.074 A 
ATOM     44  C   UNL A   1      38.213  32.307  32.049  1.00  0.00     0.049 A 
ATOM     45  N   UNL A   1      39.799  30.236  30.555  1.00  0.00    -0.248 NA
ATOM     46  C   UNL A   1      38.523  30.711  28.657  1.00  0.00     0.031 C 
ATOM     47  C   UNL A   1      37.427  33.239  32.860  1.00  0.00     0.029 A 
ATOM     48  N   UNL A   1      39.214  31.894  32.891  1.00  0.00    -0.354 N 
ATOM     49  C   UNL A   1      40.208  29.412  29.514  1.00  0.00     0.074 A 
ATOM     50  C   UNL A   1      39.373  29.734  28.373  1.00  0.00     0.031 C 
ATOM     51  C   UNL A   1      37.967  33.315  34.087  1.00  0.00     0.029 A 
ATOM     52  C   UNL A   1      39.122  32.426  34.154  1.00  0.00     0.049 A 
ATOM     53  H   UNL A   1      39.930  31.275  32.617  1.00  0.00     0.167 HD
ATOM     54  C   UNL A   1      41.177  28.464  29.513  1.00  0.00     0.034 A 
ATOM     55  C   UNL A   1      39.867  32.202  35.252  1.00  0.00     0.034 A 
ATOM     56  C   UNL A   1      42.036  28.171  30.632  1.00  0.00     0.049 A 
ATOM     57  C   UNL A   1      41.003  31.225  35.194  1.00  0.00     0.074 A 
ATOM     58  C   UNL A   1      43.064  27.246  30.717  1.00  0.00     0.029 A 
ATOM     59  N   UNL A   1      41.974  28.809  31.862  1.00  0.00    -0.354 N 
ATOM     60  N   UNL A   1      41.354  30.430  34.214  1.00  0.00    -0.248 NA
ATOM     61  C   UNL A   1      41.844  31.121  36.395  1.00  0.00     0.031 C 
ATOM     62  C   UNL A   1      43.614  27.315  32.006  1.00  0.00     0.029 A 
ATOM     63  C   UNL A   1      42.944  28.301  32.712  1.00  0.00     0.049 A 
ATOM     64  H   UNL A   1      41.334  29.518  32.097  1.00  0.00     0.167 HD
ATOM     65  C   UNL A   1      42.452  29.719  34.683  1.00  0.00     0.074 A 
ATOM     66  C   UNL A   1      42.713  30.187  36.031  1.00  0.00     0.031 C 
ATOM     67  C   UNL A   1      43.179  28.763  34.054  1.00  0.00     0.034 A 
BRANCH  54  68
ATOM     68  C   UNL A   1      41.306  27.635  28.266  1.00  0.00     0.023 A 
ATOM     69  C   UNL A   1      40.623  26.419  28.112  1.00  0.00     0.031 A 
ATOM     70  C   UNL A   1      42.172  28.050  27.239  1.00  0.00     0.131 A 
ATOM     71  C   UNL A   1      40.859  25.630  26.977  1.00  0.00     0.055 A 
ATOM     72  C   UNL A   1      42.364  27.285  26.088  1.00  0.00     0.041 A 
ATOM     73  F   UNL A   1      42.866  29.194  27.352  1.00  0.00    -0.206 F 
ATOM     74  C   UNL A   1      41.712  26.062  25.957  1.00  0.00     0.022 A 
BRANCH  71  75
ATOM     75  S   UNL A   1      40.118  23.978  26.900  1.00  0.00     0.124 S 
ATOM     76  O   UNL A   1      39.943  23.666  28.316  1.00  0.00    -0.237 OA
ATOM     77  O   UNL A   1      38.897  24.217  26.141  1.00  0.00    -0.237 OA
ATOM     78  O   UNL A   1      41.133  23.179  26.215  1.00  0.00    -0.744 OA
ENDBRANCH  71  75
ENDBRANCH  54  68
BRANCH  55  79
ATOM     79  C   UNL A   1      39.519  32.873  36.526  1.00  0.00     0.023 A 
ATOM     80  C   UNL A   1      38.532  32.355  37.373  1.00  0.00     0.031 A 
ATOM     81  C   UNL A   1      40.189  34.046  36.909  1.00  0.00     0.131 A 
ATOM     82  C   UNL A   1      38.231  33.021  38.569  1.00  0.00     0.055 A 
ATOM     83  C   UNL A   1      39.888  34.703  38.102  1.00  0.00     0.041 A 
ATOM     84  F   UNL A   1      41.153  34.559  36.129  1.00  0.00    -0.206 F 
ATOM     85  C   UNL A   1      38.901  34.191  38.939  1.00  0.00     0.022 A 
BRANCH  82  86
ATOM     86  S   UNL A   1      36.950  32.327  39.644  1.00  0.00     0.124 S 
ATOM     87  O   UNL A   1      37.401  30.949  39.797  1.00  0.00    -0.237 OA
ATOM     88  O   UNL A   1      37.060  33.173  40.828  1.00  0.00    -0.237 OA
ATOM     89  O   UNL A   1      35.722  32.503  38.871  1.00  0.00    -0.744 OA
ENDBRANCH  82  86
ENDBRANCH  55  79
BRANCH  67  90
ATOM     90  C   UNL A   1      44.329  28.182  34.822  1.00  0.00     0.023 A 
ATOM     91  C   UNL A   1      44.176  27.014  35.584  1.00  0.00     0.031 A 
ATOM     92  C   UNL A   1      45.582  28.817  34.804  1.00  0.00     0.131 A 
ATOM     93  C   UNL A   1      45.262  26.522  36.322  1.00  0.00     0.055 A 
ATOM     94  C   UNL A   1      46.662  28.315  35.530  1.00  0.00     0.041 A 
ATOM     95  F   UNL A   1      45.766  29.941  34.093  1.00  0.00    -0.206 F 
ATOM     96  C   UNL A   1      46.504  27.164  36.299  1.00  0.00     0.022 A 
BRANCH  93  97
ATOM     97  S   UNL A   1      45.023  25.044  37.345  1.00  0.00     0.124 S 
ATOM     98  O   UNL A   1      46.100  25.172  38.323  1.00  0.00    -0.237 OA
ATOM     99  O   UNL A   1      43.670  25.235  37.857  1.00  0.00    -0.237 OA
ATOM    100  O   UNL A   1      45.176  23.942  36.397  1.00  0.00    -0.744 OA
ENDBRANCH  93  97
ENDBRANCH  67  90
ENDBRANCH  41  42
ENDBRANCH  33  36
ENDBRANCH  31  32
ENDBRANCH  30  31
ENDBRANCH  29  30
ENDBRANCH   1  29
TORSDOF 19
ENDMDL
