MODEL 1
REMARK VINA RESULT:     -13.0      0.000      0.000
REMARK SMILES Cc1cc(C(=O)NCCCCCCNC(=O)c2ccc(-c3c4nc(c(-c5cc(S(=O)(=O)[O-])ccc5F)c5ccc([nH]5)c(-c5cc(S(=O)(=O)[O-])ccc5F)c5nc(c(-c6cc(S(=O)(=O)[O-])ccc6F)c6ccc3[nH]6)C=C5)C=C4)cc2)ccc1NS(=O)(=O)c1ccc2c(c1)CCC2
REMARK SMILES IDX 10 1 9 2 8 3 7 4 5 5 6 6 4 8 1 9 2 10 3 11 82 12 81 13 80 14
REMARK SMILES IDX 83 15 84 17 85 18 86 19 87 20 88 21 92 22 89 23 91 24 90 25
REMARK SMILES IDX 93 26 95 27 94 28 11 29 12 30 13 31 14 32 15 33 16 35 17 36
REMARK SMILES IDX 18 37 79 38 19 39 78 40 20 41 21 42 22 43 72 44 23 45 77 46
REMARK SMILES IDX 71 47 73 48 24 49 76 50 70 51 69 52 25 54 57 55 37 56 56 57
REMARK SMILES IDX 38 58 41 59 55 60 74 61 39 62 40 63 54 65 75 66 42 67 26 68
REMARK SMILES IDX 27 69 35 70 28 71 34 72 36 73 33 74 29 75 30 76 31 77 32 78
REMARK SMILES IDX 58 79 59 80 67 81 60 82 66 83 68 84 65 85 61 86 62 87 63 88
REMARK SMILES IDX 64 89 43 90 44 91 52 92 45 93 51 94 53 95 50 96 46 97 47 98
REMARK SMILES IDX 48 99 49 100
REMARK H PARENT 7 7 83 16 14 34 73 53 41 64
REMARK Flexibility Score: inf
ROOT
ATOM      1  C   UNL A   1      35.909  23.854  26.111  1.00  0.00     0.002 C 
ENDROOT
BRANCH   1   2
ATOM      2  C   UNL A   1      34.388  23.699  26.213  1.00  0.00     0.021 C 
BRANCH   2   3
ATOM      3  C   UNL A   1      33.846  22.365  26.724  1.00  0.00     0.116 C 
BRANCH   3   4
ATOM      4  N   UNL A   1      32.620  22.454  27.500  1.00  0.00    -0.352 N 
ATOM      5  C   UNL A   1      31.343  22.777  27.092  1.00  0.00     0.251 C 
ATOM      6  O   UNL A   1      30.417  22.800  27.898  1.00  0.00    -0.269 OA
ATOM      7  H   UNL A   1      32.715  22.252  28.458  1.00  0.00     0.163 HD
BRANCH   5   8
ATOM      8  C   UNL A   1      31.082  23.192  25.691  1.00  0.00     0.040 A 
ATOM      9  C   UNL A   1      30.013  26.400  23.975  1.00  0.00     0.046 C 
ATOM     10  C   UNL A   1      30.592  25.025  24.167  1.00  0.00    -0.026 A 
ATOM     11  C   UNL A   1      30.620  24.493  25.466  1.00  0.00     0.019 A 
ATOM     12  C   UNL A   1      31.113  24.256  23.112  1.00  0.00     0.052 A 
ATOM     13  C   UNL A   1      31.290  22.883  23.305  1.00  0.00     0.028 A 
ATOM     14  C   UNL A   1      31.292  22.352  24.599  1.00  0.00     0.016 A 
BRANCH  12  15
ATOM     15  N   UNL A   1      31.629  24.952  21.980  1.00  0.00    -0.279 N 
ATOM     16  H   UNL A   1      30.984  25.124  21.257  1.00  0.00     0.180 HD
BRANCH  15  17
ATOM     17  S   UNL A   1      33.176  25.510  21.712  1.00  0.00     0.261 S 
ATOM     18  O   UNL A   1      34.100  24.458  22.132  1.00  0.00    -0.201 OA
ATOM     19  O   UNL A   1      33.181  26.001  20.366  1.00  0.00    -0.201 OA
BRANCH  17  20
ATOM     20  C   UNL A   1      33.497  26.909  22.773  1.00  0.00     0.088 A 
ATOM     21  C   UNL A   1      33.319  28.240  22.362  1.00  0.00     0.022 A 
ATOM     22  C   UNL A   1      33.769  26.610  24.116  1.00  0.00     0.026 A 
ATOM     23  C   UNL A   1      33.184  29.255  23.317  1.00  0.00     0.005 A 
ATOM     24  C   UNL A   1      33.684  27.633  25.042  1.00  0.00    -0.043 A 
ATOM     25  C   UNL A   1      33.310  28.923  24.654  1.00  0.00    -0.045 A 
ATOM     26  C   UNL A   1      33.925  27.578  26.516  1.00  0.00     0.036 C 
ATOM     27  C   UNL A   1      33.089  29.794  25.853  1.00  0.00     0.036 C 
ATOM     28  C   UNL A   1      33.048  28.746  26.980  1.00  0.00     0.010 C 
ENDBRANCH  17  20
ENDBRANCH  15  17
ENDBRANCH  12  15
ENDBRANCH   5   8
ENDBRANCH   3   4
ENDBRANCH   2   3
ENDBRANCH   1   2
BRANCH   1  29
ATOM     29  C   UNL A   1      36.593  23.363  24.829  1.00  0.00     0.002 C 
BRANCH  29  30
ATOM     30  C   UNL A   1      37.842  22.500  25.007  1.00  0.00     0.021 C 
BRANCH  30  31
ATOM     31  C   UNL A   1      38.533  22.635  26.361  1.00  0.00     0.116 C 
BRANCH  31  32
ATOM     32  N   UNL A   1      39.987  22.743  26.290  1.00  0.00    -0.352 N 
ATOM     33  C   UNL A   1      40.774  23.875  26.421  1.00  0.00     0.251 C 
ATOM     34  H   UNL A   1      40.471  21.902  26.128  1.00  0.00     0.163 HD
ATOM     35  O   UNL A   1      41.994  23.828  26.288  1.00  0.00    -0.269 OA
BRANCH  33  36
ATOM     36  C   UNL A   1      40.134  25.141  26.849  1.00  0.00     0.039 A 
ATOM     37  C   UNL A   1      40.545  26.320  26.218  1.00  0.00     0.014 A 
ATOM     38  C   UNL A   1      39.337  25.194  27.990  1.00  0.00     0.014 A 
ATOM     39  C   UNL A   1      40.360  27.541  26.862  1.00  0.00     0.010 A 
ATOM     40  C   UNL A   1      39.235  26.392  28.675  1.00  0.00     0.010 A 
ATOM     41  C   UNL A   1      39.806  27.554  28.143  1.00  0.00    -0.014 A 
BRANCH  41  42
ATOM     42  C   UNL A   1      39.920  28.695  29.048  1.00  0.00     0.031 A 
ATOM     43  C   UNL A   1      38.877  29.738  29.104  1.00  0.00     0.074 A 
ATOM     44  C   UNL A   1      40.982  28.785  29.877  1.00  0.00     0.049 A 
ATOM     45  N   UNL A   1      39.075  30.941  29.529  1.00  0.00    -0.248 NA
ATOM     46  C   UNL A   1      37.514  29.509  28.641  1.00  0.00     0.031 C 
ATOM     47  C   UNL A   1      41.165  29.705  30.997  1.00  0.00     0.029 A 
ATOM     48  N   UNL A   1      42.243  28.224  29.681  1.00  0.00    -0.354 N 
ATOM     49  C   UNL A   1      37.854  31.559  29.639  1.00  0.00     0.074 A 
ATOM     50  C   UNL A   1      36.916  30.640  29.033  1.00  0.00     0.031 C 
ATOM     51  C   UNL A   1      42.480  29.866  31.211  1.00  0.00     0.029 A 
ATOM     52  C   UNL A   1      43.183  29.160  30.156  1.00  0.00     0.049 A 
ATOM     53  H   UNL A   1      42.439  27.345  29.284  1.00  0.00     0.167 HD
ATOM     54  C   UNL A   1      37.745  32.731  30.326  1.00  0.00     0.034 A 
ATOM     55  C   UNL A   1      44.113  29.697  29.313  1.00  0.00     0.034 A 
ATOM     56  C   UNL A   1      39.039  33.218  30.800  1.00  0.00     0.049 A 
ATOM     57  C   UNL A   1      44.011  31.202  29.154  1.00  0.00     0.074 A 
ATOM     58  C   UNL A   1      39.707  33.176  32.013  1.00  0.00     0.029 A 
ATOM     59  N   UNL A   1      39.965  33.649  29.869  1.00  0.00    -0.354 N 
ATOM     60  N   UNL A   1      43.097  31.945  29.718  1.00  0.00    -0.248 NA
ATOM     61  C   UNL A   1      44.882  31.974  28.267  1.00  0.00     0.031 C 
ATOM     62  C   UNL A   1      41.064  33.551  31.783  1.00  0.00     0.029 A 
ATOM     63  C   UNL A   1      41.209  33.841  30.438  1.00  0.00     0.049 A 
ATOM     64  H   UNL A   1      39.763  33.801  28.918  1.00  0.00     0.167 HD
ATOM     65  C   UNL A   1      43.197  33.226  29.243  1.00  0.00     0.074 A 
ATOM     66  C   UNL A   1      44.334  33.198  28.341  1.00  0.00     0.031 C 
ATOM     67  C   UNL A   1      42.319  34.216  29.578  1.00  0.00     0.034 A 
BRANCH  54  68
ATOM     68  C   UNL A   1      36.430  33.322  30.765  1.00  0.00     0.023 A 
ATOM     69  C   UNL A   1      35.609  33.958  29.812  1.00  0.00     0.031 A 
ATOM     70  C   UNL A   1      35.942  33.319  32.085  1.00  0.00     0.131 A 
ATOM     71  C   UNL A   1      34.436  34.635  30.193  1.00  0.00     0.055 A 
ATOM     72  C   UNL A   1      34.813  34.050  32.477  1.00  0.00     0.041 A 
ATOM     73  F   UNL A   1      36.509  32.568  33.040  1.00  0.00    -0.206 F 
ATOM     74  C   UNL A   1      34.059  34.726  31.529  1.00  0.00     0.022 A 
BRANCH  71  75
ATOM     75  S   UNL A   1      33.399  35.385  28.909  1.00  0.00     0.124 S 
ATOM     76  O   UNL A   1      34.384  36.051  28.063  1.00  0.00    -0.237 OA
ATOM     77  O   UNL A   1      32.735  34.220  28.333  1.00  0.00    -0.237 OA
ATOM     78  O   UNL A   1      32.525  36.283  29.662  1.00  0.00    -0.744 OA
ENDBRANCH  71  75
ENDBRANCH  54  68
BRANCH  55  79
ATOM     79  C   UNL A   1      44.557  28.732  28.261  1.00  0.00     0.023 A 
ATOM     80  C   UNL A   1      45.392  27.671  28.683  1.00  0.00     0.031 A 
ATOM     81  C   UNL A   1      43.894  28.592  27.036  1.00  0.00     0.131 A 
ATOM     82  C   UNL A   1      45.379  26.449  28.000  1.00  0.00     0.055 A 
ATOM     83  C   UNL A   1      43.968  27.403  26.301  1.00  0.00     0.041 A 
ATOM     84  F   UNL A   1      43.060  29.545  26.592  1.00  0.00    -0.206 F 
ATOM     85  C   UNL A   1      44.669  26.306  26.808  1.00  0.00     0.022 A 
BRANCH  82  86
ATOM     86  S   UNL A   1      46.024  24.974  28.851  1.00  0.00     0.124 S 
ATOM     87  O   UNL A   1      45.785  25.299  30.251  1.00  0.00    -0.237 OA
ATOM     88  O   UNL A   1      45.206  23.895  28.298  1.00  0.00    -0.237 OA
ATOM     89  O   UNL A   1      47.426  24.929  28.439  1.00  0.00    -0.744 OA
ENDBRANCH  82  86
ENDBRANCH  55  79
BRANCH  67  90
ATOM     90  C   UNL A   1      42.452  35.624  29.070  1.00  0.00     0.023 A 
ATOM     91  C   UNL A   1      43.307  36.549  29.690  1.00  0.00     0.031 A 
ATOM     92  C   UNL A   1      41.680  36.103  27.990  1.00  0.00     0.131 A 
ATOM     93  C   UNL A   1      43.430  37.856  29.191  1.00  0.00     0.055 A 
ATOM     94  C   UNL A   1      41.740  37.430  27.554  1.00  0.00     0.041 A 
ATOM     95  F   UNL A   1      40.872  35.294  27.289  1.00  0.00    -0.206 F 
ATOM     96  C   UNL A   1      42.631  38.312  28.145  1.00  0.00     0.022 A 
BRANCH  93  97
ATOM     97  S   UNL A   1      44.728  38.919  29.874  1.00  0.00     0.124 S 
ATOM     98  O   UNL A   1      45.790  37.967  30.185  1.00  0.00    -0.237 OA
ATOM     99  O   UNL A   1      44.991  39.818  28.753  1.00  0.00    -0.237 OA
ATOM    100  O   UNL A   1      44.090  39.542  31.031  1.00  0.00    -0.744 OA
ENDBRANCH  93  97
ENDBRANCH  67  90
ENDBRANCH  41  42
ENDBRANCH  33  36
ENDBRANCH  31  32
ENDBRANCH  30  31
ENDBRANCH  29  30
ENDBRANCH   1  29
TORSDOF 19
ENDMDL
MODEL 2
REMARK VINA RESULT:     -12.4      1.767      2.143
REMARK SMILES Cc1cc(C(=O)NCCCCCCNC(=O)c2ccc(-c3c4nc(c(-c5cc(S(=O)(=O)[O-])ccc5F)c5ccc([nH]5)c(-c5cc(S(=O)(=O)[O-])ccc5F)c5nc(c(-c6cc(S(=O)(=O)[O-])ccc6F)c6ccc3[nH]6)C=C5)C=C4)cc2)ccc1NS(=O)(=O)c1ccc2c(c1)CCC2
REMARK SMILES IDX 10 1 9 2 8 3 7 4 5 5 6 6 4 8 1 9 2 10 3 11 82 12 81 13 80 14
REMARK SMILES IDX 83 15 84 17 85 18 86 19 87 20 88 21 92 22 89 23 91 24 90 25
REMARK SMILES IDX 93 26 95 27 94 28 11 29 12 30 13 31 14 32 15 33 16 35 17 36
REMARK SMILES IDX 18 37 79 38 19 39 78 40 20 41 21 42 22 43 72 44 23 45 77 46
REMARK SMILES IDX 71 47 73 48 24 49 76 50 70 51 69 52 25 54 57 55 37 56 56 57
REMARK SMILES IDX 38 58 41 59 55 60 74 61 39 62 40 63 54 65 75 66 42 67 26 68
REMARK SMILES IDX 27 69 35 70 28 71 34 72 36 73 33 74 29 75 30 76 31 77 32 78
REMARK SMILES IDX 58 79 59 80 67 81 60 82 66 83 68 84 65 85 61 86 62 87 63 88
REMARK SMILES IDX 64 89 43 90 44 91 52 92 45 93 51 94 53 95 50 96 46 97 47 98
REMARK SMILES IDX 48 99 49 100
REMARK H PARENT 7 7 83 16 14 34 73 53 41 64
REMARK Flexibility Score: inf
ROOT
ATOM      1  C   UNL A   1      35.338  23.764  25.387  1.00  0.00     0.002 C 
ENDROOT
BRANCH   1   2
ATOM      2  C   UNL A   1      34.563  23.460  26.673  1.00  0.00     0.021 C 
BRANCH   2   3
ATOM      3  C   UNL A   1      33.613  22.262  26.661  1.00  0.00     0.116 C 
BRANCH   3   4
ATOM      4  N   UNL A   1      32.387  22.438  27.422  1.00  0.00    -0.352 N 
ATOM      5  C   UNL A   1      31.143  22.852  26.999  1.00  0.00     0.251 C 
ATOM      6  O   UNL A   1      30.211  22.941  27.794  1.00  0.00    -0.269 OA
ATOM      7  H   UNL A   1      32.456  22.228  28.380  1.00  0.00     0.163 HD
BRANCH   5   8
ATOM      8  C   UNL A   1      30.930  23.287  25.596  1.00  0.00     0.040 A 
ATOM      9  C   UNL A   1      29.989  26.538  23.885  1.00  0.00     0.046 C 
ATOM     10  C   UNL A   1      30.527  25.147  24.078  1.00  0.00    -0.026 A 
ATOM     11  C   UNL A   1      30.507  24.601  25.372  1.00  0.00     0.019 A 
ATOM     12  C   UNL A   1      31.056  24.374  23.030  1.00  0.00     0.052 A 
ATOM     13  C   UNL A   1      31.193  22.995  23.213  1.00  0.00     0.028 A 
ATOM     14  C   UNL A   1      31.147  22.452  24.501  1.00  0.00     0.016 A 
BRANCH  12  15
ATOM     15  N   UNL A   1      31.620  25.067  21.919  1.00  0.00    -0.279 N 
ATOM     16  H   UNL A   1      31.001  25.253  21.176  1.00  0.00     0.180 HD
BRANCH  15  17
ATOM     17  S   UNL A   1      33.182  25.603  21.704  1.00  0.00     0.261 S 
ATOM     18  O   UNL A   1      34.076  24.535  22.148  1.00  0.00    -0.201 OA
ATOM     19  O   UNL A   1      33.239  26.102  20.362  1.00  0.00    -0.201 OA
BRANCH  17  20
ATOM     20  C   UNL A   1      33.490  26.992  22.783  1.00  0.00     0.088 A 
ATOM     21  C   UNL A   1      33.296  28.326  22.391  1.00  0.00     0.022 A 
ATOM     22  C   UNL A   1      33.768  26.677  24.122  1.00  0.00     0.026 A 
ATOM     23  C   UNL A   1      33.151  29.326  23.360  1.00  0.00     0.005 A 
ATOM     24  C   UNL A   1      33.672  27.687  25.061  1.00  0.00    -0.043 A 
ATOM     25  C   UNL A   1      33.283  28.977  24.692  1.00  0.00    -0.045 A 
ATOM     26  C   UNL A   1      33.917  27.614  26.534  1.00  0.00     0.036 C 
ATOM     27  C   UNL A   1      33.055  29.829  25.903  1.00  0.00     0.036 C 
ATOM     28  C   UNL A   1      33.028  28.766  27.016  1.00  0.00     0.010 C 
ENDBRANCH  17  20
ENDBRANCH  15  17
ENDBRANCH  12  15
ENDBRANCH   5   8
ENDBRANCH   3   4
ENDBRANCH   2   3
ENDBRANCH   1   2
BRANCH   1  29
ATOM     29  C   UNL A   1      36.297  22.689  24.860  1.00  0.00     0.002 C 
BRANCH  29  30
ATOM     30  C   UNL A   1      37.791  22.963  25.027  1.00  0.00     0.021 C 
BRANCH  30  31
ATOM     31  C   UNL A   1      38.464  22.201  26.166  1.00  0.00     0.116 C 
BRANCH  31  32
ATOM     32  N   UNL A   1      39.918  22.315  26.193  1.00  0.00    -0.352 N 
ATOM     33  C   UNL A   1      40.690  23.432  26.466  1.00  0.00     0.251 C 
ATOM     34  H   UNL A   1      40.416  21.490  25.991  1.00  0.00     0.163 HD
ATOM     35  O   UNL A   1      41.916  23.397  26.403  1.00  0.00    -0.269 OA
BRANCH  33  36
ATOM     36  C   UNL A   1      40.019  24.658  26.958  1.00  0.00     0.039 A 
ATOM     37  C   UNL A   1      40.436  25.883  26.425  1.00  0.00     0.014 A 
ATOM     38  C   UNL A   1      39.182  24.622  28.070  1.00  0.00     0.014 A 
ATOM     39  C   UNL A   1      40.213  27.054  27.145  1.00  0.00     0.010 A 
ATOM     40  C   UNL A   1      39.041  25.768  28.833  1.00  0.00     0.010 A 
ATOM     41  C   UNL A   1      39.614  26.971  28.404  1.00  0.00    -0.014 A 
BRANCH  41  42
ATOM     42  C   UNL A   1      39.682  28.046  29.389  1.00  0.00     0.031 A 
ATOM     43  C   UNL A   1      38.777  29.211  29.318  1.00  0.00     0.074 A 
ATOM     44  C   UNL A   1      40.564  27.962  30.409  1.00  0.00     0.049 A 
ATOM     45  N   UNL A   1      39.029  30.360  29.854  1.00  0.00    -0.248 NA
ATOM     46  C   UNL A   1      37.515  29.180  28.591  1.00  0.00     0.031 C 
ATOM     47  C   UNL A   1      40.629  28.801  31.603  1.00  0.00     0.029 A 
ATOM     48  N   UNL A   1      41.764  27.254  30.417  1.00  0.00    -0.354 N 
ATOM     49  C   UNL A   1      37.891  31.123  29.772  1.00  0.00     0.074 A 
ATOM     50  C   UNL A   1      36.988  30.360  28.939  1.00  0.00     0.031 C 
ATOM     51  C   UNL A   1      41.886  28.783  32.073  1.00  0.00     0.029 A 
ATOM     52  C   UNL A   1      42.695  28.040  31.124  1.00  0.00     0.049 A 
ATOM     53  H   UNL A   1      41.929  26.376  30.006  1.00  0.00     0.167 HD
ATOM     54  C   UNL A   1      37.788  32.269  30.504  1.00  0.00     0.034 A 
ATOM     55  C   UNL A   1      43.830  28.489  30.511  1.00  0.00     0.034 A 
ATOM     56  C   UNL A   1      39.011  32.564  31.247  1.00  0.00     0.049 A 
ATOM     57  C   UNL A   1      43.938  30.000  30.438  1.00  0.00     0.074 A 
ATOM     58  C   UNL A   1      39.419  32.384  32.558  1.00  0.00     0.029 A 
ATOM     59  N   UNL A   1      40.147  32.913  30.539  1.00  0.00    -0.354 N 
ATOM     60  N   UNL A   1      43.024  30.829  30.868  1.00  0.00    -0.248 NA
ATOM     61  C   UNL A   1      45.051  30.693  29.787  1.00  0.00     0.031 C 
ATOM     62  C   UNL A   1      40.829  32.591  32.616  1.00  0.00     0.029 A 
ATOM     63  C   UNL A   1      41.268  32.919  31.345  1.00  0.00     0.049 A 
ATOM     64  H   UNL A   1      40.154  33.131  29.579  1.00  0.00     0.167 HD
ATOM     65  C   UNL A   1      43.366  32.106  30.510  1.00  0.00     0.074 A 
ATOM     66  C   UNL A   1      44.646  31.972  29.839  1.00  0.00     0.031 C 
ATOM     67  C   UNL A   1      42.561  33.185  30.739  1.00  0.00     0.034 A 
BRANCH  54  68
ATOM     68  C   UNL A   1      36.491  33.004  30.725  1.00  0.00     0.023 A 
ATOM     69  C   UNL A   1      35.856  33.624  29.631  1.00  0.00     0.031 A 
ATOM     70  C   UNL A   1      35.847  33.154  31.968  1.00  0.00     0.131 A 
ATOM     71  C   UNL A   1      34.715  34.428  29.806  1.00  0.00     0.055 A 
ATOM     72  C   UNL A   1      34.753  34.008  32.156  1.00  0.00     0.041 A 
ATOM     73  F   UNL A   1      36.220  32.441  33.041  1.00  0.00    -0.206 F 
ATOM     74  C   UNL A   1      34.188  34.663  31.073  1.00  0.00     0.022 A 
BRANCH  71  75
ATOM     75  S   UNL A   1      33.917  35.151  28.348  1.00  0.00     0.124 S 
ATOM     76  O   UNL A   1      32.510  34.838  28.574  1.00  0.00    -0.237 OA
ATOM     77  O   UNL A   1      34.293  36.557  28.460  1.00  0.00    -0.237 OA
ATOM     78  O   UNL A   1      34.537  34.436  27.233  1.00  0.00    -0.744 OA
ENDBRANCH  71  75
ENDBRANCH  54  68
BRANCH  55  79
ATOM     79  C   UNL A   1      44.355  27.522  29.500  1.00  0.00     0.023 A 
ATOM     80  C   UNL A   1      43.768  27.564  28.214  1.00  0.00     0.031 A 
ATOM     81  C   UNL A   1      45.603  26.900  29.627  1.00  0.00     0.131 A 
ATOM     82  C   UNL A   1      44.510  27.189  27.087  1.00  0.00     0.055 A 
ATOM     83  C   UNL A   1      46.298  26.430  28.506  1.00  0.00     0.041 A 
ATOM     84  F   UNL A   1      46.232  26.855  30.811  1.00  0.00    -0.206 F 
ATOM     85  C   UNL A   1      45.777  26.621  27.225  1.00  0.00     0.022 A 
BRANCH  82  86
ATOM     86  S   UNL A   1      43.943  27.748  25.450  1.00  0.00     0.124 S 
ATOM     87  O   UNL A   1      43.072  28.866  25.794  1.00  0.00    -0.237 OA
ATOM     88  O   UNL A   1      45.192  28.098  24.775  1.00  0.00    -0.237 OA
ATOM     89  O   UNL A   1      43.277  26.570  24.899  1.00  0.00    -0.744 OA
ENDBRANCH  82  86
ENDBRANCH  55  79
BRANCH  67  90
ATOM     90  C   UNL A   1      42.956  34.585  30.361  1.00  0.00     0.023 A 
ATOM     91  C   UNL A   1      42.930  35.020  29.027  1.00  0.00     0.031 A 
ATOM     92  C   UNL A   1      43.436  35.507  31.316  1.00  0.00     0.131 A 
ATOM     93  C   UNL A   1      43.288  36.336  28.695  1.00  0.00     0.055 A 
ATOM     94  C   UNL A   1      43.876  36.787  30.969  1.00  0.00     0.041 A 
ATOM     95  F   UNL A   1      43.452  35.219  32.626  1.00  0.00    -0.206 F 
ATOM     96  C   UNL A   1      43.789  37.216  29.653  1.00  0.00     0.022 A 
BRANCH  93  97
ATOM     97  S   UNL A   1      42.992  36.909  27.003  1.00  0.00     0.124 S 
ATOM     98  O   UNL A   1      41.786  37.717  27.144  1.00  0.00    -0.237 OA
ATOM     99  O   UNL A   1      44.221  37.647  26.724  1.00  0.00    -0.237 OA
ATOM    100  O   UNL A   1      42.828  35.671  26.244  1.00  0.00    -0.744 OA
ENDBRANCH  93  97
ENDBRANCH  67  90
ENDBRANCH  41  42
ENDBRANCH  33  36
ENDBRANCH  31  32
ENDBRANCH  30  31
ENDBRANCH  29  30
ENDBRANCH   1  29
TORSDOF 19
ENDMDL
MODEL 3
REMARK VINA RESULT:     -12.1      2.559      3.676
REMARK SMILES Cc1cc(C(=O)NCCCCCCNC(=O)c2ccc(-c3c4nc(c(-c5cc(S(=O)(=O)[O-])ccc5F)c5ccc([nH]5)c(-c5cc(S(=O)(=O)[O-])ccc5F)c5nc(c(-c6cc(S(=O)(=O)[O-])ccc6F)c6ccc3[nH]6)C=C5)C=C4)cc2)ccc1NS(=O)(=O)c1ccc2c(c1)CCC2
REMARK SMILES IDX 10 1 9 2 8 3 7 4 5 5 6 6 4 8 1 9 2 10 3 11 82 12 81 13 80 14
REMARK SMILES IDX 83 15 84 17 85 18 86 19 87 20 88 21 92 22 89 23 91 24 90 25
REMARK SMILES IDX 93 26 95 27 94 28 11 29 12 30 13 31 14 32 15 33 16 35 17 36
REMARK SMILES IDX 18 37 79 38 19 39 78 40 20 41 21 42 22 43 72 44 23 45 77 46
REMARK SMILES IDX 71 47 73 48 24 49 76 50 70 51 69 52 25 54 57 55 37 56 56 57
REMARK SMILES IDX 38 58 41 59 55 60 74 61 39 62 40 63 54 65 75 66 42 67 26 68
REMARK SMILES IDX 27 69 35 70 28 71 34 72 36 73 33 74 29 75 30 76 31 77 32 78
REMARK SMILES IDX 58 79 59 80 67 81 60 82 66 83 68 84 65 85 61 86 62 87 63 88
REMARK SMILES IDX 64 89 43 90 44 91 52 92 45 93 51 94 53 95 50 96 46 97 47 98
REMARK SMILES IDX 48 99 49 100
REMARK H PARENT 7 7 83 16 14 34 73 53 41 64
REMARK Flexibility Score: inf
ROOT
ATOM      1  C   UNL A   1      36.793  21.951  24.159  1.00  0.00     0.002 C 
ENDROOT
BRANCH   1   2
ATOM      2  C   UNL A   1      35.312  21.857  24.539  1.00  0.00     0.021 C 
BRANCH   2   3
ATOM      3  C   UNL A   1      34.973  21.392  25.955  1.00  0.00     0.116 C 
BRANCH   3   4
ATOM      4  N   UNL A   1      34.142  20.202  26.033  1.00  0.00    -0.352 N 
ATOM      5  C   UNL A   1      32.962  19.911  25.383  1.00  0.00     0.251 C 
ATOM      6  O   UNL A   1      32.393  18.840  25.572  1.00  0.00    -0.269 OA
ATOM      7  H   UNL A   1      34.472  19.499  26.637  1.00  0.00     0.163 HD
BRANCH   5   8
ATOM      8  C   UNL A   1      32.310  20.924  24.514  1.00  0.00     0.040 A 
ATOM      9  C   UNL A   1      30.699  24.314  25.051  1.00  0.00     0.046 C 
ATOM     10  C   UNL A   1      31.356  23.156  24.351  1.00  0.00    -0.026 A 
ATOM     11  C   UNL A   1      31.759  22.055  25.123  1.00  0.00     0.019 A 
ATOM     12  C   UNL A   1      31.592  23.129  22.965  1.00  0.00     0.052 A 
ATOM     13  C   UNL A   1      31.863  21.903  22.353  1.00  0.00     0.028 A 
ATOM     14  C   UNL A   1      32.240  20.801  23.128  1.00  0.00     0.016 A 
BRANCH  12  15
ATOM     15  N   UNL A   1      31.752  24.379  22.299  1.00  0.00    -0.279 N 
ATOM     16  H   UNL A   1      30.944  24.735  21.863  1.00  0.00     0.180 HD
BRANCH  15  17
ATOM     17  S   UNL A   1      33.119  25.320  22.154  1.00  0.00     0.261 S 
ATOM     18  O   UNL A   1      34.223  24.585  22.769  1.00  0.00    -0.201 OA
ATOM     19  O   UNL A   1      33.173  25.713  20.777  1.00  0.00    -0.201 OA
BRANCH  17  20
ATOM     20  C   UNL A   1      32.920  26.814  23.109  1.00  0.00     0.088 A 
ATOM     21  C   UNL A   1      31.921  27.766  22.846  1.00  0.00     0.022 A 
ATOM     22  C   UNL A   1      33.707  26.910  24.266  1.00  0.00     0.026 A 
ATOM     23  C   UNL A   1      31.548  28.680  23.838  1.00  0.00     0.005 A 
ATOM     24  C   UNL A   1      33.358  27.855  25.214  1.00  0.00    -0.043 A 
ATOM     25  C   UNL A   1      32.238  28.670  25.037  1.00  0.00    -0.045 A 
ATOM     26  C   UNL A   1      34.027  28.157  26.517  1.00  0.00     0.036 C 
ATOM     27  C   UNL A   1      31.952  29.456  26.280  1.00  0.00     0.036 C 
ATOM     28  C   UNL A   1      32.844  28.731  27.305  1.00  0.00     0.010 C 
ENDBRANCH  17  20
ENDBRANCH  15  17
ENDBRANCH  12  15
ENDBRANCH   5   8
ENDBRANCH   3   4
ENDBRANCH   2   3
ENDBRANCH   1   2
BRANCH   1  29
ATOM     29  C   UNL A   1      37.829  21.521  25.206  1.00  0.00     0.002 C 
BRANCH  29  30
ATOM     30  C   UNL A   1      38.572  22.641  25.934  1.00  0.00     0.021 C 
BRANCH  30  31
ATOM     31  C   UNL A   1      39.747  22.183  26.794  1.00  0.00     0.116 C 
BRANCH  31  32
ATOM     32  N   UNL A   1      40.644  21.237  26.139  1.00  0.00    -0.352 N 
ATOM     33  C   UNL A   1      42.026  21.279  26.052  1.00  0.00     0.251 C 
ATOM     34  H   UNL A   1      40.211  20.469  25.701  1.00  0.00     0.163 HD
ATOM     35  O   UNL A   1      42.656  20.435  25.421  1.00  0.00    -0.269 OA
BRANCH  33  36
ATOM     36  C   UNL A   1      42.758  22.299  26.839  1.00  0.00     0.039 A 
ATOM     37  C   UNL A   1      42.763  22.161  28.232  1.00  0.00     0.014 A 
ATOM     38  C   UNL A   1      43.216  23.472  26.246  1.00  0.00     0.014 A 
ATOM     39  C   UNL A   1      42.999  23.279  29.029  1.00  0.00     0.010 A 
ATOM     40  C   UNL A   1      43.357  24.603  27.031  1.00  0.00     0.010 A 
ATOM     41  C   UNL A   1      43.183  24.520  28.417  1.00  0.00    -0.014 A 
BRANCH  41  42
ATOM     42  C   UNL A   1      43.051  25.786  29.133  1.00  0.00     0.031 A 
ATOM     43  C   UNL A   1      41.827  26.605  29.025  1.00  0.00     0.074 A 
ATOM     44  C   UNL A   1      44.051  26.205  29.939  1.00  0.00     0.049 A 
ATOM     45  N   UNL A   1      41.780  27.875  29.256  1.00  0.00    -0.248 NA
ATOM     46  C   UNL A   1      40.547  26.050  28.602  1.00  0.00     0.031 C 
ATOM     47  C   UNL A   1      44.020  27.304  30.900  1.00  0.00     0.029 A 
ATOM     48  N   UNL A   1      45.400  25.875  29.833  1.00  0.00    -0.354 N 
ATOM     49  C   UNL A   1      40.460  28.255  29.267  1.00  0.00     0.074 A 
ATOM     50  C   UNL A   1      39.733  27.090  28.812  1.00  0.00     0.031 C 
ATOM     51  C   UNL A   1      45.273  27.747  31.087  1.00  0.00     0.029 A 
ATOM     52  C   UNL A   1      46.130  27.036  30.156  1.00  0.00     0.049 A 
ATOM     53  H   UNL A   1      45.771  25.000  29.579  1.00  0.00     0.167 HD
ATOM     54  C   UNL A   1      40.110  29.476  29.762  1.00  0.00     0.034 A 
ATOM     55  C   UNL A   1      46.967  27.606  29.239  1.00  0.00     0.034 A 
ATOM     56  C   UNL A   1      41.272  30.269  30.155  1.00  0.00     0.049 A 
ATOM     57  C   UNL A   1      46.585  29.020  28.847  1.00  0.00     0.074 A 
ATOM     58  C   UNL A   1      41.899  30.544  31.359  1.00  0.00     0.029 A 
ATOM     59  N   UNL A   1      42.128  30.723  29.168  1.00  0.00    -0.354 N 
ATOM     60  N   UNL A   1      45.529  29.651  29.287  1.00  0.00    -0.248 NA
ATOM     61  C   UNL A   1      47.320  29.801  27.850  1.00  0.00     0.031 C 
ATOM     62  C   UNL A   1      43.166  31.134  31.074  1.00  0.00     0.029 A 
ATOM     63  C   UNL A   1      43.294  31.236  29.701  1.00  0.00     0.049 A 
ATOM     64  H   UNL A   1      41.930  30.685  28.204  1.00  0.00     0.167 HD
ATOM     65  C   UNL A   1      45.399  30.839  28.618  1.00  0.00     0.074 A 
ATOM     66  C   UNL A   1      46.547  30.893  27.732  1.00  0.00     0.031 C 
ATOM     67  C   UNL A   1      44.338  31.681  28.793  1.00  0.00     0.034 A 
BRANCH  54  68
ATOM     68  C   UNL A   1      38.693  29.863  30.102  1.00  0.00     0.023 A 
ATOM     69  C   UNL A   1      38.099  30.954  29.438  1.00  0.00     0.031 A 
ATOM     70  C   UNL A   1      37.892  29.230  31.071  1.00  0.00     0.131 A 
ATOM     71  C   UNL A   1      36.830  31.434  29.808  1.00  0.00     0.055 A 
ATOM     72  C   UNL A   1      36.659  29.746  31.489  1.00  0.00     0.041 A 
ATOM     73  F   UNL A   1      38.247  28.058  31.617  1.00  0.00    -0.206 F 
ATOM     74  C   UNL A   1      36.126  30.865  30.866  1.00  0.00     0.022 A 
BRANCH  71  75
ATOM     75  S   UNL A   1      36.103  32.807  28.875  1.00  0.00     0.124 S 
ATOM     76  O   UNL A   1      35.373  32.114  27.819  1.00  0.00    -0.237 OA
ATOM     77  O   UNL A   1      35.292  33.472  29.891  1.00  0.00    -0.237 OA
ATOM     78  O   UNL A   1      37.269  33.565  28.425  1.00  0.00    -0.744 OA
ENDBRANCH  71  75
ENDBRANCH  54  68
BRANCH  55  79
ATOM     79  C   UNL A   1      47.618  26.595  28.353  1.00  0.00     0.023 A 
ATOM     80  C   UNL A   1      47.238  26.603  26.991  1.00  0.00     0.031 A 
ATOM     81  C   UNL A   1      48.817  25.954  28.691  1.00  0.00     0.131 A 
ATOM     82  C   UNL A   1      48.136  26.175  26.005  1.00  0.00     0.055 A 
ATOM     83  C   UNL A   1      49.665  25.432  27.707  1.00  0.00     0.041 A 
ATOM     84  F   UNL A   1      49.255  25.939  29.959  1.00  0.00    -0.206 F 
ATOM     85  C   UNL A   1      49.352  25.588  26.355  1.00  0.00     0.022 A 
BRANCH  82  86
ATOM     86  S   UNL A   1      47.841  26.688  24.283  1.00  0.00     0.124 S 
ATOM     87  O   UNL A   1      48.101  25.456  23.548  1.00  0.00    -0.237 OA
ATOM     88  O   UNL A   1      46.448  27.133  24.310  1.00  0.00    -0.237 OA
ATOM     89  O   UNL A   1      48.807  27.766  24.078  1.00  0.00    -0.744 OA
ENDBRANCH  82  86
ENDBRANCH  55  79
BRANCH  67  90
ATOM     90  C   UNL A   1      44.217  32.993  28.071  1.00  0.00     0.023 A 
ATOM     91  C   UNL A   1      44.299  34.216  28.755  1.00  0.00     0.031 A 
ATOM     92  C   UNL A   1      43.950  33.060  26.687  1.00  0.00     0.131 A 
ATOM     93  C   UNL A   1      44.199  35.433  28.060  1.00  0.00     0.055 A 
ATOM     94  C   UNL A   1      43.762  34.271  26.015  1.00  0.00     0.041 A 
ATOM     95  F   UNL A   1      43.907  31.957  25.924  1.00  0.00    -0.206 F 
ATOM     96  C   UNL A   1      43.902  35.470  26.699  1.00  0.00     0.022 A 
BRANCH  93  97
ATOM     97  S   UNL A   1      44.563  36.966  28.953  1.00  0.00     0.124 S 
ATOM     98  O   UNL A   1      43.510  37.005  29.963  1.00  0.00    -0.237 OA
ATOM     99  O   UNL A   1      45.910  36.703  29.451  1.00  0.00    -0.237 OA
ATOM    100  O   UNL A   1      44.474  37.996  27.920  1.00  0.00    -0.744 OA
ENDBRANCH  93  97
ENDBRANCH  67  90
ENDBRANCH  41  42
ENDBRANCH  33  36
ENDBRANCH  31  32
ENDBRANCH  30  31
ENDBRANCH  29  30
ENDBRANCH   1  29
TORSDOF 19
ENDMDL
