MODEL 1
REMARK VINA RESULT:     -11.6      0.000      0.000
REMARK SMILES CCOc1cc(/C=C(/F)C(=O)NCCCCCCNC(=O)c2ccc(-c3c4nc(c(-c5cc(S(=O)(=O)[O-])ccc5F)c5ccc([nH]5)c(-c5cc(S(=O)(=O)[O-])ccc5F)c5nc(c(-c6cc(S(=O)(=O)[O-])ccc6F)c6ccc3[nH]6)C=C5)C=C4)cc2)ccc1O
REMARK SMILES IDX 15 1 14 2 13 3 12 4 10 5 11 6 8 8 7 9 9 10 6 11 4 12 5 13
REMARK SMILES IDX 87 14 86 15 85 16 3 17 2 18 1 19 88 20 16 22 17 23 18 24
REMARK SMILES IDX 19 25 20 26 21 28 22 29 23 30 84 31 24 32 83 33 25 34 26 35
REMARK SMILES IDX 27 36 77 37 28 38 82 39 76 40 78 41 29 42 81 43 75 44 74 45
REMARK SMILES IDX 30 47 62 48 42 49 61 50 43 51 46 52 60 53 79 54 44 55 45 56
REMARK SMILES IDX 59 58 80 59 47 60 31 61 32 62 40 63 33 64 39 65 41 66 38 67
REMARK SMILES IDX 34 68 35 69 36 70 37 71 63 72 64 73 72 74 65 75 71 76 73 77
REMARK SMILES IDX 70 78 66 79 67 80 68 81 69 82 48 83 49 84 57 85 50 86 56 87
REMARK SMILES IDX 58 88 55 89 51 90 52 91 53 92 54 93
REMARK H PARENT 12 7 88 21 19 27 78 46 46 57
REMARK Flexibility Score: inf
ROOT
ATOM      1  C   UNL A   1      32.196  27.662  25.656  1.00  0.00     0.002 C 
ENDROOT
BRANCH   1   2
ATOM      2  C   UNL A   1      33.595  27.047  25.541  1.00  0.00     0.021 C 
BRANCH   2   3
ATOM      3  C   UNL A   1      33.678  25.523  25.646  1.00  0.00     0.116 C 
BRANCH   3   4
ATOM      4  N   UNL A   1      32.645  24.949  26.490  1.00  0.00    -0.350 N 
ATOM      5  C   UNL A   1      31.595  24.120  26.230  1.00  0.00     0.280 C 
ATOM      6  O   UNL A   1      30.942  23.716  27.191  1.00  0.00    -0.267 OA
ATOM      7  H   UNL A   1      32.716  25.211  27.437  1.00  0.00     0.163 HD
BRANCH   5   8
ATOM      8  C   UNL A   1      31.264  23.723  24.831  1.00  0.00     0.188 C 
ATOM      9  C   UNL A   1      31.795  22.720  24.113  1.00  0.00     0.053 C 
ATOM     10  F   UNL A   1      30.377  24.517  24.193  1.00  0.00    -0.201 F 
BRANCH   9  11
ATOM     11  C   UNL A   1      32.785  21.685  24.455  1.00  0.00    -0.019 A 
ATOM     12  C   UNL A   1      33.486  19.376  24.788  1.00  0.00     0.161 A 
ATOM     13  C   UNL A   1      32.481  20.319  24.553  1.00  0.00     0.058 A 
ATOM     14  C   UNL A   1      34.816  19.790  24.858  1.00  0.00     0.157 A 
ATOM     15  C   UNL A   1      35.141  21.137  24.776  1.00  0.00     0.051 A 
ATOM     16  C   UNL A   1      34.129  22.078  24.567  1.00  0.00     0.012 A 
BRANCH  12  17
ATOM     17  O   UNL A   1      33.120  18.058  24.749  1.00  0.00    -0.490 OA
BRANCH  17  18
ATOM     18  C   UNL A   1      33.500  17.355  23.562  1.00  0.00     0.226 C 
ATOM     19  C   UNL A   1      32.529  17.807  22.483  1.00  0.00     0.049 C 
ENDBRANCH  17  18
ENDBRANCH  12  17
BRANCH  14  20
ATOM     20  O   UNL A   1      35.851  18.900  24.908  1.00  0.00    -0.504 OA
ATOM     21  H   UNL A   1      36.679  19.164  25.258  1.00  0.00     0.293 HD
ENDBRANCH  14  20
ENDBRANCH   9  11
ENDBRANCH   5   8
ENDBRANCH   3   4
ENDBRANCH   2   3
ENDBRANCH   1   2
BRANCH   1  22
ATOM     22  C   UNL A   1      31.769  28.145  27.046  1.00  0.00     0.002 C 
BRANCH  22  23
ATOM     23  C   UNL A   1      31.472  29.639  27.178  1.00  0.00     0.021 C 
BRANCH  23  24
ATOM     24  C   UNL A   1      32.332  30.559  26.320  1.00  0.00     0.116 C 
BRANCH  24  25
ATOM     25  N   UNL A   1      32.184  31.962  26.676  1.00  0.00    -0.352 N 
ATOM     26  C   UNL A   1      32.997  32.754  27.457  1.00  0.00     0.251 C 
ATOM     27  H   UNL A   1      31.389  32.408  26.307  1.00  0.00     0.163 HD
ATOM     28  O   UNL A   1      32.631  33.879  27.774  1.00  0.00    -0.269 OA
BRANCH  26  29
ATOM     29  C   UNL A   1      34.294  32.226  27.939  1.00  0.00     0.039 A 
ATOM     30  C   UNL A   1      35.381  33.099  28.050  1.00  0.00     0.014 A 
ATOM     31  C   UNL A   1      34.431  30.885  28.306  1.00  0.00     0.014 A 
ATOM     32  C   UNL A   1      36.574  32.648  28.620  1.00  0.00     0.010 A 
ATOM     33  C   UNL A   1      35.599  30.456  28.933  1.00  0.00     0.010 A 
ATOM     34  C   UNL A   1      36.675  31.337  29.113  1.00  0.00    -0.014 A 
BRANCH  34  35
ATOM     35  C   UNL A   1      37.878  30.878  29.857  1.00  0.00     0.031 A 
ATOM     36  C   UNL A   1      38.839  29.913  29.224  1.00  0.00     0.074 A 
ATOM     37  C   UNL A   1      38.053  31.265  31.136  1.00  0.00     0.049 A 
ATOM     38  N   UNL A   1      39.874  29.310  29.749  1.00  0.00    -0.248 NA
ATOM     39  C   UNL A   1      38.583  29.561  27.820  1.00  0.00     0.031 C 
ATOM     40  C   UNL A   1      37.175  32.178  31.871  1.00  0.00     0.029 A 
ATOM     41  N   UNL A   1      39.018  30.927  32.053  1.00  0.00    -0.354 N 
ATOM     42  C   UNL A   1      40.393  28.500  28.744  1.00  0.00     0.074 A 
ATOM     43  C   UNL A   1      39.517  28.648  27.599  1.00  0.00     0.031 C 
ATOM     44  C   UNL A   1      37.650  32.342  33.115  1.00  0.00     0.029 A 
ATOM     45  C   UNL A   1      38.833  31.504  33.288  1.00  0.00     0.049 A 
ATOM     46  H   UNL A   1      39.772  30.329  31.845  1.00  0.00     0.167 HD
ATOM     47  C   UNL A   1      41.506  27.726  28.768  1.00  0.00     0.034 A 
ATOM     48  C   UNL A   1      39.521  31.357  34.438  1.00  0.00     0.034 A 
ATOM     49  C   UNL A   1      42.365  27.589  29.920  1.00  0.00     0.049 A 
ATOM     50  C   UNL A   1      40.706  30.426  34.466  1.00  0.00     0.074 A 
ATOM     51  C   UNL A   1      43.551  26.885  30.034  1.00  0.00     0.029 A 
ATOM     52  N   UNL A   1      42.120  28.152  31.166  1.00  0.00    -0.354 N 
ATOM     53  N   UNL A   1      41.213  29.707  33.492  1.00  0.00    -0.248 NA
ATOM     54  C   UNL A   1      41.405  30.284  35.749  1.00  0.00     0.031 C 
ATOM     55  C   UNL A   1      43.981  26.959  31.363  1.00  0.00     0.029 A 
ATOM     56  C   UNL A   1      43.104  27.770  32.066  1.00  0.00     0.049 A 
ATOM     57  H   UNL A   1      41.358  28.738  31.380  1.00  0.00     0.167 HD
ATOM     58  C   UNL A   1      42.302  29.039  34.043  1.00  0.00     0.074 A 
ATOM     59  C   UNL A   1      42.387  29.454  35.429  1.00  0.00     0.031 C 
ATOM     60  C   UNL A   1      43.158  28.165  33.454  1.00  0.00     0.034 A 
BRANCH  47  61
ATOM     61  C   UNL A   1      41.831  26.944  27.515  1.00  0.00     0.023 A 
ATOM     62  C   UNL A   1      41.587  25.562  27.426  1.00  0.00     0.031 A 
ATOM     63  C   UNL A   1      42.429  27.577  26.412  1.00  0.00     0.131 A 
ATOM     64  C   UNL A   1      42.022  24.845  26.302  1.00  0.00     0.055 A 
ATOM     65  C   UNL A   1      42.780  26.872  25.258  1.00  0.00     0.041 A 
ATOM     66  F   UNL A   1      42.703  28.891  26.443  1.00  0.00    -0.206 F 
ATOM     67  C   UNL A   1      42.594  25.494  25.206  1.00  0.00     0.022 A 
BRANCH  64  68
ATOM     68  S   UNL A   1      41.978  23.033  26.365  1.00  0.00     0.124 S 
ATOM     69  O   UNL A   1      42.549  22.678  25.068  1.00  0.00    -0.237 OA
ATOM     70  O   UNL A   1      42.805  22.737  27.529  1.00  0.00    -0.237 OA
ATOM     71  O   UNL A   1      40.556  22.729  26.515  1.00  0.00    -0.744 OA
ENDBRANCH  64  68
ENDBRANCH  47  61
BRANCH  48  72
ATOM     72  C   UNL A   1      39.092  32.081  35.667  1.00  0.00     0.023 A 
ATOM     73  C   UNL A   1      38.377  31.422  36.679  1.00  0.00     0.031 A 
ATOM     74  C   UNL A   1      39.368  33.450  35.838  1.00  0.00     0.131 A 
ATOM     75  C   UNL A   1      37.934  32.138  37.802  1.00  0.00     0.055 A 
ATOM     76  C   UNL A   1      38.967  34.146  36.979  1.00  0.00     0.041 A 
ATOM     77  F   UNL A   1      40.052  34.126  34.902  1.00  0.00    -0.206 F 
ATOM     78  C   UNL A   1      38.236  33.491  37.965  1.00  0.00     0.022 A 
BRANCH  75  79
ATOM     79  S   UNL A   1      36.899  31.285  39.023  1.00  0.00     0.124 S 
ATOM     80  O   UNL A   1      36.751  29.967  38.417  1.00  0.00    -0.237 OA
ATOM     81  O   UNL A   1      37.727  31.351  40.223  1.00  0.00    -0.237 OA
ATOM     82  O   UNL A   1      35.683  32.094  39.063  1.00  0.00    -0.744 OA
ENDBRANCH  75  79
ENDBRANCH  48  72
BRANCH  60  83
ATOM     83  C   UNL A   1      44.267  27.611  34.314  1.00  0.00     0.023 A 
ATOM     84  C   UNL A   1      44.144  26.370  34.962  1.00  0.00     0.031 A 
ATOM     85  C   UNL A   1      45.459  28.335  34.489  1.00  0.00     0.131 A 
ATOM     86  C   UNL A   1      45.180  25.908  35.789  1.00  0.00     0.055 A 
ATOM     87  C   UNL A   1      46.508  27.846  35.268  1.00  0.00     0.041 A 
ATOM     88  F   UNL A   1      45.628  29.527  33.896  1.00  0.00    -0.206 F 
ATOM     89  C   UNL A   1      46.368  26.630  35.932  1.00  0.00     0.022 A 
BRANCH  86  90
ATOM     90  S   UNL A   1      44.928  24.379  36.732  1.00  0.00     0.124 S 
ATOM     91  O   UNL A   1      44.053  23.618  35.846  1.00  0.00    -0.237 OA
ATOM     92  O   UNL A   1      46.288  23.870  36.874  1.00  0.00    -0.237 OA
ATOM     93  O   UNL A   1      44.307  24.839  37.972  1.00  0.00    -0.744 OA
ENDBRANCH  86  90
ENDBRANCH  60  83
ENDBRANCH  34  35
ENDBRANCH  26  29
ENDBRANCH  24  25
ENDBRANCH  23  24
ENDBRANCH  22  23
ENDBRANCH   1  22
TORSDOF 20
ENDMDL
MODEL 2
REMARK VINA RESULT:     -11.5      5.319     10.636
REMARK SMILES CCOc1cc(/C=C(/F)C(=O)NCCCCCCNC(=O)c2ccc(-c3c4nc(c(-c5cc(S(=O)(=O)[O-])ccc5F)c5ccc([nH]5)c(-c5cc(S(=O)(=O)[O-])ccc5F)c5nc(c(-c6cc(S(=O)(=O)[O-])ccc6F)c6ccc3[nH]6)C=C5)C=C4)cc2)ccc1O
REMARK SMILES IDX 15 1 14 2 13 3 12 4 10 5 11 6 8 8 7 9 9 10 6 11 4 12 5 13
REMARK SMILES IDX 87 14 86 15 85 16 3 17 2 18 1 19 88 20 16 22 17 23 18 24
REMARK SMILES IDX 19 25 20 26 21 28 22 29 23 30 84 31 24 32 83 33 25 34 26 35
REMARK SMILES IDX 27 36 77 37 28 38 82 39 76 40 78 41 29 42 81 43 75 44 74 45
REMARK SMILES IDX 30 47 62 48 42 49 61 50 43 51 46 52 60 53 79 54 44 55 45 56
REMARK SMILES IDX 59 58 80 59 47 60 31 61 32 62 40 63 33 64 39 65 41 66 38 67
REMARK SMILES IDX 34 68 35 69 36 70 37 71 63 72 64 73 72 74 65 75 71 76 73 77
REMARK SMILES IDX 70 78 66 79 67 80 68 81 69 82 48 83 49 84 57 85 50 86 56 87
REMARK SMILES IDX 58 88 55 89 51 90 52 91 53 92 54 93
REMARK H PARENT 12 7 88 21 19 27 78 46 46 57
REMARK Flexibility Score: inf
ROOT
ATOM      1  C   UNL A   1      36.307  23.770  25.300  1.00  0.00     0.002 C 
ENDROOT
BRANCH   1   2
ATOM      2  C   UNL A   1      34.923  24.402  25.491  1.00  0.00     0.021 C 
BRANCH   2   3
ATOM      3  C   UNL A   1      34.143  24.727  24.217  1.00  0.00     0.116 C 
BRANCH   3   4
ATOM      4  N   UNL A   1      32.946  23.921  24.055  1.00  0.00    -0.350 N 
ATOM      5  C   UNL A   1      31.707  23.984  24.620  1.00  0.00     0.280 C 
ATOM      6  O   UNL A   1      30.852  23.206  24.196  1.00  0.00    -0.267 OA
ATOM      7  H   UNL A   1      33.049  23.183  23.411  1.00  0.00     0.163 HD
BRANCH   5   8
ATOM      8  C   UNL A   1      31.412  24.961  25.706  1.00  0.00     0.188 C 
ATOM      9  C   UNL A   1      31.208  26.284  25.591  1.00  0.00     0.053 C 
ATOM     10  F   UNL A   1      31.426  24.462  26.962  1.00  0.00    -0.201 F 
BRANCH   9  11
ATOM     11  C   UNL A   1      31.145  27.167  24.414  1.00  0.00    -0.019 A 
ATOM     12  C   UNL A   1      29.951  28.408  22.691  1.00  0.00     0.161 A 
ATOM     13  C   UNL A   1      29.956  27.487  23.743  1.00  0.00     0.058 A 
ATOM     14  C   UNL A   1      31.131  29.068  22.349  1.00  0.00     0.157 A 
ATOM     15  C   UNL A   1      32.323  28.759  22.990  1.00  0.00     0.051 A 
ATOM     16  C   UNL A   1      32.326  27.820  24.023  1.00  0.00     0.012 A 
BRANCH  12  17
ATOM     17  O   UNL A   1      28.732  28.751  22.174  1.00  0.00    -0.490 OA
BRANCH  17  18
ATOM     18  C   UNL A   1      27.688  28.928  23.137  1.00  0.00     0.226 C 
ATOM     19  C   UNL A   1      27.445  30.426  23.215  1.00  0.00     0.049 C 
ENDBRANCH  17  18
ENDBRANCH  12  17
BRANCH  14  20
ATOM     20  O   UNL A   1      31.152  30.100  21.455  1.00  0.00    -0.504 OA
ATOM     21  H   UNL A   1      31.879  30.692  21.439  1.00  0.00     0.293 HD
ENDBRANCH  14  20
ENDBRANCH   9  11
ENDBRANCH   5   8
ENDBRANCH   3   4
ENDBRANCH   2   3
ENDBRANCH   1   2
BRANCH   1  22
ATOM     22  C   UNL A   1      36.535  22.995  23.999  1.00  0.00     0.002 C 
BRANCH  22  23
ATOM     23  C   UNL A   1      36.890  21.516  24.150  1.00  0.00     0.021 C 
BRANCH  23  24
ATOM     24  C   UNL A   1      37.196  21.054  25.570  1.00  0.00     0.116 C 
BRANCH  24  25
ATOM     25  N   UNL A   1      38.292  20.099  25.628  1.00  0.00    -0.352 N 
ATOM     26  C   UNL A   1      39.608  20.302  25.981  1.00  0.00     0.251 C 
ATOM     27  H   UNL A   1      38.060  19.177  25.378  1.00  0.00     0.163 HD
ATOM     28  O   UNL A   1      40.428  19.405  25.823  1.00  0.00    -0.269 OA
BRANCH  26  29
ATOM     29  C   UNL A   1      40.031  21.617  26.515  1.00  0.00     0.039 A 
ATOM     30  C   UNL A   1      40.862  21.654  27.639  1.00  0.00     0.014 A 
ATOM     31  C   UNL A   1      39.636  22.804  25.895  1.00  0.00     0.014 A 
ATOM     32  C   UNL A   1      41.372  22.878  28.082  1.00  0.00     0.010 A 
ATOM     33  C   UNL A   1      40.197  24.014  26.297  1.00  0.00     0.010 A 
ATOM     34  C   UNL A   1      41.085  24.061  27.382  1.00  0.00    -0.014 A 
BRANCH  34  35
ATOM     35  C   UNL A   1      41.733  25.351  27.740  1.00  0.00     0.031 A 
ATOM     36  C   UNL A   1      40.949  26.427  28.436  1.00  0.00     0.074 A 
ATOM     37  C   UNL A   1      43.004  25.582  27.356  1.00  0.00     0.049 A 
ATOM     38  N   UNL A   1      41.300  27.653  28.724  1.00  0.00    -0.248 NA
ATOM     39  C   UNL A   1      39.578  26.081  28.835  1.00  0.00     0.031 C 
ATOM     40  C   UNL A   1      43.861  24.627  26.651  1.00  0.00     0.029 A 
ATOM     41  N   UNL A   1      43.794  26.698  27.489  1.00  0.00    -0.354 N 
ATOM     42  C   UNL A   1      40.193  28.232  29.335  1.00  0.00     0.074 A 
ATOM     43  C   UNL A   1      39.141  27.236  29.316  1.00  0.00     0.031 C 
ATOM     44  C   UNL A   1      45.060  25.189  26.430  1.00  0.00     0.029 A 
ATOM     45  C   UNL A   1      45.041  26.562  26.925  1.00  0.00     0.049 A 
ATOM     46  H   UNL A   1      43.495  27.518  27.945  1.00  0.00     0.167 HD
ATOM     47  C   UNL A   1      40.073  29.470  29.878  1.00  0.00     0.034 A 
ATOM     48  C   UNL A   1      46.049  27.449  26.797  1.00  0.00     0.034 A 
ATOM     49  C   UNL A   1      41.132  30.450  29.883  1.00  0.00     0.049 A 
ATOM     50  C   UNL A   1      45.864  28.845  27.334  1.00  0.00     0.074 A 
ATOM     51  C   UNL A   1      41.142  31.707  30.463  1.00  0.00     0.029 A 
ATOM     52  N   UNL A   1      42.365  30.293  29.263  1.00  0.00    -0.354 N 
ATOM     53  N   UNL A   1      44.829  29.360  27.953  1.00  0.00    -0.248 NA
ATOM     54  C   UNL A   1      46.983  29.778  27.146  1.00  0.00     0.031 C 
ATOM     55  C   UNL A   1      42.347  32.336  30.129  1.00  0.00     0.029 A 
ATOM     56  C   UNL A   1      43.122  31.447  29.402  1.00  0.00     0.049 A 
ATOM     57  H   UNL A   1      42.660  29.479  28.792  1.00  0.00     0.167 HD
ATOM     58  C   UNL A   1      45.179  30.675  28.244  1.00  0.00     0.074 A 
ATOM     59  C   UNL A   1      46.526  30.868  27.747  1.00  0.00     0.031 C 
ATOM     60  C   UNL A   1      44.452  31.636  28.872  1.00  0.00     0.034 A 
BRANCH  47  61
ATOM     61  C   UNL A   1      38.735  29.833  30.480  1.00  0.00     0.023 A 
ATOM     62  C   UNL A   1      37.800  30.614  29.776  1.00  0.00     0.031 A 
ATOM     63  C   UNL A   1      38.405  29.433  31.785  1.00  0.00     0.131 A 
ATOM     64  C   UNL A   1      36.626  31.043  30.413  1.00  0.00     0.055 A 
ATOM     65  C   UNL A   1      37.194  29.791  32.383  1.00  0.00     0.041 A 
ATOM     66  F   UNL A   1      39.263  28.702  32.515  1.00  0.00    -0.206 F 
ATOM     67  C   UNL A   1      36.304  30.617  31.703  1.00  0.00     0.022 A 
BRANCH  64  68
ATOM     68  S   UNL A   1      35.609  32.300  29.590  1.00  0.00     0.124 S 
ATOM     69  O   UNL A   1      34.634  31.474  28.882  1.00  0.00    -0.237 OA
ATOM     70  O   UNL A   1      35.095  33.075  30.713  1.00  0.00    -0.237 OA
ATOM     71  O   UNL A   1      36.561  33.002  28.730  1.00  0.00    -0.744 OA
ENDBRANCH  64  68
ENDBRANCH  47  61
BRANCH  48  72
ATOM     72  C   UNL A   1      47.310  27.058  26.106  1.00  0.00     0.023 A 
ATOM     73  C   UNL A   1      48.336  26.399  26.801  1.00  0.00     0.031 A 
ATOM     74  C   UNL A   1      47.519  27.362  24.749  1.00  0.00     0.131 A 
ATOM     75  C   UNL A   1      49.538  26.091  26.145  1.00  0.00     0.055 A 
ATOM     76  C   UNL A   1      48.697  27.011  24.089  1.00  0.00     0.041 A 
ATOM     77  F   UNL A   1      46.569  27.988  24.039  1.00  0.00    -0.206 F 
ATOM     78  C   UNL A   1      49.720  26.380  24.791  1.00  0.00     0.022 A 
BRANCH  75  79
ATOM     79  S   UNL A   1      50.890  25.360  27.107  1.00  0.00     0.124 S 
ATOM     80  O   UNL A   1      51.398  26.519  27.833  1.00  0.00    -0.237 OA
ATOM     81  O   UNL A   1      50.188  24.360  27.906  1.00  0.00    -0.237 OA
ATOM     82  O   UNL A   1      51.784  24.822  26.085  1.00  0.00    -0.744 OA
ENDBRANCH  75  79
ENDBRANCH  48  72
BRANCH  60  83
ATOM     83  C   UNL A   1      45.115  32.978  29.061  1.00  0.00     0.023 A 
ATOM     84  C   UNL A   1      44.973  34.008  28.116  1.00  0.00     0.031 A 
ATOM     85  C   UNL A   1      45.900  33.228  30.201  1.00  0.00     0.131 A 
ATOM     86  C   UNL A   1      45.640  35.228  28.305  1.00  0.00     0.055 A 
ATOM     87  C   UNL A   1      46.517  34.462  30.411  1.00  0.00     0.041 A 
ATOM     88  F   UNL A   1      46.073  32.278  31.133  1.00  0.00    -0.206 F 
ATOM     89  C   UNL A   1      46.397  35.467  29.456  1.00  0.00     0.022 A 
BRANCH  86  90
ATOM     90  S   UNL A   1      45.561  36.479  26.994  1.00  0.00     0.124 S 
ATOM     91  O   UNL A   1      46.168  35.776  25.869  1.00  0.00    -0.237 OA
ATOM     92  O   UNL A   1      44.128  36.733  26.888  1.00  0.00    -0.237 OA
ATOM     93  O   UNL A   1      46.348  37.588  27.531  1.00  0.00    -0.744 OA
ENDBRANCH  86  90
ENDBRANCH  60  83
ENDBRANCH  34  35
ENDBRANCH  26  29
ENDBRANCH  24  25
ENDBRANCH  23  24
ENDBRANCH  22  23
ENDBRANCH   1  22
TORSDOF 20
ENDMDL
MODEL 3
REMARK VINA RESULT:     -11.2      1.932      2.393
REMARK SMILES CCOc1cc(/C=C(/F)C(=O)NCCCCCCNC(=O)c2ccc(-c3c4nc(c(-c5cc(S(=O)(=O)[O-])ccc5F)c5ccc([nH]5)c(-c5cc(S(=O)(=O)[O-])ccc5F)c5nc(c(-c6cc(S(=O)(=O)[O-])ccc6F)c6ccc3[nH]6)C=C5)C=C4)cc2)ccc1O
REMARK SMILES IDX 15 1 14 2 13 3 12 4 10 5 11 6 8 8 7 9 9 10 6 11 4 12 5 13
REMARK SMILES IDX 87 14 86 15 85 16 3 17 2 18 1 19 88 20 16 22 17 23 18 24
REMARK SMILES IDX 19 25 20 26 21 28 22 29 23 30 84 31 24 32 83 33 25 34 26 35
REMARK SMILES IDX 27 36 77 37 28 38 82 39 76 40 78 41 29 42 81 43 75 44 74 45
REMARK SMILES IDX 30 47 62 48 42 49 61 50 43 51 46 52 60 53 79 54 44 55 45 56
REMARK SMILES IDX 59 58 80 59 47 60 31 61 32 62 40 63 33 64 39 65 41 66 38 67
REMARK SMILES IDX 34 68 35 69 36 70 37 71 63 72 64 73 72 74 65 75 71 76 73 77
REMARK SMILES IDX 70 78 66 79 67 80 68 81 69 82 48 83 49 84 57 85 50 86 56 87
REMARK SMILES IDX 58 88 55 89 51 90 52 91 53 92 54 93
REMARK H PARENT 12 7 88 21 19 27 78 46 46 57
REMARK Flexibility Score: inf
ROOT
ATOM      1  C   UNL A   1      32.311  27.411  25.351  1.00  0.00     0.002 C 
ENDROOT
BRANCH   1   2
ATOM      2  C   UNL A   1      31.037  27.037  26.118  1.00  0.00     0.021 C 
BRANCH   2   3
ATOM      3  C   UNL A   1      30.534  25.603  25.942  1.00  0.00     0.116 C 
BRANCH   3   4
ATOM      4  N   UNL A   1      31.083  24.679  26.919  1.00  0.00    -0.350 N 
ATOM      5  C   UNL A   1      31.718  23.479  26.799  1.00  0.00     0.280 C 
ATOM      6  O   UNL A   1      32.167  22.972  27.827  1.00  0.00    -0.267 OA
ATOM      7  H   UNL A   1      30.974  24.977  27.851  1.00  0.00     0.163 HD
BRANCH   5   8
ATOM      8  C   UNL A   1      31.859  22.818  25.470  1.00  0.00     0.188 C 
ATOM      9  C   UNL A   1      32.985  22.611  24.769  1.00  0.00     0.053 C 
ATOM     10  F   UNL A   1      30.702  22.454  24.874  1.00  0.00    -0.201 F 
BRANCH   9  11
ATOM     11  C   UNL A   1      34.398  22.889  25.078  1.00  0.00    -0.019 A 
ATOM     12  C   UNL A   1      36.758  22.292  25.179  1.00  0.00     0.161 A 
ATOM     13  C   UNL A   1      35.422  21.938  24.963  1.00  0.00     0.058 A 
ATOM     14  C   UNL A   1      37.082  23.622  25.445  1.00  0.00     0.157 A 
ATOM     15  C   UNL A   1      36.086  24.579  25.576  1.00  0.00     0.051 A 
ATOM     16  C   UNL A   1      34.751  24.214  25.384  1.00  0.00     0.012 A 
BRANCH  12  17
ATOM     17  O   UNL A   1      37.700  21.333  24.930  1.00  0.00    -0.490 OA
BRANCH  17  18
ATOM     18  C   UNL A   1      37.222  19.984  24.964  1.00  0.00     0.226 C 
ATOM     19  C   UNL A   1      38.450  19.114  25.180  1.00  0.00     0.049 C 
ENDBRANCH  17  18
ENDBRANCH  12  17
BRANCH  14  20
ATOM     20  O   UNL A   1      38.376  24.057  25.489  1.00  0.00    -0.504 OA
ATOM     21  H   UNL A   1      38.576  24.896  25.858  1.00  0.00     0.293 HD
ENDBRANCH  14  20
ENDBRANCH   9  11
ENDBRANCH   5   8
ENDBRANCH   3   4
ENDBRANCH   2   3
ENDBRANCH   1   2
BRANCH   1  22
ATOM     22  C   UNL A   1      32.322  28.779  24.662  1.00  0.00     0.002 C 
BRANCH  22  23
ATOM     23  C   UNL A   1      31.562  29.898  25.373  1.00  0.00     0.021 C 
BRANCH  23  24
ATOM     24  C   UNL A   1      32.168  30.374  26.688  1.00  0.00     0.116 C 
BRANCH  24  25
ATOM     25  N   UNL A   1      32.091  31.816  26.854  1.00  0.00    -0.352 N 
ATOM     26  C   UNL A   1      32.977  32.673  27.471  1.00  0.00     0.251 C 
ATOM     27  H   UNL A   1      31.291  32.242  26.472  1.00  0.00     0.163 HD
ATOM     28  O   UNL A   1      32.669  33.845  27.650  1.00  0.00    -0.269 OA
BRANCH  26  29
ATOM     29  C   UNL A   1      34.282  32.161  27.949  1.00  0.00     0.039 A 
ATOM     30  C   UNL A   1      35.380  33.025  27.971  1.00  0.00     0.014 A 
ATOM     31  C   UNL A   1      34.415  30.845  28.399  1.00  0.00     0.014 A 
ATOM     32  C   UNL A   1      36.585  32.598  28.534  1.00  0.00     0.010 A 
ATOM     33  C   UNL A   1      35.596  30.442  29.018  1.00  0.00     0.010 A 
ATOM     34  C   UNL A   1      36.687  31.320  29.109  1.00  0.00    -0.014 A 
BRANCH  34  35
ATOM     35  C   UNL A   1      37.906  30.896  29.847  1.00  0.00     0.031 A 
ATOM     36  C   UNL A   1      38.842  29.884  29.247  1.00  0.00     0.074 A 
ATOM     37  C   UNL A   1      38.121  31.358  31.094  1.00  0.00     0.049 A 
ATOM     38  N   UNL A   1      39.886  29.304  29.779  1.00  0.00    -0.248 NA
ATOM     39  C   UNL A   1      38.543  29.451  27.875  1.00  0.00     0.031 C 
ATOM     40  C   UNL A   1      37.271  32.323  31.796  1.00  0.00     0.029 A 
ATOM     41  N   UNL A   1      39.108  31.067  32.003  1.00  0.00    -0.354 N 
ATOM     42  C   UNL A   1      40.370  28.430  28.811  1.00  0.00     0.074 A 
ATOM     43  C   UNL A   1      39.463  28.517  27.684  1.00  0.00     0.031 C 
ATOM     44  C   UNL A   1      37.782  32.556  33.014  1.00  0.00     0.029 A 
ATOM     45  C   UNL A   1      38.963  31.719  33.205  1.00  0.00     0.049 A 
ATOM     46  H   UNL A   1      39.851  30.450  31.811  1.00  0.00     0.167 HD
ATOM     47  C   UNL A   1      41.477  27.647  28.851  1.00  0.00     0.034 A 
ATOM     48  C   UNL A   1      39.682  31.635  34.343  1.00  0.00     0.034 A 
ATOM     49  C   UNL A   1      42.366  27.573  29.985  1.00  0.00     0.049 A 
ATOM     50  C   UNL A   1      40.859  30.697  34.394  1.00  0.00     0.074 A 
ATOM     51  C   UNL A   1      43.550  26.865  30.109  1.00  0.00     0.029 A 
ATOM     52  N   UNL A   1      42.162  28.213  31.201  1.00  0.00    -0.354 N 
ATOM     53  N   UNL A   1      41.333  29.915  33.452  1.00  0.00    -0.248 NA
ATOM     54  C   UNL A   1      41.593  30.625  35.664  1.00  0.00     0.031 C 
ATOM     55  C   UNL A   1      44.018  27.016  31.419  1.00  0.00     0.029 A 
ATOM     56  C   UNL A   1      43.167  27.876  32.095  1.00  0.00     0.049 A 
ATOM     57  H   UNL A   1      41.410  28.818  31.400  1.00  0.00     0.167 HD
ATOM     58  C   UNL A   1      42.431  29.271  34.013  1.00  0.00     0.074 A 
ATOM     59  C   UNL A   1      42.559  29.768  35.368  1.00  0.00     0.031 C 
ATOM     60  C   UNL A   1      43.264  28.354  33.455  1.00  0.00     0.034 A 
BRANCH  47  61
ATOM     61  C   UNL A   1      41.760  26.789  27.640  1.00  0.00     0.023 A 
ATOM     62  C   UNL A   1      41.451  25.416  27.623  1.00  0.00     0.031 A 
ATOM     63  C   UNL A   1      42.383  27.335  26.505  1.00  0.00     0.131 A 
ATOM     64  C   UNL A   1      41.847  24.623  26.536  1.00  0.00     0.055 A 
ATOM     65  C   UNL A   1      42.697  26.556  25.389  1.00  0.00     0.041 A 
ATOM     66  F   UNL A   1      42.720  28.634  26.468  1.00  0.00    -0.206 F 
ATOM     67  C   UNL A   1      42.446  25.187  25.408  1.00  0.00     0.022 A 
BRANCH  64  68
ATOM     68  S   UNL A   1      41.718  22.820  26.692  1.00  0.00     0.124 S 
ATOM     69  O   UNL A   1      42.146  22.378  25.367  1.00  0.00    -0.237 OA
ATOM     70  O   UNL A   1      42.636  22.532  27.789  1.00  0.00    -0.237 OA
ATOM     71  O   UNL A   1      40.303  22.602  26.988  1.00  0.00    -0.744 OA
ENDBRANCH  64  68
ENDBRANCH  47  61
BRANCH  48  72
ATOM     72  C   UNL A   1      39.294  32.437  35.537  1.00  0.00     0.023 A 
ATOM     73  C   UNL A   1      39.738  33.760  35.691  1.00  0.00     0.031 A 
ATOM     74  C   UNL A   1      38.495  31.886  36.555  1.00  0.00     0.131 A 
ATOM     75  C   UNL A   1      39.407  34.478  36.851  1.00  0.00     0.055 A 
ATOM     76  C   UNL A   1      38.129  32.620  37.684  1.00  0.00     0.041 A 
ATOM     77  F   UNL A   1      38.042  30.627  36.455  1.00  0.00    -0.206 F 
ATOM     78  C   UNL A   1      38.595  33.922  37.841  1.00  0.00     0.022 A 
BRANCH  75  79
ATOM     79  S   UNL A   1      40.109  36.135  37.076  1.00  0.00     0.124 S 
ATOM     80  O   UNL A   1      41.458  35.825  37.536  1.00  0.00    -0.237 OA
ATOM     81  O   UNL A   1      40.000  36.696  35.733  1.00  0.00    -0.237 OA
ATOM     82  O   UNL A   1      39.233  36.743  38.075  1.00  0.00    -0.744 OA
ENDBRANCH  75  79
ENDBRANCH  48  72
BRANCH  60  83
ATOM     83  C   UNL A   1      44.391  27.843  34.316  1.00  0.00     0.023 A 
ATOM     84  C   UNL A   1      44.250  26.687  35.103  1.00  0.00     0.031 A 
ATOM     85  C   UNL A   1      45.622  28.522  34.351  1.00  0.00     0.131 A 
ATOM     86  C   UNL A   1      45.307  26.266  35.925  1.00  0.00     0.055 A 
ATOM     87  C   UNL A   1      46.689  28.068  35.129  1.00  0.00     0.041 A 
ATOM     88  F   UNL A   1      45.811  29.633  33.623  1.00  0.00    -0.206 F 
ATOM     89  C   UNL A   1      46.531  26.940  35.929  1.00  0.00     0.022 A 
BRANCH  86  90
ATOM     90  S   UNL A   1      45.039  24.863  37.042  1.00  0.00     0.124 S 
ATOM     91  O   UNL A   1      45.947  25.175  38.141  1.00  0.00    -0.237 OA
ATOM     92  O   UNL A   1      43.616  24.968  37.343  1.00  0.00    -0.237 OA
ATOM     93  O   UNL A   1      45.417  23.705  36.235  1.00  0.00    -0.744 OA
ENDBRANCH  86  90
ENDBRANCH  60  83
ENDBRANCH  34  35
ENDBRANCH  26  29
ENDBRANCH  24  25
ENDBRANCH  23  24
ENDBRANCH  22  23
ENDBRANCH   1  22
TORSDOF 20
ENDMDL
