MODEL 1
REMARK VINA RESULT:     -11.7      0.000      0.000
REMARK SMILES C[C@H](NC(=O)N1CC[C@@H](C(=O)NCCCCCCNC(=O)c2ccc(-c3c4nc(c(-c5cc(S(=O)(=O)[O-])ccc5F)c5ccc([nH]5)c(-c5cc(S(=O)(=O)[O-])ccc5F)c5nc(c(-c6cc(S(=O)(=O)[O-])ccc6F)c6ccc3[nH]6)C=C5)C=C4)cc2)[C@H]1C)c1ccc(Cl)cc1
REMARK SMILES IDX 15 1 14 2 13 3 12 4 10 5 11 6 9 8 6 9 7 10 85 11 8 12 86 13
REMARK SMILES IDX 4 14 3 15 5 17 2 18 1 19 87 20 88 21 93 22 89 23 92 24 90 25
REMARK SMILES IDX 91 26 16 27 17 28 18 29 19 30 20 31 21 33 22 34 23 35 84 36
REMARK SMILES IDX 24 37 83 38 25 39 26 40 27 41 77 42 28 43 82 44 76 45 78 46
REMARK SMILES IDX 29 47 81 48 75 49 74 50 30 52 62 53 42 54 61 55 43 56 46 57
REMARK SMILES IDX 60 58 79 59 44 60 45 61 59 63 80 64 47 65 31 66 32 67 40 68
REMARK SMILES IDX 33 69 39 70 41 71 38 72 34 73 35 74 36 75 37 76 63 77 64 78
REMARK SMILES IDX 72 79 65 80 71 81 73 82 70 83 66 84 67 85 68 86 69 87 48 88
REMARK SMILES IDX 49 89 57 90 50 91 56 92 58 93 55 94 51 95 52 96 53 97 54 98
REMARK H PARENT 12 7 3 16 19 32 78 51 46 62
REMARK Flexibility Score: inf
ROOT
ATOM      1  C   UNL A   1      30.296  27.588  24.618  1.00  0.00     0.002 C 
ENDROOT
BRANCH   1   2
ATOM      2  C   UNL A   1      30.070  27.292  23.136  1.00  0.00     0.021 C 
BRANCH   2   3
ATOM      3  C   UNL A   1      31.172  27.777  22.189  1.00  0.00     0.116 C 
BRANCH   3   4
ATOM      4  N   UNL A   1      31.892  26.670  21.590  1.00  0.00    -0.356 N 
ATOM      5  C   UNL A   1      32.669  25.675  22.082  1.00  0.00     0.225 C 
ATOM      6  O   UNL A   1      33.158  24.917  21.232  1.00  0.00    -0.275 OA
ATOM      7  H   UNL A   1      31.795  26.633  20.611  1.00  0.00     0.163 HD
BRANCH   5   8
ATOM      8  C   UNL A   1      33.002  25.423  23.554  1.00  0.00     0.102 C 
ATOM      9  N   UNL A   1      33.186  23.511  24.978  1.00  0.00    -0.321 N 
ATOM     10  C   UNL A   1      34.392  24.297  25.155  1.00  0.00     0.122 C 
ATOM     11  C   UNL A   1      32.181  24.369  24.341  1.00  0.00     0.096 C 
ATOM     12  C   UNL A   1      34.468  25.178  23.920  1.00  0.00     0.037 C 
ATOM     13  C   UNL A   1      31.106  23.626  23.565  1.00  0.00     0.032 C 
BRANCH   9  14
ATOM     14  C   UNL A   1      32.880  22.638  25.994  1.00  0.00     0.318 C 
ATOM     15  N   UNL A   1      33.473  21.408  25.978  1.00  0.00    -0.331 N 
ATOM     16  H   UNL A   1      33.494  20.959  26.853  1.00  0.00     0.165 HD
ATOM     17  O   UNL A   1      32.211  22.974  26.968  1.00  0.00    -0.249 OA
BRANCH  15  18
ATOM     18  C   UNL A   1      34.086  20.634  24.888  1.00  0.00     0.111 C 
ATOM     19  C   UNL A   1      35.582  20.880  24.775  1.00  0.00     0.036 C 
BRANCH  18  20
ATOM     20  C   UNL A   1      33.828  19.115  24.964  1.00  0.00    -0.026 A 
ATOM     21  C   UNL A   1      32.709  18.600  25.667  1.00  0.00     0.007 A 
ATOM     22  C   UNL A   1      34.707  18.175  24.405  1.00  0.00     0.007 A 
ATOM     23  C   UNL A   1      32.441  17.234  25.753  1.00  0.00     0.021 A 
ATOM     24  C   UNL A   1      34.436  16.798  24.488  1.00  0.00     0.021 A 
ATOM     25  C   UNL A   1      33.303  16.335  25.152  1.00  0.00     0.041 A 
ATOM     26  Cl  UNL A   1      32.971  14.654  25.241  1.00  0.00    -0.084 Cl
ENDBRANCH  18  20
ENDBRANCH  15  18
ENDBRANCH   9  14
ENDBRANCH   5   8
ENDBRANCH   3   4
ENDBRANCH   2   3
ENDBRANCH   1   2
BRANCH   1  27
ATOM     27  C   UNL A   1      31.347  28.668  24.906  1.00  0.00     0.002 C 
BRANCH  27  28
ATOM     28  C   UNL A   1      32.436  28.299  25.923  1.00  0.00     0.021 C 
BRANCH  28  29
ATOM     29  C   UNL A   1      33.678  29.189  25.911  1.00  0.00     0.116 C 
BRANCH  29  30
ATOM     30  N   UNL A   1      33.372  30.555  26.296  1.00  0.00    -0.352 N 
ATOM     31  C   UNL A   1      33.912  31.326  27.298  1.00  0.00     0.251 C 
ATOM     32  H   UNL A   1      32.675  30.995  25.760  1.00  0.00     0.163 HD
ATOM     33  O   UNL A   1      33.351  32.367  27.625  1.00  0.00    -0.269 OA
BRANCH  31  34
ATOM     34  C   UNL A   1      35.149  30.896  27.988  1.00  0.00     0.039 A 
ATOM     35  C   UNL A   1      35.132  29.715  28.733  1.00  0.00     0.014 A 
ATOM     36  C   UNL A   1      36.313  31.670  27.930  1.00  0.00     0.014 A 
ATOM     37  C   UNL A   1      36.297  29.279  29.371  1.00  0.00     0.010 A 
ATOM     38  C   UNL A   1      37.491  31.198  28.508  1.00  0.00     0.010 A 
ATOM     39  C   UNL A   1      37.496  29.999  29.236  1.00  0.00    -0.014 A 
BRANCH  39  40
ATOM     40  C   UNL A   1      38.758  29.515  29.857  1.00  0.00     0.031 A 
ATOM     41  C   UNL A   1      39.212  30.065  31.182  1.00  0.00     0.074 A 
ATOM     42  C   UNL A   1      39.522  28.617  29.203  1.00  0.00     0.049 A 
ATOM     43  N   UNL A   1      40.309  29.816  31.852  1.00  0.00    -0.248 NA
ATOM     44  C   UNL A   1      38.325  31.046  31.821  1.00  0.00     0.031 C 
ATOM     45  C   UNL A   1      39.204  28.028  27.901  1.00  0.00     0.029 A 
ATOM     46  N   UNL A   1      40.723  28.046  29.540  1.00  0.00    -0.354 N 
ATOM     47  C   UNL A   1      40.247  30.616  32.990  1.00  0.00     0.074 A 
ATOM     48  C   UNL A   1      39.041  31.408  32.875  1.00  0.00     0.031 C 
ATOM     49  C   UNL A   1      40.167  27.155  27.567  1.00  0.00     0.029 A 
ATOM     50  C   UNL A   1      41.196  27.159  28.601  1.00  0.00     0.049 A 
ATOM     51  H   UNL A   1      41.202  28.251  30.376  1.00  0.00     0.167 HD
ATOM     52  C   UNL A   1      41.103  30.665  34.043  1.00  0.00     0.034 A 
ATOM     53  C   UNL A   1      42.334  26.438  28.571  1.00  0.00     0.034 A 
ATOM     54  C   UNL A   1      42.306  29.872  34.136  1.00  0.00     0.049 A 
ATOM     55  C   UNL A   1      43.302  26.552  29.721  1.00  0.00     0.074 A 
ATOM     56  C   UNL A   1      43.223  29.814  35.171  1.00  0.00     0.029 A 
ATOM     57  N   UNL A   1      42.768  29.008  33.151  1.00  0.00    -0.354 N 
ATOM     58  N   UNL A   1      43.210  27.281  30.810  1.00  0.00    -0.248 NA
ATOM     59  C   UNL A   1      44.523  25.741  29.641  1.00  0.00     0.031 C 
ATOM     60  C   UNL A   1      44.274  28.975  34.781  1.00  0.00     0.029 A 
ATOM     61  C   UNL A   1      43.974  28.441  33.539  1.00  0.00     0.049 A 
ATOM     62  H   UNL A   1      42.307  28.824  32.300  1.00  0.00     0.167 HD
ATOM     63  C   UNL A   1      44.346  26.988  31.560  1.00  0.00     0.074 A 
ATOM     64  C   UNL A   1      45.100  26.008  30.802  1.00  0.00     0.031 C 
ATOM     65  C   UNL A   1      44.728  27.477  32.768  1.00  0.00     0.034 A 
BRANCH  52  66
ATOM     66  C   UNL A   1      40.770  31.635  35.156  1.00  0.00     0.023 A 
ATOM     67  C   UNL A   1      39.717  31.388  36.057  1.00  0.00     0.031 A 
ATOM     68  C   UNL A   1      41.473  32.845  35.289  1.00  0.00     0.131 A 
ATOM     69  C   UNL A   1      39.333  32.376  36.977  1.00  0.00     0.055 A 
ATOM     70  C   UNL A   1      41.148  33.783  36.271  1.00  0.00     0.041 A 
ATOM     71  F   UNL A   1      42.476  33.150  34.450  1.00  0.00    -0.206 F 
ATOM     72  C   UNL A   1      40.058  33.562  37.109  1.00  0.00     0.022 A 
BRANCH  69  73
ATOM     73  S   UNL A   1      37.765  32.166  37.863  1.00  0.00     0.124 S 
ATOM     74  O   UNL A   1      37.490  30.747  37.643  1.00  0.00    -0.237 OA
ATOM     75  O   UNL A   1      38.120  32.543  39.226  1.00  0.00    -0.237 OA
ATOM     76  O   UNL A   1      36.857  33.081  37.176  1.00  0.00    -0.744 OA
ENDBRANCH  69  73
ENDBRANCH  52  66
BRANCH  53  77
ATOM     77  C   UNL A   1      42.626  25.541  27.416  1.00  0.00     0.023 A 
ATOM     78  C   UNL A   1      42.129  24.228  27.379  1.00  0.00     0.031 A 
ATOM     79  C   UNL A   1      43.428  25.973  26.344  1.00  0.00     0.131 A 
ATOM     80  C   UNL A   1      42.469  23.380  26.315  1.00  0.00     0.055 A 
ATOM     81  C   UNL A   1      43.722  25.141  25.262  1.00  0.00     0.041 A 
ATOM     82  F   UNL A   1      43.925  27.220  26.327  1.00  0.00    -0.206 F 
ATOM     83  C   UNL A   1      43.250  23.833  25.249  1.00  0.00     0.022 A 
BRANCH  80  84
ATOM     84  S   UNL A   1      41.933  21.649  26.378  1.00  0.00     0.124 S 
ATOM     85  O   UNL A   1      40.499  21.775  26.135  1.00  0.00    -0.237 OA
ATOM     86  O   UNL A   1      42.716  21.049  25.304  1.00  0.00    -0.237 OA
ATOM     87  O   UNL A   1      42.303  21.228  27.727  1.00  0.00    -0.744 OA
ENDBRANCH  80  84
ENDBRANCH  53  77
BRANCH  65  88
ATOM     88  C   UNL A   1      46.000  26.921  33.364  1.00  0.00     0.023 A 
ATOM     89  C   UNL A   1      46.000  25.780  34.185  1.00  0.00     0.031 A 
ATOM     90  C   UNL A   1      47.232  27.554  33.114  1.00  0.00     0.131 A 
ATOM     91  C   UNL A   1      47.196  25.341  34.773  1.00  0.00     0.055 A 
ATOM     92  C   UNL A   1      48.428  27.075  33.649  1.00  0.00     0.041 A 
ATOM     93  F   UNL A   1      47.292  28.651  32.341  1.00  0.00    -0.206 F 
ATOM     94  C   UNL A   1      48.413  25.970  34.495  1.00  0.00     0.022 A 
BRANCH  91  95
ATOM     95  S   UNL A   1      47.128  23.996  35.988  1.00  0.00     0.124 S 
ATOM     96  O   UNL A   1      48.290  24.282  36.824  1.00  0.00    -0.237 OA
ATOM     97  O   UNL A   1      45.826  24.204  36.613  1.00  0.00    -0.237 OA
ATOM     98  O   UNL A   1      47.236  22.789  35.171  1.00  0.00    -0.744 OA
ENDBRANCH  91  95
ENDBRANCH  65  88
ENDBRANCH  39  40
ENDBRANCH  31  34
ENDBRANCH  29  30
ENDBRANCH  28  29
ENDBRANCH  27  28
ENDBRANCH   1  27
TORSDOF 19
ENDMDL
MODEL 2
REMARK VINA RESULT:     -11.4      5.704      8.912
REMARK SMILES C[C@H](NC(=O)N1CC[C@@H](C(=O)NCCCCCCNC(=O)c2ccc(-c3c4nc(c(-c5cc(S(=O)(=O)[O-])ccc5F)c5ccc([nH]5)c(-c5cc(S(=O)(=O)[O-])ccc5F)c5nc(c(-c6cc(S(=O)(=O)[O-])ccc6F)c6ccc3[nH]6)C=C5)C=C4)cc2)[C@H]1C)c1ccc(Cl)cc1
REMARK SMILES IDX 15 1 14 2 13 3 12 4 10 5 11 6 9 8 6 9 7 10 85 11 8 12 86 13
REMARK SMILES IDX 4 14 3 15 5 17 2 18 1 19 87 20 88 21 93 22 89 23 92 24 90 25
REMARK SMILES IDX 91 26 16 27 17 28 18 29 19 30 20 31 21 33 22 34 23 35 84 36
REMARK SMILES IDX 24 37 83 38 25 39 26 40 27 41 77 42 28 43 82 44 76 45 78 46
REMARK SMILES IDX 29 47 81 48 75 49 74 50 30 52 62 53 42 54 61 55 43 56 46 57
REMARK SMILES IDX 60 58 79 59 44 60 45 61 59 63 80 64 47 65 31 66 32 67 40 68
REMARK SMILES IDX 33 69 39 70 41 71 38 72 34 73 35 74 36 75 37 76 63 77 64 78
REMARK SMILES IDX 72 79 65 80 71 81 73 82 70 83 66 84 67 85 68 86 69 87 48 88
REMARK SMILES IDX 49 89 57 90 50 91 56 92 58 93 55 94 51 95 52 96 53 97 54 98
REMARK H PARENT 12 7 3 16 19 32 78 51 46 62
REMARK Flexibility Score: inf
ROOT
ATOM      1  C   UNL A   1      35.987  21.484  24.402  1.00  0.00     0.002 C 
ENDROOT
BRANCH   1   2
ATOM      2  C   UNL A   1      35.327  21.206  25.752  1.00  0.00     0.021 C 
BRANCH   2   3
ATOM      3  C   UNL A   1      33.842  20.837  25.698  1.00  0.00     0.116 C 
BRANCH   3   4
ATOM      4  N   UNL A   1      33.002  21.917  26.180  1.00  0.00    -0.356 N 
ATOM      5  C   UNL A   1      32.681  23.145  25.705  1.00  0.00     0.225 C 
ATOM      6  O   UNL A   1      31.944  23.818  26.438  1.00  0.00    -0.275 OA
ATOM      7  H   UNL A   1      32.571  21.714  27.042  1.00  0.00     0.163 HD
BRANCH   5   8
ATOM      8  C   UNL A   1      33.152  23.762  24.386  1.00  0.00     0.102 C 
ATOM      9  N   UNL A   1      32.372  25.470  22.906  1.00  0.00    -0.321 N 
ATOM     10  C   UNL A   1      33.769  25.746  23.182  1.00  0.00     0.122 C 
ATOM     11  C   UNL A   1      32.106  24.079  23.288  1.00  0.00     0.096 C 
ATOM     12  C   UNL A   1      34.070  24.986  24.462  1.00  0.00     0.037 C 
ATOM     13  C   UNL A   1      30.655  23.776  23.623  1.00  0.00     0.032 C 
BRANCH   9  14
ATOM     14  C   UNL A   1      31.859  26.038  21.764  1.00  0.00     0.318 C 
ATOM     15  N   UNL A   1      31.182  27.217  21.888  1.00  0.00    -0.331 N 
ATOM     16  H   UNL A   1      31.127  27.739  21.055  1.00  0.00     0.165 HD
ATOM     17  O   UNL A   1      32.105  25.595  20.645  1.00  0.00    -0.249 OA
BRANCH  15  18
ATOM     18  C   UNL A   1      30.522  27.848  23.040  1.00  0.00     0.111 C 
ATOM     19  C   UNL A   1      29.343  27.032  23.547  1.00  0.00     0.036 C 
BRANCH  18  20
ATOM     20  C   UNL A   1      31.465  28.160  24.221  1.00  0.00    -0.026 A 
ATOM     21  C   UNL A   1      32.597  28.997  24.047  1.00  0.00     0.007 A 
ATOM     22  C   UNL A   1      31.291  27.592  25.492  1.00  0.00     0.007 A 
ATOM     23  C   UNL A   1      33.469  29.305  25.091  1.00  0.00     0.021 A 
ATOM     24  C   UNL A   1      32.166  27.905  26.546  1.00  0.00     0.021 A 
ATOM     25  C   UNL A   1      33.243  28.765  26.344  1.00  0.00     0.041 A 
ATOM     26  Cl  UNL A   1      34.303  29.153  27.637  1.00  0.00    -0.084 Cl
ENDBRANCH  18  20
ENDBRANCH  15  18
ENDBRANCH   9  14
ENDBRANCH   5   8
ENDBRANCH   3   4
ENDBRANCH   2   3
ENDBRANCH   1   2
BRANCH   1  27
ATOM     27  C   UNL A   1      37.518  21.375  24.398  1.00  0.00     0.002 C 
BRANCH  27  28
ATOM     28  C   UNL A   1      38.108  20.103  25.021  1.00  0.00     0.021 C 
BRANCH  28  29
ATOM     29  C   UNL A   1      39.151  20.327  26.116  1.00  0.00     0.116 C 
BRANCH  29  30
ATOM     30  N   UNL A   1      40.205  19.330  26.075  1.00  0.00    -0.352 N 
ATOM     31  C   UNL A   1      41.569  19.496  26.035  1.00  0.00     0.251 C 
ATOM     32  H   UNL A   1      39.898  18.396  26.077  1.00  0.00     0.163 HD
ATOM     33  O   UNL A   1      42.284  18.539  25.755  1.00  0.00    -0.269 OA
BRANCH  31  34
ATOM     34  C   UNL A   1      42.169  20.821  26.309  1.00  0.00     0.039 A 
ATOM     35  C   UNL A   1      42.483  21.657  25.235  1.00  0.00     0.014 A 
ATOM     36  C   UNL A   1      42.453  21.227  27.617  1.00  0.00     0.014 A 
ATOM     37  C   UNL A   1      43.027  22.922  25.475  1.00  0.00     0.010 A 
ATOM     38  C   UNL A   1      42.929  22.515  27.858  1.00  0.00     0.010 A 
ATOM     39  C   UNL A   1      43.224  23.375  26.790  1.00  0.00    -0.014 A 
BRANCH  39  40
ATOM     40  C   UNL A   1      43.743  24.743  27.062  1.00  0.00     0.031 A 
ATOM     41  C   UNL A   1      42.820  25.819  27.565  1.00  0.00     0.074 A 
ATOM     42  C   UNL A   1      45.036  25.029  26.806  1.00  0.00     0.049 A 
ATOM     43  N   UNL A   1      43.070  27.083  27.800  1.00  0.00    -0.248 NA
ATOM     44  C   UNL A   1      41.426  25.424  27.807  1.00  0.00     0.031 C 
ATOM     45  C   UNL A   1      46.024  24.079  26.292  1.00  0.00     0.029 A 
ATOM     46  N   UNL A   1      45.739  26.199  26.940  1.00  0.00    -0.354 N 
ATOM     47  C   UNL A   1      41.861  27.637  28.212  1.00  0.00     0.074 A 
ATOM     48  C   UNL A   1      40.870  26.585  28.120  1.00  0.00     0.031 C 
ATOM     49  C   UNL A   1      47.212  24.695  26.187  1.00  0.00     0.029 A 
ATOM     50  C   UNL A   1      47.062  26.094  26.574  1.00  0.00     0.049 A 
ATOM     51  H   UNL A   1      45.337  27.036  27.267  1.00  0.00     0.167 HD
ATOM     52  C   UNL A   1      41.607  28.896  28.651  1.00  0.00     0.034 A 
ATOM     53  C   UNL A   1      48.039  27.021  26.544  1.00  0.00     0.034 A 
ATOM     54  C   UNL A   1      42.607  29.935  28.729  1.00  0.00     0.049 A 
ATOM     55  C   UNL A   1      47.723  28.430  26.976  1.00  0.00     0.074 A 
ATOM     56  C   UNL A   1      42.471  31.232  29.193  1.00  0.00     0.029 A 
ATOM     57  N   UNL A   1      43.929  29.800  28.320  1.00  0.00    -0.354 N 
ATOM     58  N   UNL A   1      46.586  28.929  27.403  1.00  0.00    -0.248 NA
ATOM     59  C   UNL A   1      48.826  29.398  26.930  1.00  0.00     0.031 C 
ATOM     60  C   UNL A   1      43.686  31.900  28.994  1.00  0.00     0.029 A 
ATOM     61  C   UNL A   1      44.607  30.999  28.486  1.00  0.00     0.049 A 
ATOM     62  H   UNL A   1      44.327  28.972  27.963  1.00  0.00     0.167 HD
ATOM     63  C   UNL A   1      46.847  30.262  27.709  1.00  0.00     0.074 A 
ATOM     64  C   UNL A   1      48.252  30.484  27.427  1.00  0.00     0.031 C 
ATOM     65  C   UNL A   1      46.005  31.215  28.186  1.00  0.00     0.034 A 
BRANCH  52  66
ATOM     66  C   UNL A   1      40.182  29.214  29.047  1.00  0.00     0.023 A 
ATOM     67  C   UNL A   1      39.790  29.278  30.398  1.00  0.00     0.031 A 
ATOM     68  C   UNL A   1      39.189  29.401  28.070  1.00  0.00     0.131 A 
ATOM     69  C   UNL A   1      38.434  29.419  30.730  1.00  0.00     0.055 A 
ATOM     70  C   UNL A   1      37.855  29.638  28.409  1.00  0.00     0.041 A 
ATOM     71  F   UNL A   1      39.492  29.334  26.764  1.00  0.00    -0.206 F 
ATOM     72  C   UNL A   1      37.466  29.626  29.746  1.00  0.00     0.022 A 
BRANCH  69  73
ATOM     73  S   UNL A   1      37.936  29.139  32.452  1.00  0.00     0.124 S 
ATOM     74  O   UNL A   1      36.659  29.848  32.507  1.00  0.00    -0.237 OA
ATOM     75  O   UNL A   1      37.862  27.685  32.526  1.00  0.00    -0.237 OA
ATOM     76  O   UNL A   1      39.013  29.752  33.225  1.00  0.00    -0.744 OA
ENDBRANCH  69  73
ENDBRANCH  52  66
BRANCH  53  77
ATOM     77  C   UNL A   1      49.412  26.652  26.090  1.00  0.00     0.023 A 
ATOM     78  C   UNL A   1      49.893  27.074  24.840  1.00  0.00     0.031 A 
ATOM     79  C   UNL A   1      50.251  25.853  26.885  1.00  0.00     0.131 A 
ATOM     80  C   UNL A   1      51.162  26.662  24.404  1.00  0.00     0.055 A 
ATOM     81  C   UNL A   1      51.533  25.488  26.469  1.00  0.00     0.041 A 
ATOM     82  F   UNL A   1      49.841  25.427  28.091  1.00  0.00    -0.206 F 
ATOM     83  C   UNL A   1      51.990  25.884  25.216  1.00  0.00     0.022 A 
BRANCH  80  84
ATOM     84  S   UNL A   1      51.687  27.100  22.725  1.00  0.00     0.124 S 
ATOM     85  O   UNL A   1      52.541  25.969  22.377  1.00  0.00    -0.237 OA
ATOM     86  O   UNL A   1      50.413  27.184  22.020  1.00  0.00    -0.237 OA
ATOM     87  O   UNL A   1      52.381  28.373  22.908  1.00  0.00    -0.744 OA
ENDBRANCH  80  84
ENDBRANCH  53  77
BRANCH  65  88
ATOM     88  C   UNL A   1      46.598  32.573  28.476  1.00  0.00     0.023 A 
ATOM     89  C   UNL A   1      46.614  33.600  27.515  1.00  0.00     0.031 A 
ATOM     90  C   UNL A   1      47.169  32.839  29.734  1.00  0.00     0.131 A 
ATOM     91  C   UNL A   1      47.239  34.822  27.806  1.00  0.00     0.055 A 
ATOM     92  C   UNL A   1      47.732  34.079  30.041  1.00  0.00     0.041 A 
ATOM     93  F   UNL A   1      47.188  31.896  30.690  1.00  0.00    -0.206 F 
ATOM     94  C   UNL A   1      47.781  35.075  29.069  1.00  0.00     0.022 A 
BRANCH  91  95
ATOM     95  S   UNL A   1      47.424  36.044  26.480  1.00  0.00     0.124 S 
ATOM     96  O   UNL A   1      48.513  36.876  26.983  1.00  0.00    -0.237 OA
ATOM     97  O   UNL A   1      47.741  35.209  25.326  1.00  0.00    -0.237 OA
ATOM     98  O   UNL A   1      46.118  36.699  26.430  1.00  0.00    -0.744 OA
ENDBRANCH  91  95
ENDBRANCH  65  88
ENDBRANCH  39  40
ENDBRANCH  31  34
ENDBRANCH  29  30
ENDBRANCH  28  29
ENDBRANCH  27  28
ENDBRANCH   1  27
TORSDOF 19
ENDMDL
MODEL 3
REMARK VINA RESULT:     -11.3      5.091     10.471
REMARK SMILES C[C@H](NC(=O)N1CC[C@@H](C(=O)NCCCCCCNC(=O)c2ccc(-c3c4nc(c(-c5cc(S(=O)(=O)[O-])ccc5F)c5ccc([nH]5)c(-c5cc(S(=O)(=O)[O-])ccc5F)c5nc(c(-c6cc(S(=O)(=O)[O-])ccc6F)c6ccc3[nH]6)C=C5)C=C4)cc2)[C@H]1C)c1ccc(Cl)cc1
REMARK SMILES IDX 15 1 14 2 13 3 12 4 10 5 11 6 9 8 6 9 7 10 85 11 8 12 86 13
REMARK SMILES IDX 4 14 3 15 5 17 2 18 1 19 87 20 88 21 93 22 89 23 92 24 90 25
REMARK SMILES IDX 91 26 16 27 17 28 18 29 19 30 20 31 21 33 22 34 23 35 84 36
REMARK SMILES IDX 24 37 83 38 25 39 26 40 27 41 77 42 28 43 82 44 76 45 78 46
REMARK SMILES IDX 29 47 81 48 75 49 74 50 30 52 62 53 42 54 61 55 43 56 46 57
REMARK SMILES IDX 60 58 79 59 44 60 45 61 59 63 80 64 47 65 31 66 32 67 40 68
REMARK SMILES IDX 33 69 39 70 41 71 38 72 34 73 35 74 36 75 37 76 63 77 64 78
REMARK SMILES IDX 72 79 65 80 71 81 73 82 70 83 66 84 67 85 68 86 69 87 48 88
REMARK SMILES IDX 49 89 57 90 50 91 56 92 58 93 55 94 51 95 52 96 53 97 54 98
REMARK H PARENT 12 7 3 16 19 32 78 51 46 62
REMARK Flexibility Score: inf
ROOT
ATOM      1  C   UNL A   1      34.675  20.628  24.735  1.00  0.00     0.002 C 
ENDROOT
BRANCH   1   2
ATOM      2  C   UNL A   1      33.427  21.197  24.061  1.00  0.00     0.021 C 
BRANCH   2   3
ATOM      3  C   UNL A   1      32.111  20.974  24.813  1.00  0.00     0.116 C 
BRANCH   3   4
ATOM      4  N   UNL A   1      32.097  21.664  26.088  1.00  0.00    -0.356 N 
ATOM      5  C   UNL A   1      31.899  22.951  26.461  1.00  0.00     0.225 C 
ATOM      6  O   UNL A   1      32.007  23.172  27.676  1.00  0.00    -0.275 OA
ATOM      7  H   UNL A   1      32.271  21.065  26.851  1.00  0.00     0.163 HD
BRANCH   5   8
ATOM      8  C   UNL A   1      31.579  24.128  25.536  1.00  0.00     0.102 C 
ATOM      9  N   UNL A   1      32.549  25.090  23.574  1.00  0.00    -0.321 N 
ATOM     10  C   UNL A   1      31.138  24.889  23.303  1.00  0.00     0.122 C 
ATOM     11  C   UNL A   1      32.740  25.020  25.026  1.00  0.00     0.096 C 
ATOM     12  C   UNL A   1      30.689  23.855  24.321  1.00  0.00     0.037 C 
ATOM     13  C   UNL A   1      34.142  24.631  25.467  1.00  0.00     0.032 C 
BRANCH   9  14
ATOM     14  C   UNL A   1      33.188  26.016  22.785  1.00  0.00     0.318 C 
ATOM     15  N   UNL A   1      33.275  27.297  23.249  1.00  0.00    -0.331 N 
ATOM     16  H   UNL A   1      33.995  27.827  22.838  1.00  0.00     0.165 HD
ATOM     17  O   UNL A   1      33.789  25.702  21.760  1.00  0.00    -0.249 OA
BRANCH  15  18
ATOM     18  C   UNL A   1      32.487  28.027  24.252  1.00  0.00     0.111 C 
ATOM     19  C   UNL A   1      33.360  28.862  25.177  1.00  0.00     0.036 C 
BRANCH  18  20
ATOM     20  C   UNL A   1      31.377  28.921  23.662  1.00  0.00    -0.026 A 
ATOM     21  C   UNL A   1      30.654  29.824  24.484  1.00  0.00     0.007 A 
ATOM     22  C   UNL A   1      30.985  28.844  22.317  1.00  0.00     0.007 A 
ATOM     23  C   UNL A   1      29.648  30.651  23.986  1.00  0.00     0.021 A 
ATOM     24  C   UNL A   1      29.974  29.680  21.813  1.00  0.00     0.021 A 
ATOM     25  C   UNL A   1      29.318  30.584  22.645  1.00  0.00     0.041 A 
ATOM     26  Cl  UNL A   1      28.090  31.609  22.022  1.00  0.00    -0.084 Cl
ENDBRANCH  18  20
ENDBRANCH  15  18
ENDBRANCH   9  14
ENDBRANCH   5   8
ENDBRANCH   3   4
ENDBRANCH   2   3
ENDBRANCH   1   2
BRANCH   1  27
ATOM     27  C   UNL A   1      35.926  21.510  24.623  1.00  0.00     0.002 C 
BRANCH  27  28
ATOM     28  C   UNL A   1      36.953  21.375  25.755  1.00  0.00     0.021 C 
BRANCH  28  29
ATOM     29  C   UNL A   1      38.419  21.388  25.321  1.00  0.00     0.116 C 
BRANCH  29  30
ATOM     30  N   UNL A   1      39.238  20.518  26.145  1.00  0.00    -0.352 N 
ATOM     31  C   UNL A   1      40.340  20.816  26.911  1.00  0.00     0.251 C 
ATOM     32  H   UNL A   1      38.963  19.574  26.158  1.00  0.00     0.163 HD
ATOM     33  O   UNL A   1      41.041  19.904  27.337  1.00  0.00    -0.269 OA
BRANCH  31  34
ATOM     34  C   UNL A   1      40.687  22.225  27.204  1.00  0.00     0.039 A 
ATOM     35  C   UNL A   1      41.550  22.501  28.267  1.00  0.00     0.014 A 
ATOM     36  C   UNL A   1      40.141  23.273  26.457  1.00  0.00     0.014 A 
ATOM     37  C   UNL A   1      41.911  23.823  28.544  1.00  0.00     0.010 A 
ATOM     38  C   UNL A   1      40.555  24.584  26.690  1.00  0.00     0.010 A 
ATOM     39  C   UNL A   1      41.442  24.873  27.737  1.00  0.00    -0.014 A 
BRANCH  39  40
ATOM     40  C   UNL A   1      41.866  26.278  27.981  1.00  0.00     0.031 A 
ATOM     41  C   UNL A   1      43.227  26.748  27.543  1.00  0.00     0.074 A 
ATOM     42  C   UNL A   1      41.045  27.118  28.644  1.00  0.00     0.049 A 
ATOM     43  N   UNL A   1      43.800  27.911  27.720  1.00  0.00    -0.248 NA
ATOM     44  C   UNL A   1      44.061  25.766  26.837  1.00  0.00     0.031 C 
ATOM     45  C   UNL A   1      39.712  26.775  29.143  1.00  0.00     0.029 A 
ATOM     46  N   UNL A   1      41.210  28.428  29.015  1.00  0.00    -0.354 N 
ATOM     47  C   UNL A   1      45.066  27.800  27.153  1.00  0.00     0.074 A 
ATOM     48  C   UNL A   1      45.197  26.433  26.696  1.00  0.00     0.031 C 
ATOM     49  C   UNL A   1      39.169  27.856  29.724  1.00  0.00     0.029 A 
ATOM     50  C   UNL A   1      40.131  28.953  29.687  1.00  0.00     0.049 A 
ATOM     51  H   UNL A   1      42.025  28.945  28.819  1.00  0.00     0.167 HD
ATOM     52  C   UNL A   1      46.020  28.755  27.004  1.00  0.00     0.034 A 
ATOM     53  C   UNL A   1      39.940  30.175  30.221  1.00  0.00     0.034 A 
ATOM     54  C   UNL A   1      45.874  30.113  27.474  1.00  0.00     0.049 A 
ATOM     55  C   UNL A   1      41.035  31.204  30.100  1.00  0.00     0.074 A 
ATOM     56  C   UNL A   1      46.757  31.171  27.344  1.00  0.00     0.029 A 
ATOM     57  N   UNL A   1      44.779  30.599  28.178  1.00  0.00    -0.354 N 
ATOM     58  N   UNL A   1      42.210  31.097  29.525  1.00  0.00    -0.248 NA
ATOM     59  C   UNL A   1      40.772  32.521  30.695  1.00  0.00     0.031 C 
ATOM     60  C   UNL A   1      46.231  32.271  28.032  1.00  0.00     0.029 A 
ATOM     61  C   UNL A   1      44.980  31.929  28.519  1.00  0.00     0.049 A 
ATOM     62  H   UNL A   1      43.975  30.076  28.403  1.00  0.00     0.167 HD
ATOM     63  C   UNL A   1      42.813  32.345  29.659  1.00  0.00     0.074 A 
ATOM     64  C   UNL A   1      41.866  33.189  30.360  1.00  0.00     0.031 C 
ATOM     65  C   UNL A   1      44.036  32.758  29.234  1.00  0.00     0.034 A 
BRANCH  52  66
ATOM     66  C   UNL A   1      47.310  28.341  26.332  1.00  0.00     0.023 A 
ATOM     67  C   UNL A   1      47.454  28.375  24.932  1.00  0.00     0.031 A 
ATOM     68  C   UNL A   1      48.392  27.858  27.087  1.00  0.00     0.131 A 
ATOM     69  C   UNL A   1      48.602  27.839  24.330  1.00  0.00     0.055 A 
ATOM     70  C   UNL A   1      49.573  27.415  26.487  1.00  0.00     0.041 A 
ATOM     71  F   UNL A   1      48.313  27.783  28.426  1.00  0.00    -0.206 F 
ATOM     72  C   UNL A   1      49.675  27.383  25.099  1.00  0.00     0.022 A 
BRANCH  69  73
ATOM     73  S   UNL A   1      48.593  27.575  22.536  1.00  0.00     0.124 S 
ATOM     74  O   UNL A   1      47.381  28.288  22.139  1.00  0.00    -0.237 OA
ATOM     75  O   UNL A   1      49.854  28.179  22.122  1.00  0.00    -0.237 OA
ATOM     76  O   UNL A   1      48.521  26.122  22.403  1.00  0.00    -0.744 OA
ENDBRANCH  69  73
ENDBRANCH  52  66
BRANCH  53  77
ATOM     77  C   UNL A   1      38.662  30.500  30.920  1.00  0.00     0.023 A 
ATOM     78  C   UNL A   1      37.642  31.206  30.264  1.00  0.00     0.031 A 
ATOM     79  C   UNL A   1      38.454  30.133  32.262  1.00  0.00     0.131 A 
ATOM     80  C   UNL A   1      36.475  31.558  30.960  1.00  0.00     0.055 A 
ATOM     81  C   UNL A   1      37.270  30.441  32.934  1.00  0.00     0.041 A 
ATOM     82  F   UNL A   1      39.395  29.452  32.934  1.00  0.00    -0.206 F 
ATOM     83  C   UNL A   1      36.277  31.167  32.286  1.00  0.00     0.022 A 
BRANCH  80  84
ATOM     84  S   UNL A   1      35.247  32.598  30.125  1.00  0.00     0.124 S 
ATOM     85  O   UNL A   1      36.014  33.813  29.867  1.00  0.00    -0.237 OA
ATOM     86  O   UNL A   1      34.910  31.792  28.957  1.00  0.00    -0.237 OA
ATOM     87  O   UNL A   1      34.183  32.731  31.118  1.00  0.00    -0.744 OA
ENDBRANCH  80  84
ENDBRANCH  53  77
BRANCH  65  88
ATOM     88  C   UNL A   1      44.395  34.205  29.479  1.00  0.00     0.023 A 
ATOM     89  C   UNL A   1      44.050  35.221  28.570  1.00  0.00     0.031 A 
ATOM     90  C   UNL A   1      45.105  34.569  30.637  1.00  0.00     0.131 A 
ATOM     91  C   UNL A   1      44.467  36.541  28.805  1.00  0.00     0.055 A 
ATOM     92  C   UNL A   1      45.461  35.893  30.898  1.00  0.00     0.041 A 
ATOM     93  F   UNL A   1      45.466  33.641  31.538  1.00  0.00    -0.206 F 
ATOM     94  C   UNL A   1      45.153  36.887  29.972  1.00  0.00     0.022 A 
BRANCH  91  95
ATOM     95  S   UNL A   1      44.187  37.786  27.517  1.00  0.00     0.124 S 
ATOM     96  O   UNL A   1      43.863  38.971  28.304  1.00  0.00    -0.237 OA
ATOM     97  O   UNL A   1      45.472  37.812  26.823  1.00  0.00    -0.237 OA
ATOM     98  O   UNL A   1      43.077  37.235  26.741  1.00  0.00    -0.744 OA
ENDBRANCH  91  95
ENDBRANCH  65  88
ENDBRANCH  39  40
ENDBRANCH  31  34
ENDBRANCH  29  30
ENDBRANCH  28  29
ENDBRANCH  27  28
ENDBRANCH   1  27
TORSDOF 19
ENDMDL
