MODEL 1
REMARK VINA RESULT:     -12.0      0.000      0.000
REMARK SMILES O=C(NCCCCCCNC(=O)[C@H]1CS[C@H](c2nc3ccccc3s2)[NH2+]1)c1ccc(-c2c3nc(c(-c4cc(S(=O)(=O)[O-])ccc4F)c4ccc([nH]4)c(-c4cc(S(=O)(=O)[O-])ccc4F)c4nc(c(-c5cc(S(=O)(=O)[O-])ccc5F)c5ccc2[nH]5)C=C4)C=C3)cc1
REMARK SMILES IDX 5 1 4 2 3 3 1 4 2 5 27 7 28 8 89 9 29 10 88 11 30 12 31 13
REMARK SMILES IDX 32 14 82 15 33 16 87 17 81 18 83 19 34 20 86 21 80 22 79 23
REMARK SMILES IDX 35 25 67 26 47 27 66 28 48 29 51 30 65 31 84 32 49 33 50 34
REMARK SMILES IDX 64 36 85 37 52 38 36 39 37 40 45 41 38 42 44 43 46 44 43 45
REMARK SMILES IDX 39 46 40 47 41 48 42 49 68 50 69 51 77 52 70 53 76 54 78 55
REMARK SMILES IDX 75 56 71 57 72 58 73 59 74 60 53 61 54 62 62 63 55 64 61 65
REMARK SMILES IDX 63 66 60 67 56 68 57 69 58 70 59 71 6 72 7 73 8 74 9 75
REMARK SMILES IDX 10 76 11 77 12 79 13 80 14 81 26 82 15 83 16 84 17 87 18 88
REMARK SMILES IDX 25 89 19 90 24 91 20 92 23 93 21 94 22 95
REMARK H PARENT 3 6 83 24 51 35 10 78 26 85 26 86
REMARK Flexibility Score: inf
ROOT
ATOM      1  C   UNL A   1      31.578  28.982  25.684  1.00  0.00     0.021 C 
ENDROOT
BRANCH   1   2
ATOM      2  C   UNL A   1      32.840  29.778  25.997  1.00  0.00     0.116 C 
BRANCH   2   3
ATOM      3  N   UNL A   1      32.552  31.161  26.344  1.00  0.00    -0.352 N 
ATOM      4  O   UNL A   1      32.724  33.078  27.522  1.00  0.00    -0.269 OA
ATOM      5  C   UNL A   1      33.208  31.988  27.223  1.00  0.00     0.251 C 
ATOM      6  H   UNL A   1      31.778  31.561  25.886  1.00  0.00     0.163 HD
BRANCH   5   7
ATOM      7  C   UNL A   1      34.489  31.553  27.825  1.00  0.00     0.039 A 
ATOM      8  C   UNL A   1      34.653  30.238  28.267  1.00  0.00     0.014 A 
ATOM      9  C   UNL A   1      35.532  32.473  27.955  1.00  0.00     0.014 A 
ATOM     10  C   UNL A   1      35.800  29.886  28.971  1.00  0.00     0.010 A 
ATOM     11  C   UNL A   1      36.719  32.092  28.591  1.00  0.00     0.010 A 
ATOM     12  C   UNL A   1      36.848  30.806  29.139  1.00  0.00    -0.014 A 
BRANCH  12  13
ATOM     13  C   UNL A   1      38.070  30.386  29.875  1.00  0.00     0.031 A 
ATOM     14  C   UNL A   1      38.307  30.820  31.297  1.00  0.00     0.074 A 
ATOM     15  C   UNL A   1      38.948  29.567  29.262  1.00  0.00     0.049 A 
ATOM     16  N   UNL A   1      39.292  30.510  32.102  1.00  0.00    -0.248 NA
ATOM     17  C   UNL A   1      37.315  31.729  31.888  1.00  0.00     0.031 C 
ATOM     18  C   UNL A   1      38.829  29.089  27.883  1.00  0.00     0.029 A 
ATOM     19  N   UNL A   1      40.094  28.969  29.721  1.00  0.00    -0.354 N 
ATOM     20  C   UNL A   1      39.052  31.201  33.286  1.00  0.00     0.074 A 
ATOM     21  C   UNL A   1      37.844  31.973  33.078  1.00  0.00     0.031 C 
ATOM     22  C   UNL A   1      39.825  28.230  27.626  1.00  0.00     0.029 A 
ATOM     23  C   UNL A   1      40.690  28.142  28.798  1.00  0.00     0.049 A 
ATOM     24  H   UNL A   1      40.455  29.118  30.625  1.00  0.00     0.167 HD
ATOM     25  C   UNL A   1      39.769  31.185  34.439  1.00  0.00     0.034 A 
ATOM     26  C   UNL A   1      41.811  27.400  28.880  1.00  0.00     0.034 A 
ATOM     27  C   UNL A   1      40.966  30.399  34.632  1.00  0.00     0.049 A 
ATOM     28  C   UNL A   1      42.590  27.407  30.166  1.00  0.00     0.074 A 
ATOM     29  C   UNL A   1      41.750  30.284  35.768  1.00  0.00     0.029 A 
ATOM     30  N   UNL A   1      41.558  29.596  33.664  1.00  0.00    -0.354 N 
ATOM     31  N   UNL A   1      42.338  28.051  31.282  1.00  0.00    -0.248 NA
ATOM     32  C   UNL A   1      43.802  26.579  30.205  1.00  0.00     0.031 C 
ATOM     33  C   UNL A   1      42.845  29.464  35.468  1.00  0.00     0.029 A 
ATOM     34  C   UNL A   1      42.707  29.006  34.168  1.00  0.00     0.049 A 
ATOM     35  H   UNL A   1      41.210  29.465  32.752  1.00  0.00     0.167 HD
ATOM     36  C   UNL A   1      43.350  27.686  32.165  1.00  0.00     0.074 A 
ATOM     37  C   UNL A   1      44.201  26.751  31.456  1.00  0.00     0.031 C 
ATOM     38  C   UNL A   1      43.556  28.086  33.445  1.00  0.00     0.034 A 
BRANCH  25  39
ATOM     39  C   UNL A   1      39.300  32.084  35.561  1.00  0.00     0.023 A 
ATOM     40  C   UNL A   1      39.696  33.431  35.652  1.00  0.00     0.031 A 
ATOM     41  C   UNL A   1      38.465  31.577  36.573  1.00  0.00     0.131 A 
ATOM     42  C   UNL A   1      39.318  34.199  36.764  1.00  0.00     0.055 A 
ATOM     43  C   UNL A   1      38.027  32.369  37.636  1.00  0.00     0.041 A 
ATOM     44  F   UNL A   1      38.069  30.294  36.553  1.00  0.00    -0.206 F 
ATOM     45  C   UNL A   1      38.467  33.685  37.745  1.00  0.00     0.022 A 
BRANCH  42  46
ATOM     46  S   UNL A   1      40.072  35.835  36.985  1.00  0.00     0.124 S 
ATOM     47  O   UNL A   1      41.482  35.491  37.157  1.00  0.00    -0.237 OA
ATOM     48  O   UNL A   1      39.728  36.512  35.740  1.00  0.00    -0.237 OA
ATOM     49  O   UNL A   1      39.416  36.357  38.182  1.00  0.00    -0.744 OA
ENDBRANCH  42  46
ENDBRANCH  25  39
BRANCH  26  50
ATOM     50  C   UNL A   1      42.268  26.601  27.709  1.00  0.00     0.023 A 
ATOM     51  C   UNL A   1      41.896  25.256  27.560  1.00  0.00     0.031 A 
ATOM     52  C   UNL A   1      43.106  27.167  26.731  1.00  0.00     0.131 A 
ATOM     53  C   UNL A   1      42.391  24.510  26.479  1.00  0.00     0.055 A 
ATOM     54  C   UNL A   1      43.554  26.436  25.632  1.00  0.00     0.041 A 
ATOM     55  F   UNL A   1      43.485  28.452  26.825  1.00  0.00    -0.206 F 
ATOM     56  C   UNL A   1      43.207  25.094  25.507  1.00  0.00     0.022 A 
BRANCH  53  57
ATOM     57  S   UNL A   1      42.012  22.738  26.401  1.00  0.00     0.124 S 
ATOM     58  O   UNL A   1      40.554  22.743  26.445  1.00  0.00    -0.237 OA
ATOM     59  O   UNL A   1      42.615  22.356  25.128  1.00  0.00    -0.237 OA
ATOM     60  O   UNL A   1      42.671  22.196  27.588  1.00  0.00    -0.744 OA
ENDBRANCH  53  57
ENDBRANCH  26  50
BRANCH  38  61
ATOM     61  C   UNL A   1      44.729  27.469  34.167  1.00  0.00     0.023 A 
ATOM     62  C   UNL A   1      44.599  26.279  34.906  1.00  0.00     0.031 A 
ATOM     63  C   UNL A   1      45.983  28.104  34.147  1.00  0.00     0.131 A 
ATOM     64  C   UNL A   1      45.686  25.798  35.649  1.00  0.00     0.055 A 
ATOM     65  C   UNL A   1      47.078  27.587  34.840  1.00  0.00     0.041 A 
ATOM     66  F   UNL A   1      46.161  29.243  33.460  1.00  0.00    -0.206 F 
ATOM     67  C   UNL A   1      46.929  26.436  35.610  1.00  0.00     0.022 A 
BRANCH  64  68
ATOM     68  S   UNL A   1      45.427  24.385  36.757  1.00  0.00     0.124 S 
ATOM     69  O   UNL A   1      46.771  24.151  37.272  1.00  0.00    -0.237 OA
ATOM     70  O   UNL A   1      44.460  24.914  37.714  1.00  0.00    -0.237 OA
ATOM     71  O   UNL A   1      44.913  23.343  35.870  1.00  0.00    -0.744 OA
ENDBRANCH  64  68
ENDBRANCH  38  61
ENDBRANCH  12  13
ENDBRANCH   5   7
ENDBRANCH   2   3
ENDBRANCH   1   2
BRANCH   1  72
ATOM     72  C   UNL A   1      31.122  29.043  24.225  1.00  0.00     0.002 C 
BRANCH  72  73
ATOM     73  C   UNL A   1      30.205  27.900  23.772  1.00  0.00     0.002 C 
BRANCH  73  74
ATOM     74  C   UNL A   1      30.919  26.670  23.198  1.00  0.00     0.021 C 
BRANCH  74  75
ATOM     75  C   UNL A   1      30.258  25.340  23.551  1.00  0.00     0.116 C 
BRANCH  75  76
ATOM     76  N   UNL A   1      30.017  25.220  24.978  1.00  0.00    -0.351 N 
ATOM     77  C   UNL A   1      30.436  24.301  25.893  1.00  0.00     0.279 C 
ATOM     78  H   UNL A   1      29.446  25.930  25.351  1.00  0.00     0.163 HD
ATOM     79  O   UNL A   1      29.976  24.392  27.036  1.00  0.00    -0.268 OA
BRANCH  77  80
ATOM     80  C   UNL A   1      31.436  23.183  25.538  1.00  0.00     0.284 C 
ATOM     81  C   UNL A   1      32.717  23.726  24.913  1.00  0.00     0.151 C 
ATOM     82  N   UNL A   1      31.664  22.280  26.698  1.00  0.00    -0.319 N 
ATOM     83  S   UNL A   1      34.065  23.097  25.924  1.00  0.00    -0.085 SA
ATOM     84  C   UNL A   1      33.047  21.775  26.651  1.00  0.00     0.303 C 
ATOM     85  H   UNL A   1      31.013  21.497  26.656  1.00  0.00     0.348 HD
ATOM     86  H   UNL A   1      31.516  22.794  27.568  1.00  0.00     0.348 HD
BRANCH  84  87
ATOM     87  C   UNL A   1      33.270  20.474  25.897  1.00  0.00     0.163 A 
ATOM     88  N   UNL A   1      32.494  19.419  26.055  1.00  0.00    -0.234 NA
ATOM     89  S   UNL A   1      34.563  20.247  24.780  1.00  0.00    -0.112 S 
ATOM     90  C   UNL A   1      32.987  18.340  25.355  1.00  0.00     0.082 A 
ATOM     91  C   UNL A   1      34.129  18.594  24.596  1.00  0.00     0.055 A 
ATOM     92  C   UNL A   1      32.449  17.039  25.364  1.00  0.00     0.030 A 
ATOM     93  C   UNL A   1      34.754  17.588  23.842  1.00  0.00     0.021 A 
ATOM     94  C   UNL A   1      33.072  16.026  24.631  1.00  0.00     0.002 A 
ATOM     95  C   UNL A   1      34.211  16.300  23.880  1.00  0.00     0.002 A 
ENDBRANCH  84  87
ENDBRANCH  77  80
ENDBRANCH  75  76
ENDBRANCH  74  75
ENDBRANCH  73  74
ENDBRANCH  72  73
ENDBRANCH   1  72
TORSDOF 17
ENDMDL
MODEL 2
REMARK VINA RESULT:     -11.9      2.862      8.147
REMARK SMILES O=C(NCCCCCCNC(=O)[C@H]1CS[C@H](c2nc3ccccc3s2)[NH2+]1)c1ccc(-c2c3nc(c(-c4cc(S(=O)(=O)[O-])ccc4F)c4ccc([nH]4)c(-c4cc(S(=O)(=O)[O-])ccc4F)c4nc(c(-c5cc(S(=O)(=O)[O-])ccc5F)c5ccc2[nH]5)C=C4)C=C3)cc1
REMARK SMILES IDX 5 1 4 2 3 3 1 4 2 5 27 7 28 8 89 9 29 10 88 11 30 12 31 13
REMARK SMILES IDX 32 14 82 15 33 16 87 17 81 18 83 19 34 20 86 21 80 22 79 23
REMARK SMILES IDX 35 25 67 26 47 27 66 28 48 29 51 30 65 31 84 32 49 33 50 34
REMARK SMILES IDX 64 36 85 37 52 38 36 39 37 40 45 41 38 42 44 43 46 44 43 45
REMARK SMILES IDX 39 46 40 47 41 48 42 49 68 50 69 51 77 52 70 53 76 54 78 55
REMARK SMILES IDX 75 56 71 57 72 58 73 59 74 60 53 61 54 62 62 63 55 64 61 65
REMARK SMILES IDX 63 66 60 67 56 68 57 69 58 70 59 71 6 72 7 73 8 74 9 75
REMARK SMILES IDX 10 76 11 77 12 79 13 80 14 81 26 82 15 83 16 84 17 87 18 88
REMARK SMILES IDX 25 89 19 90 24 91 20 92 23 93 21 94 22 95
REMARK H PARENT 3 6 83 24 51 35 10 78 26 85 26 86
REMARK Flexibility Score: inf
ROOT
ATOM      1  C   UNL A   1      31.500  32.155  26.797  1.00  0.00     0.021 C 
ENDROOT
BRANCH   1   2
ATOM      2  C   UNL A   1      32.760  32.831  27.326  1.00  0.00     0.116 C 
BRANCH   2   3
ATOM      3  N   UNL A   1      32.539  34.229  27.665  1.00  0.00    -0.352 N 
ATOM      4  O   UNL A   1      32.673  36.101  28.916  1.00  0.00    -0.269 OA
ATOM      5  C   UNL A   1      33.104  34.977  28.669  1.00  0.00     0.251 C 
ATOM      6  H   UNL A   1      31.893  34.706  27.095  1.00  0.00     0.163 HD
BRANCH   5   7
ATOM      7  C   UNL A   1      34.219  34.415  29.464  1.00  0.00     0.039 A 
ATOM      8  C   UNL A   1      35.536  34.523  29.012  1.00  0.00     0.014 A 
ATOM      9  C   UNL A   1      33.941  33.768  30.671  1.00  0.00     0.014 A 
ATOM     10  C   UNL A   1      36.553  33.856  29.688  1.00  0.00     0.010 A 
ATOM     11  C   UNL A   1      34.979  33.169  31.393  1.00  0.00     0.010 A 
ATOM     12  C   UNL A   1      36.288  33.173  30.887  1.00  0.00    -0.014 A 
BRANCH  12  13
ATOM     13  C   UNL A   1      37.406  32.493  31.595  1.00  0.00     0.031 A 
ATOM     14  C   UNL A   1      38.180  31.384  30.936  1.00  0.00     0.074 A 
ATOM     15  C   UNL A   1      37.748  32.918  32.828  1.00  0.00     0.049 A 
ATOM     16  N   UNL A   1      39.211  30.714  31.388  1.00  0.00    -0.248 NA
ATOM     17  C   UNL A   1      37.733  30.964  29.601  1.00  0.00     0.031 C 
ATOM     18  C   UNL A   1      37.063  33.979  33.571  1.00  0.00     0.029 A 
ATOM     19  N   UNL A   1      38.767  32.536  33.662  1.00  0.00    -0.354 N 
ATOM     20  C   UNL A   1      39.522  29.779  30.406  1.00  0.00     0.074 A 
ATOM     21  C   UNL A   1      38.547  29.949  29.348  1.00  0.00     0.031 C 
ATOM     22  C   UNL A   1      37.713  34.201  34.722  1.00  0.00     0.029 A 
ATOM     23  C   UNL A   1      38.822  33.260  34.830  1.00  0.00     0.049 A 
ATOM     24  H   UNL A   1      39.399  31.812  33.445  1.00  0.00     0.167 HD
ATOM     25  C   UNL A   1      40.531  28.871  30.386  1.00  0.00     0.034 A 
ATOM     26  C   UNL A   1      39.665  33.173  35.877  1.00  0.00     0.034 A 
ATOM     27  C   UNL A   1      41.502  28.724  31.446  1.00  0.00     0.049 A 
ATOM     28  C   UNL A   1      40.770  32.154  35.833  1.00  0.00     0.074 A 
ATOM     29  C   UNL A   1      42.583  27.860  31.515  1.00  0.00     0.029 A 
ATOM     30  N   UNL A   1      41.509  29.454  32.629  1.00  0.00    -0.354 N 
ATOM     31  N   UNL A   1      41.062  31.291  34.887  1.00  0.00    -0.248 NA
ATOM     32  C   UNL A   1      41.664  32.102  36.996  1.00  0.00     0.031 C 
ATOM     33  C   UNL A   1      43.203  28.025  32.759  1.00  0.00     0.029 A 
ATOM     34  C   UNL A   1      42.556  29.043  33.441  1.00  0.00     0.049 A 
ATOM     35  H   UNL A   1      40.863  30.162  32.857  1.00  0.00     0.167 HD
ATOM     36  C   UNL A   1      42.190  30.610  35.333  1.00  0.00     0.074 A 
ATOM     37  C   UNL A   1      42.534  31.177  36.621  1.00  0.00     0.031 C 
ATOM     38  C   UNL A   1      42.880  29.607  34.731  1.00  0.00     0.034 A 
BRANCH  25  39
ATOM     39  C   UNL A   1      40.603  27.936  29.201  1.00  0.00     0.023 A 
ATOM     40  C   UNL A   1      41.531  28.121  28.160  1.00  0.00     0.031 A 
ATOM     41  C   UNL A   1      39.708  26.856  29.096  1.00  0.00     0.131 A 
ATOM     42  C   UNL A   1      41.495  27.288  27.031  1.00  0.00     0.055 A 
ATOM     43  C   UNL A   1      39.729  25.981  28.007  1.00  0.00     0.041 A 
ATOM     44  F   UNL A   1      38.786  26.638  30.047  1.00  0.00    -0.206 F 
ATOM     45  C   UNL A   1      40.616  26.205  26.958  1.00  0.00     0.022 A 
BRANCH  42  46
ATOM     46  S   UNL A   1      42.514  27.727  25.595  1.00  0.00     0.124 S 
ATOM     47  O   UNL A   1      42.445  26.504  24.797  1.00  0.00    -0.237 OA
ATOM     48  O   UNL A   1      41.813  28.884  25.052  1.00  0.00    -0.237 OA
ATOM     49  O   UNL A   1      43.825  28.007  26.177  1.00  0.00    -0.744 OA
ENDBRANCH  42  46
ENDBRANCH  25  39
BRANCH  26  50
ATOM     50  C   UNL A   1      39.491  34.067  37.056  1.00  0.00     0.023 A 
ATOM     51  C   UNL A   1      38.933  33.590  38.251  1.00  0.00     0.031 A 
ATOM     52  C   UNL A   1      39.860  35.423  36.994  1.00  0.00     0.131 A 
ATOM     53  C   UNL A   1      38.725  34.469  39.325  1.00  0.00     0.055 A 
ATOM     54  C   UNL A   1      39.697  36.282  38.080  1.00  0.00     0.041 A 
ATOM     55  F   UNL A   1      40.403  35.928  35.874  1.00  0.00    -0.206 F 
ATOM     56  C   UNL A   1      39.114  35.809  39.252  1.00  0.00     0.022 A 
BRANCH  53  57
ATOM     57  S   UNL A   1      37.865  33.853  40.797  1.00  0.00     0.124 S 
ATOM     58  O   UNL A   1      36.742  33.133  40.208  1.00  0.00    -0.237 OA
ATOM     59  O   UNL A   1      38.894  33.033  41.428  1.00  0.00    -0.237 OA
ATOM     60  O   UNL A   1      37.512  35.073  41.521  1.00  0.00    -0.744 OA
ENDBRANCH  53  57
ENDBRANCH  26  50
BRANCH  38  61
ATOM     61  C   UNL A   1      44.104  29.100  35.453  1.00  0.00     0.023 A 
ATOM     62  C   UNL A   1      44.008  28.196  36.527  1.00  0.00     0.031 A 
ATOM     63  C   UNL A   1      45.380  29.561  35.087  1.00  0.00     0.131 A 
ATOM     64  C   UNL A   1      45.160  27.835  37.239  1.00  0.00     0.055 A 
ATOM     65  C   UNL A   1      46.530  29.150  35.762  1.00  0.00     0.041 A 
ATOM     66  F   UNL A   1      45.529  30.427  34.072  1.00  0.00    -0.206 F 
ATOM     67  C   UNL A   1      46.423  28.294  36.855  1.00  0.00     0.022 A 
BRANCH  64  68
ATOM     68  S   UNL A   1      44.976  26.840  38.745  1.00  0.00     0.124 S 
ATOM     69  O   UNL A   1      43.605  26.357  38.626  1.00  0.00    -0.237 OA
ATOM     70  O   UNL A   1      46.023  25.835  38.584  1.00  0.00    -0.237 OA
ATOM     71  O   UNL A   1      45.203  27.802  39.822  1.00  0.00    -0.744 OA
ENDBRANCH  64  68
ENDBRANCH  38  61
ENDBRANCH  12  13
ENDBRANCH   5   7
ENDBRANCH   2   3
ENDBRANCH   1   2
BRANCH   1  72
ATOM     72  C   UNL A   1      31.713  30.752  26.225  1.00  0.00     0.002 C 
BRANCH  72  73
ATOM     73  C   UNL A   1      32.954  30.012  26.738  1.00  0.00     0.002 C 
BRANCH  73  74
ATOM     74  C   UNL A   1      32.947  28.492  26.534  1.00  0.00     0.021 C 
BRANCH  74  75
ATOM     75  C   UNL A   1      32.023  27.736  27.485  1.00  0.00     0.116 C 
BRANCH  75  76
ATOM     76  N   UNL A   1      30.890  27.155  26.788  1.00  0.00    -0.351 N 
ATOM     77  C   UNL A   1      30.758  25.995  26.083  1.00  0.00     0.279 C 
ATOM     78  H   UNL A   1      30.069  27.697  26.832  1.00  0.00     0.163 HD
ATOM     79  O   UNL A   1      29.686  25.811  25.497  1.00  0.00    -0.268 OA
BRANCH  77  80
ATOM     80  C   UNL A   1      31.886  24.949  26.001  1.00  0.00     0.284 C 
ATOM     81  C   UNL A   1      31.532  23.655  26.727  1.00  0.00     0.151 C 
ATOM     82  N   UNL A   1      32.332  24.752  24.596  1.00  0.00    -0.319 N 
ATOM     83  S   UNL A   1      31.723  22.340  25.514  1.00  0.00    -0.085 SA
ATOM     84  C   UNL A   1      32.764  23.355  24.419  1.00  0.00     0.303 C 
ATOM     85  H   UNL A   1      33.111  25.378  24.393  1.00  0.00     0.348 HD
ATOM     86  H   UNL A   1      31.562  24.957  23.959  1.00  0.00     0.348 HD
BRANCH  84  87
ATOM     87  C   UNL A   1      34.233  23.059  24.677  1.00  0.00     0.163 A 
ATOM     88  N   UNL A   1      34.757  21.861  24.501  1.00  0.00    -0.234 NA
ATOM     89  S   UNL A   1      35.346  24.250  25.236  1.00  0.00    -0.112 S 
ATOM     90  C   UNL A   1      36.068  21.835  24.924  1.00  0.00     0.082 A 
ATOM     91  C   UNL A   1      36.573  23.054  25.372  1.00  0.00     0.055 A 
ATOM     92  C   UNL A   1      36.900  20.699  24.951  1.00  0.00     0.030 A 
ATOM     93  C   UNL A   1      37.889  23.179  25.848  1.00  0.00     0.021 A 
ATOM     94  C   UNL A   1      38.205  20.808  25.437  1.00  0.00     0.002 A 
ATOM     95  C   UNL A   1      38.691  22.034  25.880  1.00  0.00     0.002 A 
ENDBRANCH  84  87
ENDBRANCH  77  80
ENDBRANCH  75  76
ENDBRANCH  74  75
ENDBRANCH  73  74
ENDBRANCH  72  73
ENDBRANCH   1  72
TORSDOF 17
ENDMDL
MODEL 3
REMARK VINA RESULT:     -11.9      4.666      8.130
REMARK SMILES O=C(NCCCCCCNC(=O)[C@H]1CS[C@H](c2nc3ccccc3s2)[NH2+]1)c1ccc(-c2c3nc(c(-c4cc(S(=O)(=O)[O-])ccc4F)c4ccc([nH]4)c(-c4cc(S(=O)(=O)[O-])ccc4F)c4nc(c(-c5cc(S(=O)(=O)[O-])ccc5F)c5ccc2[nH]5)C=C4)C=C3)cc1
REMARK SMILES IDX 5 1 4 2 3 3 1 4 2 5 27 7 28 8 89 9 29 10 88 11 30 12 31 13
REMARK SMILES IDX 32 14 82 15 33 16 87 17 81 18 83 19 34 20 86 21 80 22 79 23
REMARK SMILES IDX 35 25 67 26 47 27 66 28 48 29 51 30 65 31 84 32 49 33 50 34
REMARK SMILES IDX 64 36 85 37 52 38 36 39 37 40 45 41 38 42 44 43 46 44 43 45
REMARK SMILES IDX 39 46 40 47 41 48 42 49 68 50 69 51 77 52 70 53 76 54 78 55
REMARK SMILES IDX 75 56 71 57 72 58 73 59 74 60 53 61 54 62 62 63 55 64 61 65
REMARK SMILES IDX 63 66 60 67 56 68 57 69 58 70 59 71 6 72 7 73 8 74 9 75
REMARK SMILES IDX 10 76 11 77 12 79 13 80 14 81 26 82 15 83 16 84 17 87 18 88
REMARK SMILES IDX 25 89 19 90 24 91 20 92 23 93 21 94 22 95
REMARK H PARENT 3 6 83 24 51 35 10 78 26 85 26 86
REMARK Flexibility Score: inf
ROOT
ATOM      1  C   UNL A   1      35.231  34.098  28.072  1.00  0.00     0.021 C 
ENDROOT
BRANCH   1   2
ATOM      2  C   UNL A   1      34.661  32.884  28.795  1.00  0.00     0.116 C 
BRANCH   2   3
ATOM      3  N   UNL A   1      33.961  31.980  27.895  1.00  0.00    -0.352 N 
ATOM      4  O   UNL A   1      33.720  30.221  26.504  1.00  0.00    -0.269 OA
ATOM      5  C   UNL A   1      34.371  30.771  27.389  1.00  0.00     0.251 C 
ATOM      6  H   UNL A   1      33.067  32.277  27.607  1.00  0.00     0.163 HD
BRANCH   5   7
ATOM      7  C   UNL A   1      35.612  30.145  27.898  1.00  0.00     0.039 A 
ATOM      8  C   UNL A   1      35.599  29.409  29.085  1.00  0.00     0.014 A 
ATOM      9  C   UNL A   1      36.803  30.304  27.183  1.00  0.00     0.014 A 
ATOM     10  C   UNL A   1      36.797  28.961  29.632  1.00  0.00     0.010 A 
ATOM     11  C   UNL A   1      37.995  29.780  27.696  1.00  0.00     0.010 A 
ATOM     12  C   UNL A   1      38.009  29.138  28.943  1.00  0.00    -0.014 A 
BRANCH  12  13
ATOM     13  C   UNL A   1      39.267  28.624  29.548  1.00  0.00     0.031 A 
ATOM     14  C   UNL A   1      39.762  29.145  30.870  1.00  0.00     0.074 A 
ATOM     15  C   UNL A   1      39.940  27.644  28.912  1.00  0.00     0.049 A 
ATOM     16  N   UNL A   1      40.811  28.778  31.563  1.00  0.00    -0.248 NA
ATOM     17  C   UNL A   1      38.985  30.228  31.490  1.00  0.00     0.031 C 
ATOM     18  C   UNL A   1      39.560  27.067  27.620  1.00  0.00     0.029 A 
ATOM     19  N   UNL A   1      41.060  26.940  29.271  1.00  0.00    -0.354 N 
ATOM     20  C   UNL A   1      40.835  29.596  32.687  1.00  0.00     0.074 A 
ATOM     21  C   UNL A   1      39.710  30.502  32.564  1.00  0.00     0.031 C 
ATOM     22  C   UNL A   1      40.397  26.062  27.323  1.00  0.00     0.029 A 
ATOM     23  C   UNL A   1      41.409  25.962  28.369  1.00  0.00     0.049 A 
ATOM     24  H   UNL A   1      41.567  27.118  30.097  1.00  0.00     0.167 HD
ATOM     25  C   UNL A   1      41.707  29.586  33.728  1.00  0.00     0.034 A 
ATOM     26  C   UNL A   1      42.432  25.087  28.376  1.00  0.00     0.034 A 
ATOM     27  C   UNL A   1      42.816  28.667  33.839  1.00  0.00     0.049 A 
ATOM     28  C   UNL A   1      43.388  25.102  29.537  1.00  0.00     0.074 A 
ATOM     29  C   UNL A   1      43.740  28.548  34.863  1.00  0.00     0.029 A 
ATOM     30  N   UNL A   1      43.157  27.709  32.891  1.00  0.00    -0.354 N 
ATOM     31  N   UNL A   1      43.384  25.870  30.602  1.00  0.00    -0.248 NA
ATOM     32  C   UNL A   1      44.484  24.126  29.499  1.00  0.00     0.031 C 
ATOM     33  C   UNL A   1      44.672  27.565  34.507  1.00  0.00     0.029 A 
ATOM     34  C   UNL A   1      44.289  27.016  33.293  1.00  0.00     0.049 A 
ATOM     35  H   UNL A   1      42.664  27.547  32.053  1.00  0.00     0.167 HD
ATOM     36  C   UNL A   1      44.464  25.452  31.373  1.00  0.00     0.074 A 
ATOM     37  C   UNL A   1      45.081  24.352  30.659  1.00  0.00     0.031 C 
ATOM     38  C   UNL A   1      44.904  25.931  32.564  1.00  0.00     0.034 A 
BRANCH  25  39
ATOM     39  C   UNL A   1      41.521  30.634  34.801  1.00  0.00     0.023 A 
ATOM     40  C   UNL A   1      40.333  30.735  35.548  1.00  0.00     0.031 A 
ATOM     41  C   UNL A   1      42.541  31.567  35.064  1.00  0.00     0.131 A 
ATOM     42  C   UNL A   1      40.168  31.785  36.464  1.00  0.00     0.055 A 
ATOM     43  C   UNL A   1      42.400  32.563  36.033  1.00  0.00     0.041 A 
ATOM     44  F   UNL A   1      43.691  31.536  34.371  1.00  0.00    -0.206 F 
ATOM     45  C   UNL A   1      41.202  32.686  36.729  1.00  0.00     0.022 A 
BRANCH  42  46
ATOM     46  S   UNL A   1      38.528  32.045  37.198  1.00  0.00     0.124 S 
ATOM     47  O   UNL A   1      38.873  32.443  38.562  1.00  0.00    -0.237 OA
ATOM     48  O   UNL A   1      37.966  33.091  36.352  1.00  0.00    -0.237 OA
ATOM     49  O   UNL A   1      37.888  30.737  37.083  1.00  0.00    -0.744 OA
ENDBRANCH  42  46
ENDBRANCH  25  39
BRANCH  26  50
ATOM     50  C   UNL A   1      42.611  24.133  27.246  1.00  0.00     0.023 A 
ATOM     51  C   UNL A   1      42.024  22.859  27.273  1.00  0.00     0.031 A 
ATOM     52  C   UNL A   1      43.393  24.477  26.129  1.00  0.00     0.131 A 
ATOM     53  C   UNL A   1      42.260  21.959  26.223  1.00  0.00     0.055 A 
ATOM     54  C   UNL A   1      43.583  23.598  25.064  1.00  0.00     0.041 A 
ATOM     55  F   UNL A   1      43.971  25.687  26.052  1.00  0.00    -0.206 F 
ATOM     56  C   UNL A   1      43.025  22.324  25.112  1.00  0.00     0.022 A 
BRANCH  53  57
ATOM     57  S   UNL A   1      41.612  20.272  26.362  1.00  0.00     0.124 S 
ATOM     58  O   UNL A   1      42.342  19.583  25.304  1.00  0.00    -0.237 OA
ATOM     59  O   UNL A   1      41.978  19.919  27.730  1.00  0.00    -0.237 OA
ATOM     60  O   UNL A   1      40.179  20.437  26.125  1.00  0.00    -0.744 OA
ENDBRANCH  53  57
ENDBRANCH  26  50
BRANCH  38  61
ATOM     61  C   UNL A   1      46.088  25.228  33.181  1.00  0.00     0.023 A 
ATOM     62  C   UNL A   1      45.931  24.091  33.994  1.00  0.00     0.031 A 
ATOM     63  C   UNL A   1      47.387  25.729  32.985  1.00  0.00     0.131 A 
ATOM     64  C   UNL A   1      47.046  23.532  34.635  1.00  0.00     0.055 A 
ATOM     65  C   UNL A   1      48.500  25.131  33.577  1.00  0.00     0.041 A 
ATOM     66  F   UNL A   1      47.593  26.813  32.222  1.00  0.00    -0.206 F 
ATOM     67  C   UNL A   1      48.332  24.036  34.421  1.00  0.00     0.022 A 
BRANCH  64  68
ATOM     68  S   UNL A   1      46.782  22.203  35.841  1.00  0.00     0.124 S 
ATOM     69  O   UNL A   1      46.524  21.055  34.977  1.00  0.00    -0.237 OA
ATOM     70  O   UNL A   1      48.049  22.184  36.565  1.00  0.00    -0.237 OA
ATOM     71  O   UNL A   1      45.632  22.665  36.616  1.00  0.00    -0.744 OA
ENDBRANCH  64  68
ENDBRANCH  38  61
ENDBRANCH  12  13
ENDBRANCH   5   7
ENDBRANCH   2   3
ENDBRANCH   1   2
BRANCH   1  72
ATOM     72  C   UNL A   1      34.408  35.380  28.216  1.00  0.00     0.002 C 
BRANCH  72  73
ATOM     73  C   UNL A   1      33.036  35.211  28.879  1.00  0.00     0.002 C 
BRANCH  73  74
ATOM     74  C   UNL A   1      32.702  36.235  29.971  1.00  0.00     0.021 C 
BRANCH  74  75
ATOM     75  C   UNL A   1      32.499  35.629  31.358  1.00  0.00     0.116 C 
BRANCH  75  76
ATOM     76  N   UNL A   1      32.789  36.585  32.411  1.00  0.00    -0.351 N 
ATOM     77  C   UNL A   1      33.852  36.708  33.255  1.00  0.00     0.279 C 
ATOM     78  H   UNL A   1      32.090  37.266  32.540  1.00  0.00     0.163 HD
ATOM     79  O   UNL A   1      33.774  37.567  34.140  1.00  0.00    -0.268 OA
BRANCH  77  80
ATOM     80  C   UNL A   1      35.106  35.820  33.135  1.00  0.00     0.284 C 
ATOM     81  C   UNL A   1      35.152  34.733  34.203  1.00  0.00     0.151 C 
ATOM     82  N   UNL A   1      35.271  35.312  31.747  1.00  0.00    -0.319 N 
ATOM     83  S   UNL A   1      35.314  33.176  33.317  1.00  0.00    -0.085 SA
ATOM     84  C   UNL A   1      35.899  33.981  31.793  1.00  0.00     0.303 C 
ATOM     85  H   UNL A   1      35.864  35.950  31.217  1.00  0.00     0.348 HD
ATOM     86  H   UNL A   1      34.359  35.247  31.294  1.00  0.00     0.348 HD
BRANCH  84  87
ATOM     87  C   UNL A   1      37.417  33.941  31.735  1.00  0.00     0.163 A 
ATOM     88  N   UNL A   1      38.172  34.062  32.810  1.00  0.00    -0.234 NA
ATOM     89  S   UNL A   1      38.296  33.751  30.264  1.00  0.00    -0.112 S 
ATOM     90  C   UNL A   1      39.506  34.118  32.467  1.00  0.00     0.082 A 
ATOM     91  C   UNL A   1      39.777  33.973  31.107  1.00  0.00     0.055 A 
ATOM     92  C   UNL A   1      40.576  34.322  33.359  1.00  0.00     0.030 A 
ATOM     93  C   UNL A   1      41.087  34.025  30.605  1.00  0.00     0.021 A 
ATOM     94  C   UNL A   1      41.882  34.391  32.870  1.00  0.00     0.002 A 
ATOM     95  C   UNL A   1      42.133  34.244  31.509  1.00  0.00     0.002 A 
ENDBRANCH  84  87
ENDBRANCH  77  80
ENDBRANCH  75  76
ENDBRANCH  74  75
ENDBRANCH  73  74
ENDBRANCH  72  73
ENDBRANCH   1  72
TORSDOF 17
ENDMDL
