MODEL 1
REMARK VINA RESULT:     -12.2      0.000      0.000
REMARK SMILES O=C(NCCCCCCNC(=O)[C@H]1CC(c2ccc(C(F)(F)F)cc2)=NO1)c1ccc(-c2c3nc(c(-c4cc(S(=O)(=O)[O-])ccc4F)c4ccc([nH]4)c(-c4cc(S(=O)(=O)[O-])ccc4F)c4nc(c(-c5cc(S(=O)(=O)[O-])ccc5F)c5ccc2[nH]5)C=C4)C=C3)cc1
REMARK SMILES IDX 6 1 5 2 4 3 3 4 1 5 2 6 28 8 29 9 90 10 30 11 89 12 31 13
REMARK SMILES IDX 32 14 33 15 83 16 34 17 88 18 82 19 84 20 35 21 87 22 81 23
REMARK SMILES IDX 80 24 36 26 68 27 48 28 67 29 49 30 52 31 66 32 85 33 50 34
REMARK SMILES IDX 51 35 65 37 86 38 53 39 37 40 38 41 46 42 39 43 45 44 47 45
REMARK SMILES IDX 44 46 40 47 41 48 42 49 43 50 69 51 70 52 78 53 71 54 77 55
REMARK SMILES IDX 79 56 76 57 72 58 73 59 74 60 75 61 54 62 55 63 63 64 56 65
REMARK SMILES IDX 62 66 64 67 61 68 57 69 58 70 59 71 60 72 7 73 8 74 9 75
REMARK SMILES IDX 10 76 11 77 12 79 13 80 14 81 27 82 15 83 26 84 16 85 17 86
REMARK SMILES IDX 25 87 18 88 24 89 19 90 20 91 21 92 22 93 23 94
REMARK H PARENT 3 7 84 25 52 36 10 78
REMARK Flexibility Score: inf
ROOT
ATOM      1  C   UNL A   1      31.809  30.204  26.409  1.00  0.00     0.002 C 
ENDROOT
BRANCH   1   2
ATOM      2  C   UNL A   1      31.693  31.721  26.550  1.00  0.00     0.021 C 
BRANCH   2   3
ATOM      3  C   UNL A   1      32.879  32.386  27.236  1.00  0.00     0.116 C 
BRANCH   3   4
ATOM      4  N   UNL A   1      32.590  33.759  27.619  1.00  0.00    -0.352 N 
ATOM      5  O   UNL A   1      32.680  35.585  28.939  1.00  0.00    -0.269 OA
ATOM      6  C   UNL A   1      33.165  34.503  28.619  1.00  0.00     0.251 C 
ATOM      7  H   UNL A   1      31.893  34.212  27.094  1.00  0.00     0.163 HD
BRANCH   6   8
ATOM      8  C   UNL A   1      34.366  33.987  29.310  1.00  0.00     0.039 A 
ATOM      9  C   UNL A   1      34.236  33.112  30.393  1.00  0.00     0.014 A 
ATOM     10  C   UNL A   1      35.633  34.366  28.858  1.00  0.00     0.014 A 
ATOM     11  C   UNL A   1      35.366  32.692  31.084  1.00  0.00     0.010 A 
ATOM     12  C   UNL A   1      36.772  33.879  29.506  1.00  0.00     0.010 A 
ATOM     13  C   UNL A   1      36.645  33.041  30.625  1.00  0.00    -0.014 A 
BRANCH  13  14
ATOM     14  C   UNL A   1      37.838  32.408  31.243  1.00  0.00     0.031 A 
ATOM     15  C   UNL A   1      38.555  31.272  30.573  1.00  0.00     0.074 A 
ATOM     16  C   UNL A   1      38.248  32.872  32.441  1.00  0.00     0.049 A 
ATOM     17  N   UNL A   1      39.577  30.579  31.007  1.00  0.00    -0.248 NA
ATOM     18  C   UNL A   1      38.062  30.853  29.253  1.00  0.00     0.031 C 
ATOM     19  C   UNL A   1      37.611  33.969  33.178  1.00  0.00     0.029 A 
ATOM     20  N   UNL A   1      39.281  32.487  33.255  1.00  0.00    -0.354 N 
ATOM     21  C   UNL A   1      39.839  29.628  30.027  1.00  0.00     0.074 A 
ATOM     22  C   UNL A   1      38.860  29.826  28.980  1.00  0.00     0.031 C 
ATOM     23  C   UNL A   1      38.277  34.178  34.322  1.00  0.00     0.029 A 
ATOM     24  C   UNL A   1      39.333  33.182  34.442  1.00  0.00     0.049 A 
ATOM     25  H   UNL A   1      39.924  31.782  33.014  1.00  0.00     0.167 HD
ATOM     26  C   UNL A   1      40.808  28.680  30.017  1.00  0.00     0.034 A 
ATOM     27  C   UNL A   1      40.109  33.008  35.529  1.00  0.00     0.034 A 
ATOM     28  C   UNL A   1      41.779  28.513  31.074  1.00  0.00     0.049 A 
ATOM     29  C   UNL A   1      41.134  31.907  35.507  1.00  0.00     0.074 A 
ATOM     30  C   UNL A   1      42.856  27.645  31.121  1.00  0.00     0.029 A 
ATOM     31  N   UNL A   1      41.776  29.206  32.277  1.00  0.00    -0.354 N 
ATOM     32  N   UNL A   1      41.415  31.063  34.540  1.00  0.00    -0.248 NA
ATOM     33  C   UNL A   1      41.946  31.730  36.717  1.00  0.00     0.031 C 
ATOM     34  C   UNL A   1      43.449  27.751  32.383  1.00  0.00     0.029 A 
ATOM     35  C   UNL A   1      42.794  28.740  33.096  1.00  0.00     0.049 A 
ATOM     36  H   UNL A   1      41.143  29.922  32.515  1.00  0.00     0.167 HD
ATOM     37  C   UNL A   1      42.443  30.262  35.025  1.00  0.00     0.074 A 
ATOM     38  C   UNL A   1      42.754  30.745  36.355  1.00  0.00     0.031 C 
ATOM     39  C   UNL A   1      43.073  29.219  34.429  1.00  0.00     0.034 A 
BRANCH  26  40
ATOM     40  C   UNL A   1      40.848  27.711  28.861  1.00  0.00     0.023 A 
ATOM     41  C   UNL A   1      41.803  27.805  27.836  1.00  0.00     0.031 A 
ATOM     42  C   UNL A   1      39.933  26.643  28.815  1.00  0.00     0.131 A 
ATOM     43  C   UNL A   1      41.801  26.866  26.791  1.00  0.00     0.055 A 
ATOM     44  C   UNL A   1      39.975  25.678  27.809  1.00  0.00     0.041 A 
ATOM     45  F   UNL A   1      38.986  26.515  29.759  1.00  0.00    -0.206 F 
ATOM     46  C   UNL A   1      40.910  25.790  26.784  1.00  0.00     0.022 A 
BRANCH  43  47
ATOM     47  S   UNL A   1      42.927  27.116  25.391  1.00  0.00     0.124 S 
ATOM     48  O   UNL A   1      42.278  28.215  24.680  1.00  0.00    -0.237 OA
ATOM     49  O   UNL A   1      44.187  27.441  26.052  1.00  0.00    -0.237 OA
ATOM     50  O   UNL A   1      42.901  25.832  24.695  1.00  0.00    -0.744 OA
ENDBRANCH  43  47
ENDBRANCH  26  40
BRANCH  27  51
ATOM     51  C   UNL A   1      39.898  33.837  36.750  1.00  0.00     0.023 A 
ATOM     52  C   UNL A   1      40.722  34.937  37.033  1.00  0.00     0.031 A 
ATOM     53  C   UNL A   1      38.901  33.504  37.687  1.00  0.00     0.131 A 
ATOM     54  C   UNL A   1      40.572  35.627  38.245  1.00  0.00     0.055 A 
ATOM     55  C   UNL A   1      38.711  34.236  38.859  1.00  0.00     0.041 A 
ATOM     56  F   UNL A   1      38.086  32.458  37.470  1.00  0.00    -0.206 F 
ATOM     57  C   UNL A   1      39.563  35.295  39.152  1.00  0.00     0.022 A 
BRANCH  54  58
ATOM     58  S   UNL A   1      41.799  36.890  38.677  1.00  0.00     0.124 S 
ATOM     59  O   UNL A   1      42.452  37.120  37.392  1.00  0.00    -0.237 OA
ATOM     60  O   UNL A   1      40.957  37.973  39.172  1.00  0.00    -0.237 OA
ATOM     61  O   UNL A   1      42.625  36.231  39.687  1.00  0.00    -0.744 OA
ENDBRANCH  54  58
ENDBRANCH  27  51
BRANCH  39  62
ATOM     62  C   UNL A   1      44.170  28.549  35.215  1.00  0.00     0.023 A 
ATOM     63  C   UNL A   1      43.887  27.552  36.164  1.00  0.00     0.031 A 
ATOM     64  C   UNL A   1      45.512  28.919  35.020  1.00  0.00     0.131 A 
ATOM     65  C   UNL A   1      44.927  26.990  36.917  1.00  0.00     0.055 A 
ATOM     66  C   UNL A   1      46.549  28.313  35.729  1.00  0.00     0.041 A 
ATOM     67  F   UNL A   1      45.838  29.869  34.130  1.00  0.00    -0.206 F 
ATOM     68  C   UNL A   1      46.259  27.351  36.693  1.00  0.00     0.022 A 
BRANCH  65  69
ATOM     69  S   UNL A   1      44.511  25.832  38.249  1.00  0.00     0.124 S 
ATOM     70  O   UNL A   1      44.198  24.616  37.505  1.00  0.00    -0.237 OA
ATOM     71  O   UNL A   1      45.742  25.800  39.033  1.00  0.00    -0.237 OA
ATOM     72  O   UNL A   1      43.372  26.465  38.911  1.00  0.00    -0.744 OA
ENDBRANCH  65  69
ENDBRANCH  39  62
ENDBRANCH  13  14
ENDBRANCH   6   8
ENDBRANCH   3   4
ENDBRANCH   2   3
ENDBRANCH   1   2
BRANCH   1  73
ATOM     73  C   UNL A   1      31.395  29.646  25.045  1.00  0.00     0.002 C 
BRANCH  73  74
ATOM     74  C   UNL A   1      31.360  28.114  24.943  1.00  0.00     0.021 C 
BRANCH  74  75
ATOM     75  C   UNL A   1      31.868  27.379  26.181  1.00  0.00     0.116 C 
BRANCH  75  76
ATOM     76  N   UNL A   1      30.973  26.303  26.561  1.00  0.00    -0.353 N 
ATOM     77  C   UNL A   1      31.053  24.975  26.259  1.00  0.00     0.264 C 
ATOM     78  H   UNL A   1      30.201  26.567  27.112  1.00  0.00     0.163 HD
ATOM     79  O   UNL A   1      30.161  24.237  26.685  1.00  0.00    -0.271 OA
BRANCH  77  80
ATOM     80  C   UNL A   1      32.260  24.462  25.473  1.00  0.00     0.299 C 
ATOM     81  C   UNL A   1      32.608  23.037  25.829  1.00  0.00     0.119 C 
ATOM     82  O   UNL A   1      31.978  24.484  24.071  1.00  0.00    -0.382 OA
ATOM     83  C   UNL A   1      32.630  22.443  24.473  1.00  0.00     0.091 C 
ATOM     84  N   UNL A   1      32.336  23.239  23.500  1.00  0.00    -0.090 NA
BRANCH  83  85
ATOM     85  C   UNL A   1      33.016  21.035  24.289  1.00  0.00    -0.001 A 
ATOM     86  C   UNL A   1      34.152  20.545  24.932  1.00  0.00     0.011 A 
ATOM     87  C   UNL A   1      32.235  20.196  23.490  1.00  0.00     0.011 A 
ATOM     88  C   UNL A   1      34.495  19.198  24.795  1.00  0.00     0.014 A 
ATOM     89  C   UNL A   1      32.589  18.854  23.343  1.00  0.00     0.014 A 
ATOM     90  C   UNL A   1      33.717  18.338  23.999  1.00  0.00     0.056 A 
BRANCH  90  91
ATOM     91  C   UNL A   1      34.097  16.884  23.860  1.00  0.00     0.416 C 
ATOM     92  F   UNL A   1      33.146  16.044  24.356  1.00  0.00    -0.166 F 
ATOM     93  F   UNL A   1      34.282  16.516  22.562  1.00  0.00    -0.166 F 
ATOM     94  F   UNL A   1      35.252  16.559  24.506  1.00  0.00    -0.166 F 
ENDBRANCH  90  91
ENDBRANCH  83  85
ENDBRANCH  77  80
ENDBRANCH  75  76
ENDBRANCH  74  75
ENDBRANCH  73  74
ENDBRANCH   1  73
TORSDOF 18
ENDMDL
MODEL 2
REMARK VINA RESULT:     -11.9      2.005      2.448
REMARK SMILES O=C(NCCCCCCNC(=O)[C@H]1CC(c2ccc(C(F)(F)F)cc2)=NO1)c1ccc(-c2c3nc(c(-c4cc(S(=O)(=O)[O-])ccc4F)c4ccc([nH]4)c(-c4cc(S(=O)(=O)[O-])ccc4F)c4nc(c(-c5cc(S(=O)(=O)[O-])ccc5F)c5ccc2[nH]5)C=C4)C=C3)cc1
REMARK SMILES IDX 6 1 5 2 4 3 3 4 1 5 2 6 28 8 29 9 90 10 30 11 89 12 31 13
REMARK SMILES IDX 32 14 33 15 83 16 34 17 88 18 82 19 84 20 35 21 87 22 81 23
REMARK SMILES IDX 80 24 36 26 68 27 48 28 67 29 49 30 52 31 66 32 85 33 50 34
REMARK SMILES IDX 51 35 65 37 86 38 53 39 37 40 38 41 46 42 39 43 45 44 47 45
REMARK SMILES IDX 44 46 40 47 41 48 42 49 43 50 69 51 70 52 78 53 71 54 77 55
REMARK SMILES IDX 79 56 76 57 72 58 73 59 74 60 75 61 54 62 55 63 63 64 56 65
REMARK SMILES IDX 62 66 64 67 61 68 57 69 58 70 59 71 60 72 7 73 8 74 9 75
REMARK SMILES IDX 10 76 11 77 12 79 13 80 14 81 27 82 15 83 26 84 16 85 17 86
REMARK SMILES IDX 25 87 18 88 24 89 19 90 20 91 21 92 22 93 23 94
REMARK H PARENT 3 7 84 25 52 36 10 78
REMARK Flexibility Score: inf
ROOT
ATOM      1  C   UNL A   1      31.658  29.946  26.564  1.00  0.00     0.002 C 
ENDROOT
BRANCH   1   2
ATOM      2  C   UNL A   1      31.543  31.460  26.731  1.00  0.00     0.021 C 
BRANCH   2   3
ATOM      3  C   UNL A   1      32.819  32.145  27.200  1.00  0.00     0.116 C 
BRANCH   3   4
ATOM      4  N   UNL A   1      32.607  33.552  27.500  1.00  0.00    -0.352 N 
ATOM      5  O   UNL A   1      32.800  35.447  28.707  1.00  0.00    -0.269 OA
ATOM      6  C   UNL A   1      33.224  34.323  28.453  1.00  0.00     0.251 C 
ATOM      7  H   UNL A   1      31.934  34.010  26.948  1.00  0.00     0.163 HD
BRANCH   6   8
ATOM      8  C   UNL A   1      34.397  33.784  29.174  1.00  0.00     0.039 A 
ATOM      9  C   UNL A   1      34.232  32.809  30.162  1.00  0.00     0.014 A 
ATOM     10  C   UNL A   1      35.675  34.245  28.845  1.00  0.00     0.014 A 
ATOM     11  C   UNL A   1      35.330  32.364  30.888  1.00  0.00     0.010 A 
ATOM     12  C   UNL A   1      36.788  33.737  29.522  1.00  0.00     0.010 A 
ATOM     13  C   UNL A   1      36.622  32.795  30.549  1.00  0.00    -0.014 A 
BRANCH  13  14
ATOM     14  C   UNL A   1      37.797  32.147  31.187  1.00  0.00     0.031 A 
ATOM     15  C   UNL A   1      38.534  31.028  30.511  1.00  0.00     0.074 A 
ATOM     16  C   UNL A   1      38.169  32.581  32.408  1.00  0.00     0.049 A 
ATOM     17  N   UNL A   1      39.543  30.325  30.958  1.00  0.00    -0.248 NA
ATOM     18  C   UNL A   1      38.082  30.643  29.166  1.00  0.00     0.031 C 
ATOM     19  C   UNL A   1      37.510  33.659  33.153  1.00  0.00     0.029 A 
ATOM     20  N   UNL A   1      39.178  32.176  33.243  1.00  0.00    -0.354 N 
ATOM     21  C   UNL A   1      39.836  29.399  29.963  1.00  0.00     0.074 A 
ATOM     22  C   UNL A   1      38.888  29.623  28.892  1.00  0.00     0.031 C 
ATOM     23  C   UNL A   1      38.141  33.840  34.322  1.00  0.00     0.029 A 
ATOM     24  C   UNL A   1      39.194  32.841  34.449  1.00  0.00     0.049 A 
ATOM     25  H   UNL A   1      39.829  31.477  33.004  1.00  0.00     0.167 HD
ATOM     26  C   UNL A   1      40.806  28.452  29.958  1.00  0.00     0.034 A 
ATOM     27  C   UNL A   1      39.936  32.640  35.553  1.00  0.00     0.034 A 
ATOM     28  C   UNL A   1      41.744  28.259  31.039  1.00  0.00     0.049 A 
ATOM     29  C   UNL A   1      40.963  31.540  35.534  1.00  0.00     0.074 A 
ATOM     30  C   UNL A   1      42.820  27.390  31.097  1.00  0.00     0.029 A 
ATOM     31  N   UNL A   1      41.704  28.921  32.259  1.00  0.00    -0.354 N 
ATOM     32  N   UNL A   1      41.273  30.720  34.556  1.00  0.00    -0.248 NA
ATOM     33  C   UNL A   1      41.737  31.332  36.764  1.00  0.00     0.031 C 
ATOM     34  C   UNL A   1      43.374  27.463  32.378  1.00  0.00     0.029 A 
ATOM     35  C   UNL A   1      42.697  28.435  33.096  1.00  0.00     0.049 A 
ATOM     36  H   UNL A   1      41.063  29.630  32.495  1.00  0.00     0.167 HD
ATOM     37  C   UNL A   1      42.287  29.908  35.052  1.00  0.00     0.074 A 
ATOM     38  C   UNL A   1      42.557  30.357  36.402  1.00  0.00     0.031 C 
ATOM     39  C   UNL A   1      42.935  28.880  34.449  1.00  0.00     0.034 A 
BRANCH  26  40
ATOM     40  C   UNL A   1      40.881  27.512  28.780  1.00  0.00     0.023 A 
ATOM     41  C   UNL A   1      41.846  27.652  27.770  1.00  0.00     0.031 A 
ATOM     42  C   UNL A   1      39.991  26.425  28.697  1.00  0.00     0.131 A 
ATOM     43  C   UNL A   1      41.878  26.739  26.703  1.00  0.00     0.055 A 
ATOM     44  C   UNL A   1      40.067  25.486  27.669  1.00  0.00     0.041 A 
ATOM     45  F   UNL A   1      39.036  26.254  29.625  1.00  0.00    -0.206 F 
ATOM     46  C   UNL A   1      41.012  25.644  26.659  1.00  0.00     0.022 A 
BRANCH  43  47
ATOM     47  S   UNL A   1      43.015  27.048  25.323  1.00  0.00     0.124 S 
ATOM     48  O   UNL A   1      42.305  28.085  24.579  1.00  0.00    -0.237 OA
ATOM     49  O   UNL A   1      44.232  27.474  26.006  1.00  0.00    -0.237 OA
ATOM     50  O   UNL A   1      43.098  25.754  24.649  1.00  0.00    -0.744 OA
ENDBRANCH  43  47
ENDBRANCH  26  40
BRANCH  27  51
ATOM     51  C   UNL A   1      39.688  33.438  36.788  1.00  0.00     0.023 A 
ATOM     52  C   UNL A   1      38.982  32.899  37.873  1.00  0.00     0.031 A 
ATOM     53  C   UNL A   1      40.106  34.780  36.877  1.00  0.00     0.131 A 
ATOM     54  C   UNL A   1      38.665  33.711  38.973  1.00  0.00     0.055 A 
ATOM     55  C   UNL A   1      39.848  35.564  38.001  1.00  0.00     0.041 A 
ATOM     56  F   UNL A   1      40.783  35.351  35.866  1.00  0.00    -0.206 F 
ATOM     57  C   UNL A   1      39.107  35.034  39.052  1.00  0.00     0.022 A 
BRANCH  54  58
ATOM     58  S   UNL A   1      37.558  33.047  40.245  1.00  0.00     0.124 S 
ATOM     59  O   UNL A   1      38.284  31.858  40.679  1.00  0.00    -0.237 OA
ATOM     60  O   UNL A   1      37.501  34.148  41.201  1.00  0.00    -0.237 OA
ATOM     61  O   UNL A   1      36.317  32.789  39.516  1.00  0.00    -0.744 OA
ENDBRANCH  54  58
ENDBRANCH  27  51
BRANCH  39  62
ATOM     62  C   UNL A   1      44.009  28.191  35.250  1.00  0.00     0.023 A 
ATOM     63  C   UNL A   1      45.343  28.635  35.221  1.00  0.00     0.031 A 
ATOM     64  C   UNL A   1      43.698  27.073  36.043  1.00  0.00     0.131 A 
ATOM     65  C   UNL A   1      46.326  27.935  35.934  1.00  0.00     0.055 A 
ATOM     66  C   UNL A   1      44.670  26.417  36.799  1.00  0.00     0.041 A 
ATOM     67  F   UNL A   1      42.442  26.605  36.102  1.00  0.00    -0.206 F 
ATOM     68  C   UNL A   1      45.995  26.840  36.738  1.00  0.00     0.022 A 
BRANCH  65  69
ATOM     69  S   UNL A   1      48.061  28.430  35.741  1.00  0.00     0.124 S 
ATOM     70  O   UNL A   1      48.178  29.507  36.719  1.00  0.00    -0.237 OA
ATOM     71  O   UNL A   1      48.775  27.199  36.061  1.00  0.00    -0.237 OA
ATOM     72  O   UNL A   1      48.144  28.849  34.343  1.00  0.00    -0.744 OA
ENDBRANCH  65  69
ENDBRANCH  39  62
ENDBRANCH  13  14
ENDBRANCH   6   8
ENDBRANCH   3   4
ENDBRANCH   2   3
ENDBRANCH   1   2
BRANCH   1  73
ATOM     73  C   UNL A   1      31.752  29.457  25.116  1.00  0.00     0.002 C 
BRANCH  73  74
ATOM     74  C   UNL A   1      32.090  27.970  24.943  1.00  0.00     0.021 C 
BRANCH  74  75
ATOM     75  C   UNL A   1      31.558  27.338  23.659  1.00  0.00     0.116 C 
BRANCH  75  76
ATOM     76  N   UNL A   1      32.632  26.782  22.859  1.00  0.00    -0.353 N 
ATOM     77  C   UNL A   1      33.046  25.486  22.763  1.00  0.00     0.264 C 
ATOM     78  H   UNL A   1      33.133  27.429  22.312  1.00  0.00     0.163 HD
ATOM     79  O   UNL A   1      34.001  25.244  22.020  1.00  0.00    -0.271 OA
BRANCH  77  80
ATOM     80  C   UNL A   1      32.278  24.401  23.518  1.00  0.00     0.299 C 
ATOM     81  C   UNL A   1      32.536  23.024  22.957  1.00  0.00     0.119 C 
ATOM     82  O   UNL A   1      32.685  24.375  24.889  1.00  0.00    -0.382 OA
ATOM     83  C   UNL A   1      32.931  22.321  24.199  1.00  0.00     0.091 C 
ATOM     84  N   UNL A   1      32.966  23.041  25.271  1.00  0.00    -0.090 NA
BRANCH  83  85
ATOM     85  C   UNL A   1      33.211  20.878  24.175  1.00  0.00    -0.001 A 
ATOM     86  C   UNL A   1      32.305  20.013  23.563  1.00  0.00     0.011 A 
ATOM     87  C   UNL A   1      34.388  20.385  24.746  1.00  0.00     0.011 A 
ATOM     88  C   UNL A   1      32.591  18.646  23.499  1.00  0.00     0.014 A 
ATOM     89  C   UNL A   1      34.663  19.019  24.694  1.00  0.00     0.014 A 
ATOM     90  C   UNL A   1      33.773  18.135  24.064  1.00  0.00     0.056 A 
BRANCH  90  91
ATOM     91  C   UNL A   1      34.072  16.658  23.987  1.00  0.00     0.416 C 
ATOM     92  F   UNL A   1      34.433  16.260  22.735  1.00  0.00    -0.166 F 
ATOM     93  F   UNL A   1      35.095  16.290  24.807  1.00  0.00    -0.166 F 
ATOM     94  F   UNL A   1      33.016  15.870  24.336  1.00  0.00    -0.166 F 
ENDBRANCH  90  91
ENDBRANCH  83  85
ENDBRANCH  77  80
ENDBRANCH  75  76
ENDBRANCH  74  75
ENDBRANCH  73  74
ENDBRANCH   1  73
TORSDOF 18
ENDMDL
MODEL 3
REMARK VINA RESULT:     -11.9      2.095      2.499
REMARK SMILES O=C(NCCCCCCNC(=O)[C@H]1CC(c2ccc(C(F)(F)F)cc2)=NO1)c1ccc(-c2c3nc(c(-c4cc(S(=O)(=O)[O-])ccc4F)c4ccc([nH]4)c(-c4cc(S(=O)(=O)[O-])ccc4F)c4nc(c(-c5cc(S(=O)(=O)[O-])ccc5F)c5ccc2[nH]5)C=C4)C=C3)cc1
REMARK SMILES IDX 6 1 5 2 4 3 3 4 1 5 2 6 28 8 29 9 90 10 30 11 89 12 31 13
REMARK SMILES IDX 32 14 33 15 83 16 34 17 88 18 82 19 84 20 35 21 87 22 81 23
REMARK SMILES IDX 80 24 36 26 68 27 48 28 67 29 49 30 52 31 66 32 85 33 50 34
REMARK SMILES IDX 51 35 65 37 86 38 53 39 37 40 38 41 46 42 39 43 45 44 47 45
REMARK SMILES IDX 44 46 40 47 41 48 42 49 43 50 69 51 70 52 78 53 71 54 77 55
REMARK SMILES IDX 79 56 76 57 72 58 73 59 74 60 75 61 54 62 55 63 63 64 56 65
REMARK SMILES IDX 62 66 64 67 61 68 57 69 58 70 59 71 60 72 7 73 8 74 9 75
REMARK SMILES IDX 10 76 11 77 12 79 13 80 14 81 27 82 15 83 26 84 16 85 17 86
REMARK SMILES IDX 25 87 18 88 24 89 19 90 20 91 21 92 22 93 23 94
REMARK H PARENT 3 7 84 25 52 36 10 78
REMARK Flexibility Score: inf
ROOT
ATOM      1  C   UNL A   1      31.740  29.749  25.777  1.00  0.00     0.002 C 
ENDROOT
BRANCH   1   2
ATOM      2  C   UNL A   1      31.515  31.201  26.198  1.00  0.00     0.021 C 
BRANCH   2   3
ATOM      3  C   UNL A   1      32.674  31.826  26.963  1.00  0.00     0.116 C 
BRANCH   3   4
ATOM      4  N   UNL A   1      32.439  33.229  27.261  1.00  0.00    -0.352 N 
ATOM      5  O   UNL A   1      32.627  35.136  28.451  1.00  0.00    -0.269 OA
ATOM      6  C   UNL A   1      33.069  34.021  28.189  1.00  0.00     0.251 C 
ATOM      7  H   UNL A   1      31.737  33.669  26.729  1.00  0.00     0.163 HD
BRANCH   6   8
ATOM      8  C   UNL A   1      34.277  33.514  28.874  1.00  0.00     0.039 A 
ATOM      9  C   UNL A   1      34.169  32.528  29.860  1.00  0.00     0.014 A 
ATOM     10  C   UNL A   1      35.531  34.016  28.515  1.00  0.00     0.014 A 
ATOM     11  C   UNL A   1      35.300  32.112  30.552  1.00  0.00     0.010 A 
ATOM     12  C   UNL A   1      36.677  33.539  29.157  1.00  0.00     0.010 A 
ATOM     13  C   UNL A   1      36.568  32.585  30.182  1.00  0.00    -0.014 A 
BRANCH  13  14
ATOM     14  C   UNL A   1      37.779  31.970  30.783  1.00  0.00     0.031 A 
ATOM     15  C   UNL A   1      38.567  30.922  30.052  1.00  0.00     0.074 A 
ATOM     16  C   UNL A   1      38.138  32.366  32.021  1.00  0.00     0.049 A 
ATOM     17  N   UNL A   1      39.614  30.252  30.461  1.00  0.00    -0.248 NA
ATOM     18  C   UNL A   1      38.125  30.575  28.693  1.00  0.00     0.031 C 
ATOM     19  C   UNL A   1      37.431  33.374  32.817  1.00  0.00     0.029 A 
ATOM     20  N   UNL A   1      39.173  31.975  32.831  1.00  0.00    -0.354 N 
ATOM     21  C   UNL A   1      39.945  29.388  29.423  1.00  0.00     0.074 A 
ATOM     22  C   UNL A   1      38.979  29.612  28.368  1.00  0.00     0.031 C 
ATOM     23  C   UNL A   1      38.061  33.533  33.990  1.00  0.00     0.029 A 
ATOM     24  C   UNL A   1      39.164  32.585  34.065  1.00  0.00     0.049 A 
ATOM     25  H   UNL A   1      39.857  31.323  32.556  1.00  0.00     0.167 HD
ATOM     26  C   UNL A   1      40.962  28.493  29.369  1.00  0.00     0.034 A 
ATOM     27  C   UNL A   1      39.925  32.372  35.155  1.00  0.00     0.034 A 
ATOM     28  C   UNL A   1      41.918  28.299  30.435  1.00  0.00     0.049 A 
ATOM     29  C   UNL A   1      41.006  31.328  35.080  1.00  0.00     0.074 A 
ATOM     30  C   UNL A   1      43.037  27.484  30.447  1.00  0.00     0.029 A 
ATOM     31  N   UNL A   1      41.853  28.902  31.684  1.00  0.00    -0.354 N 
ATOM     32  N   UNL A   1      41.349  30.570  34.064  1.00  0.00    -0.248 NA
ATOM     33  C   UNL A   1      41.799  31.104  36.295  1.00  0.00     0.031 C 
ATOM     34  C   UNL A   1      43.597  27.528  31.728  1.00  0.00     0.029 A 
ATOM     35  C   UNL A   1      42.877  28.430  32.493  1.00  0.00     0.049 A 
ATOM     36  H   UNL A   1      41.179  29.566  31.956  1.00  0.00     0.167 HD
ATOM     37  C   UNL A   1      42.407  29.789  34.516  1.00  0.00     0.074 A 
ATOM     38  C   UNL A   1      42.665  30.189  35.884  1.00  0.00     0.031 C 
ATOM     39  C   UNL A   1      43.102  28.825  33.863  1.00  0.00     0.034 A 
BRANCH  26  40
ATOM     40  C   UNL A   1      41.076  27.613  28.149  1.00  0.00     0.023 A 
ATOM     41  C   UNL A   1      40.687  26.263  28.159  1.00  0.00     0.031 A 
ATOM     42  C   UNL A   1      41.542  28.157  26.938  1.00  0.00     0.131 A 
ATOM     43  C   UNL A   1      40.801  25.495  26.988  1.00  0.00     0.055 A 
ATOM     44  C   UNL A   1      41.595  27.406  25.763  1.00  0.00     0.041 A 
ATOM     45  F   UNL A   1      41.945  29.436  26.876  1.00  0.00    -0.206 F 
ATOM     46  C   UNL A   1      41.230  26.063  25.786  1.00  0.00     0.022 A 
BRANCH  43  47
ATOM     47  S   UNL A   1      40.463  23.715  27.076  1.00  0.00     0.124 S 
ATOM     48  O   UNL A   1      40.977  23.380  28.402  1.00  0.00    -0.237 OA
ATOM     49  O   UNL A   1      39.013  23.661  26.922  1.00  0.00    -0.237 OA
ATOM     50  O   UNL A   1      41.230  23.163  25.961  1.00  0.00    -0.744 OA
ENDBRANCH  43  47
ENDBRANCH  26  40
BRANCH  27  51
ATOM     51  C   UNL A   1      39.646  33.099  36.427  1.00  0.00     0.023 A 
ATOM     52  C   UNL A   1      38.828  32.541  37.420  1.00  0.00     0.031 A 
ATOM     53  C   UNL A   1      40.149  34.397  36.642  1.00  0.00     0.131 A 
ATOM     54  C   UNL A   1      38.492  33.296  38.553  1.00  0.00     0.055 A 
ATOM     55  C   UNL A   1      39.868  35.118  37.802  1.00  0.00     0.041 A 
ATOM     56  F   UNL A   1      40.934  34.983  35.723  1.00  0.00    -0.206 F 
ATOM     57  C   UNL A   1      39.018  34.574  38.759  1.00  0.00     0.022 A 
BRANCH  54  58
ATOM     58  S   UNL A   1      37.253  32.631  39.697  1.00  0.00     0.124 S 
ATOM     59  O   UNL A   1      37.848  31.352  40.069  1.00  0.00    -0.237 OA
ATOM     60  O   UNL A   1      37.224  33.652  40.739  1.00  0.00    -0.237 OA
ATOM     61  O   UNL A   1      36.045  32.543  38.878  1.00  0.00    -0.744 OA
ENDBRANCH  54  58
ENDBRANCH  27  51
BRANCH  39  62
ATOM     62  C   UNL A   1      44.216  28.155  34.626  1.00  0.00     0.023 A 
ATOM     63  C   UNL A   1      44.009  26.946  35.312  1.00  0.00     0.031 A 
ATOM     64  C   UNL A   1      45.494  28.738  34.676  1.00  0.00     0.131 A 
ATOM     65  C   UNL A   1      45.052  26.381  36.059  1.00  0.00     0.055 A 
ATOM     66  C   UNL A   1      46.545  28.139  35.371  1.00  0.00     0.041 A 
ATOM     67  F   UNL A   1      45.744  29.895  34.043  1.00  0.00    -0.206 F 
ATOM     68  C   UNL A   1      46.324  26.960  36.077  1.00  0.00     0.022 A 
BRANCH  65  69
ATOM     69  S   UNL A   1      44.706  24.914  37.068  1.00  0.00     0.124 S 
ATOM     70  O   UNL A   1      43.620  24.284  36.323  1.00  0.00    -0.237 OA
ATOM     71  O   UNL A   1      45.985  24.211  37.047  1.00  0.00    -0.237 OA
ATOM     72  O   UNL A   1      44.328  25.472  38.365  1.00  0.00    -0.744 OA
ENDBRANCH  65  69
ENDBRANCH  39  62
ENDBRANCH  13  14
ENDBRANCH   6   8
ENDBRANCH   3   4
ENDBRANCH   2   3
ENDBRANCH   1   2
BRANCH   1  73
ATOM     73  C   UNL A   1      31.127  29.362  24.429  1.00  0.00     0.002 C 
BRANCH  73  74
ATOM     74  C   UNL A   1      30.907  27.858  24.213  1.00  0.00     0.021 C 
BRANCH  74  75
ATOM     75  C   UNL A   1      30.800  27.429  22.752  1.00  0.00     0.116 C 
BRANCH  75  76
ATOM     76  N   UNL A   1      32.076  26.965  22.243  1.00  0.00    -0.353 N 
ATOM     77  C   UNL A   1      32.656  25.738  22.377  1.00  0.00     0.264 C 
ATOM     78  H   UNL A   1      32.595  27.625  21.731  1.00  0.00     0.163 HD
ATOM     79  O   UNL A   1      33.766  25.571  21.865  1.00  0.00    -0.271 OA
BRANCH  77  80
ATOM     80  C   UNL A   1      31.888  24.625  23.091  1.00  0.00     0.299 C 
ATOM     81  C   UNL A   1      32.257  23.255  22.574  1.00  0.00     0.119 C 
ATOM     82  O   UNL A   1      32.191  24.638  24.489  1.00  0.00    -0.382 OA
ATOM     83  C   UNL A   1      32.591  22.591  23.855  1.00  0.00     0.091 C 
ATOM     84  N   UNL A   1      32.508  23.325  24.913  1.00  0.00    -0.090 NA
BRANCH  83  85
ATOM     85  C   UNL A   1      32.944  21.163  23.876  1.00  0.00    -0.001 A 
ATOM     86  C   UNL A   1      33.997  20.728  24.680  1.00  0.00     0.011 A 
ATOM     87  C   UNL A   1      32.215  20.252  23.107  1.00  0.00     0.011 A 
ATOM     88  C   UNL A   1      34.304  19.366  24.736  1.00  0.00     0.014 A 
ATOM     89  C   UNL A   1      32.535  18.895  23.153  1.00  0.00     0.014 A 
ATOM     90  C   UNL A   1      33.577  18.435  23.973  1.00  0.00     0.056 A 
BRANCH  90  91
ATOM     91  C   UNL A   1      33.918  16.967  24.042  1.00  0.00     0.416 C 
ATOM     92  F   UNL A   1      34.958  16.709  24.883  1.00  0.00    -0.166 F 
ATOM     93  F   UNL A   1      32.877  16.211  24.491  1.00  0.00    -0.166 F 
ATOM     94  F   UNL A   1      34.273  16.432  22.839  1.00  0.00    -0.166 F 
ENDBRANCH  90  91
ENDBRANCH  83  85
ENDBRANCH  77  80
ENDBRANCH  75  76
ENDBRANCH  74  75
ENDBRANCH  73  74
ENDBRANCH   1  73
TORSDOF 18
ENDMDL
