MODEL 1
REMARK VINA RESULT:     -10.4      0.000      0.000
REMARK SMILES C[C@@H](CC(=O)NCCCCCCNC(=O)c1ccc(-c2c3nc(c(-c4cc(S(=O)(=O)[O-])ccc4F)c4ccc([nH]4)c(-c4cc(S(=O)(=O)[O-])ccc4F)c4nc(c(-c5cc(S(=O)(=O)[O-])ccc5F)c5ccc2[nH]5)C=C4)C=C3)cc1)NC(=O)CN(C)c1ncccn1
REMARK SMILES IDX 8 1 7 2 6 3 4 4 5 5 3 7 2 8 1 9 79 10 80 11 81 13 82 14
REMARK SMILES IDX 83 15 84 16 85 17 86 18 90 19 87 20 89 21 88 22 9 23 10 24
REMARK SMILES IDX 11 25 12 26 13 27 14 28 15 30 16 31 17 32 78 33 18 34 77 35
REMARK SMILES IDX 19 36 20 37 21 38 71 39 22 40 76 41 70 42 72 43 23 44 75 45
REMARK SMILES IDX 69 46 68 47 24 49 56 50 36 51 55 52 37 53 40 54 54 55 73 56
REMARK SMILES IDX 38 57 39 58 53 60 74 61 41 62 25 63 26 64 34 65 27 66 33 67
REMARK SMILES IDX 35 68 32 69 28 70 29 71 30 72 31 73 57 74 58 75 66 76 59 77
REMARK SMILES IDX 65 78 67 79 64 80 60 81 61 82 62 83 63 84 42 85 43 86 51 87
REMARK SMILES IDX 44 88 50 89 52 90 49 91 45 92 46 93 47 94 48 95
REMARK H PARENT 6 6 79 12 13 29 72 48 40 59
REMARK Flexibility Score: inf
ROOT
ATOM      1  C   UNL A   1      37.325  23.504  25.196  1.00  0.00     0.021 C 
ENDROOT
BRANCH   1   2
ATOM      2  C   UNL A   1      35.983  23.730  24.494  1.00  0.00     0.116 C 
BRANCH   2   3
ATOM      3  N   UNL A   1      35.149  24.606  25.291  1.00  0.00    -0.356 N 
ATOM      4  C   UNL A   1      34.060  25.336  24.935  1.00  0.00     0.222 C 
ATOM      5  O   UNL A   1      33.629  26.163  25.741  1.00  0.00    -0.275 OA
ATOM      6  H   UNL A   1      35.412  24.684  26.237  1.00  0.00     0.163 HD
BRANCH   4   7
ATOM      7  C   UNL A   1      33.367  25.119  23.603  1.00  0.00     0.124 C 
BRANCH   7   8
ATOM      8  C   UNL A   1      32.120  24.219  23.618  1.00  0.00     0.088 C 
ATOM      9  C   UNL A   1      30.868  24.944  23.142  1.00  0.00     0.031 C 
BRANCH   8  10
ATOM     10  N   UNL A   1      31.898  23.594  24.916  1.00  0.00    -0.352 N 
ATOM     11  C   UNL A   1      32.245  22.341  25.344  1.00  0.00     0.239 C 
ATOM     12  H   UNL A   1      31.431  24.152  25.579  1.00  0.00     0.163 HD
ATOM     13  O   UNL A   1      31.932  22.020  26.495  1.00  0.00    -0.273 OA
BRANCH  11  14
ATOM     14  C   UNL A   1      33.140  21.439  24.480  1.00  0.00     0.219 C 
BRANCH  14  15
ATOM     15  N   UNL A   1      32.450  20.417  23.697  1.00  0.00    -0.335 N 
ATOM     16  C   UNL A   1      31.950  20.713  22.373  1.00  0.00     0.147 C 
BRANCH  15  17
ATOM     17  C   UNL A   1      32.614  19.089  24.038  1.00  0.00     0.225 A 
ATOM     18  N   UNL A   1      32.357  18.709  25.302  1.00  0.00    -0.221 NA
ATOM     19  N   UNL A   1      33.083  18.239  23.115  1.00  0.00    -0.221 NA
ATOM     20  C   UNL A   1      32.579  17.421  25.628  1.00  0.00     0.117 A 
ATOM     21  C   UNL A   1      33.328  16.970  23.492  1.00  0.00     0.117 A 
ATOM     22  C   UNL A   1      33.083  16.495  24.754  1.00  0.00     0.040 A 
ENDBRANCH  15  17
ENDBRANCH  14  15
ENDBRANCH  11  14
ENDBRANCH   8  10
ENDBRANCH   7   8
ENDBRANCH   4   7
ENDBRANCH   2   3
ENDBRANCH   1   2
BRANCH   1  23
ATOM     23  C   UNL A   1      37.495  22.098  25.773  1.00  0.00     0.002 C 
BRANCH  23  24
ATOM     24  C   UNL A   1      37.455  20.975  24.735  1.00  0.00     0.002 C 
BRANCH  24  25
ATOM     25  C   UNL A   1      38.470  19.850  24.960  1.00  0.00     0.021 C 
BRANCH  25  26
ATOM     26  C   UNL A   1      39.451  20.098  26.101  1.00  0.00     0.116 C 
BRANCH  26  27
ATOM     27  N   UNL A   1      40.569  19.170  26.056  1.00  0.00    -0.352 N 
ATOM     28  C   UNL A   1      41.910  19.436  25.996  1.00  0.00     0.251 C 
ATOM     29  H   UNL A   1      40.328  18.215  26.072  1.00  0.00     0.163 HD
ATOM     30  O   UNL A   1      42.699  18.535  25.698  1.00  0.00    -0.269 OA
BRANCH  28  31
ATOM     31  C   UNL A   1      42.406  20.798  26.277  1.00  0.00     0.039 A 
ATOM     32  C   UNL A   1      42.650  21.669  25.213  1.00  0.00     0.014 A 
ATOM     33  C   UNL A   1      42.656  21.206  27.592  1.00  0.00     0.014 A 
ATOM     34  C   UNL A   1      43.112  22.961  25.470  1.00  0.00     0.010 A 
ATOM     35  C   UNL A   1      43.043  22.517  27.850  1.00  0.00     0.010 A 
ATOM     36  C   UNL A   1      43.296  23.402  26.791  1.00  0.00    -0.014 A 
BRANCH  36  37
ATOM     37  C   UNL A   1      43.805  24.767  27.083  1.00  0.00     0.031 A 
ATOM     38  C   UNL A   1      42.872  25.803  27.652  1.00  0.00     0.074 A 
ATOM     39  C   UNL A   1      45.081  25.085  26.795  1.00  0.00     0.049 A 
ATOM     40  N   UNL A   1      43.092  27.067  27.909  1.00  0.00    -0.248 NA
ATOM     41  C   UNL A   1      41.498  25.364  27.935  1.00  0.00     0.031 C 
ATOM     42  C   UNL A   1      46.067  24.174  26.211  1.00  0.00     0.029 A 
ATOM     43  N   UNL A   1      45.767  26.263  26.949  1.00  0.00    -0.354 N 
ATOM     44  C   UNL A   1      41.883  27.577  28.371  1.00  0.00     0.074 A 
ATOM     45  C   UNL A   1      40.918  26.501  28.287  1.00  0.00     0.031 C 
ATOM     46  C   UNL A   1      47.238  24.819  26.083  1.00  0.00     0.029 A 
ATOM     47  C   UNL A   1      47.077  26.198  26.532  1.00  0.00     0.049 A 
ATOM     48  H   UNL A   1      45.361  27.077  27.323  1.00  0.00     0.167 HD
ATOM     49  C   UNL A   1      41.609  28.817  28.847  1.00  0.00     0.034 A 
ATOM     50  C   UNL A   1      48.035  27.146  26.511  1.00  0.00     0.034 A 
ATOM     51  C   UNL A   1      42.590  29.873  28.934  1.00  0.00     0.049 A 
ATOM     52  C   UNL A   1      47.705  28.523  27.031  1.00  0.00     0.074 A 
ATOM     53  C   UNL A   1      42.436  31.156  29.427  1.00  0.00     0.029 A 
ATOM     54  N   UNL A   1      43.911  29.766  28.514  1.00  0.00    -0.354 N 
ATOM     55  N   UNL A   1      46.566  28.982  27.496  1.00  0.00    -0.248 NA
ATOM     56  C   UNL A   1      48.798  29.504  27.041  1.00  0.00     0.031 C 
ATOM     57  C   UNL A   1      43.642  31.843  29.248  1.00  0.00     0.029 A 
ATOM     58  C   UNL A   1      44.575  30.966  28.720  1.00  0.00     0.049 A 
ATOM     59  H   UNL A   1      44.316  28.956  28.129  1.00  0.00     0.167 HD
ATOM     60  C   UNL A   1      46.819  30.292  27.894  1.00  0.00     0.074 A 
ATOM     61  C   UNL A   1      48.219  30.543  27.622  1.00  0.00     0.031 C 
ATOM     62  C   UNL A   1      45.973  31.202  28.442  1.00  0.00     0.034 A 
BRANCH  49  63
ATOM     63  C   UNL A   1      40.187  29.094  29.279  1.00  0.00     0.023 A 
ATOM     64  C   UNL A   1      39.810  29.076  30.634  1.00  0.00     0.031 A 
ATOM     65  C   UNL A   1      39.183  29.335  28.324  1.00  0.00     0.131 A 
ATOM     66  C   UNL A   1      38.458  29.199  30.989  1.00  0.00     0.055 A 
ATOM     67  C   UNL A   1      37.852  29.551  28.691  1.00  0.00     0.041 A 
ATOM     68  F   UNL A   1      39.473  29.343  27.014  1.00  0.00    -0.206 F 
ATOM     69  C   UNL A   1      37.480  29.465  30.029  1.00  0.00     0.022 A 
BRANCH  66  70
ATOM     70  S   UNL A   1      37.978  28.840  32.701  1.00  0.00     0.124 S 
ATOM     71  O   UNL A   1      36.629  29.398  32.751  1.00  0.00    -0.237 OA
ATOM     72  O   UNL A   1      38.073  27.386  32.757  1.00  0.00    -0.237 OA
ATOM     73  O   UNL A   1      38.972  29.562  33.494  1.00  0.00    -0.744 OA
ENDBRANCH  66  70
ENDBRANCH  49  63
BRANCH  50  74
ATOM     74  C   UNL A   1      49.397  26.832  25.990  1.00  0.00     0.023 A 
ATOM     75  C   UNL A   1      49.787  27.230  24.702  1.00  0.00     0.031 A 
ATOM     76  C   UNL A   1      50.314  26.093  26.758  1.00  0.00     0.131 A 
ATOM     77  C   UNL A   1      51.039  26.845  24.200  1.00  0.00     0.055 A 
ATOM     78  C   UNL A   1      51.580  25.759  26.274  1.00  0.00     0.041 A 
ATOM     79  F   UNL A   1      49.995  25.694  27.999  1.00  0.00    -0.206 F 
ATOM     80  C   UNL A   1      51.944  26.124  24.982  1.00  0.00     0.022 A 
BRANCH  77  81
ATOM     81  S   UNL A   1      51.437  27.231  22.473  1.00  0.00     0.124 S 
ATOM     82  O   UNL A   1      51.674  28.668  22.537  1.00  0.00    -0.237 OA
ATOM     83  O   UNL A   1      52.611  26.396  22.239  1.00  0.00    -0.237 OA
ATOM     84  O   UNL A   1      50.233  26.827  21.749  1.00  0.00    -0.744 OA
ENDBRANCH  77  81
ENDBRANCH  50  74
BRANCH  62  85
ATOM     85  C   UNL A   1      46.564  32.532  28.845  1.00  0.00     0.023 A 
ATOM     86  C   UNL A   1      46.685  33.600  27.939  1.00  0.00     0.031 A 
ATOM     87  C   UNL A   1      47.035  32.723  30.157  1.00  0.00     0.131 A 
ATOM     88  C   UNL A   1      47.321  34.786  28.338  1.00  0.00     0.055 A 
ATOM     89  C   UNL A   1      47.606  33.928  30.567  1.00  0.00     0.041 A 
ATOM     90  F   UNL A   1      46.947  31.736  31.064  1.00  0.00    -0.206 F 
ATOM     91  C   UNL A   1      47.767  34.963  29.651  1.00  0.00     0.022 A 
BRANCH  88  92
ATOM     92  S   UNL A   1      47.659  36.056  27.087  1.00  0.00     0.124 S 
ATOM     93  O   UNL A   1      46.573  35.842  26.135  1.00  0.00    -0.237 OA
ATOM     94  O   UNL A   1      47.590  37.287  27.867  1.00  0.00    -0.237 OA
ATOM     95  O   UNL A   1      48.991  35.708  26.597  1.00  0.00    -0.744 OA
ENDBRANCH  88  92
ENDBRANCH  62  85
ENDBRANCH  36  37
ENDBRANCH  28  31
ENDBRANCH  26  27
ENDBRANCH  25  26
ENDBRANCH  24  25
ENDBRANCH  23  24
ENDBRANCH   1  23
TORSDOF 21
ENDMDL
MODEL 2
REMARK VINA RESULT:     -10.1      0.832      7.784
REMARK SMILES C[C@@H](CC(=O)NCCCCCCNC(=O)c1ccc(-c2c3nc(c(-c4cc(S(=O)(=O)[O-])ccc4F)c4ccc([nH]4)c(-c4cc(S(=O)(=O)[O-])ccc4F)c4nc(c(-c5cc(S(=O)(=O)[O-])ccc5F)c5ccc2[nH]5)C=C4)C=C3)cc1)NC(=O)CN(C)c1ncccn1
REMARK SMILES IDX 8 1 7 2 6 3 4 4 5 5 3 7 2 8 1 9 79 10 80 11 81 13 82 14
REMARK SMILES IDX 83 15 84 16 85 17 86 18 90 19 87 20 89 21 88 22 9 23 10 24
REMARK SMILES IDX 11 25 12 26 13 27 14 28 15 30 16 31 17 32 78 33 18 34 77 35
REMARK SMILES IDX 19 36 20 37 21 38 71 39 22 40 76 41 70 42 72 43 23 44 75 45
REMARK SMILES IDX 69 46 68 47 24 49 56 50 36 51 55 52 37 53 40 54 54 55 73 56
REMARK SMILES IDX 38 57 39 58 53 60 74 61 41 62 25 63 26 64 34 65 27 66 33 67
REMARK SMILES IDX 35 68 32 69 28 70 29 71 30 72 31 73 57 74 58 75 66 76 59 77
REMARK SMILES IDX 65 78 67 79 64 80 60 81 61 82 62 83 63 84 42 85 43 86 51 87
REMARK SMILES IDX 44 88 50 89 52 90 49 91 45 92 46 93 47 94 48 95
REMARK H PARENT 6 6 79 12 13 29 72 48 40 59
REMARK Flexibility Score: inf
ROOT
ATOM      1  C   UNL A   1      37.318  23.123  24.397  1.00  0.00     0.021 C 
ENDROOT
BRANCH   1   2
ATOM      2  C   UNL A   1      35.801  23.234  24.217  1.00  0.00     0.116 C 
BRANCH   2   3
ATOM      3  N   UNL A   1      35.253  24.158  25.189  1.00  0.00    -0.356 N 
ATOM      4  C   UNL A   1      34.248  25.063  25.062  1.00  0.00     0.222 C 
ATOM      5  O   UNL A   1      34.087  25.880  25.971  1.00  0.00    -0.275 OA
ATOM      6  H   UNL A   1      35.673  24.123  26.079  1.00  0.00     0.163 HD
BRANCH   4   7
ATOM      7  C   UNL A   1      33.325  25.052  23.859  1.00  0.00     0.124 C 
BRANCH   7   8
ATOM      8  C   UNL A   1      32.056  24.190  23.976  1.00  0.00     0.088 C 
ATOM      9  C   UNL A   1      30.888  24.757  23.179  1.00  0.00     0.031 C 
BRANCH   8  10
ATOM     10  N   UNL A   1      31.673  23.947  25.360  1.00  0.00    -0.352 N 
ATOM     11  C   UNL A   1      31.439  22.758  25.998  1.00  0.00     0.239 C 
ATOM     12  H   UNL A   1      31.565  24.753  25.917  1.00  0.00     0.163 HD
ATOM     13  O   UNL A   1      31.103  22.800  27.186  1.00  0.00    -0.273 OA
BRANCH  11  14
ATOM     14  C   UNL A   1      31.754  21.424  25.305  1.00  0.00     0.219 C 
BRANCH  14  15
ATOM     15  N   UNL A   1      32.999  20.774  25.705  1.00  0.00    -0.335 N 
ATOM     16  C   UNL A   1      33.805  21.318  26.775  1.00  0.00     0.147 C 
BRANCH  15  17
ATOM     17  C   UNL A   1      33.210  19.457  25.350  1.00  0.00     0.225 A 
ATOM     18  N   UNL A   1      34.283  19.152  24.601  1.00  0.00    -0.221 NA
ATOM     19  N   UNL A   1      32.304  18.538  25.713  1.00  0.00    -0.221 NA
ATOM     20  C   UNL A   1      34.439  17.870  24.218  1.00  0.00     0.117 A 
ATOM     21  C   UNL A   1      32.476  17.276  25.276  1.00  0.00     0.117 A 
ATOM     22  C   UNL A   1      33.547  16.877  24.520  1.00  0.00     0.040 A 
ENDBRANCH  15  17
ENDBRANCH  14  15
ENDBRANCH  11  14
ENDBRANCH   8  10
ENDBRANCH   7   8
ENDBRANCH   4   7
ENDBRANCH   2   3
ENDBRANCH   1   2
BRANCH   1  23
ATOM     23  C   UNL A   1      37.750  22.011  25.354  1.00  0.00     0.002 C 
BRANCH  23  24
ATOM     24  C   UNL A   1      37.481  20.593  24.845  1.00  0.00     0.002 C 
BRANCH  24  25
ATOM     25  C   UNL A   1      38.494  19.539  25.302  1.00  0.00     0.021 C 
BRANCH  25  26
ATOM     26  C   UNL A   1      39.666  20.091  26.107  1.00  0.00     0.116 C 
BRANCH  26  27
ATOM     27  N   UNL A   1      40.849  19.257  25.969  1.00  0.00    -0.352 N 
ATOM     28  C   UNL A   1      42.161  19.632  25.870  1.00  0.00     0.251 C 
ATOM     29  H   UNL A   1      40.683  18.287  25.943  1.00  0.00     0.163 HD
ATOM     30  O   UNL A   1      43.004  18.812  25.493  1.00  0.00    -0.269 OA
BRANCH  28  31
ATOM     31  C   UNL A   1      42.563  21.013  26.204  1.00  0.00     0.039 A 
ATOM     32  C   UNL A   1      42.767  21.360  27.541  1.00  0.00     0.014 A 
ATOM     33  C   UNL A   1      42.712  21.973  25.197  1.00  0.00     0.014 A 
ATOM     34  C   UNL A   1      43.155  22.662  27.866  1.00  0.00     0.010 A 
ATOM     35  C   UNL A   1      43.172  23.246  25.515  1.00  0.00     0.010 A 
ATOM     36  C   UNL A   1      43.378  23.611  26.855  1.00  0.00    -0.014 A 
BRANCH  36  37
ATOM     37  C   UNL A   1      43.772  25.006  27.182  1.00  0.00     0.031 A 
ATOM     38  C   UNL A   1      45.202  25.438  26.995  1.00  0.00     0.074 A 
ATOM     39  C   UNL A   1      42.863  25.860  27.686  1.00  0.00     0.049 A 
ATOM     40  N   UNL A   1      45.769  26.580  27.287  1.00  0.00    -0.248 NA
ATOM     41  C   UNL A   1      46.122  24.437  26.437  1.00  0.00     0.031 C 
ATOM     42  C   UNL A   1      41.456  25.545  27.941  1.00  0.00     0.029 A 
ATOM     43  N   UNL A   1      42.985  27.169  28.080  1.00  0.00    -0.354 N 
ATOM     44  C   UNL A   1      47.114  26.431  26.962  1.00  0.00     0.074 A 
ATOM     45  C   UNL A   1      47.286  25.063  26.520  1.00  0.00     0.031 C 
ATOM     46  C   UNL A   1      40.841  26.637  28.422  1.00  0.00     0.029 A 
ATOM     47  C   UNL A   1      41.814  27.717  28.552  1.00  0.00     0.049 A 
ATOM     48  H   UNL A   1      43.831  27.669  28.029  1.00  0.00     0.167 HD
ATOM     49  C   UNL A   1      48.106  27.355  27.001  1.00  0.00     0.034 A 
ATOM     50  C   UNL A   1      41.559  28.948  29.037  1.00  0.00     0.034 A 
ATOM     51  C   UNL A   1      47.910  28.718  27.433  1.00  0.00     0.049 A 
ATOM     52  C   UNL A   1      42.680  29.956  29.086  1.00  0.00     0.074 A 
ATOM     53  C   UNL A   1      48.832  29.749  27.484  1.00  0.00     0.029 A 
ATOM     54  N   UNL A   1      46.706  29.241  27.891  1.00  0.00    -0.354 N 
ATOM     55  N   UNL A   1      43.940  29.811  28.744  1.00  0.00    -0.248 NA
ATOM     56  C   UNL A   1      42.339  31.300  29.568  1.00  0.00     0.031 C 
ATOM     57  C   UNL A   1      48.203  30.873  28.031  1.00  0.00     0.029 A 
ATOM     58  C   UNL A   1      46.868  30.572  28.245  1.00  0.00     0.049 A 
ATOM     59  H   UNL A   1      45.862  28.739  27.955  1.00  0.00     0.167 HD
ATOM     60  C   UNL A   1      44.530  31.058  28.929  1.00  0.00     0.074 A 
ATOM     61  C   UNL A   1      43.485  31.943  29.404  1.00  0.00     0.031 C 
ATOM     62  C   UNL A   1      45.816  31.442  28.718  1.00  0.00     0.034 A 
BRANCH  49  63
ATOM     63  C   UNL A   1      49.489  26.902  26.590  1.00  0.00     0.023 A 
ATOM     64  C   UNL A   1      50.080  27.332  25.388  1.00  0.00     0.031 A 
ATOM     65  C   UNL A   1      50.211  25.994  27.385  1.00  0.00     0.131 A 
ATOM     66  C   UNL A   1      51.303  26.786  24.973  1.00  0.00     0.055 A 
ATOM     67  C   UNL A   1      51.471  25.525  27.010  1.00  0.00     0.041 A 
ATOM     68  F   UNL A   1      49.692  25.528  28.532  1.00  0.00    -0.206 F 
ATOM     69  C   UNL A   1      52.017  25.906  25.788  1.00  0.00     0.022 A 
BRANCH  66  70
ATOM     70  S   UNL A   1      51.863  27.112  23.278  1.00  0.00     0.124 S 
ATOM     71  O   UNL A   1      52.287  28.507  23.373  1.00  0.00    -0.237 OA
ATOM     72  O   UNL A   1      52.926  26.130  23.102  1.00  0.00    -0.237 OA
ATOM     73  O   UNL A   1      50.664  26.887  22.472  1.00  0.00    -0.744 OA
ENDBRANCH  66  70
ENDBRANCH  49  63
BRANCH  50  74
ATOM     74  C   UNL A   1      40.190  29.305  29.509  1.00  0.00     0.023 A 
ATOM     75  C   UNL A   1      39.887  29.352  30.878  1.00  0.00     0.031 A 
ATOM     76  C   UNL A   1      39.153  29.566  28.595  1.00  0.00     0.131 A 
ATOM     77  C   UNL A   1      38.571  29.601  31.296  1.00  0.00     0.055 A 
ATOM     78  C   UNL A   1      37.858  29.867  29.017  1.00  0.00     0.041 A 
ATOM     79  F   UNL A   1      39.391  29.542  27.274  1.00  0.00    -0.206 F 
ATOM     80  C   UNL A   1      37.557  29.872  30.374  1.00  0.00     0.022 A 
BRANCH  77  81
ATOM     81  S   UNL A   1      38.184  29.482  33.064  1.00  0.00     0.124 S 
ATOM     82  O   UNL A   1      39.502  29.241  33.640  1.00  0.00    -0.237 OA
ATOM     83  O   UNL A   1      37.594  30.789  33.333  1.00  0.00    -0.237 OA
ATOM     84  O   UNL A   1      37.256  28.355  33.133  1.00  0.00    -0.744 OA
ENDBRANCH  77  81
ENDBRANCH  50  74
BRANCH  62  85
ATOM     85  C   UNL A   1      46.142  32.900  28.938  1.00  0.00     0.023 A 
ATOM     86  C   UNL A   1      45.915  33.872  27.948  1.00  0.00     0.031 A 
ATOM     87  C   UNL A   1      46.710  33.316  30.155  1.00  0.00     0.131 A 
ATOM     88  C   UNL A   1      46.315  35.199  28.169  1.00  0.00     0.055 A 
ATOM     89  C   UNL A   1      47.045  34.650  30.394  1.00  0.00     0.041 A 
ATOM     90  F   UNL A   1      46.951  32.430  31.135  1.00  0.00    -0.206 F 
ATOM     91  C   UNL A   1      46.863  35.597  29.391  1.00  0.00     0.022 A 
BRANCH  88  92
ATOM     92  S   UNL A   1      46.214  36.378  26.794  1.00  0.00     0.124 S 
ATOM     93  O   UNL A   1      46.534  35.536  25.646  1.00  0.00    -0.237 OA
ATOM     94  O   UNL A   1      44.832  36.839  26.881  1.00  0.00    -0.237 OA
ATOM     95  O   UNL A   1      47.222  37.382  27.128  1.00  0.00    -0.744 OA
ENDBRANCH  88  92
ENDBRANCH  62  85
ENDBRANCH  36  37
ENDBRANCH  28  31
ENDBRANCH  26  27
ENDBRANCH  25  26
ENDBRANCH  24  25
ENDBRANCH  23  24
ENDBRANCH   1  23
TORSDOF 21
ENDMDL
MODEL 3
REMARK VINA RESULT:     -10.1      6.644     11.125
REMARK SMILES C[C@@H](CC(=O)NCCCCCCNC(=O)c1ccc(-c2c3nc(c(-c4cc(S(=O)(=O)[O-])ccc4F)c4ccc([nH]4)c(-c4cc(S(=O)(=O)[O-])ccc4F)c4nc(c(-c5cc(S(=O)(=O)[O-])ccc5F)c5ccc2[nH]5)C=C4)C=C3)cc1)NC(=O)CN(C)c1ncccn1
REMARK SMILES IDX 8 1 7 2 6 3 4 4 5 5 3 7 2 8 1 9 79 10 80 11 81 13 82 14
REMARK SMILES IDX 83 15 84 16 85 17 86 18 90 19 87 20 89 21 88 22 9 23 10 24
REMARK SMILES IDX 11 25 12 26 13 27 14 28 15 30 16 31 17 32 78 33 18 34 77 35
REMARK SMILES IDX 19 36 20 37 21 38 71 39 22 40 76 41 70 42 72 43 23 44 75 45
REMARK SMILES IDX 69 46 68 47 24 49 56 50 36 51 55 52 37 53 40 54 54 55 73 56
REMARK SMILES IDX 38 57 39 58 53 60 74 61 41 62 25 63 26 64 34 65 27 66 33 67
REMARK SMILES IDX 35 68 32 69 28 70 29 71 30 72 31 73 57 74 58 75 66 76 59 77
REMARK SMILES IDX 65 78 67 79 64 80 60 81 61 82 62 83 63 84 42 85 43 86 51 87
REMARK SMILES IDX 44 88 50 89 52 90 49 91 45 92 46 93 47 94 48 95
REMARK H PARENT 6 6 79 12 13 29 72 48 40 59
REMARK Flexibility Score: inf
ROOT
ATOM      1  C   UNL A   1      35.543  31.185  28.544  1.00  0.00     0.021 C 
ENDROOT
BRANCH   1   2
ATOM      2  C   UNL A   1      34.971  29.965  27.817  1.00  0.00     0.116 C 
BRANCH   2   3
ATOM      3  N   UNL A   1      33.590  30.207  27.453  1.00  0.00    -0.356 N 
ATOM      4  C   UNL A   1      32.917  29.885  26.318  1.00  0.00     0.222 C 
ATOM      5  O   UNL A   1      31.795  30.369  26.154  1.00  0.00    -0.275 OA
ATOM      6  H   UNL A   1      33.056  30.678  28.135  1.00  0.00     0.163 HD
BRANCH   4   7
ATOM      7  C   UNL A   1      33.504  28.929  25.298  1.00  0.00     0.124 C 
BRANCH   7   8
ATOM      8  C   UNL A   1      32.754  27.602  25.090  1.00  0.00     0.088 C 
ATOM      9  C   UNL A   1      33.531  26.402  25.615  1.00  0.00     0.031 C 
BRANCH   8  10
ATOM     10  N   UNL A   1      32.355  27.398  23.704  1.00  0.00    -0.352 N 
ATOM     11  C   UNL A   1      31.190  27.749  23.078  1.00  0.00     0.239 C 
ATOM     12  H   UNL A   1      33.018  26.942  23.136  1.00  0.00     0.163 HD
ATOM     13  O   UNL A   1      31.066  27.453  21.884  1.00  0.00    -0.273 OA
BRANCH  11  14
ATOM     14  C   UNL A   1      30.153  28.630  23.791  1.00  0.00     0.219 C 
BRANCH  14  15
ATOM     15  N   UNL A   1      28.916  28.883  23.056  1.00  0.00    -0.335 N 
ATOM     16  C   UNL A   1      27.764  28.027  23.232  1.00  0.00     0.147 C 
BRANCH  15  17
ATOM     17  C   UNL A   1      28.708  30.133  22.508  1.00  0.00     0.225 A 
ATOM     18  N   UNL A   1      28.812  31.213  23.301  1.00  0.00    -0.221 NA
ATOM     19  N   UNL A   1      28.351  30.221  21.219  1.00  0.00    -0.221 NA
ATOM     20  C   UNL A   1      28.549  32.418  22.759  1.00  0.00     0.117 A 
ATOM     21  C   UNL A   1      28.058  31.439  20.728  1.00  0.00     0.117 A 
ATOM     22  C   UNL A   1      28.150  32.593  21.461  1.00  0.00     0.040 A 
ENDBRANCH  15  17
ENDBRANCH  14  15
ENDBRANCH  11  14
ENDBRANCH   8  10
ENDBRANCH   7   8
ENDBRANCH   4   7
ENDBRANCH   2   3
ENDBRANCH   1   2
BRANCH   1  23
ATOM     23  C   UNL A   1      35.387  32.497  27.774  1.00  0.00     0.002 C 
BRANCH  23  24
ATOM     24  C   UNL A   1      35.718  33.753  28.583  1.00  0.00     0.002 C 
BRANCH  24  25
ATOM     25  C   UNL A   1      34.647  34.847  28.546  1.00  0.00     0.021 C 
BRANCH  25  26
ATOM     26  C   UNL A   1      33.303  34.441  29.141  1.00  0.00     0.116 C 
BRANCH  26  27
ATOM     27  N   UNL A   1      32.937  35.289  30.264  1.00  0.00    -0.352 N 
ATOM     28  C   UNL A   1      33.383  35.249  31.557  1.00  0.00     0.251 C 
ATOM     29  H   UNL A   1      32.275  35.991  30.067  1.00  0.00     0.163 HD
ATOM     30  O   UNL A   1      32.772  35.868  32.434  1.00  0.00    -0.269 OA
BRANCH  28  31
ATOM     31  C   UNL A   1      34.583  34.462  31.901  1.00  0.00     0.039 A 
ATOM     32  C   UNL A   1      35.831  35.089  31.916  1.00  0.00     0.014 A 
ATOM     33  C   UNL A   1      34.480  33.095  32.183  1.00  0.00     0.014 A 
ATOM     34  C   UNL A   1      36.970  34.354  32.248  1.00  0.00     0.010 A 
ATOM     35  C   UNL A   1      35.604  32.383  32.587  1.00  0.00     0.010 A 
ATOM     36  C   UNL A   1      36.865  33.000  32.603  1.00  0.00    -0.014 A 
BRANCH  36  37
ATOM     37  C   UNL A   1      38.068  32.196  32.941  1.00  0.00     0.031 A 
ATOM     38  C   UNL A   1      38.807  32.464  34.225  1.00  0.00     0.074 A 
ATOM     39  C   UNL A   1      38.520  31.267  32.077  1.00  0.00     0.049 A 
ATOM     40  N   UNL A   1      39.915  31.933  34.673  1.00  0.00    -0.248 NA
ATOM     41  C   UNL A   1      38.238  33.496  35.105  1.00  0.00     0.031 C 
ATOM     42  C   UNL A   1      37.906  30.942  30.788  1.00  0.00     0.029 A 
ATOM     43  N   UNL A   1      39.603  30.427  32.151  1.00  0.00    -0.354 N 
ATOM     44  C   UNL A   1      40.183  32.573  35.879  1.00  0.00     0.074 A 
ATOM     45  C   UNL A   1      39.160  33.583  36.051  1.00  0.00     0.031 C 
ATOM     46  C   UNL A   1      38.606  29.954  30.206  1.00  0.00     0.029 A 
ATOM     47  C   UNL A   1      39.740  29.606  31.056  1.00  0.00     0.049 A 
ATOM     48  H   UNL A   1      40.222  30.413  32.915  1.00  0.00     0.167 HD
ATOM     49  C   UNL A   1      41.173  32.324  36.772  1.00  0.00     0.034 A 
ATOM     50  C   UNL A   1      40.679  28.682  30.769  1.00  0.00     0.034 A 
ATOM     51  C   UNL A   1      42.177  31.303  36.586  1.00  0.00     0.049 A 
ATOM     52  C   UNL A   1      41.779  28.431  31.769  1.00  0.00     0.074 A 
ATOM     53  C   UNL A   1      43.206  30.940  37.436  1.00  0.00     0.029 A 
ATOM     54  N   UNL A   1      42.277  30.481  35.470  1.00  0.00    -0.354 N 
ATOM     55  N   UNL A   1      42.003  29.021  32.921  1.00  0.00    -0.248 NA
ATOM     56  C   UNL A   1      42.744  27.374  31.438  1.00  0.00     0.031 C 
ATOM     57  C   UNL A   1      43.964  29.946  36.808  1.00  0.00     0.029 A 
ATOM     58  C   UNL A   1      43.362  29.627  35.602  1.00  0.00     0.049 A 
ATOM     59  H   UNL A   1      41.666  30.502  34.699  1.00  0.00     0.167 HD
ATOM     60  C   UNL A   1      43.108  28.377  33.471  1.00  0.00     0.074 A 
ATOM     61  C   UNL A   1      43.497  27.348  32.527  1.00  0.00     0.031 C 
ATOM     62  C   UNL A   1      43.738  28.607  34.651  1.00  0.00     0.034 A 
BRANCH  49  63
ATOM     63  C   UNL A   1      41.224  33.193  38.008  1.00  0.00     0.023 A 
ATOM     64  C   UNL A   1      40.475  32.886  39.158  1.00  0.00     0.031 A 
ATOM     65  C   UNL A   1      41.996  34.369  38.025  1.00  0.00     0.131 A 
ATOM     66  C   UNL A   1      40.438  33.786  40.234  1.00  0.00     0.055 A 
ATOM     67  C   UNL A   1      42.028  35.214  39.137  1.00  0.00     0.041 A 
ATOM     68  F   UNL A   1      42.715  34.731  36.951  1.00  0.00    -0.206 F 
ATOM     69  C   UNL A   1      41.231  34.935  40.243  1.00  0.00     0.022 A 
BRANCH  66  70
ATOM     70  S   UNL A   1      39.211  33.517  41.543  1.00  0.00     0.124 S 
ATOM     71  O   UNL A   1      39.684  32.268  42.136  1.00  0.00    -0.237 OA
ATOM     72  O   UNL A   1      39.359  34.712  42.365  1.00  0.00    -0.237 OA
ATOM     73  O   UNL A   1      37.949  33.412  40.813  1.00  0.00    -0.744 OA
ENDBRANCH  66  70
ENDBRANCH  49  63
BRANCH  50  74
ATOM     74  C   UNL A   1      40.621  27.917  29.490  1.00  0.00     0.023 A 
ATOM     75  C   UNL A   1      41.496  28.212  28.432  1.00  0.00     0.031 A 
ATOM     76  C   UNL A   1      39.662  26.908  29.291  1.00  0.00     0.131 A 
ATOM     77  C   UNL A   1      41.363  27.542  27.206  1.00  0.00     0.055 A 
ATOM     78  C   UNL A   1      39.570  26.207  28.088  1.00  0.00     0.041 A 
ATOM     79  F   UNL A   1      38.806  26.581  30.272  1.00  0.00    -0.206 F 
ATOM     80  C   UNL A   1      40.414  26.532  27.032  1.00  0.00     0.022 A 
BRANCH  77  81
ATOM     81  S   UNL A   1      42.395  28.070  25.813  1.00  0.00     0.124 S 
ATOM     82  O   UNL A   1      41.683  29.255  25.349  1.00  0.00    -0.237 OA
ATOM     83  O   UNL A   1      43.681  28.306  26.461  1.00  0.00    -0.237 OA
ATOM     84  O   UNL A   1      42.356  26.923  24.907  1.00  0.00    -0.744 OA
ENDBRANCH  77  81
ENDBRANCH  50  74
BRANCH  62  85
ATOM     85  C   UNL A   1      44.875  27.680  35.014  1.00  0.00     0.023 A 
ATOM     86  C   UNL A   1      44.655  26.436  35.629  1.00  0.00     0.031 A 
ATOM     87  C   UNL A   1      46.203  28.065  34.756  1.00  0.00     0.131 A 
ATOM     88  C   UNL A   1      45.750  25.650  36.024  1.00  0.00     0.055 A 
ATOM     89  C   UNL A   1      47.285  27.250  35.092  1.00  0.00     0.041 A 
ATOM     90  F   UNL A   1      46.472  29.244  34.173  1.00  0.00    -0.206 F 
ATOM     91  C   UNL A   1      47.061  26.041  35.744  1.00  0.00     0.022 A 
BRANCH  88  92
ATOM     92  S   UNL A   1      45.438  24.160  37.011  1.00  0.00     0.124 S 
ATOM     93  O   UNL A   1      44.707  24.698  38.154  1.00  0.00    -0.237 OA
ATOM     94  O   UNL A   1      44.664  23.333  36.091  1.00  0.00    -0.237 OA
ATOM     95  O   UNL A   1      46.779  23.662  37.312  1.00  0.00    -0.744 OA
ENDBRANCH  88  92
ENDBRANCH  62  85
ENDBRANCH  36  37
ENDBRANCH  28  31
ENDBRANCH  26  27
ENDBRANCH  25  26
ENDBRANCH  24  25
ENDBRANCH  23  24
ENDBRANCH   1  23
TORSDOF 21
ENDMDL
