MODEL 1
REMARK VINA RESULT:      -8.7      0.000      0.000
REMARK SMILES O=C(/C=C/c1ccccc1Oc1cccc(Cl)c1)NCCCCCCNC(=O)c1ccc(-c2c3nc(c(-c4cc(S(=O)(=O)[O-])ccc4F)c4ccc([nH]4)c(-c4cc(S(=O)(=O)[O-])ccc4F)c4nc(c(-c5cc(S(=O)(=O)[O-])ccc5F)c5ccc2[nH]5)C=C4)C=C3)cc1
REMARK SMILES IDX 22 1 21 2 20 3 19 4 1 5 2 6 3 8 4 9 5 10 6 11 10 12 7 13
REMARK SMILES IDX 9 14 8 15 11 16 12 17 13 18 18 19 14 20 16 21 15 22 17 23
REMARK SMILES IDX 23 24 24 25 25 26 26 27 27 28 28 30 29 31 30 32 91 33 31 34
REMARK SMILES IDX 90 35 32 36 33 37 34 38 84 39 35 40 89 41 83 42 85 43 36 44
REMARK SMILES IDX 88 45 82 46 81 47 37 49 69 50 49 51 68 52 50 53 53 54 67 55
REMARK SMILES IDX 86 56 51 57 52 58 66 60 87 61 54 62 38 63 39 64 47 65 40 66
REMARK SMILES IDX 46 67 48 68 45 69 41 70 42 71 43 72 44 73 70 74 71 75 79 76
REMARK SMILES IDX 72 77 78 78 80 79 77 80 73 81 74 82 75 83 76 84 55 85 56 86
REMARK SMILES IDX 64 87 57 88 63 89 65 90 62 91 58 92 59 93 60 94 61 95
REMARK H PARENT 19 7 26 29 85 48 53 59
REMARK Flexibility Score: inf
ROOT
ATOM      1  C   UNL A   1      46.392  19.991  24.625  1.00  0.00     0.002 C 
ENDROOT
BRANCH   1   2
ATOM      2  C   UNL A   1      46.034  21.328  25.286  1.00  0.00     0.021 C 
BRANCH   2   3
ATOM      3  C   UNL A   1      46.223  22.541  24.379  1.00  0.00     0.116 C 
BRANCH   3   4
ATOM      4  N   UNL A   1      45.273  23.588  24.686  1.00  0.00    -0.353 N 
ATOM      5  O   UNL A   1      46.727  25.345  24.411  1.00  0.00    -0.270 OA
ATOM      6  C   UNL A   1      45.617  24.915  24.702  1.00  0.00     0.244 C 
ATOM      7  H   UNL A   1      44.344  23.337  24.892  1.00  0.00     0.163 HD
BRANCH   6   8
ATOM      8  C   UNL A   1      44.521  25.865  25.022  1.00  0.00     0.072 C 
ATOM      9  C   UNL A   1      44.674  27.025  25.677  1.00  0.00     0.017 C 
BRANCH   9  10
ATOM     10  C   UNL A   1      43.549  27.873  26.086  1.00  0.00     0.017 A 
ATOM     11  C   UNL A   1      42.288  27.440  25.630  1.00  0.00     0.012 A 
ATOM     12  C   UNL A   1      43.626  29.062  26.839  1.00  0.00     0.134 A 
ATOM     13  C   UNL A   1      41.124  28.148  25.927  1.00  0.00     0.001 A 
ATOM     14  C   UNL A   1      42.439  29.758  27.137  1.00  0.00     0.048 A 
ATOM     15  C   UNL A   1      41.199  29.309  26.684  1.00  0.00     0.004 A 
BRANCH  12  16
ATOM     16  O   UNL A   1      44.724  29.671  27.418  1.00  0.00    -0.457 OA
BRANCH  16  17
ATOM     17  C   UNL A   1      45.124  30.930  27.062  1.00  0.00     0.128 A 
ATOM     18  C   UNL A   1      46.439  31.284  27.382  1.00  0.00     0.047 A 
ATOM     19  C   UNL A   1      44.266  31.857  26.473  1.00  0.00     0.067 A 
ATOM     20  C   UNL A   1      46.931  32.538  27.026  1.00  0.00     0.005 A 
ATOM     21  C   UNL A   1      44.770  33.106  26.111  1.00  0.00     0.044 A 
ATOM     22  C   UNL A   1      46.097  33.448  26.377  1.00  0.00     0.021 A 
ATOM     23  Cl  UNL A   1      43.762  34.214  25.262  1.00  0.00    -0.084 Cl
ENDBRANCH  16  17
ENDBRANCH  12  16
ENDBRANCH   9  10
ENDBRANCH   6   8
ENDBRANCH   3   4
ENDBRANCH   2   3
ENDBRANCH   1   2
BRANCH   1  24
ATOM     24  C   UNL A   1      45.619  18.774  25.145  1.00  0.00     0.002 C 
BRANCH  24  25
ATOM     25  C   UNL A   1      44.109  18.812  24.909  1.00  0.00     0.021 C 
BRANCH  25  26
ATOM     26  C   UNL A   1      43.255  18.758  26.172  1.00  0.00     0.116 C 
BRANCH  26  27
ATOM     27  N   UNL A   1      41.834  18.892  25.890  1.00  0.00    -0.352 N 
ATOM     28  C   UNL A   1      40.981  19.920  26.208  1.00  0.00     0.251 C 
ATOM     29  H   UNL A   1      41.427  18.138  25.404  1.00  0.00     0.163 HD
ATOM     30  O   UNL A   1      39.771  19.780  26.045  1.00  0.00    -0.269 OA
BRANCH  28  31
ATOM     31  C   UNL A   1      41.519  21.177  26.774  1.00  0.00     0.039 A 
ATOM     32  C   UNL A   1      41.769  22.253  25.920  1.00  0.00     0.014 A 
ATOM     33  C   UNL A   1      41.767  21.300  28.145  1.00  0.00     0.014 A 
ATOM     34  C   UNL A   1      42.205  23.470  26.448  1.00  0.00     0.010 A 
ATOM     35  C   UNL A   1      42.125  22.536  28.678  1.00  0.00     0.010 A 
ATOM     36  C   UNL A   1      42.351  23.634  27.836  1.00  0.00    -0.014 A 
BRANCH  36  37
ATOM     37  C   UNL A   1      42.738  24.948  28.419  1.00  0.00     0.031 A 
ATOM     38  C   UNL A   1      44.190  25.301  28.594  1.00  0.00     0.074 A 
ATOM     39  C   UNL A   1      41.781  25.798  28.839  1.00  0.00     0.049 A 
ATOM     40  N   UNL A   1      44.725  26.375  29.117  1.00  0.00    -0.248 NA
ATOM     41  C   UNL A   1      45.169  24.300  28.147  1.00  0.00     0.031 C 
ATOM     42  C   UNL A   1      40.339  25.556  28.756  1.00  0.00     0.029 A 
ATOM     43  N   UNL A   1      41.873  27.039  29.420  1.00  0.00    -0.354 N 
ATOM     44  C   UNL A   1      46.101  26.174  29.075  1.00  0.00     0.074 A 
ATOM     45  C   UNL A   1      46.309  24.846  28.538  1.00  0.00     0.031 C 
ATOM     46  C   UNL A   1      39.684  26.629  29.224  1.00  0.00     0.029 A 
ATOM     47  C   UNL A   1      40.653  27.615  29.692  1.00  0.00     0.049 A 
ATOM     48  H   UNL A   1      42.731  27.476  29.622  1.00  0.00     0.167 HD
ATOM     49  C   UNL A   1      47.096  27.025  29.430  1.00  0.00     0.034 A 
ATOM     50  C   UNL A   1      40.350  28.800  30.257  1.00  0.00     0.034 A 
ATOM     51  C   UNL A   1      46.867  28.348  29.962  1.00  0.00     0.049 A 
ATOM     52  C   UNL A   1      41.473  29.708  30.691  1.00  0.00     0.074 A 
ATOM     53  C   UNL A   1      47.798  29.316  30.295  1.00  0.00     0.029 A 
ATOM     54  N   UNL A   1      45.618  28.884  30.255  1.00  0.00    -0.354 N 
ATOM     55  N   UNL A   1      42.770  29.530  30.588  1.00  0.00    -0.248 NA
ATOM     56  C   UNL A   1      41.087  30.982  31.311  1.00  0.00     0.031 C 
ATOM     57  C   UNL A   1      47.121  30.397  30.870  1.00  0.00     0.029 A 
ATOM     58  C   UNL A   1      45.760  30.149  30.809  1.00  0.00     0.049 A 
ATOM     59  H   UNL A   1      44.759  28.432  30.094  1.00  0.00     0.167 HD
ATOM     60  C   UNL A   1      43.353  30.689  31.096  1.00  0.00     0.074 A 
ATOM     61  C   UNL A   1      42.265  31.560  31.491  1.00  0.00     0.031 C 
ATOM     62  C   UNL A   1      44.669  31.006  31.216  1.00  0.00     0.034 A 
BRANCH  49  63
ATOM     63  C   UNL A   1      48.518  26.527  29.288  1.00  0.00     0.023 A 
ATOM     64  C   UNL A   1      49.251  26.701  28.100  1.00  0.00     0.031 A 
ATOM     65  C   UNL A   1      49.137  25.828  30.340  1.00  0.00     0.131 A 
ATOM     66  C   UNL A   1      50.510  26.101  27.956  1.00  0.00     0.055 A 
ATOM     67  C   UNL A   1      50.431  25.317  30.226  1.00  0.00     0.041 A 
ATOM     68  F   UNL A   1      48.485  25.610  31.493  1.00  0.00    -0.206 F 
ATOM     69  C   UNL A   1      51.119  25.434  29.021  1.00  0.00     0.022 A 
BRANCH  66  70
ATOM     70  S   UNL A   1      51.260  26.049  26.305  1.00  0.00     0.124 S 
ATOM     71  O   UNL A   1      51.935  24.753  26.329  1.00  0.00    -0.237 OA
ATOM     72  O   UNL A   1      50.099  26.149  25.428  1.00  0.00    -0.237 OA
ATOM     73  O   UNL A   1      52.153  27.206  26.297  1.00  0.00    -0.744 OA
ENDBRANCH  66  70
ENDBRANCH  49  63
BRANCH  50  74
ATOM     74  C   UNL A   1      38.927  29.208  30.445  1.00  0.00     0.023 A 
ATOM     75  C   UNL A   1      38.245  29.915  29.442  1.00  0.00     0.031 A 
ATOM     76  C   UNL A   1      38.241  28.937  31.642  1.00  0.00     0.131 A 
ATOM     77  C   UNL A   1      36.937  30.368  29.669  1.00  0.00     0.055 A 
ATOM     78  C   UNL A   1      36.919  29.340  31.842  1.00  0.00     0.041 A 
ATOM     79  F   UNL A   1      38.844  28.263  32.634  1.00  0.00    -0.206 F 
ATOM     80  C   UNL A   1      36.265  30.072  30.857  1.00  0.00     0.022 A 
BRANCH  77  81
ATOM     81  S   UNL A   1      36.158  31.431  28.423  1.00  0.00     0.124 S 
ATOM     82  O   UNL A   1      34.869  31.715  29.040  1.00  0.00    -0.237 OA
ATOM     83  O   UNL A   1      37.096  32.546  28.346  1.00  0.00    -0.237 OA
ATOM     84  O   UNL A   1      36.109  30.580  27.235  1.00  0.00    -0.744 OA
ENDBRANCH  77  81
ENDBRANCH  50  74
BRANCH  62  85
ATOM     85  C   UNL A   1      44.997  32.378  31.757  1.00  0.00     0.023 A 
ATOM     86  C   UNL A   1      45.218  32.606  33.127  1.00  0.00     0.031 A 
ATOM     87  C   UNL A   1      45.070  33.481  30.886  1.00  0.00     0.131 A 
ATOM     88  C   UNL A   1      45.436  33.912  33.593  1.00  0.00     0.055 A 
ATOM     89  C   UNL A   1      45.359  34.766  31.347  1.00  0.00     0.041 A 
ATOM     90  F   UNL A   1      44.863  33.328  29.569  1.00  0.00    -0.206 F 
ATOM     91  C   UNL A   1      45.528  34.991  32.710  1.00  0.00     0.022 A 
BRANCH  88  92
ATOM     92  S   UNL A   1      45.487  34.201  35.384  1.00  0.00     0.124 S 
ATOM     93  O   UNL A   1      46.917  34.370  35.622  1.00  0.00    -0.237 OA
ATOM     94  O   UNL A   1      44.671  35.402  35.530  1.00  0.00    -0.237 OA
ATOM     95  O   UNL A   1      44.904  32.984  35.945  1.00  0.00    -0.744 OA
ENDBRANCH  88  92
ENDBRANCH  62  85
ENDBRANCH  36  37
ENDBRANCH  28  31
ENDBRANCH  26  27
ENDBRANCH  25  26
ENDBRANCH  24  25
ENDBRANCH   1  24
TORSDOF 19
ENDMDL
MODEL 2
REMARK VINA RESULT:      -8.5      5.947     10.288
REMARK SMILES O=C(/C=C/c1ccccc1Oc1cccc(Cl)c1)NCCCCCCNC(=O)c1ccc(-c2c3nc(c(-c4cc(S(=O)(=O)[O-])ccc4F)c4ccc([nH]4)c(-c4cc(S(=O)(=O)[O-])ccc4F)c4nc(c(-c5cc(S(=O)(=O)[O-])ccc5F)c5ccc2[nH]5)C=C4)C=C3)cc1
REMARK SMILES IDX 22 1 21 2 20 3 19 4 1 5 2 6 3 8 4 9 5 10 6 11 10 12 7 13
REMARK SMILES IDX 9 14 8 15 11 16 12 17 13 18 18 19 14 20 16 21 15 22 17 23
REMARK SMILES IDX 23 24 24 25 25 26 26 27 27 28 28 30 29 31 30 32 91 33 31 34
REMARK SMILES IDX 90 35 32 36 33 37 34 38 84 39 35 40 89 41 83 42 85 43 36 44
REMARK SMILES IDX 88 45 82 46 81 47 37 49 69 50 49 51 68 52 50 53 53 54 67 55
REMARK SMILES IDX 86 56 51 57 52 58 66 60 87 61 54 62 38 63 39 64 47 65 40 66
REMARK SMILES IDX 46 67 48 68 45 69 41 70 42 71 43 72 44 73 70 74 71 75 79 76
REMARK SMILES IDX 72 77 78 78 80 79 77 80 73 81 74 82 75 83 76 84 55 85 56 86
REMARK SMILES IDX 64 87 57 88 63 89 65 90 62 91 58 92 59 93 60 94 61 95
REMARK H PARENT 19 7 26 29 85 48 53 59
REMARK Flexibility Score: inf
ROOT
ATOM      1  C   UNL A   1      30.705  28.257  22.751  1.00  0.00     0.002 C 
ENDROOT
BRANCH   1   2
ATOM      2  C   UNL A   1      30.903  26.736  22.705  1.00  0.00     0.021 C 
BRANCH   2   3
ATOM      3  C   UNL A   1      32.349  26.303  22.483  1.00  0.00     0.116 C 
BRANCH   3   4
ATOM      4  N   UNL A   1      32.546  24.910  22.820  1.00  0.00    -0.353 N 
ATOM      5  O   UNL A   1      33.279  24.243  20.748  1.00  0.00    -0.270 OA
ATOM      6  C   UNL A   1      32.973  23.983  21.906  1.00  0.00     0.244 C 
ATOM      7  H   UNL A   1      32.364  24.617  23.742  1.00  0.00     0.163 HD
BRANCH   6   8
ATOM      8  C   UNL A   1      33.137  22.597  22.416  1.00  0.00     0.072 C 
ATOM      9  C   UNL A   1      32.163  21.859  22.968  1.00  0.00     0.017 C 
BRANCH   9  10
ATOM     10  C   UNL A   1      32.397  20.545  23.576  1.00  0.00     0.017 A 
ATOM     11  C   UNL A   1      32.254  19.454  22.695  1.00  0.00     0.012 A 
ATOM     12  C   UNL A   1      32.704  20.290  24.928  1.00  0.00     0.134 A 
ATOM     13  C   UNL A   1      32.432  18.140  23.129  1.00  0.00     0.001 A 
ATOM     14  C   UNL A   1      32.889  18.958  25.344  1.00  0.00     0.048 A 
ATOM     15  C   UNL A   1      32.752  17.891  24.456  1.00  0.00     0.004 A 
BRANCH  12  16
ATOM     16  O   UNL A   1      32.922  21.175  25.966  1.00  0.00    -0.457 OA
BRANCH  16  17
ATOM     17  C   UNL A   1      33.833  22.192  25.871  1.00  0.00     0.128 A 
ATOM     18  C   UNL A   1      35.178  21.821  25.766  1.00  0.00     0.047 A 
ATOM     19  C   UNL A   1      33.475  23.537  25.942  1.00  0.00     0.067 A 
ATOM     20  C   UNL A   1      36.164  22.798  25.635  1.00  0.00     0.005 A 
ATOM     21  C   UNL A   1      34.467  24.507  25.800  1.00  0.00     0.044 A 
ATOM     22  C   UNL A   1      35.805  24.145  25.639  1.00  0.00     0.021 A 
ATOM     23  Cl  UNL A   1      34.025  26.170  25.751  1.00  0.00    -0.084 Cl
ENDBRANCH  16  17
ENDBRANCH  12  16
ENDBRANCH   9  10
ENDBRANCH   6   8
ENDBRANCH   3   4
ENDBRANCH   2   3
ENDBRANCH   1   2
BRANCH   1  24
ATOM     24  C   UNL A   1      30.865  28.897  24.134  1.00  0.00     0.002 C 
BRANCH  24  25
ATOM     25  C   UNL A   1      32.309  29.130  24.581  1.00  0.00     0.021 C 
BRANCH  25  26
ATOM     26  C   UNL A   1      32.478  29.511  26.048  1.00  0.00     0.116 C 
BRANCH  26  27
ATOM     27  N   UNL A   1      32.221  30.922  26.291  1.00  0.00    -0.352 N 
ATOM     28  C   UNL A   1      32.901  31.799  27.099  1.00  0.00     0.251 C 
ATOM     29  H   UNL A   1      31.450  31.300  25.809  1.00  0.00     0.163 HD
ATOM     30  O   UNL A   1      32.431  32.915  27.318  1.00  0.00    -0.269 OA
BRANCH  28  31
ATOM     31  C   UNL A   1      34.176  31.388  27.727  1.00  0.00     0.039 A 
ATOM     32  C   UNL A   1      35.141  32.360  28.000  1.00  0.00     0.014 A 
ATOM     33  C   UNL A   1      34.418  30.051  28.055  1.00  0.00     0.014 A 
ATOM     34  C   UNL A   1      36.319  32.001  28.660  1.00  0.00     0.010 A 
ATOM     35  C   UNL A   1      35.555  29.709  28.783  1.00  0.00     0.010 A 
ATOM     36  C   UNL A   1      36.519  30.679  29.092  1.00  0.00    -0.014 A 
BRANCH  36  37
ATOM     37  C   UNL A   1      37.732  30.298  29.865  1.00  0.00     0.031 A 
ATOM     38  C   UNL A   1      38.740  29.349  29.276  1.00  0.00     0.074 A 
ATOM     39  C   UNL A   1      37.897  30.765  31.118  1.00  0.00     0.049 A 
ATOM     40  N   UNL A   1      39.836  28.868  29.807  1.00  0.00    -0.248 NA
ATOM     41  C   UNL A   1      38.463  28.854  27.920  1.00  0.00     0.031 C 
ATOM     42  C   UNL A   1      36.973  31.664  31.814  1.00  0.00     0.029 A 
ATOM     43  N   UNL A   1      38.899  30.552  32.033  1.00  0.00    -0.354 N 
ATOM     44  C   UNL A   1      40.371  28.003  28.858  1.00  0.00     0.074 A 
ATOM     45  C   UNL A   1      39.441  27.978  27.749  1.00  0.00     0.031 C 
ATOM     46  C   UNL A   1      37.472  31.959  33.023  1.00  0.00     0.029 A 
ATOM     47  C   UNL A   1      38.723  31.231  33.216  1.00  0.00     0.049 A 
ATOM     48  H   UNL A   1      39.672  29.968  31.857  1.00  0.00     0.167 HD
ATOM     49  C   UNL A   1      41.539  27.314  28.898  1.00  0.00     0.034 A 
ATOM     50  C   UNL A   1      39.479  31.261  34.331  1.00  0.00     0.034 A 
ATOM     51  C   UNL A   1      42.455  27.354  30.013  1.00  0.00     0.049 A 
ATOM     52  C   UNL A   1      40.747  30.446  34.373  1.00  0.00     0.074 A 
ATOM     53  C   UNL A   1      43.693  26.747  30.135  1.00  0.00     0.029 A 
ATOM     54  N   UNL A   1      42.227  28.027  31.209  1.00  0.00    -0.354 N 
ATOM     55  N   UNL A   1      41.272  29.682  33.443  1.00  0.00    -0.248 NA
ATOM     56  C   UNL A   1      41.528  30.506  35.614  1.00  0.00     0.031 C 
ATOM     57  C   UNL A   1      44.170  26.978  31.430  1.00  0.00     0.029 A 
ATOM     58  C   UNL A   1      43.279  27.808  32.088  1.00  0.00     0.049 A 
ATOM     59  H   UNL A   1      41.434  28.576  31.403  1.00  0.00     0.167 HD
ATOM     60  C   UNL A   1      42.466  29.201  33.976  1.00  0.00     0.074 A 
ATOM     61  C   UNL A   1      42.586  29.774  35.301  1.00  0.00     0.031 C 
ATOM     62  C   UNL A   1      43.383  28.370  33.416  1.00  0.00     0.034 A 
BRANCH  49  63
ATOM     63  C   UNL A   1      41.864  26.429  27.714  1.00  0.00     0.023 A 
ATOM     64  C   UNL A   1      41.649  25.040  27.743  1.00  0.00     0.031 A 
ATOM     65  C   UNL A   1      42.440  26.976  26.553  1.00  0.00     0.131 A 
ATOM     66  C   UNL A   1      42.095  24.236  26.684  1.00  0.00     0.055 A 
ATOM     67  C   UNL A   1      42.793  26.182  25.460  1.00  0.00     0.041 A 
ATOM     68  F   UNL A   1      42.691  28.292  26.468  1.00  0.00    -0.206 F 
ATOM     69  C   UNL A   1      42.640  24.800  25.529  1.00  0.00     0.022 A 
BRANCH  66  70
ATOM     70  S   UNL A   1      42.121  22.437  26.914  1.00  0.00     0.124 S 
ATOM     71  O   UNL A   1      41.116  22.001  25.947  1.00  0.00    -0.237 OA
ATOM     72  O   UNL A   1      43.503  22.098  26.598  1.00  0.00    -0.237 OA
ATOM     73  O   UNL A   1      41.739  22.265  28.315  1.00  0.00    -0.744 OA
ENDBRANCH  66  70
ENDBRANCH  49  63
BRANCH  50  74
ATOM     74  C   UNL A   1      39.071  32.091  35.502  1.00  0.00     0.023 A 
ATOM     75  C   UNL A   1      39.533  33.410  35.642  1.00  0.00     0.031 A 
ATOM     76  C   UNL A   1      38.250  31.569  36.517  1.00  0.00     0.131 A 
ATOM     77  C   UNL A   1      39.212  34.146  36.793  1.00  0.00     0.055 A 
ATOM     78  C   UNL A   1      37.886  32.326  37.633  1.00  0.00     0.041 A 
ATOM     79  F   UNL A   1      37.779  30.315  36.434  1.00  0.00    -0.206 F 
ATOM     80  C   UNL A   1      38.379  33.618  37.781  1.00  0.00     0.022 A 
BRANCH  77  81
ATOM     81  S   UNL A   1      39.975  35.776  37.020  1.00  0.00     0.124 S 
ATOM     82  O   UNL A   1      39.281  36.265  38.204  1.00  0.00    -0.237 OA
ATOM     83  O   UNL A   1      41.382  35.430  37.194  1.00  0.00    -0.237 OA
ATOM     84  O   UNL A   1      39.658  36.475  35.776  1.00  0.00    -0.744 OA
ENDBRANCH  77  81
ENDBRANCH  50  74
BRANCH  62  85
ATOM     85  C   UNL A   1      44.623  28.070  34.226  1.00  0.00     0.023 A 
ATOM     86  C   UNL A   1      44.680  26.995  35.132  1.00  0.00     0.031 A 
ATOM     87  C   UNL A   1      45.760  28.889  34.105  1.00  0.00     0.131 A 
ATOM     88  C   UNL A   1      45.823  26.808  35.925  1.00  0.00     0.055 A 
ATOM     89  C   UNL A   1      46.920  28.654  34.843  1.00  0.00     0.041 A 
ATOM     90  F   UNL A   1      45.765  29.934  33.262  1.00  0.00    -0.206 F 
ATOM     91  C   UNL A   1      46.951  27.618  35.772  1.00  0.00     0.022 A 
BRANCH  88  92
ATOM     92  S   UNL A   1      45.775  25.559  37.240  1.00  0.00     0.124 S 
ATOM     93  O   UNL A   1      44.735  26.085  38.119  1.00  0.00    -0.237 OA
ATOM     94  O   UNL A   1      45.436  24.345  36.506  1.00  0.00    -0.237 OA
ATOM     95  O   UNL A   1      47.128  25.591  37.793  1.00  0.00    -0.744 OA
ENDBRANCH  88  92
ENDBRANCH  62  85
ENDBRANCH  36  37
ENDBRANCH  28  31
ENDBRANCH  26  27
ENDBRANCH  25  26
ENDBRANCH  24  25
ENDBRANCH   1  24
TORSDOF 19
ENDMDL
MODEL 3
REMARK VINA RESULT:      -8.3      6.212     11.340
REMARK SMILES O=C(/C=C/c1ccccc1Oc1cccc(Cl)c1)NCCCCCCNC(=O)c1ccc(-c2c3nc(c(-c4cc(S(=O)(=O)[O-])ccc4F)c4ccc([nH]4)c(-c4cc(S(=O)(=O)[O-])ccc4F)c4nc(c(-c5cc(S(=O)(=O)[O-])ccc5F)c5ccc2[nH]5)C=C4)C=C3)cc1
REMARK SMILES IDX 22 1 21 2 20 3 19 4 1 5 2 6 3 8 4 9 5 10 6 11 10 12 7 13
REMARK SMILES IDX 9 14 8 15 11 16 12 17 13 18 18 19 14 20 16 21 15 22 17 23
REMARK SMILES IDX 23 24 24 25 25 26 26 27 27 28 28 30 29 31 30 32 91 33 31 34
REMARK SMILES IDX 90 35 32 36 33 37 34 38 84 39 35 40 89 41 83 42 85 43 36 44
REMARK SMILES IDX 88 45 82 46 81 47 37 49 69 50 49 51 68 52 50 53 53 54 67 55
REMARK SMILES IDX 86 56 51 57 52 58 66 60 87 61 54 62 38 63 39 64 47 65 40 66
REMARK SMILES IDX 46 67 48 68 45 69 41 70 42 71 43 72 44 73 70 74 71 75 79 76
REMARK SMILES IDX 72 77 78 78 80 79 77 80 73 81 74 82 75 83 76 84 55 85 56 86
REMARK SMILES IDX 64 87 57 88 63 89 65 90 62 91 58 92 59 93 60 94 61 95
REMARK H PARENT 19 7 26 29 85 48 53 59
REMARK Flexibility Score: inf
ROOT
ATOM      1  C   UNL A   1      32.640  29.532  27.050  1.00  0.00     0.002 C 
ENDROOT
BRANCH   1   2
ATOM      2  C   UNL A   1      31.985  29.673  25.670  1.00  0.00     0.021 C 
BRANCH   2   3
ATOM      3  C   UNL A   1      31.472  28.360  25.086  1.00  0.00     0.116 C 
BRANCH   3   4
ATOM      4  N   UNL A   1      32.524  27.372  24.992  1.00  0.00    -0.353 N 
ATOM      5  O   UNL A   1      31.167  25.529  25.174  1.00  0.00    -0.270 OA
ATOM      6  C   UNL A   1      32.282  26.026  25.072  1.00  0.00     0.244 C 
ATOM      7  H   UNL A   1      33.451  27.680  24.866  1.00  0.00     0.163 HD
BRANCH   6   8
ATOM      8  C   UNL A   1      33.471  25.144  24.942  1.00  0.00     0.072 C 
ATOM      9  C   UNL A   1      33.656  23.998  25.613  1.00  0.00     0.017 C 
BRANCH   9  10
ATOM     10  C   UNL A   1      34.900  23.223  25.553  1.00  0.00     0.017 A 
ATOM     11  C   UNL A   1      36.063  23.990  25.347  1.00  0.00     0.012 A 
ATOM     12  C   UNL A   1      35.019  21.821  25.644  1.00  0.00     0.134 A 
ATOM     13  C   UNL A   1      37.321  23.394  25.255  1.00  0.00     0.001 A 
ATOM     14  C   UNL A   1      36.297  21.239  25.558  1.00  0.00     0.048 A 
ATOM     15  C   UNL A   1      37.440  22.016  25.363  1.00  0.00     0.004 A 
BRANCH  12  16
ATOM     16  O   UNL A   1      34.046  20.865  25.872  1.00  0.00    -0.457 OA
BRANCH  16  17
ATOM     17  C   UNL A   1      33.562  20.073  24.867  1.00  0.00     0.128 A 
ATOM     18  C   UNL A   1      32.654  20.665  23.983  1.00  0.00     0.047 A 
ATOM     19  C   UNL A   1      33.885  18.722  24.748  1.00  0.00     0.067 A 
ATOM     20  C   UNL A   1      32.138  19.933  22.917  1.00  0.00     0.005 A 
ATOM     21  C   UNL A   1      33.372  17.999  23.670  1.00  0.00     0.044 A 
ATOM     22  C   UNL A   1      32.508  18.598  22.752  1.00  0.00     0.021 A 
ATOM     23  Cl  UNL A   1      33.866  16.368  23.431  1.00  0.00    -0.084 Cl
ENDBRANCH  16  17
ENDBRANCH  12  16
ENDBRANCH   9  10
ENDBRANCH   6   8
ENDBRANCH   3   4
ENDBRANCH   2   3
ENDBRANCH   1   2
BRANCH   1  24
ATOM     24  C   UNL A   1      33.977  30.260  27.220  1.00  0.00     0.002 C 
BRANCH  24  25
ATOM     25  C   UNL A   1      33.891  31.787  27.230  1.00  0.00     0.021 C 
BRANCH  25  26
ATOM     26  C   UNL A   1      32.582  32.356  27.767  1.00  0.00     0.116 C 
BRANCH  26  27
ATOM     27  N   UNL A   1      32.562  33.811  27.759  1.00  0.00    -0.352 N 
ATOM     28  C   UNL A   1      33.328  34.691  28.482  1.00  0.00     0.251 C 
ATOM     29  H   UNL A   1      31.905  34.221  27.151  1.00  0.00     0.163 HD
ATOM     30  O   UNL A   1      33.049  35.889  28.477  1.00  0.00    -0.269 OA
BRANCH  28  31
ATOM     31  C   UNL A   1      34.464  34.191  29.288  1.00  0.00     0.039 A 
ATOM     32  C   UNL A   1      34.203  33.431  30.430  1.00  0.00     0.014 A 
ATOM     33  C   UNL A   1      35.784  34.461  28.914  1.00  0.00     0.014 A 
ATOM     34  C   UNL A   1      35.263  32.889  31.159  1.00  0.00     0.010 A 
ATOM     35  C   UNL A   1      36.837  33.854  29.596  1.00  0.00     0.010 A 
ATOM     36  C   UNL A   1      36.589  33.064  30.727  1.00  0.00    -0.014 A 
BRANCH  36  37
ATOM     37  C   UNL A   1      37.724  32.426  31.448  1.00  0.00     0.031 A 
ATOM     38  C   UNL A   1      38.469  31.277  30.823  1.00  0.00     0.074 A 
ATOM     39  C   UNL A   1      38.047  32.847  32.686  1.00  0.00     0.049 A 
ATOM     40  N   UNL A   1      39.456  30.567  31.310  1.00  0.00    -0.248 NA
ATOM     41  C   UNL A   1      38.026  30.854  29.488  1.00  0.00     0.031 C 
ATOM     42  C   UNL A   1      37.378  33.928  33.413  1.00  0.00     0.029 A 
ATOM     43  N   UNL A   1      39.020  32.419  33.556  1.00  0.00    -0.354 N 
ATOM     44  C   UNL A   1      39.742  29.605  30.346  1.00  0.00     0.074 A 
ATOM     45  C   UNL A   1      38.777  29.784  29.282  1.00  0.00     0.031 C 
ATOM     46  C   UNL A   1      37.987  34.108  34.595  1.00  0.00     0.029 A 
ATOM     47  C   UNL A   1      39.054  33.123  34.738  1.00  0.00     0.049 A 
ATOM     48  H   UNL A   1      39.637  31.679  33.352  1.00  0.00     0.167 HD
ATOM     49  C   UNL A   1      40.730  28.675  30.341  1.00  0.00     0.034 A 
ATOM     50  C   UNL A   1      39.851  32.987  35.817  1.00  0.00     0.034 A 
ATOM     51  C   UNL A   1      41.685  28.514  31.412  1.00  0.00     0.049 A 
ATOM     52  C   UNL A   1      40.910  31.912  35.809  1.00  0.00     0.074 A 
ATOM     53  C   UNL A   1      42.763  27.650  31.483  1.00  0.00     0.029 A 
ATOM     54  N   UNL A   1      41.667  29.222  32.608  1.00  0.00    -0.354 N 
ATOM     55  N   UNL A   1      41.208  31.050  34.865  1.00  0.00    -0.248 NA
ATOM     56  C   UNL A   1      41.743  31.800  37.012  1.00  0.00     0.031 C 
ATOM     57  C   UNL A   1      43.340  27.771  32.752  1.00  0.00     0.029 A 
ATOM     58  C   UNL A   1      42.686  28.778  33.441  1.00  0.00     0.049 A 
ATOM     59  H   UNL A   1      41.025  29.933  32.833  1.00  0.00     0.167 HD
ATOM     60  C   UNL A   1      42.291  30.319  35.347  1.00  0.00     0.074 A 
ATOM     61  C   UNL A   1      42.597  30.852  36.659  1.00  0.00     0.031 C 
ATOM     62  C   UNL A   1      42.975  29.305  34.756  1.00  0.00     0.034 A 
BRANCH  49  63
ATOM     63  C   UNL A   1      40.795  27.739  29.153  1.00  0.00     0.023 A 
ATOM     64  C   UNL A   1      41.734  27.914  28.120  1.00  0.00     0.031 A 
ATOM     65  C   UNL A   1      39.875  26.683  29.027  1.00  0.00     0.131 A 
ATOM     66  C   UNL A   1      41.670  27.116  26.969  1.00  0.00     0.055 A 
ATOM     67  C   UNL A   1      39.879  25.829  27.923  1.00  0.00     0.041 A 
ATOM     68  F   UNL A   1      38.939  26.474  29.967  1.00  0.00    -0.206 F 
ATOM     69  C   UNL A   1      40.767  26.054  26.874  1.00  0.00     0.022 A 
BRANCH  66  70
ATOM     70  S   UNL A   1      42.657  27.598  25.526  1.00  0.00     0.124 S 
ATOM     71  O   UNL A   1      43.962  27.852  26.133  1.00  0.00    -0.237 OA
ATOM     72  O   UNL A   1      42.567  26.419  24.674  1.00  0.00    -0.237 OA
ATOM     73  O   UNL A   1      41.972  28.788  25.024  1.00  0.00    -0.744 OA
ENDBRANCH  66  70
ENDBRANCH  49  63
BRANCH  50  74
ATOM     74  C   UNL A   1      39.692  33.887  36.995  1.00  0.00     0.023 A 
ATOM     75  C   UNL A   1      39.097  33.421  38.179  1.00  0.00     0.031 A 
ATOM     76  C   UNL A   1      40.091  35.234  36.944  1.00  0.00     0.131 A 
ATOM     77  C   UNL A   1      38.875  34.305  39.246  1.00  0.00     0.055 A 
ATOM     78  C   UNL A   1      39.920  36.096  38.031  1.00  0.00     0.041 A 
ATOM     79  F   UNL A   1      40.666  35.732  35.838  1.00  0.00    -0.206 F 
ATOM     80  C   UNL A   1      39.296  35.635  39.185  1.00  0.00     0.022 A 
BRANCH  77  81
ATOM     81  S   UNL A   1      37.943  33.710  40.684  1.00  0.00     0.124 S 
ATOM     82  O   UNL A   1      38.901  32.803  41.303  1.00  0.00    -0.237 OA
ATOM     83  O   UNL A   1      37.672  34.950  41.403  1.00  0.00    -0.237 OA
ATOM     84  O   UNL A   1      36.772  33.070  40.088  1.00  0.00    -0.744 OA
ENDBRANCH  77  81
ENDBRANCH  50  74
BRANCH  62  85
ATOM     85  C   UNL A   1      44.156  28.740  35.511  1.00  0.00     0.023 A 
ATOM     86  C   UNL A   1      44.029  27.640  36.378  1.00  0.00     0.031 A 
ATOM     87  C   UNL A   1      45.427  29.328  35.376  1.00  0.00     0.131 A 
ATOM     88  C   UNL A   1      45.136  27.206  37.124  1.00  0.00     0.055 A 
ATOM     89  C   UNL A   1      46.540  28.845  36.065  1.00  0.00     0.041 A 
ATOM     90  F   UNL A   1      45.609  30.385  34.568  1.00  0.00    -0.206 F 
ATOM     91  C   UNL A   1      46.395  27.788  36.957  1.00  0.00     0.022 A 
BRANCH  88  92
ATOM     92  S   UNL A   1      44.885  25.939  38.399  1.00  0.00     0.124 S 
ATOM     93  O   UNL A   1      44.573  24.760  37.596  1.00  0.00    -0.237 OA
ATOM     94  O   UNL A   1      46.175  25.922  39.081  1.00  0.00    -0.237 OA
ATOM     95  O   UNL A   1      43.773  26.463  39.189  1.00  0.00    -0.744 OA
ENDBRANCH  88  92
ENDBRANCH  62  85
ENDBRANCH  36  37
ENDBRANCH  28  31
ENDBRANCH  26  27
ENDBRANCH  25  26
ENDBRANCH  24  25
ENDBRANCH   1  24
TORSDOF 19
ENDMDL
