MODEL 1
REMARK VINA RESULT:     -11.6      0.000      0.000
REMARK SMILES O=C(NCCCCCCNC(=O)[C@H](CCc1ccccn1)c1ccccc1Br)c1ccc(-c2c3nc(c(-c4cc(S(=O)(=O)[O-])ccc4F)c4ccc([nH]4)c(-c4cc(S(=O)(=O)[O-])ccc4F)c4nc(c(-c5cc(S(=O)(=O)[O-])ccc5F)c5ccc2[nH]5)C=C4)C=C3)cc1
REMARK SMILES IDX 6 1 5 2 4 3 3 4 1 5 2 6 29 8 30 9 91 10 31 11 90 12 32 13
REMARK SMILES IDX 33 14 34 15 84 16 35 17 89 18 83 19 85 20 36 21 88 22 82 23
REMARK SMILES IDX 81 24 37 26 69 27 49 28 68 29 50 30 53 31 67 32 86 33 51 34
REMARK SMILES IDX 52 35 66 37 87 38 54 39 38 40 39 41 47 42 40 43 46 44 48 45
REMARK SMILES IDX 45 46 41 47 42 48 43 49 44 50 70 51 71 52 79 53 72 54 78 55
REMARK SMILES IDX 80 56 77 57 73 58 74 59 75 60 76 61 55 62 56 63 64 64 57 65
REMARK SMILES IDX 63 66 65 67 62 68 58 69 59 70 60 71 61 72 7 73 8 74 9 75
REMARK SMILES IDX 10 76 11 77 12 79 13 80 22 81 23 82 27 83 24 84 26 85 28 86
REMARK SMILES IDX 25 87 14 88 15 89 16 90 17 91 21 92 18 93 20 94 19 95
REMARK H PARENT 3 7 85 25 53 36 10 78
REMARK Flexibility Score: inf
ROOT
ATOM      1  C   UNL A   1      34.149  21.490  25.553  1.00  0.00     0.002 C 
ENDROOT
BRANCH   1   2
ATOM      2  C   UNL A   1      34.907  22.410  26.511  1.00  0.00     0.021 C 
BRANCH   2   3
ATOM      3  C   UNL A   1      36.313  22.799  26.066  1.00  0.00     0.116 C 
BRANCH   3   4
ATOM      4  N   UNL A   1      37.189  21.647  25.917  1.00  0.00    -0.352 N 
ATOM      5  O   UNL A   1      39.181  20.598  25.688  1.00  0.00    -0.269 OA
ATOM      6  C   UNL A   1      38.564  21.602  25.998  1.00  0.00     0.251 C 
ATOM      7  H   UNL A   1      36.742  20.788  25.736  1.00  0.00     0.163 HD
BRANCH   6   8
ATOM      8  C   UNL A   1      39.279  22.813  26.457  1.00  0.00     0.039 A 
ATOM      9  C   UNL A   1      39.035  24.043  25.838  1.00  0.00     0.014 A 
ATOM     10  C   UNL A   1      40.220  22.704  27.481  1.00  0.00     0.014 A 
ATOM     11  C   UNL A   1      39.814  25.146  26.169  1.00  0.00     0.010 A 
ATOM     12  C   UNL A   1      40.958  23.828  27.854  1.00  0.00     0.010 A 
ATOM     13  C   UNL A   1      40.777  25.051  27.187  1.00  0.00    -0.014 A 
BRANCH  13  14
ATOM     14  C   UNL A   1      41.559  26.246  27.590  1.00  0.00     0.031 A 
ATOM     15  C   UNL A   1      40.928  27.337  28.404  1.00  0.00     0.074 A 
ATOM     16  C   UNL A   1      42.834  26.355  27.174  1.00  0.00     0.049 A 
ATOM     17  N   UNL A   1      41.413  28.506  28.739  1.00  0.00    -0.248 NA
ATOM     18  C   UNL A   1      39.567  27.084  28.896  1.00  0.00     0.031 C 
ATOM     19  C   UNL A   1      43.548  25.350  26.383  1.00  0.00     0.029 A 
ATOM     20  N   UNL A   1      43.749  27.363  27.336  1.00  0.00    -0.354 N 
ATOM     21  C   UNL A   1      40.408  29.142  29.462  1.00  0.00     0.074 A 
ATOM     22  C   UNL A   1      39.279  28.234  29.489  1.00  0.00     0.031 C 
ATOM     23  C   UNL A   1      44.785  25.794  26.126  1.00  0.00     0.029 A 
ATOM     24  C   UNL A   1      44.928  27.139  26.668  1.00  0.00     0.049 A 
ATOM     25  H   UNL A   1      43.578  28.168  27.878  1.00  0.00     0.167 HD
ATOM     26  C   UNL A   1      40.434  30.367  30.047  1.00  0.00     0.034 A 
ATOM     27  C   UNL A   1      45.988  27.945  26.464  1.00  0.00     0.034 A 
ATOM     28  C   UNL A   1      41.575  31.254  29.992  1.00  0.00     0.049 A 
ATOM     29  C   UNL A   1      45.977  29.323  27.063  1.00  0.00     0.074 A 
ATOM     30  C   UNL A   1      41.731  32.500  30.576  1.00  0.00     0.029 A 
ATOM     31  N   UNL A   1      42.750  30.997  29.295  1.00  0.00    -0.354 N 
ATOM     32  N   UNL A   1      45.029  29.909  27.757  1.00  0.00    -0.248 NA
ATOM     33  C   UNL A   1      47.175  30.144  26.859  1.00  0.00     0.031 C 
ATOM     34  C   UNL A   1      42.965  33.024  30.172  1.00  0.00     0.029 A 
ATOM     35  C   UNL A   1      43.618  32.074  29.403  1.00  0.00     0.049 A 
ATOM     36  H   UNL A   1      42.939  30.169  28.795  1.00  0.00     0.167 HD
ATOM     37  C   UNL A   1      45.527  31.163  28.094  1.00  0.00     0.074 A 
ATOM     38  C   UNL A   1      46.858  31.246  27.526  1.00  0.00     0.031 C 
ATOM     39  C   UNL A   1      44.939  32.147  28.819  1.00  0.00     0.034 A 
BRANCH  26  40
ATOM     40  C   UNL A   1      39.171  30.834  30.736  1.00  0.00     0.023 A 
ATOM     41  C   UNL A   1      38.132  31.468  30.031  1.00  0.00     0.031 A 
ATOM     42  C   UNL A   1      39.025  30.693  32.128  1.00  0.00     0.131 A 
ATOM     43  C   UNL A   1      37.046  32.021  30.729  1.00  0.00     0.055 A 
ATOM     44  C   UNL A   1      37.898  31.165  32.804  1.00  0.00     0.041 A 
ATOM     45  F   UNL A   1      39.990  30.113  32.861  1.00  0.00    -0.206 F 
ATOM     46  C   UNL A   1      36.910  31.852  32.108  1.00  0.00     0.022 A 
BRANCH  43  47
ATOM     47  S   UNL A   1      35.913  33.120  29.832  1.00  0.00     0.124 S 
ATOM     48  O   UNL A   1      36.827  33.821  28.933  1.00  0.00    -0.237 OA
ATOM     49  O   UNL A   1      34.995  32.178  29.202  1.00  0.00    -0.237 OA
ATOM     50  O   UNL A   1      35.333  33.949  30.887  1.00  0.00    -0.744 OA
ENDBRANCH  43  47
ENDBRANCH  26  40
BRANCH  27  51
ATOM     51  C   UNL A   1      47.108  27.471  25.607  1.00  0.00     0.023 A 
ATOM     52  C   UNL A   1      47.191  27.822  24.254  1.00  0.00     0.031 A 
ATOM     53  C   UNL A   1      48.143  26.690  26.157  1.00  0.00     0.131 A 
ATOM     54  C   UNL A   1      48.282  27.381  23.488  1.00  0.00     0.055 A 
ATOM     55  C   UNL A   1      49.246  26.291  25.403  1.00  0.00     0.041 A 
ATOM     56  F   UNL A   1      48.113  26.341  27.454  1.00  0.00    -0.206 F 
ATOM     57  C   UNL A   1      49.317  26.633  24.057  1.00  0.00     0.022 A 
BRANCH  54  58
ATOM     58  S   UNL A   1      48.321  27.781  21.720  1.00  0.00     0.124 S 
ATOM     59  O   UNL A   1      46.993  28.349  21.515  1.00  0.00    -0.237 OA
ATOM     60  O   UNL A   1      49.438  28.717  21.643  1.00  0.00    -0.237 OA
ATOM     61  O   UNL A   1      48.552  26.487  21.083  1.00  0.00    -0.744 OA
ENDBRANCH  54  58
ENDBRANCH  27  51
BRANCH  39  62
ATOM     62  C   UNL A   1      45.759  33.384  29.088  1.00  0.00     0.023 A 
ATOM     63  C   UNL A   1      45.748  34.488  28.219  1.00  0.00     0.031 A 
ATOM     64  C   UNL A   1      46.551  33.457  30.247  1.00  0.00     0.131 A 
ATOM     65  C   UNL A   1      46.541  35.609  28.509  1.00  0.00     0.055 A 
ATOM     66  C   UNL A   1      47.299  34.594  30.556  1.00  0.00     0.041 A 
ATOM     67  F   UNL A   1      46.600  32.427  31.107  1.00  0.00    -0.206 F 
ATOM     68  C   UNL A   1      47.302  35.676  29.680  1.00  0.00     0.022 A 
BRANCH  65  69
ATOM     69  S   UNL A   1      46.608  36.968  27.309  1.00  0.00     0.124 S 
ATOM     70  O   UNL A   1      45.196  37.297  27.146  1.00  0.00    -0.237 OA
ATOM     71  O   UNL A   1      47.419  37.962  28.004  1.00  0.00    -0.237 OA
ATOM     72  O   UNL A   1      47.242  36.361  26.140  1.00  0.00    -0.744 OA
ENDBRANCH  65  69
ENDBRANCH  39  62
ENDBRANCH  13  14
ENDBRANCH   6   8
ENDBRANCH   3   4
ENDBRANCH   2   3
ENDBRANCH   1   2
BRANCH   1  73
ATOM     73  C   UNL A   1      33.621  22.151  24.285  1.00  0.00     0.002 C 
BRANCH  73  74
ATOM     74  C   UNL A   1      32.239  22.801  24.382  1.00  0.00     0.021 C 
BRANCH  74  75
ATOM     75  C   UNL A   1      31.615  23.324  23.080  1.00  0.00     0.116 C 
BRANCH  75  76
ATOM     76  N   UNL A   1      32.441  24.229  22.297  1.00  0.00    -0.356 N 
ATOM     77  C   UNL A   1      32.571  25.593  22.253  1.00  0.00     0.227 C 
ATOM     78  H   UNL A   1      33.035  23.763  21.665  1.00  0.00     0.163 HD
ATOM     79  O   UNL A   1      33.517  26.022  21.577  1.00  0.00    -0.274 OA
BRANCH  77  80
ATOM     80  C   UNL A   1      31.663  26.536  23.073  1.00  0.00     0.110 C 
BRANCH  80  81
ATOM     81  C   UNL A   1      32.270  26.988  24.421  1.00  0.00    -0.021 A 
ATOM     82  C   UNL A   1      33.459  27.742  24.464  1.00  0.00     0.006 A 
ATOM     83  C   UNL A   1      31.647  26.726  25.659  1.00  0.00     0.021 A 
ATOM     84  C   UNL A   1      33.945  28.304  25.649  1.00  0.00     0.000 A 
ATOM     85  C   UNL A   1      32.153  27.267  26.854  1.00  0.00     0.016 A 
ATOM     86  Br  UNL A   1      30.084  25.652  25.830  1.00  0.00    -0.051 Br
ATOM     87  C   UNL A   1      33.284  28.077  26.845  1.00  0.00     0.001 A 
ENDBRANCH  80  81
BRANCH  80  88
ATOM     88  C   UNL A   1      30.909  27.668  22.326  1.00  0.00     0.025 C 
BRANCH  88  89
ATOM     89  C   UNL A   1      29.530  28.253  22.733  1.00  0.00     0.057 C 
BRANCH  89  90
ATOM     90  C   UNL A   1      29.105  29.679  22.480  1.00  0.00     0.040 A 
ATOM     91  C   UNL A   1      29.165  30.617  23.509  1.00  0.00     0.024 A 
ATOM     92  N   UNL A   1      28.644  30.023  21.271  1.00  0.00    -0.261 NA
ATOM     93  C   UNL A   1      28.724  31.922  23.277  1.00  0.00     0.003 A 
ATOM     94  C   UNL A   1      28.232  31.292  21.055  1.00  0.00     0.111 A 
ATOM     95  C   UNL A   1      28.239  32.269  22.025  1.00  0.00     0.020 A 
ENDBRANCH  89  90
ENDBRANCH  88  89
ENDBRANCH  80  88
ENDBRANCH  77  80
ENDBRANCH  75  76
ENDBRANCH  74  75
ENDBRANCH  73  74
ENDBRANCH   1  73
TORSDOF 20
ENDMDL
MODEL 2
REMARK VINA RESULT:     -11.5      5.397     10.340
REMARK SMILES O=C(NCCCCCCNC(=O)[C@H](CCc1ccccn1)c1ccccc1Br)c1ccc(-c2c3nc(c(-c4cc(S(=O)(=O)[O-])ccc4F)c4ccc([nH]4)c(-c4cc(S(=O)(=O)[O-])ccc4F)c4nc(c(-c5cc(S(=O)(=O)[O-])ccc5F)c5ccc2[nH]5)C=C4)C=C3)cc1
REMARK SMILES IDX 6 1 5 2 4 3 3 4 1 5 2 6 29 8 30 9 91 10 31 11 90 12 32 13
REMARK SMILES IDX 33 14 34 15 84 16 35 17 89 18 83 19 85 20 36 21 88 22 82 23
REMARK SMILES IDX 81 24 37 26 69 27 49 28 68 29 50 30 53 31 67 32 86 33 51 34
REMARK SMILES IDX 52 35 66 37 87 38 54 39 38 40 39 41 47 42 40 43 46 44 48 45
REMARK SMILES IDX 45 46 41 47 42 48 43 49 44 50 70 51 71 52 79 53 72 54 78 55
REMARK SMILES IDX 80 56 77 57 73 58 74 59 75 60 76 61 55 62 56 63 64 64 57 65
REMARK SMILES IDX 63 66 65 67 62 68 58 69 59 70 60 71 61 72 7 73 8 74 9 75
REMARK SMILES IDX 10 76 11 77 12 79 13 80 22 81 23 82 27 83 24 84 26 85 28 86
REMARK SMILES IDX 25 87 14 88 15 89 16 90 17 91 21 92 18 93 20 94 19 95
REMARK H PARENT 3 7 85 25 53 36 10 78
REMARK Flexibility Score: inf
ROOT
ATOM      1  C   UNL A   1      31.710  30.399  26.556  1.00  0.00     0.002 C 
ENDROOT
BRANCH   1   2
ATOM      2  C   UNL A   1      31.492  31.903  26.720  1.00  0.00     0.021 C 
BRANCH   2   3
ATOM      3  C   UNL A   1      32.760  32.727  26.921  1.00  0.00     0.116 C 
BRANCH   3   4
ATOM      4  N   UNL A   1      32.502  33.994  27.589  1.00  0.00    -0.352 N 
ATOM      5  O   UNL A   1      32.704  35.517  29.249  1.00  0.00    -0.269 OA
ATOM      6  C   UNL A   1      33.133  34.522  28.694  1.00  0.00     0.251 C 
ATOM      7  H   UNL A   1      31.783  34.544  27.202  1.00  0.00     0.163 HD
BRANCH   6   8
ATOM      8  C   UNL A   1      34.343  33.838  29.203  1.00  0.00     0.039 A 
ATOM      9  C   UNL A   1      34.216  32.758  30.081  1.00  0.00     0.014 A 
ATOM     10  C   UNL A   1      35.601  34.309  28.828  1.00  0.00     0.014 A 
ATOM     11  C   UNL A   1      35.351  32.215  30.673  1.00  0.00     0.010 A 
ATOM     12  C   UNL A   1      36.743  33.721  29.376  1.00  0.00     0.010 A 
ATOM     13  C   UNL A   1      36.626  32.685  30.319  1.00  0.00    -0.014 A 
BRANCH  13  14
ATOM     14  C   UNL A   1      37.841  32.059  30.897  1.00  0.00     0.031 A 
ATOM     15  C   UNL A   1      38.598  31.010  30.136  1.00  0.00     0.074 A 
ATOM     16  C   UNL A   1      38.228  32.418  32.135  1.00  0.00     0.049 A 
ATOM     17  N   UNL A   1      39.600  30.265  30.529  1.00  0.00    -0.248 NA
ATOM     18  C   UNL A   1      38.162  30.758  28.757  1.00  0.00     0.031 C 
ATOM     19  C   UNL A   1      37.567  33.432  32.959  1.00  0.00     0.029 A 
ATOM     20  N   UNL A   1      39.250  31.960  32.924  1.00  0.00    -0.354 N 
ATOM     21  C   UNL A   1      39.902  29.435  29.454  1.00  0.00     0.074 A 
ATOM     22  C   UNL A   1      38.955  29.755  28.405  1.00  0.00     0.031 C 
ATOM     23  C   UNL A   1      38.197  33.515  34.138  1.00  0.00     0.029 A 
ATOM     24  C   UNL A   1      39.256  32.514  34.182  1.00  0.00     0.049 A 
ATOM     25  H   UNL A   1      39.914  31.299  32.621  1.00  0.00     0.167 HD
ATOM     26  C   UNL A   1      40.881  28.499  29.358  1.00  0.00     0.034 A 
ATOM     27  C   UNL A   1      39.992  32.215  35.269  1.00  0.00     0.034 A 
ATOM     28  C   UNL A   1      41.804  28.196  30.428  1.00  0.00     0.049 A 
ATOM     29  C   UNL A   1      41.028  31.133  35.167  1.00  0.00     0.074 A 
ATOM     30  C   UNL A   1      42.857  27.297  30.434  1.00  0.00     0.029 A 
ATOM     31  N   UNL A   1      41.772  28.772  31.693  1.00  0.00    -0.354 N 
ATOM     32  N   UNL A   1      41.316  30.365  34.142  1.00  0.00    -0.248 NA
ATOM     33  C   UNL A   1      41.841  30.879  36.362  1.00  0.00     0.031 C 
ATOM     34  C   UNL A   1      43.411  27.276  31.719  1.00  0.00     0.029 A 
ATOM     35  C   UNL A   1      42.760  28.221  32.496  1.00  0.00     0.049 A 
ATOM     36  H   UNL A   1      41.138  29.470  31.979  1.00  0.00     0.167 HD
ATOM     37  C   UNL A   1      42.363  29.551  34.561  1.00  0.00     0.074 A 
ATOM     38  C   UNL A   1      42.654  29.923  35.932  1.00  0.00     0.031 C 
ATOM     39  C   UNL A   1      43.030  28.594  33.868  1.00  0.00     0.034 A 
BRANCH  26  40
ATOM     40  C   UNL A   1      40.953  27.699  28.075  1.00  0.00     0.023 A 
ATOM     41  C   UNL A   1      40.320  26.450  27.942  1.00  0.00     0.031 A 
ATOM     42  C   UNL A   1      41.710  28.168  26.986  1.00  0.00     0.131 A 
ATOM     43  C   UNL A   1      40.536  25.673  26.793  1.00  0.00     0.055 A 
ATOM     44  C   UNL A   1      41.846  27.429  25.809  1.00  0.00     0.041 A 
ATOM     45  F   UNL A   1      42.353  29.344  27.056  1.00  0.00    -0.206 F 
ATOM     46  C   UNL A   1      41.275  26.164  25.715  1.00  0.00     0.022 A 
BRANCH  43  47
ATOM     47  S   UNL A   1      39.992  23.941  26.807  1.00  0.00     0.124 S 
ATOM     48  O   UNL A   1      39.805  23.699  28.236  1.00  0.00    -0.237 OA
ATOM     49  O   UNL A   1      38.776  23.987  26.004  1.00  0.00    -0.237 OA
ATOM     50  O   UNL A   1      41.114  23.224  26.204  1.00  0.00    -0.744 OA
ENDBRANCH  43  47
ENDBRANCH  26  40
BRANCH  27  51
ATOM     51  C   UNL A   1      39.719  32.923  36.548  1.00  0.00     0.023 A 
ATOM     52  C   UNL A   1      38.762  32.450  37.455  1.00  0.00     0.031 A 
ATOM     53  C   UNL A   1      40.458  34.070  36.899  1.00  0.00     0.131 A 
ATOM     54  C   UNL A   1      38.558  33.128  38.668  1.00  0.00     0.055 A 
ATOM     55  C   UNL A   1      40.283  34.714  38.123  1.00  0.00     0.041 A 
ATOM     56  F   UNL A   1      41.396  34.551  36.068  1.00  0.00    -0.206 F 
ATOM     57  C   UNL A   1      39.323  34.245  39.014  1.00  0.00     0.022 A 
BRANCH  54  58
ATOM     58  S   UNL A   1      37.255  32.541  39.784  1.00  0.00     0.124 S 
ATOM     59  O   UNL A   1      37.810  31.274  40.246  1.00  0.00    -0.237 OA
ATOM     60  O   UNL A   1      37.195  33.613  40.772  1.00  0.00    -0.237 OA
ATOM     61  O   UNL A   1      36.086  32.433  38.915  1.00  0.00    -0.744 OA
ENDBRANCH  54  58
ENDBRANCH  27  51
BRANCH  39  62
ATOM     62  C   UNL A   1      44.182  27.918  34.567  1.00  0.00     0.023 A 
ATOM     63  C   UNL A   1      44.045  26.665  35.187  1.00  0.00     0.031 A 
ATOM     64  C   UNL A   1      45.443  28.539  34.593  1.00  0.00     0.131 A 
ATOM     65  C   UNL A   1      45.147  26.086  35.836  1.00  0.00     0.055 A 
ATOM     66  C   UNL A   1      46.547  27.936  35.197  1.00  0.00     0.041 A 
ATOM     67  F   UNL A   1      45.625  29.740  34.018  1.00  0.00    -0.206 F 
ATOM     68  C   UNL A   1      46.400  26.706  35.829  1.00  0.00     0.022 A 
BRANCH  65  69
ATOM     69  S   UNL A   1      44.913  24.530  36.738  1.00  0.00     0.124 S 
ATOM     70  O   UNL A   1      44.008  23.801  35.854  1.00  0.00    -0.237 OA
ATOM     71  O   UNL A   1      46.273  24.010  36.828  1.00  0.00    -0.237 OA
ATOM     72  O   UNL A   1      44.328  24.955  38.009  1.00  0.00    -0.744 OA
ENDBRANCH  65  69
ENDBRANCH  39  62
ENDBRANCH  13  14
ENDBRANCH   6   8
ENDBRANCH   3   4
ENDBRANCH   2   3
ENDBRANCH   1   2
BRANCH   1  73
ATOM     73  C   UNL A   1      33.153  29.924  26.685  1.00  0.00     0.002 C 
BRANCH  73  74
ATOM     74  C   UNL A   1      33.611  28.863  25.683  1.00  0.00     0.021 C 
BRANCH  74  75
ATOM     75  C   UNL A   1      33.198  29.055  24.216  1.00  0.00     0.116 C 
BRANCH  75  76
ATOM     76  N   UNL A   1      33.736  28.088  23.273  1.00  0.00    -0.356 N 
ATOM     77  C   UNL A   1      33.240  26.943  22.705  1.00  0.00     0.227 C 
ATOM     78  H   UNL A   1      34.650  28.301  22.977  1.00  0.00     0.163 HD
ATOM     79  O   UNL A   1      33.921  26.456  21.792  1.00  0.00    -0.274 OA
BRANCH  77  80
ATOM     80  C   UNL A   1      31.870  26.349  23.104  1.00  0.00     0.110 C 
BRANCH  80  81
ATOM     81  C   UNL A   1      31.914  25.437  24.351  1.00  0.00    -0.021 A 
ATOM     82  C   UNL A   1      31.599  25.939  25.629  1.00  0.00     0.006 A 
ATOM     83  C   UNL A   1      32.210  24.059  24.274  1.00  0.00     0.021 A 
ATOM     84  C   UNL A   1      31.469  25.110  26.748  1.00  0.00     0.000 A 
ATOM     85  C   UNL A   1      32.108  23.231  25.405  1.00  0.00     0.016 A 
ATOM     86  Br  UNL A   1      32.747  23.201  22.661  1.00  0.00    -0.051 Br
ATOM     87  C   UNL A   1      31.711  23.751  26.634  1.00  0.00     0.001 A 
ENDBRANCH  80  81
BRANCH  80  88
ATOM     88  C   UNL A   1      30.625  27.272  23.060  1.00  0.00     0.025 C 
BRANCH  88  89
ATOM     89  C   UNL A   1      30.368  28.389  22.013  1.00  0.00     0.057 C 
BRANCH  89  90
ATOM     90  C   UNL A   1      29.532  29.620  22.273  1.00  0.00     0.040 A 
ATOM     91  C   UNL A   1      29.518  30.198  23.540  1.00  0.00     0.024 A 
ATOM     92  N   UNL A   1      28.786  30.128  21.284  1.00  0.00    -0.261 NA
ATOM     93  C   UNL A   1      28.704  31.307  23.782  1.00  0.00     0.003 A 
ATOM     94  C   UNL A   1      28.011  31.208  21.526  1.00  0.00     0.111 A 
ATOM     95  C   UNL A   1      27.926  31.822  22.756  1.00  0.00     0.020 A 
ENDBRANCH  89  90
ENDBRANCH  88  89
ENDBRANCH  80  88
ENDBRANCH  77  80
ENDBRANCH  75  76
ENDBRANCH  74  75
ENDBRANCH  73  74
ENDBRANCH   1  73
TORSDOF 20
ENDMDL
MODEL 3
REMARK VINA RESULT:     -11.5      2.159      7.635
REMARK SMILES O=C(NCCCCCCNC(=O)[C@H](CCc1ccccn1)c1ccccc1Br)c1ccc(-c2c3nc(c(-c4cc(S(=O)(=O)[O-])ccc4F)c4ccc([nH]4)c(-c4cc(S(=O)(=O)[O-])ccc4F)c4nc(c(-c5cc(S(=O)(=O)[O-])ccc5F)c5ccc2[nH]5)C=C4)C=C3)cc1
REMARK SMILES IDX 6 1 5 2 4 3 3 4 1 5 2 6 29 8 30 9 91 10 31 11 90 12 32 13
REMARK SMILES IDX 33 14 34 15 84 16 35 17 89 18 83 19 85 20 36 21 88 22 82 23
REMARK SMILES IDX 81 24 37 26 69 27 49 28 68 29 50 30 53 31 67 32 86 33 51 34
REMARK SMILES IDX 52 35 66 37 87 38 54 39 38 40 39 41 47 42 40 43 46 44 48 45
REMARK SMILES IDX 45 46 41 47 42 48 43 49 44 50 70 51 71 52 79 53 72 54 78 55
REMARK SMILES IDX 80 56 77 57 73 58 74 59 75 60 76 61 55 62 56 63 64 64 57 65
REMARK SMILES IDX 63 66 65 67 62 68 58 69 59 70 60 71 61 72 7 73 8 74 9 75
REMARK SMILES IDX 10 76 11 77 12 79 13 80 22 81 23 82 27 83 24 84 26 85 28 86
REMARK SMILES IDX 25 87 14 88 15 89 16 90 17 91 21 92 18 93 20 94 19 95
REMARK H PARENT 3 7 85 25 53 36 10 78
REMARK Flexibility Score: inf
ROOT
ATOM      1  C   UNL A   1      34.960  22.453  24.701  1.00  0.00     0.002 C 
ENDROOT
BRANCH   1   2
ATOM      2  C   UNL A   1      35.559  23.335  25.797  1.00  0.00     0.021 C 
BRANCH   2   3
ATOM      3  C   UNL A   1      37.033  23.686  25.619  1.00  0.00     0.116 C 
BRANCH   3   4
ATOM      4  N   UNL A   1      37.914  22.584  25.975  1.00  0.00    -0.352 N 
ATOM      5  O   UNL A   1      39.876  21.643  26.595  1.00  0.00    -0.269 OA
ATOM      6  C   UNL A   1      39.187  22.643  26.500  1.00  0.00     0.251 C 
ATOM      7  H   UNL A   1      37.555  21.681  25.822  1.00  0.00     0.163 HD
BRANCH   6   8
ATOM      8  C   UNL A   1      39.707  23.959  26.932  1.00  0.00     0.039 A 
ATOM      9  C   UNL A   1      39.650  24.323  28.280  1.00  0.00     0.014 A 
ATOM     10  C   UNL A   1      40.214  24.840  25.976  1.00  0.00     0.014 A 
ATOM     11  C   UNL A   1      39.999  25.615  28.660  1.00  0.00     0.010 A 
ATOM     12  C   UNL A   1      40.622  26.116  26.369  1.00  0.00     0.010 A 
ATOM     13  C   UNL A   1      40.498  26.520  27.709  1.00  0.00    -0.014 A 
BRANCH  13  14
ATOM     14  C   UNL A   1      40.937  27.875  28.126  1.00  0.00     0.031 A 
ATOM     15  C   UNL A   1      42.396  28.216  28.209  1.00  0.00     0.074 A 
ATOM     16  C   UNL A   1      40.004  28.781  28.469  1.00  0.00     0.049 A 
ATOM     17  N   UNL A   1      42.968  29.298  28.672  1.00  0.00    -0.248 NA
ATOM     18  C   UNL A   1      43.336  27.199  27.719  1.00  0.00     0.031 C 
ATOM     19  C   UNL A   1      38.557  28.556  28.418  1.00  0.00     0.029 A 
ATOM     20  N   UNL A   1      40.126  30.059  28.948  1.00  0.00    -0.354 N 
ATOM     21  C   UNL A   1      44.338  29.086  28.553  1.00  0.00     0.074 A 
ATOM     22  C   UNL A   1      44.505  27.758  27.998  1.00  0.00     0.031 C 
ATOM     23  C   UNL A   1      37.928  29.656  28.853  1.00  0.00     0.029 A 
ATOM     24  C   UNL A   1      38.922  30.633  29.281  1.00  0.00     0.049 A 
ATOM     25  H   UNL A   1      40.990  30.521  29.045  1.00  0.00     0.167 HD
ATOM     26  C   UNL A   1      45.354  29.927  28.875  1.00  0.00     0.034 A 
ATOM     27  C   UNL A   1      38.646  31.791  29.910  1.00  0.00     0.034 A 
ATOM     28  C   UNL A   1      45.154  31.244  29.438  1.00  0.00     0.049 A 
ATOM     29  C   UNL A   1      39.783  32.683  30.318  1.00  0.00     0.074 A 
ATOM     30  C   UNL A   1      46.102  32.197  29.769  1.00  0.00     0.029 A 
ATOM     31  N   UNL A   1      43.918  31.787  29.770  1.00  0.00    -0.354 N 
ATOM     32  N   UNL A   1      41.074  32.481  30.187  1.00  0.00    -0.248 NA
ATOM     33  C   UNL A   1      39.431  33.958  30.953  1.00  0.00     0.031 C 
ATOM     34  C   UNL A   1      45.447  33.280  30.367  1.00  0.00     0.029 A 
ATOM     35  C   UNL A   1      44.082  33.043  30.337  1.00  0.00     0.049 A 
ATOM     36  H   UNL A   1      43.050  31.344  29.626  1.00  0.00     0.167 HD
ATOM     37  C   UNL A   1      41.689  33.616  30.703  1.00  0.00     0.074 A 
ATOM     38  C   UNL A   1      40.627  34.498  31.145  1.00  0.00     0.031 C 
ATOM     39  C   UNL A   1      43.012  33.906  30.787  1.00  0.00     0.034 A 
BRANCH  26  40
ATOM     40  C   UNL A   1      46.765  29.415  28.684  1.00  0.00     0.023 A 
ATOM     41  C   UNL A   1      47.306  29.188  27.406  1.00  0.00     0.031 A 
ATOM     42  C   UNL A   1      47.565  29.099  29.798  1.00  0.00     0.131 A 
ATOM     43  C   UNL A   1      48.560  28.571  27.274  1.00  0.00     0.055 A 
ATOM     44  C   UNL A   1      48.850  28.570  29.658  1.00  0.00     0.041 A 
ATOM     45  F   UNL A   1      47.100  29.275  31.046  1.00  0.00    -0.206 F 
ATOM     46  C   UNL A   1      49.346  28.283  28.391  1.00  0.00     0.022 A 
BRANCH  43  47
ATOM     47  S   UNL A   1      49.065  27.985  25.632  1.00  0.00     0.124 S 
ATOM     48  O   UNL A   1      47.894  28.315  24.824  1.00  0.00    -0.237 OA
ATOM     49  O   UNL A   1      50.263  28.774  25.371  1.00  0.00    -0.237 OA
ATOM     50  O   UNL A   1      49.290  26.554  25.833  1.00  0.00    -0.744 OA
ENDBRANCH  43  47
ENDBRANCH  26  40
BRANCH  27  51
ATOM     51  C   UNL A   1      37.232  32.124  30.231  1.00  0.00     0.023 A 
ATOM     52  C   UNL A   1      36.360  32.625  29.255  1.00  0.00     0.031 A 
ATOM     53  C   UNL A   1      36.723  31.896  31.524  1.00  0.00     0.131 A 
ATOM     54  C   UNL A   1      35.024  32.895  29.590  1.00  0.00     0.055 A 
ATOM     55  C   UNL A   1      35.385  32.126  31.840  1.00  0.00     0.041 A 
ATOM     56  F   UNL A   1      37.518  31.404  32.488  1.00  0.00    -0.206 F 
ATOM     57  C   UNL A   1      34.527  32.634  30.870  1.00  0.00     0.022 A 
BRANCH  54  58
ATOM     58  S   UNL A   1      33.942  33.621  28.330  1.00  0.00     0.124 S 
ATOM     59  O   UNL A   1      34.889  34.395  27.536  1.00  0.00    -0.237 OA
ATOM     60  O   UNL A   1      33.385  32.435  27.687  1.00  0.00    -0.237 OA
ATOM     61  O   UNL A   1      32.990  34.407  29.110  1.00  0.00    -0.744 OA
ENDBRANCH  54  58
ENDBRANCH  27  51
BRANCH  39  62
ATOM     62  C   UNL A   1      43.384  35.261  31.331  1.00  0.00     0.023 A 
ATOM     63  C   UNL A   1      43.591  36.370  30.493  1.00  0.00     0.031 A 
ATOM     64  C   UNL A   1      43.514  35.444  32.720  1.00  0.00     0.131 A 
ATOM     65  C   UNL A   1      43.949  37.607  31.052  1.00  0.00     0.055 A 
ATOM     66  C   UNL A   1      43.821  36.687  33.272  1.00  0.00     0.041 A 
ATOM     67  F   UNL A   1      43.330  34.415  33.564  1.00  0.00    -0.206 F 
ATOM     68  C   UNL A   1      44.048  37.776  32.436  1.00  0.00     0.022 A 
BRANCH  65  69
ATOM     69  S   UNL A   1      44.337  38.989  29.943  1.00  0.00     0.124 S 
ATOM     70  O   UNL A   1      44.701  38.295  28.711  1.00  0.00    -0.237 OA
ATOM     71  O   UNL A   1      43.080  39.729  29.911  1.00  0.00    -0.237 OA
ATOM     72  O   UNL A   1      45.440  39.672  30.618  1.00  0.00    -0.744 OA
ENDBRANCH  65  69
ENDBRANCH  39  62
ENDBRANCH  13  14
ENDBRANCH   6   8
ENDBRANCH   3   4
ENDBRANCH   2   3
ENDBRANCH   1   2
BRANCH   1  73
ATOM     73  C   UNL A   1      33.894  23.112  23.832  1.00  0.00     0.002 C 
BRANCH  73  74
ATOM     74  C   UNL A   1      32.442  22.903  24.263  1.00  0.00     0.021 C 
BRANCH  74  75
ATOM     75  C   UNL A   1      31.346  23.372  23.294  1.00  0.00     0.116 C 
BRANCH  75  76
ATOM     76  N   UNL A   1      31.793  24.180  22.172  1.00  0.00    -0.356 N 
ATOM     77  C   UNL A   1      31.830  25.529  21.932  1.00  0.00     0.227 C 
ATOM     78  H   UNL A   1      32.146  23.645  21.425  1.00  0.00     0.163 HD
ATOM     79  O   UNL A   1      32.451  25.879  20.919  1.00  0.00    -0.274 OA
BRANCH  77  80
ATOM     80  C   UNL A   1      31.226  26.559  22.913  1.00  0.00     0.110 C 
BRANCH  80  81
ATOM     81  C   UNL A   1      32.087  26.818  24.170  1.00  0.00    -0.021 A 
ATOM     82  C   UNL A   1      33.375  27.377  24.065  1.00  0.00     0.006 A 
ATOM     83  C   UNL A   1      31.616  26.568  25.477  1.00  0.00     0.021 A 
ATOM     84  C   UNL A   1      34.112  27.775  25.185  1.00  0.00     0.000 A 
ATOM     85  C   UNL A   1      32.371  26.941  26.603  1.00  0.00     0.016 A 
ATOM     86  Br  UNL A   1      29.942  25.735  25.837  1.00  0.00    -0.051 Br
ATOM     87  C   UNL A   1      33.604  27.568  26.456  1.00  0.00     0.001 A 
ENDBRANCH  80  81
BRANCH  80  88
ATOM     88  C   UNL A   1      30.585  27.845  22.330  1.00  0.00     0.025 C 
BRANCH  88  89
ATOM     89  C   UNL A   1      29.343  28.576  22.909  1.00  0.00     0.057 C 
BRANCH  89  90
ATOM     90  C   UNL A   1      28.915  29.968  22.512  1.00  0.00     0.040 A 
ATOM     91  C   UNL A   1      28.815  30.968  23.477  1.00  0.00     0.024 A 
ATOM     92  N   UNL A   1      28.606  30.221  21.234  1.00  0.00    -0.261 NA
ATOM     93  C   UNL A   1      28.373  32.240  23.107  1.00  0.00     0.003 A 
ATOM     94  C   UNL A   1      28.190  31.459  20.885  1.00  0.00     0.111 A 
ATOM     95  C   UNL A   1      28.045  32.493  21.783  1.00  0.00     0.020 A 
ENDBRANCH  89  90
ENDBRANCH  88  89
ENDBRANCH  80  88
ENDBRANCH  77  80
ENDBRANCH  75  76
ENDBRANCH  74  75
ENDBRANCH  73  74
ENDBRANCH   1  73
TORSDOF 20
ENDMDL
