MODEL 1
REMARK VINA RESULT:     -11.9      0.000      0.000
REMARK SMILES C[C@](NC(=O)C[C@@H]1CCCCO1)(C(=O)NCCCCCCNC(=O)c1ccc(-c2c3nc(c(-c4cc(S(=O)(=O)[O-])ccc4F)c4ccc([nH]4)c(-c4cc(S(=O)(=O)[O-])ccc4F)c4nc(c(-c5cc(S(=O)(=O)[O-])ccc5F)c5ccc2[nH]5)C=C4)C=C3)cc1)c1ccccc1
REMARK SMILES IDX 18 1 17 2 16 3 15 4 13 5 14 6 2 8 1 9 88 10 89 11 93 12
REMARK SMILES IDX 90 13 92 14 91 15 3 16 4 17 5 19 6 20 7 21 8 22 12 23 9 24
REMARK SMILES IDX 11 25 10 26 19 27 20 28 21 29 22 30 23 31 24 33 25 34 26 35
REMARK SMILES IDX 87 36 27 37 86 38 28 39 29 40 30 41 80 42 31 43 85 44 79 45
REMARK SMILES IDX 81 46 32 47 84 48 78 49 77 50 33 52 65 53 45 54 64 55 46 56
REMARK SMILES IDX 49 57 63 58 82 59 47 60 48 61 62 63 83 64 50 65 34 66 35 67
REMARK SMILES IDX 43 68 36 69 42 70 44 71 41 72 37 73 38 74 39 75 40 76 66 77
REMARK SMILES IDX 67 78 75 79 68 80 74 81 76 82 73 83 69 84 70 85 71 86 72 87
REMARK SMILES IDX 51 88 52 89 60 90 53 91 59 92 61 93 58 94 54 95 55 96 56 97
REMARK SMILES IDX 57 98
REMARK H PARENT 15 7 3 18 22 32 81 51 49 62
REMARK Flexibility Score: inf
ROOT
ATOM      1  C   UNL A   1      32.294  29.664  27.251  1.00  0.00     0.002 C 
ENDROOT
BRANCH   1   2
ATOM      2  C   UNL A   1      31.522  28.348  27.420  1.00  0.00     0.021 C 
BRANCH   2   3
ATOM      3  C   UNL A   1      32.210  27.141  26.786  1.00  0.00     0.116 C 
BRANCH   3   4
ATOM      4  N   UNL A   1      31.323  25.987  26.797  1.00  0.00    -0.354 N 
ATOM      5  C   UNL A   1      30.779  25.209  25.817  1.00  0.00     0.250 C 
ATOM      6  O   UNL A   1      30.110  24.252  26.222  1.00  0.00    -0.272 OA
ATOM      7  H   UNL A   1      31.058  25.710  27.704  1.00  0.00     0.163 HD
BRANCH   5   8
ATOM      8  C   UNL A   1      31.093  25.454  24.289  1.00  0.00     0.141 C 
ATOM      9  C   UNL A   1      30.565  24.206  23.516  1.00  0.00     0.051 C 
BRANCH   8  10
ATOM     10  C   UNL A   1      30.427  26.776  23.863  1.00  0.00    -0.013 A 
ATOM     11  C   UNL A   1      29.025  26.902  23.813  1.00  0.00     0.007 A 
ATOM     12  C   UNL A   1      31.180  27.919  23.545  1.00  0.00     0.007 A 
ATOM     13  C   UNL A   1      28.416  28.042  23.290  1.00  0.00     0.000 A 
ATOM     14  C   UNL A   1      30.576  29.051  22.991  1.00  0.00     0.000 A 
ATOM     15  C   UNL A   1      29.195  29.099  22.837  1.00  0.00     0.000 A 
ENDBRANCH   8  10
BRANCH   8  16
ATOM     16  N   UNL A   1      32.579  25.485  24.145  1.00  0.00    -0.338 N 
ATOM     17  C   UNL A   1      33.596  24.716  24.606  1.00  0.00     0.223 C 
ATOM     18  H   UNL A   1      32.890  26.234  23.588  1.00  0.00     0.164 HD
ATOM     19  O   UNL A   1      34.702  25.267  24.660  1.00  0.00    -0.275 OA
BRANCH  17  20
ATOM     20  C   UNL A   1      33.504  23.224  24.876  1.00  0.00     0.132 C 
BRANCH  20  21
ATOM     21  C   UNL A   1      33.876  22.243  23.767  1.00  0.00     0.127 C 
ATOM     22  C   UNL A   1      32.734  21.312  23.354  1.00  0.00     0.033 C 
ATOM     23  O   UNL A   1      35.036  21.473  24.118  1.00  0.00    -0.378 OA
ATOM     24  C   UNL A   1      32.468  20.224  24.391  1.00  0.00     0.005 C 
ATOM     25  C   UNL A   1      34.833  20.540  25.174  1.00  0.00     0.160 C 
ATOM     26  C   UNL A   1      33.763  19.529  24.795  1.00  0.00     0.029 C 
ENDBRANCH  20  21
ENDBRANCH  17  20
ENDBRANCH   8  16
ENDBRANCH   5   8
ENDBRANCH   3   4
ENDBRANCH   2   3
ENDBRANCH   1   2
BRANCH   1  27
ATOM     27  C   UNL A   1      31.772  30.580  26.140  1.00  0.00     0.002 C 
BRANCH  27  28
ATOM     28  C   UNL A   1      31.579  32.038  26.555  1.00  0.00     0.021 C 
BRANCH  28  29
ATOM     29  C   UNL A   1      32.735  32.615  27.361  1.00  0.00     0.116 C 
BRANCH  29  30
ATOM     30  N   UNL A   1      32.534  34.021  27.668  1.00  0.00    -0.352 N 
ATOM     31  C   UNL A   1      33.129  34.779  28.648  1.00  0.00     0.251 C 
ATOM     32  H   UNL A   1      31.885  34.493  27.098  1.00  0.00     0.163 HD
ATOM     33  O   UNL A   1      32.692  35.892  28.911  1.00  0.00    -0.269 OA
BRANCH  31  34
ATOM     34  C   UNL A   1      34.280  34.224  29.391  1.00  0.00     0.039 A 
ATOM     35  C   UNL A   1      34.043  33.436  30.518  1.00  0.00     0.014 A 
ATOM     36  C   UNL A   1      35.590  34.474  28.969  1.00  0.00     0.014 A 
ATOM     37  C   UNL A   1      35.119  32.862  31.196  1.00  0.00     0.010 A 
ATOM     38  C   UNL A   1      36.654  33.834  29.595  1.00  0.00     0.010 A 
ATOM     39  C   UNL A   1      36.433  33.032  30.724  1.00  0.00    -0.014 A 
BRANCH  39  40
ATOM     40  C   UNL A   1      37.590  32.417  31.426  1.00  0.00     0.031 A 
ATOM     41  C   UNL A   1      38.315  31.258  30.793  1.00  0.00     0.074 A 
ATOM     42  C   UNL A   1      37.961  32.870  32.640  1.00  0.00     0.049 A 
ATOM     43  N   UNL A   1      39.289  30.529  31.274  1.00  0.00    -0.248 NA
ATOM     44  C   UNL A   1      37.868  30.850  29.451  1.00  0.00     0.031 C 
ATOM     45  C   UNL A   1      37.318  33.968  33.367  1.00  0.00     0.029 A 
ATOM     46  N   UNL A   1      38.965  32.462  33.483  1.00  0.00    -0.354 N 
ATOM     47  C   UNL A   1      39.568  29.579  30.296  1.00  0.00     0.074 A 
ATOM     48  C   UNL A   1      38.611  29.777  29.230  1.00  0.00     0.031 C 
ATOM     49  C   UNL A   1      37.958  34.159  34.532  1.00  0.00     0.029 A 
ATOM     50  C   UNL A   1      39.021  33.167  34.664  1.00  0.00     0.049 A 
ATOM     51  H   UNL A   1      39.588  31.732  33.263  1.00  0.00     0.167 HD
ATOM     52  C   UNL A   1      40.555  28.650  30.274  1.00  0.00     0.034 A 
ATOM     53  C   UNL A   1      39.825  33.019  35.736  1.00  0.00     0.034 A 
ATOM     54  C   UNL A   1      41.509  28.468  31.339  1.00  0.00     0.049 A 
ATOM     55  C   UNL A   1      40.885  31.943  35.706  1.00  0.00     0.074 A 
ATOM     56  C   UNL A   1      42.556  27.567  31.413  1.00  0.00     0.029 A 
ATOM     57  N   UNL A   1      41.536  29.204  32.516  1.00  0.00    -0.354 N 
ATOM     58  N   UNL A   1      41.151  31.072  34.759  1.00  0.00    -0.248 NA
ATOM     59  C   UNL A   1      41.764  31.842  36.878  1.00  0.00     0.031 C 
ATOM     60  C   UNL A   1      43.173  27.712  32.659  1.00  0.00     0.029 A 
ATOM     61  C   UNL A   1      42.569  28.764  33.327  1.00  0.00     0.049 A 
ATOM     62  H   UNL A   1      40.912  29.932  32.742  1.00  0.00     0.167 HD
ATOM     63  C   UNL A   1      42.258  30.354  35.206  1.00  0.00     0.074 A 
ATOM     64  C   UNL A   1      42.617  30.904  36.496  1.00  0.00     0.031 C 
ATOM     65  C   UNL A   1      42.923  29.333  34.606  1.00  0.00     0.034 A 
BRANCH  52  66
ATOM     66  C   UNL A   1      40.644  27.756  29.061  1.00  0.00     0.023 A 
ATOM     67  C   UNL A   1      41.575  28.003  28.035  1.00  0.00     0.031 A 
ATOM     68  C   UNL A   1      39.795  26.644  28.925  1.00  0.00     0.131 A 
ATOM     69  C   UNL A   1      41.594  27.187  26.895  1.00  0.00     0.055 A 
ATOM     70  C   UNL A   1      39.875  25.788  27.825  1.00  0.00     0.041 A 
ATOM     71  F   UNL A   1      38.872  26.371  29.861  1.00  0.00    -0.206 F 
ATOM     72  C   UNL A   1      40.771  26.063  26.796  1.00  0.00     0.022 A 
BRANCH  69  73
ATOM     73  S   UNL A   1      42.625  27.687  25.491  1.00  0.00     0.124 S 
ATOM     74  O   UNL A   1      43.909  27.934  26.142  1.00  0.00    -0.237 OA
ATOM     75  O   UNL A   1      42.565  26.518  24.622  1.00  0.00    -0.237 OA
ATOM     76  O   UNL A   1      41.953  28.881  24.980  1.00  0.00    -0.744 OA
ENDBRANCH  69  73
ENDBRANCH  52  66
BRANCH  53  77
ATOM     77  C   UNL A   1      39.659  33.883  36.945  1.00  0.00     0.023 A 
ATOM     78  C   UNL A   1      39.094  33.376  38.126  1.00  0.00     0.031 A 
ATOM     79  C   UNL A   1      39.980  35.252  36.907  1.00  0.00     0.131 A 
ATOM     80  C   UNL A   1      38.791  34.245  39.186  1.00  0.00     0.055 A 
ATOM     81  C   UNL A   1      39.746  36.098  37.993  1.00  0.00     0.041 A 
ATOM     82  F   UNL A   1      40.525  35.793  35.806  1.00  0.00    -0.206 F 
ATOM     83  C   UNL A   1      39.126  35.599  39.134  1.00  0.00     0.022 A 
BRANCH  80  84
ATOM     84  S   UNL A   1      37.813  33.606  40.576  1.00  0.00     0.124 S 
ATOM     85  O   UNL A   1      36.627  33.101  39.894  1.00  0.00    -0.237 OA
ATOM     86  O   UNL A   1      38.709  32.600  41.137  1.00  0.00    -0.237 OA
ATOM     87  O   UNL A   1      37.600  34.785  41.412  1.00  0.00    -0.744 OA
ENDBRANCH  80  84
ENDBRANCH  53  77
BRANCH  65  88
ATOM     88  C   UNL A   1      44.152  28.801  35.305  1.00  0.00     0.023 A 
ATOM     89  C   UNL A   1      44.079  27.787  36.276  1.00  0.00     0.031 A 
ATOM     90  C   UNL A   1      45.418  29.330  34.995  1.00  0.00     0.131 A 
ATOM     91  C   UNL A   1      45.241  27.380  36.947  1.00  0.00     0.055 A 
ATOM     92  C   UNL A   1      46.580  28.871  35.616  1.00  0.00     0.041 A 
ATOM     93  F   UNL A   1      45.547  30.302  34.077  1.00  0.00    -0.206 F 
ATOM     94  C   UNL A   1      46.493  27.901  36.611  1.00  0.00     0.022 A 
BRANCH  91  95
ATOM     95  S   UNL A   1      45.083  26.235  38.344  1.00  0.00     0.124 S 
ATOM     96  O   UNL A   1      46.129  26.708  39.245  1.00  0.00    -0.237 OA
ATOM     97  O   UNL A   1      43.710  26.468  38.784  1.00  0.00    -0.237 OA
ATOM     98  O   UNL A   1      45.327  24.925  37.744  1.00  0.00    -0.744 OA
ENDBRANCH  91  95
ENDBRANCH  65  88
ENDBRANCH  39  40
ENDBRANCH  31  34
ENDBRANCH  29  30
ENDBRANCH  28  29
ENDBRANCH  27  28
ENDBRANCH   1  27
TORSDOF 20
ENDMDL
MODEL 2
REMARK VINA RESULT:     -11.7      2.087      7.935
REMARK SMILES C[C@](NC(=O)C[C@@H]1CCCCO1)(C(=O)NCCCCCCNC(=O)c1ccc(-c2c3nc(c(-c4cc(S(=O)(=O)[O-])ccc4F)c4ccc([nH]4)c(-c4cc(S(=O)(=O)[O-])ccc4F)c4nc(c(-c5cc(S(=O)(=O)[O-])ccc5F)c5ccc2[nH]5)C=C4)C=C3)cc1)c1ccccc1
REMARK SMILES IDX 18 1 17 2 16 3 15 4 13 5 14 6 2 8 1 9 88 10 89 11 93 12
REMARK SMILES IDX 90 13 92 14 91 15 3 16 4 17 5 19 6 20 7 21 8 22 12 23 9 24
REMARK SMILES IDX 11 25 10 26 19 27 20 28 21 29 22 30 23 31 24 33 25 34 26 35
REMARK SMILES IDX 87 36 27 37 86 38 28 39 29 40 30 41 80 42 31 43 85 44 79 45
REMARK SMILES IDX 81 46 32 47 84 48 78 49 77 50 33 52 65 53 45 54 64 55 46 56
REMARK SMILES IDX 49 57 63 58 82 59 47 60 48 61 62 63 83 64 50 65 34 66 35 67
REMARK SMILES IDX 43 68 36 69 42 70 44 71 41 72 37 73 38 74 39 75 40 76 66 77
REMARK SMILES IDX 67 78 75 79 68 80 74 81 76 82 73 83 69 84 70 85 71 86 72 87
REMARK SMILES IDX 51 88 52 89 60 90 53 91 59 92 61 93 58 94 54 95 55 96 56 97
REMARK SMILES IDX 57 98
REMARK H PARENT 15 7 3 18 22 32 81 51 49 62
REMARK Flexibility Score: inf
ROOT
ATOM      1  C   UNL A   1      30.417  28.880  23.716  1.00  0.00     0.002 C 
ENDROOT
BRANCH   1   2
ATOM      2  C   UNL A   1      29.065  28.153  23.721  1.00  0.00     0.021 C 
BRANCH   2   3
ATOM      3  C   UNL A   1      29.173  26.642  23.532  1.00  0.00     0.116 C 
BRANCH   3   4
ATOM      4  N   UNL A   1      29.156  25.966  24.821  1.00  0.00    -0.354 N 
ATOM      5  C   UNL A   1      29.920  24.984  25.379  1.00  0.00     0.250 C 
ATOM      6  O   UNL A   1      29.641  24.706  26.550  1.00  0.00    -0.272 OA
ATOM      7  H   UNL A   1      28.439  26.285  25.416  1.00  0.00     0.163 HD
BRANCH   5   8
ATOM      8  C   UNL A   1      31.145  24.346  24.612  1.00  0.00     0.141 C 
ATOM      9  C   UNL A   1      30.681  24.111  23.141  1.00  0.00     0.051 C 
BRANCH   8  10
ATOM     10  C   UNL A   1      32.348  25.299  24.739  1.00  0.00    -0.013 A 
ATOM     11  C   UNL A   1      32.836  25.690  26.001  1.00  0.00     0.007 A 
ATOM     12  C   UNL A   1      33.031  25.788  23.613  1.00  0.00     0.007 A 
ATOM     13  C   UNL A   1      33.827  26.664  26.127  1.00  0.00     0.000 A 
ATOM     14  C   UNL A   1      34.000  26.787  23.734  1.00  0.00     0.000 A 
ATOM     15  C   UNL A   1      34.377  27.245  24.992  1.00  0.00     0.000 A 
ENDBRANCH   8  10
BRANCH   8  16
ATOM     16  N   UNL A   1      31.401  23.010  25.228  1.00  0.00    -0.338 N 
ATOM     17  C   UNL A   1      32.131  21.923  24.876  1.00  0.00     0.223 C 
ATOM     18  H   UNL A   1      30.932  22.892  26.085  1.00  0.00     0.164 HD
ATOM     19  O   UNL A   1      31.776  20.852  25.383  1.00  0.00    -0.275 OA
BRANCH  17  20
ATOM     20  C   UNL A   1      33.421  21.966  24.075  1.00  0.00     0.132 C 
BRANCH  20  21
ATOM     21  C   UNL A   1      34.710  21.452  24.712  1.00  0.00     0.127 C 
ATOM     22  C   UNL A   1      34.829  21.757  26.206  1.00  0.00     0.033 C 
ATOM     23  O   UNL A   1      35.868  21.942  24.016  1.00  0.00    -0.378 OA
ATOM     24  C   UNL A   1      35.140  23.227  26.476  1.00  0.00     0.005 C 
ATOM     25  C   UNL A   1      36.098  23.340  24.157  1.00  0.00     0.160 C 
ATOM     26  C   UNL A   1      36.308  23.702  25.618  1.00  0.00     0.029 C 
ENDBRANCH  20  21
ENDBRANCH  17  20
ENDBRANCH   8  16
ENDBRANCH   5   8
ENDBRANCH   3   4
ENDBRANCH   2   3
ENDBRANCH   1   2
BRANCH   1  27
ATOM     27  C   UNL A   1      31.168  28.856  25.052  1.00  0.00     0.002 C 
BRANCH  27  28
ATOM     28  C   UNL A   1      32.082  30.057  25.291  1.00  0.00     0.021 C 
BRANCH  28  29
ATOM     29  C   UNL A   1      32.095  30.553  26.731  1.00  0.00     0.116 C 
BRANCH  29  30
ATOM     30  N   UNL A   1      32.128  32.004  26.805  1.00  0.00    -0.352 N 
ATOM     31  C   UNL A   1      33.003  32.809  27.491  1.00  0.00     0.251 C 
ATOM     32  H   UNL A   1      31.427  32.472  26.295  1.00  0.00     0.163 HD
ATOM     33  O   UNL A   1      32.763  34.002  27.623  1.00  0.00    -0.269 OA
BRANCH  31  34
ATOM     34  C   UNL A   1      34.218  32.212  28.085  1.00  0.00     0.039 A 
ATOM     35  C   UNL A   1      35.301  33.038  28.388  1.00  0.00     0.014 A 
ATOM     36  C   UNL A   1      34.284  30.840  28.348  1.00  0.00     0.014 A 
ATOM     37  C   UNL A   1      36.433  32.495  28.999  1.00  0.00     0.010 A 
ATOM     38  C   UNL A   1      35.376  30.316  29.031  1.00  0.00     0.010 A 
ATOM     39  C   UNL A   1      36.470  31.134  29.352  1.00  0.00    -0.014 A 
BRANCH  39  40
ATOM     40  C   UNL A   1      37.661  30.542  30.014  1.00  0.00     0.031 A 
ATOM     41  C   UNL A   1      37.995  30.928  31.432  1.00  0.00     0.074 A 
ATOM     42  C   UNL A   1      38.459  29.694  29.334  1.00  0.00     0.049 A 
ATOM     43  N   UNL A   1      39.029  30.594  32.158  1.00  0.00    -0.248 NA
ATOM     44  C   UNL A   1      37.052  31.831  32.111  1.00  0.00     0.031 C 
ATOM     45  C   UNL A   1      38.254  29.267  27.948  1.00  0.00     0.029 A 
ATOM     46  N   UNL A   1      39.607  29.042  29.712  1.00  0.00    -0.354 N 
ATOM     47  C   UNL A   1      38.861  31.244  33.377  1.00  0.00     0.074 A 
ATOM     48  C   UNL A   1      37.667  32.051  33.263  1.00  0.00     0.031 C 
ATOM     49  C   UNL A   1      39.228  28.409  27.602  1.00  0.00     0.029 A 
ATOM     50  C   UNL A   1      40.157  28.264  28.719  1.00  0.00     0.049 A 
ATOM     51  H   UNL A   1      40.001  29.125  30.611  1.00  0.00     0.167 HD
ATOM     52  C   UNL A   1      39.615  31.149  34.500  1.00  0.00     0.034 A 
ATOM     53  C   UNL A   1      41.290  27.533  28.705  1.00  0.00     0.034 A 
ATOM     54  C   UNL A   1      40.799  30.333  34.604  1.00  0.00     0.049 A 
ATOM     55  C   UNL A   1      42.138  27.483  29.955  1.00  0.00     0.074 A 
ATOM     56  C   UNL A   1      41.628  30.154  35.697  1.00  0.00     0.029 A 
ATOM     57  N   UNL A   1      41.322  29.557  33.579  1.00  0.00    -0.354 N 
ATOM     58  N   UNL A   1      41.947  28.084  31.108  1.00  0.00    -0.248 NA
ATOM     59  C   UNL A   1      43.342  26.643  29.909  1.00  0.00     0.031 C 
ATOM     60  C   UNL A   1      42.686  29.324  35.316  1.00  0.00     0.029 A 
ATOM     61  C   UNL A   1      42.470  28.912  34.010  1.00  0.00     0.049 A 
ATOM     62  H   UNL A   1      40.934  29.475  32.678  1.00  0.00     0.167 HD
ATOM     63  C   UNL A   1      42.982  27.655  31.935  1.00  0.00     0.074 A 
ATOM     64  C   UNL A   1      43.782  26.734  31.154  1.00  0.00     0.031 C 
ATOM     65  C   UNL A   1      43.249  27.986  33.224  1.00  0.00     0.034 A 
BRANCH  52  66
ATOM     66  C   UNL A   1      39.181  31.954  35.700  1.00  0.00     0.023 A 
ATOM     67  C   UNL A   1      38.462  31.366  36.757  1.00  0.00     0.031 A 
ATOM     68  C   UNL A   1      39.490  33.322  35.796  1.00  0.00     0.131 A 
ATOM     69  C   UNL A   1      38.026  32.154  37.831  1.00  0.00     0.055 A 
ATOM     70  C   UNL A   1      39.122  34.083  36.907  1.00  0.00     0.041 A 
ATOM     71  F   UNL A   1      40.154  33.944  34.809  1.00  0.00    -0.206 F 
ATOM     72  C   UNL A   1      38.376  33.502  37.929  1.00  0.00     0.022 A 
BRANCH  69  73
ATOM     73  S   UNL A   1      36.891  31.419  39.038  1.00  0.00     0.124 S 
ATOM     74  O   UNL A   1      37.696  31.453  40.257  1.00  0.00    -0.237 OA
ATOM     75  O   UNL A   1      35.753  32.329  39.000  1.00  0.00    -0.237 OA
ATOM     76  O   UNL A   1      36.640  30.081  38.503  1.00  0.00    -0.744 OA
ENDBRANCH  69  73
ENDBRANCH  52  66
BRANCH  53  77
ATOM     77  C   UNL A   1      41.717  26.803  27.473  1.00  0.00     0.023 A 
ATOM     78  C   UNL A   1      41.484  25.426  27.328  1.00  0.00     0.031 A 
ATOM     79  C   UNL A   1      42.448  27.453  26.462  1.00  0.00     0.131 A 
ATOM     80  C   UNL A   1      42.044  24.730  26.245  1.00  0.00     0.055 A 
ATOM     81  C   UNL A   1      42.939  26.770  25.347  1.00  0.00     0.041 A 
ATOM     82  F   UNL A   1      42.701  28.769  26.544  1.00  0.00    -0.206 F 
ATOM     83  C   UNL A   1      42.758  25.395  25.246  1.00  0.00     0.022 A 
BRANCH  80  84
ATOM     84  S   UNL A   1      41.955  22.917  26.242  1.00  0.00     0.124 S 
ATOM     85  O   UNL A   1      42.653  22.590  25.004  1.00  0.00    -0.237 OA
ATOM     86  O   UNL A   1      42.649  22.580  27.481  1.00  0.00    -0.237 OA
ATOM     87  O   UNL A   1      40.519  22.648  26.240  1.00  0.00    -0.744 OA
ENDBRANCH  80  84
ENDBRANCH  53  77
BRANCH  65  88
ATOM     88  C   UNL A   1      44.410  27.288  33.892  1.00  0.00     0.023 A 
ATOM     89  C   UNL A   1      44.250  26.089  34.607  1.00  0.00     0.031 A 
ATOM     90  C   UNL A   1      45.700  27.845  33.816  1.00  0.00     0.131 A 
ATOM     91  C   UNL A   1      45.348  25.520  35.270  1.00  0.00     0.055 A 
ATOM     92  C   UNL A   1      46.801  27.237  34.418  1.00  0.00     0.041 A 
ATOM     93  F   UNL A   1      45.912  28.991  33.148  1.00  0.00    -0.206 F 
ATOM     94  C   UNL A   1      46.625  26.075  35.165  1.00  0.00     0.022 A 
BRANCH  91  95
ATOM     95  S   UNL A   1      45.064  24.101  36.363  1.00  0.00     0.124 S 
ATOM     96  O   UNL A   1      44.253  23.227  35.522  1.00  0.00    -0.237 OA
ATOM     97  O   UNL A   1      46.423  23.640  36.634  1.00  0.00    -0.237 OA
ATOM     98  O   UNL A   1      44.368  24.683  37.508  1.00  0.00    -0.744 OA
ENDBRANCH  91  95
ENDBRANCH  65  88
ENDBRANCH  39  40
ENDBRANCH  31  34
ENDBRANCH  29  30
ENDBRANCH  28  29
ENDBRANCH  27  28
ENDBRANCH   1  27
TORSDOF 20
ENDMDL
MODEL 3
REMARK VINA RESULT:     -11.5      1.907      7.490
REMARK SMILES C[C@](NC(=O)C[C@@H]1CCCCO1)(C(=O)NCCCCCCNC(=O)c1ccc(-c2c3nc(c(-c4cc(S(=O)(=O)[O-])ccc4F)c4ccc([nH]4)c(-c4cc(S(=O)(=O)[O-])ccc4F)c4nc(c(-c5cc(S(=O)(=O)[O-])ccc5F)c5ccc2[nH]5)C=C4)C=C3)cc1)c1ccccc1
REMARK SMILES IDX 18 1 17 2 16 3 15 4 13 5 14 6 2 8 1 9 88 10 89 11 93 12
REMARK SMILES IDX 90 13 92 14 91 15 3 16 4 17 5 19 6 20 7 21 8 22 12 23 9 24
REMARK SMILES IDX 11 25 10 26 19 27 20 28 21 29 22 30 23 31 24 33 25 34 26 35
REMARK SMILES IDX 87 36 27 37 86 38 28 39 29 40 30 41 80 42 31 43 85 44 79 45
REMARK SMILES IDX 81 46 32 47 84 48 78 49 77 50 33 52 65 53 45 54 64 55 46 56
REMARK SMILES IDX 49 57 63 58 82 59 47 60 48 61 62 63 83 64 50 65 34 66 35 67
REMARK SMILES IDX 43 68 36 69 42 70 44 71 41 72 37 73 38 74 39 75 40 76 66 77
REMARK SMILES IDX 67 78 75 79 68 80 74 81 76 82 73 83 69 84 70 85 71 86 72 87
REMARK SMILES IDX 51 88 52 89 60 90 53 91 59 92 61 93 58 94 54 95 55 96 56 97
REMARK SMILES IDX 57 98
REMARK H PARENT 15 7 3 18 22 32 81 51 49 62
REMARK Flexibility Score: inf
ROOT
ATOM      1  C   UNL A   1      32.820  29.854  26.102  1.00  0.00     0.002 C 
ENDROOT
BRANCH   1   2
ATOM      2  C   UNL A   1      32.850  28.596  26.982  1.00  0.00     0.021 C 
BRANCH   2   3
ATOM      3  C   UNL A   1      33.034  27.298  26.201  1.00  0.00     0.116 C 
BRANCH   3   4
ATOM      4  N   UNL A   1      31.960  26.365  26.507  1.00  0.00    -0.354 N 
ATOM      5  C   UNL A   1      31.171  25.555  25.743  1.00  0.00     0.250 C 
ATOM      6  O   UNL A   1      30.392  24.836  26.378  1.00  0.00    -0.272 OA
ATOM      7  H   UNL A   1      31.758  26.306  27.469  1.00  0.00     0.163 HD
BRANCH   5   8
ATOM      8  C   UNL A   1      31.339  25.467  24.175  1.00  0.00     0.141 C 
ATOM      9  C   UNL A   1      30.471  24.262  23.697  1.00  0.00     0.051 C 
BRANCH   8  10
ATOM     10  C   UNL A   1      30.918  26.817  23.565  1.00  0.00    -0.013 A 
ATOM     11  C   UNL A   1      31.856  27.654  22.932  1.00  0.00     0.007 A 
ATOM     12  C   UNL A   1      29.582  27.254  23.578  1.00  0.00     0.007 A 
ATOM     13  C   UNL A   1      31.516  28.938  22.507  1.00  0.00     0.000 A 
ATOM     14  C   UNL A   1      29.243  28.551  23.184  1.00  0.00     0.000 A 
ATOM     15  C   UNL A   1      30.217  29.403  22.675  1.00  0.00     0.000 A 
ENDBRANCH   8  10
BRANCH   8  16
ATOM     16  N   UNL A   1      32.769  25.134  23.906  1.00  0.00    -0.338 N 
ATOM     17  C   UNL A   1      33.534  24.024  24.056  1.00  0.00     0.223 C 
ATOM     18  H   UNL A   1      33.272  25.894  23.534  1.00  0.00     0.164 HD
ATOM     19  O   UNL A   1      34.752  24.220  24.146  1.00  0.00    -0.275 OA
BRANCH  17  20
ATOM     20  C   UNL A   1      33.025  22.598  23.939  1.00  0.00     0.132 C 
BRANCH  20  21
ATOM     21  C   UNL A   1      32.875  21.754  25.203  1.00  0.00     0.127 C 
ATOM     22  C   UNL A   1      34.201  21.243  25.769  1.00  0.00     0.033 C 
ATOM     23  O   UNL A   1      31.971  20.657  24.996  1.00  0.00    -0.378 OA
ATOM     24  C   UNL A   1      34.786  20.105  24.936  1.00  0.00     0.005 C 
ATOM     25  C   UNL A   1      32.457  19.647  24.118  1.00  0.00     0.160 C 
ATOM     26  C   UNL A   1      33.735  19.034  24.663  1.00  0.00     0.029 C 
ENDBRANCH  20  21
ENDBRANCH  17  20
ENDBRANCH   8  16
ENDBRANCH   5   8
ENDBRANCH   3   4
ENDBRANCH   2   3
ENDBRANCH   1   2
BRANCH   1  27
ATOM     27  C   UNL A   1      31.439  30.497  25.944  1.00  0.00     0.002 C 
BRANCH  27  28
ATOM     28  C   UNL A   1      31.348  31.940  26.443  1.00  0.00     0.021 C 
BRANCH  28  29
ATOM     29  C   UNL A   1      32.656  32.491  26.996  1.00  0.00     0.116 C 
BRANCH  29  30
ATOM     30  N   UNL A   1      32.517  33.865  27.448  1.00  0.00    -0.352 N 
ATOM     31  C   UNL A   1      33.166  34.499  28.479  1.00  0.00     0.251 C 
ATOM     32  H   UNL A   1      31.870  34.414  26.949  1.00  0.00     0.163 HD
ATOM     33  O   UNL A   1      32.779  35.594  28.866  1.00  0.00    -0.269 OA
BRANCH  31  34
ATOM     34  C   UNL A   1      34.317  33.832  29.125  1.00  0.00     0.039 A 
ATOM     35  C   UNL A   1      34.078  32.808  30.043  1.00  0.00     0.014 A 
ATOM     36  C   UNL A   1      35.627  34.212  28.819  1.00  0.00     0.014 A 
ATOM     37  C   UNL A   1      35.156  32.134  30.620  1.00  0.00     0.010 A 
ATOM     38  C   UNL A   1      36.697  33.485  29.330  1.00  0.00     0.010 A 
ATOM     39  C   UNL A   1      36.475  32.447  30.247  1.00  0.00    -0.014 A 
BRANCH  39  40
ATOM     40  C   UNL A   1      37.634  31.731  30.841  1.00  0.00     0.031 A 
ATOM     41  C   UNL A   1      38.070  32.056  32.247  1.00  0.00     0.074 A 
ATOM     42  C   UNL A   1      38.314  30.825  30.110  1.00  0.00     0.049 A 
ATOM     43  N   UNL A   1      39.101  31.611  32.917  1.00  0.00    -0.248 NA
ATOM     44  C   UNL A   1      37.251  33.031  32.985  1.00  0.00     0.031 C 
ATOM     45  C   UNL A   1      38.005  30.446  28.729  1.00  0.00     0.029 A 
ATOM     46  N   UNL A   1      39.411  30.060  30.422  1.00  0.00    -0.354 N 
ATOM     47  C   UNL A   1      39.053  32.250  34.152  1.00  0.00     0.074 A 
ATOM     48  C   UNL A   1      37.937  33.169  34.108  1.00  0.00     0.031 C 
ATOM     49  C   UNL A   1      38.875  29.507  28.324  1.00  0.00     0.029 A 
ATOM     50  C   UNL A   1      39.837  29.253  29.392  1.00  0.00     0.049 A 
ATOM     51  H   UNL A   1      39.853  30.087  31.302  1.00  0.00     0.167 HD
ATOM     52  C   UNL A   1      39.846  32.062  35.235  1.00  0.00     0.034 A 
ATOM     53  C   UNL A   1      40.893  28.418  29.312  1.00  0.00     0.034 A 
ATOM     54  C   UNL A   1      40.950  31.136  35.269  1.00  0.00     0.049 A 
ATOM     55  C   UNL A   1      41.790  28.263  30.518  1.00  0.00     0.074 A 
ATOM     56  C   UNL A   1      41.809  30.858  36.318  1.00  0.00     0.029 A 
ATOM     57  N   UNL A   1      41.347  30.333  34.208  1.00  0.00    -0.354 N 
ATOM     58  N   UNL A   1      41.712  28.857  31.688  1.00  0.00    -0.248 NA
ATOM     59  C   UNL A   1      42.904  27.314  30.401  1.00  0.00     0.031 C 
ATOM     60  C   UNL A   1      42.763  29.939  35.873  1.00  0.00     0.029 A 
ATOM     61  C   UNL A   1      42.448  29.575  34.573  1.00  0.00     0.049 A 
ATOM     62  H   UNL A   1      40.911  30.306  33.326  1.00  0.00     0.167 HD
ATOM     63  C   UNL A   1      42.739  28.315  32.457  1.00  0.00     0.074 A 
ATOM     64  C   UNL A   1      43.410  27.338  31.624  1.00  0.00     0.031 C 
ATOM     65  C   UNL A   1      43.097  28.594  33.736  1.00  0.00     0.034 A 
BRANCH  52  66
ATOM     66  C   UNL A   1      39.549  32.881  36.467  1.00  0.00     0.023 A 
ATOM     67  C   UNL A   1      40.205  34.100  36.714  1.00  0.00     0.031 A 
ATOM     68  C   UNL A   1      38.598  32.443  37.406  1.00  0.00     0.131 A 
ATOM     69  C   UNL A   1      39.947  34.808  37.896  1.00  0.00     0.055 A 
ATOM     70  C   UNL A   1      38.287  33.194  38.542  1.00  0.00     0.041 A 
ATOM     71  F   UNL A   1      37.956  31.277  37.237  1.00  0.00    -0.206 F 
ATOM     72  C   UNL A   1      38.971  34.380  38.798  1.00  0.00     0.022 A 
BRANCH  69  73
ATOM     73  S   UNL A   1      40.993  36.234  38.297  1.00  0.00     0.124 S 
ATOM     74  O   UNL A   1      41.850  36.310  37.117  1.00  0.00    -0.237 OA
ATOM     75  O   UNL A   1      40.019  37.309  38.449  1.00  0.00    -0.237 OA
ATOM     76  O   UNL A   1      41.671  35.826  39.527  1.00  0.00    -0.744 OA
ENDBRANCH  69  73
ENDBRANCH  52  66
BRANCH  53  77
ATOM     77  C   UNL A   1      41.190  27.675  28.049  1.00  0.00     0.023 A 
ATOM     78  C   UNL A   1      40.898  26.306  27.927  1.00  0.00     0.031 A 
ATOM     79  C   UNL A   1      41.855  28.300  26.979  1.00  0.00     0.131 A 
ATOM     80  C   UNL A   1      41.341  25.593  26.802  1.00  0.00     0.055 A 
ATOM     81  C   UNL A   1      42.227  27.603  25.829  1.00  0.00     0.041 A 
ATOM     82  F   UNL A   1      42.159  29.607  27.038  1.00  0.00    -0.206 F 
ATOM     83  C   UNL A   1      41.991  26.234  25.746  1.00  0.00     0.022 A 
BRANCH  80  84
ATOM     84  S   UNL A   1      41.190  23.784  26.810  1.00  0.00     0.124 S 
ATOM     85  O   UNL A   1      39.785  23.605  26.464  1.00  0.00    -0.237 OA
ATOM     86  O   UNL A   1      42.158  23.397  25.789  1.00  0.00    -0.237 OA
ATOM     87  O   UNL A   1      41.550  23.420  28.179  1.00  0.00    -0.744 OA
ENDBRANCH  80  84
ENDBRANCH  53  77
BRANCH  65  88
ATOM     88  C   UNL A   1      44.216  27.777  34.336  1.00  0.00     0.023 A 
ATOM     89  C   UNL A   1      43.981  26.558  34.995  1.00  0.00     0.031 A 
ATOM     90  C   UNL A   1      45.543  28.236  34.252  1.00  0.00     0.131 A 
ATOM     91  C   UNL A   1      45.046  25.874  35.599  1.00  0.00     0.055 A 
ATOM     92  C   UNL A   1      46.608  27.516  34.792  1.00  0.00     0.041 A 
ATOM     93  F   UNL A   1      45.827  29.395  33.635  1.00  0.00    -0.206 F 
ATOM     94  C   UNL A   1      46.360  26.334  35.485  1.00  0.00     0.022 A 
BRANCH  91  95
ATOM     95  S   UNL A   1      44.680  24.426  36.628  1.00  0.00     0.124 S 
ATOM     96  O   UNL A   1      43.757  23.677  35.782  1.00  0.00    -0.237 OA
ATOM     97  O   UNL A   1      46.001  23.832  36.812  1.00  0.00    -0.237 OA
ATOM     98  O   UNL A   1      44.088  25.003  37.834  1.00  0.00    -0.744 OA
ENDBRANCH  91  95
ENDBRANCH  65  88
ENDBRANCH  39  40
ENDBRANCH  31  34
ENDBRANCH  29  30
ENDBRANCH  28  29
ENDBRANCH  27  28
ENDBRANCH   1  27
TORSDOF 20
ENDMDL
