MODEL 1
REMARK VINA RESULT:     -12.4      0.000      0.000
REMARK SMILES O=C(NCCCCCCNC(=O)c1ccc(-c2c3nc(c(-c4cc(S(=O)(=O)[O-])ccc4F)c4ccc([nH]4)c(-c4cc(S(=O)(=O)[O-])ccc4F)c4nc(c(-c5cc(S(=O)(=O)[O-])ccc5F)c5ccc2[nH]5)C=C4)C=C3)cc1)C1=Cc2cc(S(F)(F)(F)(F)F)cc(Br)c2O[C@@H]1C(F)(F)F
REMARK SMILES IDX 7 1 6 2 5 3 4 4 3 5 1 6 2 7 76 9 77 10 92 11 78 12 91 13
REMARK SMILES IDX 79 14 90 15 80 16 88 17 87 18 89 19 93 20 94 21 95 22 96 23
REMARK SMILES IDX 81 24 82 25 83 26 84 27 85 28 86 29 8 30 9 31 10 32 11 33
REMARK SMILES IDX 12 35 13 36 14 37 75 38 15 39 74 40 16 41 17 42 18 43 68 44
REMARK SMILES IDX 19 45 73 46 67 47 69 48 20 49 72 50 66 51 65 52 21 54 53 55
REMARK SMILES IDX 33 56 52 57 34 58 37 59 51 60 70 61 35 62 36 63 50 65 71 66
REMARK SMILES IDX 38 67 22 68 23 69 31 70 24 71 30 72 32 73 29 74 25 75 26 76
REMARK SMILES IDX 27 77 28 78 54 79 55 80 63 81 56 82 62 83 64 84 61 85 57 86
REMARK SMILES IDX 58 87 59 88 60 89 39 90 40 91 48 92 41 93 47 94 49 95 46 96
REMARK SMILES IDX 42 97 43 98 44 99 45 100
REMARK H PARENT 3 8 10 34 69 53 37 64
REMARK Flexibility Score: inf
ROOT
ATOM      1  C   UNL A   1      32.187  30.562  26.895  1.00  0.00     0.002 C 
ENDROOT
BRANCH   1   2
ATOM      2  C   UNL A   1      33.703  30.543  26.998  1.00  0.00     0.002 C 
BRANCH   2   3
ATOM      3  C   UNL A   1      34.162  29.177  27.481  1.00  0.00     0.021 C 
BRANCH   3   4
ATOM      4  C   UNL A   1      33.669  28.108  26.519  1.00  0.00     0.116 C 
BRANCH   4   5
ATOM      5  N   UNL A   1      32.478  27.455  27.079  1.00  0.00    -0.352 N 
ATOM      6  O   UNL A   1      30.289  26.611  26.703  1.00  0.00    -0.270 OA
ATOM      7  C   UNL A   1      31.320  27.175  26.219  1.00  0.00     0.251 C 
ATOM      8  H   UNL A   1      32.455  27.206  28.032  1.00  0.00     0.163 HD
BRANCH   7   9
ATOM      9  C   UNL A   1      31.355  27.559  24.748  1.00  0.00     0.067 C 
ATOM     10  C   UNL A   1      32.013  26.772  23.854  1.00  0.00     0.025 C 
ATOM     11  C   UNL A   1      30.655  28.823  24.277  1.00  0.00     0.314 C 
ATOM     12  C   UNL A   1      32.713  25.508  24.327  1.00  0.00     0.020 A 
ATOM     13  O   UNL A   1      30.762  25.116  25.628  1.00  0.00    -0.474 OA
ATOM     14  C   UNL A   1      34.025  25.236  23.978  1.00  0.00     0.036 A 
ATOM     15  C   UNL A   1      32.047  24.723  25.167  1.00  0.00     0.142 A 
ATOM     16  C   UNL A   1      34.461  23.942  24.348  1.00  0.00     0.109 A 
ATOM     17  C   UNL A   1      32.590  23.536  25.595  1.00  0.00     0.062 A 
ATOM     18  C   UNL A   1      33.860  23.176  25.241  1.00  0.00     0.044 A 
ATOM     19  Br  UNL A   1      31.528  22.342  26.729  1.00  0.00    -0.047 Br
BRANCH  11  20
ATOM     20  C   UNL A   1      29.592  28.461  23.252  1.00  0.00     0.429 C 
ATOM     21  F   UNL A   1      28.686  29.433  23.193  1.00  0.00    -0.167 F 
ATOM     22  F   UNL A   1      30.160  28.312  22.058  1.00  0.00    -0.167 F 
ATOM     23  F   UNL A   1      29.001  27.325  23.608  1.00  0.00    -0.167 F 
ENDBRANCH  11  20
BRANCH  16  24
ATOM     24  S   UNL A   1      35.944  23.290  23.541  1.00  0.00     0.310 S 
ATOM     25  F   UNL A   1      35.840  21.903  24.303  1.00  0.00    -0.094 F 
ATOM     26  F   UNL A   1      36.813  23.810  24.750  1.00  0.00    -0.094 F 
ATOM     27  F   UNL A   1      37.213  22.736  22.833  1.00  0.00    -0.094 F 
ATOM     28  F   UNL A   1      35.044  22.654  22.410  1.00  0.00    -0.094 F 
ATOM     29  F   UNL A   1      34.637  23.748  24.304  1.00  0.00    -0.094 F 
ENDBRANCH  16  24
ENDBRANCH   7   9
ENDBRANCH   4   5
ENDBRANCH   3   4
ENDBRANCH   2   3
ENDBRANCH   1   2
BRANCH   1  30
ATOM     30  C   UNL A   1      31.695  32.000  26.912  1.00  0.00     0.021 C 
BRANCH  30  31
ATOM     31  C   UNL A   1      32.882  32.940  27.050  1.00  0.00     0.116 C 
BRANCH  31  32
ATOM     32  N   UNL A   1      32.441  34.198  27.668  1.00  0.00    -0.352 N 
ATOM     33  C   UNL A   1      33.166  34.742  28.826  1.00  0.00     0.251 C 
ATOM     34  H   UNL A   1      31.660  34.677  27.308  1.00  0.00     0.163 HD
ATOM     35  O   UNL A   1      32.785  35.830  29.361  1.00  0.00    -0.269 OA
BRANCH  33  36
ATOM     36  C   UNL A   1      34.372  34.003  29.382  1.00  0.00     0.039 A 
ATOM     37  C   UNL A   1      35.630  34.276  28.871  1.00  0.00     0.014 A 
ATOM     38  C   UNL A   1      34.200  33.109  30.348  1.00  0.00     0.014 A 
ATOM     39  C   UNL A   1      36.619  33.335  29.247  1.00  0.00     0.010 A 
ATOM     40  C   UNL A   1      35.245  32.317  30.762  1.00  0.00     0.010 A 
ATOM     41  C   UNL A   1      36.503  32.491  30.256  1.00  0.00    -0.014 A 
BRANCH  41  42
ATOM     42  C   UNL A   1      37.705  31.753  30.824  1.00  0.00     0.031 A 
ATOM     43  C   UNL A   1      38.320  30.789  30.022  1.00  0.00     0.074 A 
ATOM     44  C   UNL A   1      38.121  32.077  32.102  1.00  0.00     0.049 A 
ATOM     45  N   UNL A   1      39.398  30.058  30.312  1.00  0.00    -0.248 NA
ATOM     46  C   UNL A   1      37.859  30.419  28.676  1.00  0.00     0.031 C 
ATOM     47  C   UNL A   1      37.511  33.054  32.913  1.00  0.00     0.029 A 
ATOM     48  N   UNL A   1      39.170  31.536  32.812  1.00  0.00    -0.354 N 
ATOM     49  C   UNL A   1      39.701  29.257  29.288  1.00  0.00     0.074 A 
ATOM     50  C   UNL A   1      38.712  29.474  28.223  1.00  0.00     0.031 C 
ATOM     51  C   UNL A   1      38.174  33.092  34.099  1.00  0.00     0.029 A 
ATOM     52  C   UNL A   1      39.211  32.141  34.049  1.00  0.00     0.049 A 
ATOM     53  H   UNL A   1      39.784  30.837  32.491  1.00  0.00     0.167 HD
ATOM     54  C   UNL A   1      40.765  28.358  29.200  1.00  0.00     0.034 A 
ATOM     55  C   UNL A   1      40.093  31.891  35.088  1.00  0.00     0.034 A 
ATOM     56  C   UNL A   1      41.673  28.139  30.223  1.00  0.00     0.049 A 
ATOM     57  C   UNL A   1      41.122  30.949  35.021  1.00  0.00     0.074 A 
ATOM     58  C   UNL A   1      42.755  27.241  30.147  1.00  0.00     0.029 A 
ATOM     59  N   UNL A   1      41.698  28.727  31.468  1.00  0.00    -0.354 N 
ATOM     60  N   UNL A   1      41.448  30.177  33.983  1.00  0.00    -0.248 NA
ATOM     61  C   UNL A   1      42.042  30.652  36.127  1.00  0.00     0.031 C 
ATOM     62  C   UNL A   1      43.419  27.280  31.333  1.00  0.00     0.029 A 
ATOM     63  C   UNL A   1      42.761  28.202  32.170  1.00  0.00     0.049 A 
ATOM     64  H   UNL A   1      41.066  29.406  31.799  1.00  0.00     0.167 HD
ATOM     65  C   UNL A   1      42.501  29.416  34.289  1.00  0.00     0.074 A 
ATOM     66  C   UNL A   1      42.894  29.706  35.675  1.00  0.00     0.031 C 
ATOM     67  C   UNL A   1      43.153  28.496  33.467  1.00  0.00     0.034 A 
BRANCH  54  68
ATOM     68  C   UNL A   1      40.935  27.574  27.908  1.00  0.00     0.023 A 
ATOM     69  C   UNL A   1      40.505  26.259  27.911  1.00  0.00     0.031 A 
ATOM     70  C   UNL A   1      41.442  28.131  26.815  1.00  0.00     0.131 A 
ATOM     71  C   UNL A   1      40.920  25.516  26.780  1.00  0.00     0.055 A 
ATOM     72  C   UNL A   1      41.697  27.372  25.698  1.00  0.00     0.041 A 
ATOM     73  F   UNL A   1      41.706  29.435  26.799  1.00  0.00    -0.206 F 
ATOM     74  C   UNL A   1      41.351  26.050  25.652  1.00  0.00     0.022 A 
BRANCH  71  75
ATOM     75  S   UNL A   1      40.855  23.711  26.888  1.00  0.00     0.124 S 
ATOM     76  O   UNL A   1      41.890  23.106  25.937  1.00  0.00    -0.237 OA
ATOM     77  O   UNL A   1      41.162  23.274  28.322  1.00  0.00    -0.237 OA
ATOM     78  O   UNL A   1      39.293  23.169  26.449  1.00  0.00    -0.744 OA
ENDBRANCH  71  75
ENDBRANCH  54  68
BRANCH  55  79
ATOM     79  C   UNL A   1      39.931  32.687  36.373  1.00  0.00     0.023 A 
ATOM     80  C   UNL A   1      39.213  32.187  37.448  1.00  0.00     0.031 A 
ATOM     81  C   UNL A   1      40.472  33.899  36.410  1.00  0.00     0.131 A 
ATOM     82  C   UNL A   1      38.873  33.165  38.413  1.00  0.00     0.055 A 
ATOM     83  C   UNL A   1      40.205  34.753  37.453  1.00  0.00     0.041 A 
ATOM     84  F   UNL A   1      41.280  34.289  35.428  1.00  0.00    -0.206 F 
ATOM     85  C   UNL A   1      39.454  34.346  38.519  1.00  0.00     0.022 A 
BRANCH  82  86
ATOM     86  S   UNL A   1      37.551  32.767  39.583  1.00  0.00     0.124 S 
ATOM     87  O   UNL A   1      36.217  32.684  38.838  1.00  0.00    -0.237 OA
ATOM     88  O   UNL A   1      37.846  31.421  40.250  1.00  0.00    -0.237 OA
ATOM     89  O   UNL A   1      37.461  33.988  40.778  1.00  0.00    -0.744 OA
ENDBRANCH  82  86
ENDBRANCH  55  79
BRANCH  67  90
ATOM     90  C   UNL A   1      44.365  27.770  34.028  1.00  0.00     0.023 A 
ATOM     91  C   UNL A   1      44.185  26.592  34.734  1.00  0.00     0.031 A 
ATOM     92  C   UNL A   1      45.577  28.277  33.833  1.00  0.00     0.131 A 
ATOM     93  C   UNL A   1      45.331  26.170  35.448  1.00  0.00     0.055 A 
ATOM     94  C   UNL A   1      46.672  27.731  34.456  1.00  0.00     0.041 A 
ATOM     95  F   UNL A   1      45.730  29.324  33.027  1.00  0.00    -0.206 F 
ATOM     96  C   UNL A   1      46.558  26.601  35.217  1.00  0.00     0.022 A 
BRANCH  93  97
ATOM     97  S   UNL A   1      45.100  24.956  36.770  1.00  0.00     0.124 S 
ATOM     98  O   UNL A   1      45.416  23.556  36.237  1.00  0.00    -0.237 OA
ATOM     99  O   UNL A   1      46.041  25.283  37.933  1.00  0.00    -0.237 OA
ATOM    100  O   UNL A   1      43.481  25.006  37.315  1.00  0.00    -0.744 OA
ENDBRANCH  93  97
ENDBRANCH  67  90
ENDBRANCH  41  42
ENDBRANCH  33  36
ENDBRANCH  31  32
ENDBRANCH  30  31
ENDBRANCH   1  30
TORSDOF 18
ENDMDL
MODEL 2
REMARK VINA RESULT:     -12.4      1.715      3.448
REMARK SMILES O=C(NCCCCCCNC(=O)c1ccc(-c2c3nc(c(-c4cc(S(=O)(=O)[O-])ccc4F)c4ccc([nH]4)c(-c4cc(S(=O)(=O)[O-])ccc4F)c4nc(c(-c5cc(S(=O)(=O)[O-])ccc5F)c5ccc2[nH]5)C=C4)C=C3)cc1)C1=Cc2cc(S(F)(F)(F)(F)F)cc(Br)c2O[C@@H]1C(F)(F)F
REMARK SMILES IDX 7 1 6 2 5 3 4 4 3 5 1 6 2 7 76 9 77 10 92 11 78 12 91 13
REMARK SMILES IDX 79 14 90 15 80 16 88 17 87 18 89 19 93 20 94 21 95 22 96 23
REMARK SMILES IDX 81 24 82 25 83 26 84 27 85 28 86 29 8 30 9 31 10 32 11 33
REMARK SMILES IDX 12 35 13 36 14 37 75 38 15 39 74 40 16 41 17 42 18 43 68 44
REMARK SMILES IDX 19 45 73 46 67 47 69 48 20 49 72 50 66 51 65 52 21 54 53 55
REMARK SMILES IDX 33 56 52 57 34 58 37 59 51 60 70 61 35 62 36 63 50 65 71 66
REMARK SMILES IDX 38 67 22 68 23 69 31 70 24 71 30 72 32 73 29 74 25 75 26 76
REMARK SMILES IDX 27 77 28 78 54 79 55 80 63 81 56 82 62 83 64 84 61 85 57 86
REMARK SMILES IDX 58 87 59 88 60 89 39 90 40 91 48 92 41 93 47 94 49 95 46 96
REMARK SMILES IDX 42 97 43 98 44 99 45 100
REMARK H PARENT 3 8 10 34 69 53 37 64
REMARK Flexibility Score: inf
ROOT
ATOM      1  C   UNL A   1      31.801  29.920  26.385  1.00  0.00     0.002 C 
ENDROOT
BRANCH   1   2
ATOM      2  C   UNL A   1      32.869  29.775  25.314  1.00  0.00     0.002 C 
BRANCH   2   3
ATOM      3  C   UNL A   1      34.050  29.001  25.878  1.00  0.00     0.021 C 
BRANCH   3   4
ATOM      4  C   UNL A   1      33.608  27.589  26.229  1.00  0.00     0.116 C 
BRANCH   4   5
ATOM      5  N   UNL A   1      34.240  26.633  25.308  1.00  0.00    -0.352 N 
ATOM      6  O   UNL A   1      34.287  24.428  24.427  1.00  0.00    -0.270 OA
ATOM      7  C   UNL A   1      33.740  25.254  25.223  1.00  0.00     0.251 C 
ATOM      8  H   UNL A   1      34.998  26.918  24.748  1.00  0.00     0.163 HD
BRANCH   7   9
ATOM      9  C   UNL A   1      32.569  24.815  26.087  1.00  0.00     0.067 C 
ATOM     10  C   UNL A   1      31.306  25.213  25.774  1.00  0.00     0.025 C 
ATOM     11  C   UNL A   1      32.809  23.933  27.301  1.00  0.00     0.314 C 
ATOM     12  C   UNL A   1      31.066  26.096  24.560  1.00  0.00     0.020 A 
ATOM     13  O   UNL A   1      32.588  24.663  23.428  1.00  0.00    -0.474 OA
ATOM     14  C   UNL A   1      30.309  27.252  24.648  1.00  0.00     0.036 A 
ATOM     15  C   UNL A   1      31.693  25.766  23.437  1.00  0.00     0.142 A 
ATOM     16  C   UNL A   1      30.036  27.855  23.397  1.00  0.00     0.109 A 
ATOM     17  C   UNL A   1      31.484  26.483  22.282  1.00  0.00     0.062 A 
ATOM     18  C   UNL A   1      30.700  27.602  22.283  1.00  0.00     0.044 A 
ATOM     19  Br  UNL A   1      32.322  25.890  20.613  1.00  0.00    -0.047 Br
BRANCH  11  20
ATOM     20  C   UNL A   1      32.042  22.629  27.139  1.00  0.00     0.429 C 
ATOM     21  F   UNL A   1      32.172  22.192  25.890  1.00  0.00    -0.167 F 
ATOM     22  F   UNL A   1      32.531  21.722  27.980  1.00  0.00    -0.167 F 
ATOM     23  F   UNL A   1      30.756  22.836  27.406  1.00  0.00    -0.167 F 
ENDBRANCH  11  20
BRANCH  16  24
ATOM     24  S   UNL A   1      28.684  29.056  23.317  1.00  0.00     0.310 S 
ATOM     25  F   UNL A   1      28.928  29.339  21.776  1.00  0.00    -0.094 F 
ATOM     26  F   UNL A   1      29.712  30.211  23.622  1.00  0.00    -0.094 F 
ATOM     27  F   UNL A   1      27.513  30.076  23.257  1.00  0.00    -0.094 F 
ATOM     28  F   UNL A   1      27.696  27.906  22.874  1.00  0.00    -0.094 F 
ATOM     29  F   UNL A   1      29.883  28.026  23.263  1.00  0.00    -0.094 F 
ENDBRANCH  16  24
ENDBRANCH   7   9
ENDBRANCH   4   5
ENDBRANCH   3   4
ENDBRANCH   2   3
ENDBRANCH   1   2
BRANCH   1  30
ATOM     30  C   UNL A   1      31.461  31.391  26.567  1.00  0.00     0.021 C 
BRANCH  30  31
ATOM     31  C   UNL A   1      32.728  32.167  26.891  1.00  0.00     0.116 C 
BRANCH  31  32
ATOM     32  N   UNL A   1      32.373  33.534  27.297  1.00  0.00    -0.352 N 
ATOM     33  C   UNL A   1      33.183  34.236  28.304  1.00  0.00     0.251 C 
ATOM     34  H   UNL A   1      31.594  33.981  26.894  1.00  0.00     0.163 HD
ATOM     35  O   UNL A   1      32.876  35.418  28.655  1.00  0.00    -0.269 OA
BRANCH  33  36
ATOM     36  C   UNL A   1      34.386  33.546  28.925  1.00  0.00     0.039 A 
ATOM     37  C   UNL A   1      35.660  33.995  28.617  1.00  0.00     0.014 A 
ATOM     38  C   UNL A   1      34.198  32.525  29.753  1.00  0.00     0.014 A 
ATOM     39  C   UNL A   1      36.692  33.110  29.009  1.00  0.00     0.010 A 
ATOM     40  C   UNL A   1      35.265  31.787  30.206  1.00  0.00     0.010 A 
ATOM     41  C   UNL A   1      36.548  32.138  29.892  1.00  0.00    -0.014 A 
BRANCH  41  42
ATOM     42  C   UNL A   1      37.746  31.447  30.524  1.00  0.00     0.031 A 
ATOM     43  C   UNL A   1      38.422  30.487  29.769  1.00  0.00     0.074 A 
ATOM     44  C   UNL A   1      38.098  31.808  31.812  1.00  0.00     0.049 A 
ATOM     45  N   UNL A   1      39.508  29.795  30.118  1.00  0.00    -0.248 NA
ATOM     46  C   UNL A   1      38.029  30.077  28.413  1.00  0.00     0.031 C 
ATOM     47  C   UNL A   1      37.426  32.782  32.577  1.00  0.00     0.029 A 
ATOM     48  N   UNL A   1      39.132  31.313  32.576  1.00  0.00    -0.354 N 
ATOM     49  C   UNL A   1      39.877  28.984  29.124  1.00  0.00     0.074 A 
ATOM     50  C   UNL A   1      38.927  29.150  28.015  1.00  0.00     0.031 C 
ATOM     51  C   UNL A   1      38.038  32.863  33.788  1.00  0.00     0.029 A 
ATOM     52  C   UNL A   1      39.103  31.943  33.800  1.00  0.00     0.049 A 
ATOM     53  H   UNL A   1      39.779  30.626  32.295  1.00  0.00     0.167 HD
ATOM     54  C   UNL A   1      40.969  28.115  29.098  1.00  0.00     0.034 A 
ATOM     55  C   UNL A   1      39.948  31.739  34.880  1.00  0.00     0.034 A 
ATOM     56  C   UNL A   1      41.840  27.944  30.163  1.00  0.00     0.049 A 
ATOM     57  C   UNL A   1      41.006  30.827  34.875  1.00  0.00     0.074 A 
ATOM     58  C   UNL A   1      42.950  27.078  30.150  1.00  0.00     0.029 A 
ATOM     59  N   UNL A   1      41.796  28.556  31.395  1.00  0.00    -0.354 N 
ATOM     60  N   UNL A   1      41.398  30.046  33.868  1.00  0.00    -0.248 NA
ATOM     61  C   UNL A   1      41.887  30.579  36.024  1.00  0.00     0.031 C 
ATOM     62  C   UNL A   1      43.562  27.159  31.361  1.00  0.00     0.029 A 
ATOM     63  C   UNL A   1      42.843  28.076  32.151  1.00  0.00     0.049 A 
ATOM     64  H   UNL A   1      41.131  29.221  31.686  1.00  0.00     0.167 HD
ATOM     65  C   UNL A   1      42.459  29.323  34.232  1.00  0.00     0.074 A 
ATOM     66  C   UNL A   1      42.784  29.651  35.626  1.00  0.00     0.031 C 
ATOM     67  C   UNL A   1      43.171  28.407  33.457  1.00  0.00     0.034 A 
BRANCH  54  68
ATOM     68  C   UNL A   1      41.217  27.312  27.831  1.00  0.00     0.023 A 
ATOM     69  C   UNL A   1      40.747  26.010  27.812  1.00  0.00     0.031 A 
ATOM     70  C   UNL A   1      41.824  27.842  26.776  1.00  0.00     0.131 A 
ATOM     71  C   UNL A   1      41.227  25.243  26.724  1.00  0.00     0.055 A 
ATOM     72  C   UNL A   1      42.142  27.063  25.689  1.00  0.00     0.041 A 
ATOM     73  F   UNL A   1      42.128  29.137  26.769  1.00  0.00    -0.206 F 
ATOM     74  C   UNL A   1      41.761  25.751  25.629  1.00  0.00     0.022 A 
BRANCH  71  75
ATOM     75  S   UNL A   1      41.100  23.442  26.842  1.00  0.00     0.124 S 
ATOM     76  O   UNL A   1      41.954  22.797  25.749  1.00  0.00    -0.237 OA
ATOM     77  O   UNL A   1      41.597  22.984  28.215  1.00  0.00    -0.237 OA
ATOM     78  O   UNL A   1      39.468  22.971  26.642  1.00  0.00    -0.744 OA
ENDBRANCH  71  75
ENDBRANCH  54  68
BRANCH  55  79
ATOM     79  C   UNL A   1      39.709  32.554  36.140  1.00  0.00     0.023 A 
ATOM     80  C   UNL A   1      38.992  32.041  37.209  1.00  0.00     0.031 A 
ATOM     81  C   UNL A   1      40.181  33.795  36.161  1.00  0.00     0.131 A 
ATOM     82  C   UNL A   1      38.573  33.020  38.141  1.00  0.00     0.055 A 
ATOM     83  C   UNL A   1      39.841  34.657  37.175  1.00  0.00     0.041 A 
ATOM     84  F   UNL A   1      40.992  34.207  35.190  1.00  0.00    -0.206 F 
ATOM     85  C   UNL A   1      39.085  34.234  38.233  1.00  0.00     0.022 A 
BRANCH  82  86
ATOM     86  S   UNL A   1      37.245  32.577  39.288  1.00  0.00     0.124 S 
ATOM     87  O   UNL A   1      37.324  33.469  40.529  1.00  0.00    -0.237 OA
ATOM     88  O   UNL A   1      35.891  32.774  38.603  1.00  0.00    -0.237 OA
ATOM     89  O   UNL A   1      37.416  30.940  39.753  1.00  0.00    -0.744 OA
ENDBRANCH  82  86
ENDBRANCH  55  79
BRANCH  67  90
ATOM     90  C   UNL A   1      44.379  27.729  34.082  1.00  0.00     0.023 A 
ATOM     91  C   UNL A   1      44.230  26.485  34.673  1.00  0.00     0.031 A 
ATOM     92  C   UNL A   1      45.558  28.340  34.053  1.00  0.00     0.131 A 
ATOM     93  C   UNL A   1      45.332  26.091  35.467  1.00  0.00     0.055 A 
ATOM     94  C   UNL A   1      46.629  27.826  34.742  1.00  0.00     0.041 A 
ATOM     95  F   UNL A   1      45.701  29.460  33.350  1.00  0.00    -0.206 F 
ATOM     96  C   UNL A   1      46.536  26.630  35.397  1.00  0.00     0.022 A 
BRANCH  93  97
ATOM     97  S   UNL A   1      45.077  24.755  36.661  1.00  0.00     0.124 S 
ATOM     98  O   UNL A   1      46.425  24.338  37.255  1.00  0.00    -0.237 OA
ATOM     99  O   UNL A   1      44.154  25.242  37.781  1.00  0.00    -0.237 OA
ATOM    100  O   UNL A   1      44.363  23.416  35.874  1.00  0.00    -0.744 OA
ENDBRANCH  93  97
ENDBRANCH  67  90
ENDBRANCH  41  42
ENDBRANCH  33  36
ENDBRANCH  31  32
ENDBRANCH  30  31
ENDBRANCH   1  30
TORSDOF 18
ENDMDL
MODEL 3
REMARK VINA RESULT:     -12.3      1.592      2.063
REMARK SMILES O=C(NCCCCCCNC(=O)c1ccc(-c2c3nc(c(-c4cc(S(=O)(=O)[O-])ccc4F)c4ccc([nH]4)c(-c4cc(S(=O)(=O)[O-])ccc4F)c4nc(c(-c5cc(S(=O)(=O)[O-])ccc5F)c5ccc2[nH]5)C=C4)C=C3)cc1)C1=Cc2cc(S(F)(F)(F)(F)F)cc(Br)c2O[C@@H]1C(F)(F)F
REMARK SMILES IDX 7 1 6 2 5 3 4 4 3 5 1 6 2 7 76 9 77 10 92 11 78 12 91 13
REMARK SMILES IDX 79 14 90 15 80 16 88 17 87 18 89 19 93 20 94 21 95 22 96 23
REMARK SMILES IDX 81 24 82 25 83 26 84 27 85 28 86 29 8 30 9 31 10 32 11 33
REMARK SMILES IDX 12 35 13 36 14 37 75 38 15 39 74 40 16 41 17 42 18 43 68 44
REMARK SMILES IDX 19 45 73 46 67 47 69 48 20 49 72 50 66 51 65 52 21 54 53 55
REMARK SMILES IDX 33 56 52 57 34 58 37 59 51 60 70 61 35 62 36 63 50 65 71 66
REMARK SMILES IDX 38 67 22 68 23 69 31 70 24 71 30 72 32 73 29 74 25 75 26 76
REMARK SMILES IDX 27 77 28 78 54 79 55 80 63 81 56 82 62 83 64 84 61 85 57 86
REMARK SMILES IDX 58 87 59 88 60 89 39 90 40 91 48 92 41 93 47 94 49 95 46 96
REMARK SMILES IDX 42 97 43 98 44 99 45 100
REMARK H PARENT 3 8 10 34 69 53 37 64
REMARK Flexibility Score: inf
ROOT
ATOM      1  C   UNL A   1      31.837  30.078  25.585  1.00  0.00     0.002 C 
ENDROOT
BRANCH   1   2
ATOM      2  C   UNL A   1      33.267  29.748  25.977  1.00  0.00     0.002 C 
BRANCH   2   3
ATOM      3  C   UNL A   1      33.630  28.367  25.456  1.00  0.00     0.021 C 
BRANCH   3   4
ATOM      4  C   UNL A   1      33.019  28.170  24.078  1.00  0.00     0.116 C 
BRANCH   4   5
ATOM      5  N   UNL A   1      33.798  27.168  23.335  1.00  0.00    -0.352 N 
ATOM      6  O   UNL A   1      33.806  25.110  22.149  1.00  0.00    -0.270 OA
ATOM      7  C   UNL A   1      33.133  25.976  22.791  1.00  0.00     0.251 C 
ATOM      8  H   UNL A   1      34.765  27.296  23.203  1.00  0.00     0.163 HD
BRANCH   7   9
ATOM      9  C   UNL A   1      31.639  25.779  22.994  1.00  0.00     0.067 C 
ATOM     10  C   UNL A   1      31.172  24.613  23.518  1.00  0.00     0.025 C 
ATOM     11  C   UNL A   1      30.668  26.884  22.613  1.00  0.00     0.314 C 
ATOM     12  C   UNL A   1      32.144  23.508  23.900  1.00  0.00     0.020 A 
ATOM     13  O   UNL A   1      33.473  25.235  24.848  1.00  0.00    -0.474 OA
ATOM     14  C   UNL A   1      31.953  22.202  23.477  1.00  0.00     0.036 A 
ATOM     15  C   UNL A   1      33.233  23.863  24.571  1.00  0.00     0.142 A 
ATOM     16  C   UNL A   1      32.843  21.273  24.066  1.00  0.00     0.109 A 
ATOM     17  C   UNL A   1      34.131  22.914  24.999  1.00  0.00     0.062 A 
ATOM     18  C   UNL A   1      33.974  21.598  24.669  1.00  0.00     0.044 A 
ATOM     19  Br  UNL A   1      35.658  23.459  26.100  1.00  0.00    -0.047 Br
BRANCH  11  20
ATOM     20  C   UNL A   1      29.888  27.320  23.843  1.00  0.00     0.429 C 
ATOM     21  F   UNL A   1      28.717  26.691  23.869  1.00  0.00    -0.167 F 
ATOM     22  F   UNL A   1      30.580  27.013  24.937  1.00  0.00    -0.167 F 
ATOM     23  F   UNL A   1      29.687  28.633  23.798  1.00  0.00    -0.167 F 
ENDBRANCH  11  20
BRANCH  16  24
ATOM     24  S   UNL A   1      32.402  19.520  23.990  1.00  0.00     0.310 S 
ATOM     25  F   UNL A   1      33.921  19.063  23.965  1.00  0.00    -0.094 F 
ATOM     26  F   UNL A   1      32.469  19.587  22.416  1.00  0.00    -0.094 F 
ATOM     27  F   UNL A   1      32.013  18.016  23.936  1.00  0.00    -0.094 F 
ATOM     28  F   UNL A   1      32.480  19.436  25.565  1.00  0.00    -0.094 F 
ATOM     29  F   UNL A   1      32.909  21.016  24.059  1.00  0.00    -0.094 F 
ENDBRANCH  16  24
ENDBRANCH   7   9
ENDBRANCH   4   5
ENDBRANCH   3   4
ENDBRANCH   2   3
ENDBRANCH   1   2
BRANCH   1  30
ATOM     30  C   UNL A   1      31.397  31.349  26.293  1.00  0.00     0.021 C 
BRANCH  30  31
ATOM     31  C   UNL A   1      32.598  31.998  26.962  1.00  0.00     0.116 C 
BRANCH  31  32
ATOM     32  N   UNL A   1      32.286  33.398  27.278  1.00  0.00    -0.352 N 
ATOM     33  C   UNL A   1      33.152  34.158  28.193  1.00  0.00     0.251 C 
ATOM     34  H   UNL A   1      31.497  33.830  26.876  1.00  0.00     0.163 HD
ATOM     35  O   UNL A   1      32.881  35.369  28.465  1.00  0.00    -0.269 OA
BRANCH  33  36
ATOM     36  C   UNL A   1      34.370  33.492  28.811  1.00  0.00     0.039 A 
ATOM     37  C   UNL A   1      35.636  33.907  28.432  1.00  0.00     0.014 A 
ATOM     38  C   UNL A   1      34.201  32.525  29.706  1.00  0.00     0.014 A 
ATOM     39  C   UNL A   1      36.672  33.034  28.840  1.00  0.00     0.010 A 
ATOM     40  C   UNL A   1      35.276  31.802  30.165  1.00  0.00     0.010 A 
ATOM     41  C   UNL A   1      36.551  32.118  29.785  1.00  0.00    -0.014 A 
BRANCH  41  42
ATOM     42  C   UNL A   1      37.764  31.453  30.415  1.00  0.00     0.031 A 
ATOM     43  C   UNL A   1      38.442  30.487  29.670  1.00  0.00     0.074 A 
ATOM     44  C   UNL A   1      38.127  31.841  31.692  1.00  0.00     0.049 A 
ATOM     45  N   UNL A   1      39.540  29.814  30.018  1.00  0.00    -0.248 NA
ATOM     46  C   UNL A   1      38.038  30.049  28.326  1.00  0.00     0.031 C 
ATOM     47  C   UNL A   1      37.453  32.821  32.448  1.00  0.00     0.029 A 
ATOM     48  N   UNL A   1      39.175  31.371  32.453  1.00  0.00    -0.354 N 
ATOM     49  C   UNL A   1      39.907  28.989  29.034  1.00  0.00     0.074 A 
ATOM     50  C   UNL A   1      38.942  29.124  27.934  1.00  0.00     0.031 C 
ATOM     51  C   UNL A   1      38.077  32.931  33.650  1.00  0.00     0.029 A 
ATOM     52  C   UNL A   1      39.153  32.023  33.666  1.00  0.00     0.049 A 
ATOM     53  H   UNL A   1      39.827  30.687  32.176  1.00  0.00     0.167 HD
ATOM     54  C   UNL A   1      41.008  28.132  29.012  1.00  0.00     0.034 A 
ATOM     55  C   UNL A   1      40.012  31.848  34.739  1.00  0.00     0.034 A 
ATOM     56  C   UNL A   1      41.893  27.990  30.069  1.00  0.00     0.049 A 
ATOM     57  C   UNL A   1      41.080  30.948  34.738  1.00  0.00     0.074 A 
ATOM     58  C   UNL A   1      43.013  27.136  30.058  1.00  0.00     0.029 A 
ATOM     59  N   UNL A   1      41.856  28.623  31.291  1.00  0.00    -0.354 N 
ATOM     60  N   UNL A   1      41.470  30.154  33.740  1.00  0.00    -0.248 NA
ATOM     61  C   UNL A   1      41.978  30.731  35.881  1.00  0.00     0.031 C 
ATOM     62  C   UNL A   1      43.637  27.246  31.260  1.00  0.00     0.029 A 
ATOM     63  C   UNL A   1      42.918  28.170  32.042  1.00  0.00     0.049 A 
ATOM     64  H   UNL A   1      41.187  29.287  31.577  1.00  0.00     0.167 HD
ATOM     65  C   UNL A   1      42.543  29.449  34.105  1.00  0.00     0.074 A 
ATOM     66  C   UNL A   1      42.881  29.806  35.490  1.00  0.00     0.031 C 
ATOM     67  C   UNL A   1      43.257  28.527  33.338  1.00  0.00     0.034 A 
BRANCH  54  68
ATOM     68  C   UNL A   1      41.250  27.310  27.756  1.00  0.00     0.023 A 
ATOM     69  C   UNL A   1      40.767  26.012  27.753  1.00  0.00     0.031 A 
ATOM     70  C   UNL A   1      41.866  27.818  26.696  1.00  0.00     0.131 A 
ATOM     71  C   UNL A   1      41.241  25.225  26.678  1.00  0.00     0.055 A 
ATOM     72  C   UNL A   1      42.179  27.021  25.621  1.00  0.00     0.041 A 
ATOM     73  F   UNL A   1      42.185  29.109  26.672  1.00  0.00    -0.206 F 
ATOM     74  C   UNL A   1      41.784  25.713  25.577  1.00  0.00     0.022 A 
BRANCH  71  75
ATOM     75  S   UNL A   1      41.093  23.427  26.820  1.00  0.00     0.124 S 
ATOM     76  O   UNL A   1      41.927  22.758  25.725  1.00  0.00    -0.237 OA
ATOM     77  O   UNL A   1      41.601  22.981  28.193  1.00  0.00    -0.237 OA
ATOM     78  O   UNL A   1      39.453  22.975  26.644  1.00  0.00    -0.744 OA
ENDBRANCH  71  75
ENDBRANCH  54  68
BRANCH  55  79
ATOM     79  C   UNL A   1      39.779  32.683  35.987  1.00  0.00     0.023 A 
ATOM     80  C   UNL A   1      39.084  32.180  37.075  1.00  0.00     0.031 A 
ATOM     81  C   UNL A   1      40.233  33.931  35.978  1.00  0.00     0.131 A 
ATOM     82  C   UNL A   1      38.664  33.170  37.995  1.00  0.00     0.055 A 
ATOM     83  C   UNL A   1      39.894  34.807  36.981  1.00  0.00     0.041 A 
ATOM     84  F   UNL A   1      41.023  34.337  34.989  1.00  0.00    -0.206 F 
ATOM     85  C   UNL A   1      39.159  34.393  38.057  1.00  0.00     0.022 A 
BRANCH  82  86
ATOM     86  S   UNL A   1      37.359  32.729  39.168  1.00  0.00     0.124 S 
ATOM     87  O   UNL A   1      37.397  33.690  40.359  1.00  0.00    -0.237 OA
ATOM     88  O   UNL A   1      35.996  32.827  38.479  1.00  0.00    -0.237 OA
ATOM     89  O   UNL A   1      37.605  31.129  39.720  1.00  0.00    -0.744 OA
ENDBRANCH  82  86
ENDBRANCH  55  79
BRANCH  67  90
ATOM     90  C   UNL A   1      44.480  27.874  33.961  1.00  0.00     0.023 A 
ATOM     91  C   UNL A   1      44.338  26.677  34.642  1.00  0.00     0.031 A 
ATOM     92  C   UNL A   1      45.664  28.463  33.844  1.00  0.00     0.131 A 
ATOM     93  C   UNL A   1      45.466  26.320  35.418  1.00  0.00     0.055 A 
ATOM     94  C   UNL A   1      46.755  27.980  34.524  1.00  0.00     0.041 A 
ATOM     95  F   UNL A   1      45.795  29.529  33.059  1.00  0.00    -0.206 F 
ATOM     96  C   UNL A   1      46.673  26.834  35.264  1.00  0.00     0.022 A 
BRANCH  93  97
ATOM     97  S   UNL A   1      45.240  25.074  36.711  1.00  0.00     0.124 S 
ATOM     98  O   UNL A   1      43.766  24.665  36.772  1.00  0.00    -0.237 OA
ATOM     99  O   UNL A   1      46.098  23.847  36.392  1.00  0.00    -0.237 OA
ATOM    100  O   UNL A   1      45.713  25.725  38.220  1.00  0.00    -0.744 OA
ENDBRANCH  93  97
ENDBRANCH  67  90
ENDBRANCH  41  42
ENDBRANCH  33  36
ENDBRANCH  31  32
ENDBRANCH  30  31
ENDBRANCH   1  30
TORSDOF 18
ENDMDL
