MODEL 1
REMARK VINA RESULT:     -11.4      0.000      0.000
REMARK SMILES O=C(/C=C\c1ccc([N+](=O)[O-])cc1)NCCCCCCNC(=O)c1ccc(-c2c3nc(c(-c4cc(S(=O)(=O)[O-])ccc4F)c4ccc([nH]4)c(-c4cc(S(=O)(=O)[O-])ccc4F)c4nc(c(-c5cc(S(=O)(=O)[O-])ccc5F)c5ccc2[nH]5)C=C4)C=C3)cc1
REMARK SMILES IDX 18 1 17 2 16 3 15 4 14 5 1 6 2 7 3 9 4 10 5 11 6 12 13 13
REMARK SMILES IDX 7 14 12 15 8 16 9 17 10 18 11 19 19 20 20 21 21 22 22 23
REMARK SMILES IDX 23 25 24 26 25 27 86 28 26 29 85 30 27 31 28 32 29 33 79 34
REMARK SMILES IDX 30 35 84 36 78 37 80 38 31 39 83 40 77 41 76 42 32 44 64 45
REMARK SMILES IDX 44 46 63 47 45 48 48 49 62 50 81 51 46 52 47 53 61 55 82 56
REMARK SMILES IDX 49 57 33 58 34 59 42 60 35 61 41 62 43 63 40 64 36 65 37 66
REMARK SMILES IDX 38 67 39 68 65 69 66 70 74 71 67 72 73 73 75 74 72 75 68 76
REMARK SMILES IDX 69 77 70 78 71 79 50 80 51 81 59 82 52 83 58 84 60 85 57 86
REMARK SMILES IDX 53 87 54 88 55 89 56 90
REMARK H PARENT 14 8 21 24 80 43 48 54
REMARK Flexibility Score: inf
ROOT
ATOM      1  C   UNL A   1      32.073  30.051  26.688  1.00  0.00     0.002 C 
ENDROOT
BRANCH   1   2
ATOM      2  C   UNL A   1      32.866  29.691  25.429  1.00  0.00     0.002 C 
BRANCH   2   3
ATOM      3  C   UNL A   1      33.943  28.616  25.600  1.00  0.00     0.021 C 
BRANCH   3   4
ATOM      4  C   UNL A   1      33.475  27.342  26.307  1.00  0.00     0.116 C 
BRANCH   4   5
ATOM      5  N   UNL A   1      32.579  26.538  25.494  1.00  0.00    -0.353 N 
ATOM      6  O   UNL A   1      30.722  26.834  26.802  1.00  0.00    -0.270 OA
ATOM      7  C   UNL A   1      31.269  26.340  25.820  1.00  0.00     0.243 C 
ATOM      8  H   UNL A   1      32.930  26.121  24.673  1.00  0.00     0.163 HD
BRANCH   7   9
ATOM      9  C   UNL A   1      30.444  25.540  24.872  1.00  0.00     0.072 C 
ATOM     10  C   UNL A   1      29.544  25.889  23.938  1.00  0.00     0.014 C 
BRANCH  10  11
ATOM     11  C   UNL A   1      29.100  27.229  23.562  1.00  0.00    -0.025 A 
ATOM     12  C   UNL A   1      27.731  27.521  23.553  1.00  0.00     0.015 A 
ATOM     13  C   UNL A   1      30.021  28.221  23.208  1.00  0.00     0.015 A 
ATOM     14  C   UNL A   1      27.283  28.811  23.256  1.00  0.00     0.086 A 
ATOM     15  C   UNL A   1      29.584  29.514  22.905  1.00  0.00     0.086 A 
ATOM     16  C   UNL A   1      28.216  29.811  22.955  1.00  0.00     0.269 A 
BRANCH  16  17
ATOM     17  N   UNL A   1      27.762  31.188  22.739  1.00  0.00     0.062 N 
ATOM     18  O   UNL A   1      28.069  31.731  21.670  1.00  0.00    -0.258 OA
ATOM     19  O   UNL A   1      27.085  31.712  23.634  1.00  0.00    -0.258 OA
ENDBRANCH  16  17
ENDBRANCH  10  11
ENDBRANCH   7   9
ENDBRANCH   4   5
ENDBRANCH   3   4
ENDBRANCH   2   3
ENDBRANCH   1   2
BRANCH   1  20
ATOM     20  C   UNL A   1      31.805  31.544  26.869  1.00  0.00     0.021 C 
BRANCH  20  21
ATOM     21  C   UNL A   1      33.012  32.357  27.331  1.00  0.00     0.116 C 
BRANCH  21  22
ATOM     22  N   UNL A   1      32.693  33.748  27.620  1.00  0.00    -0.352 N 
ATOM     23  C   UNL A   1      33.240  34.582  28.569  1.00  0.00     0.251 C 
ATOM     24  H   UNL A   1      31.989  34.146  27.060  1.00  0.00     0.163 HD
ATOM     25  O   UNL A   1      32.766  35.695  28.754  1.00  0.00    -0.269 OA
BRANCH  23  26
ATOM     26  C   UNL A   1      34.373  34.110  29.398  1.00  0.00     0.039 A 
ATOM     27  C   UNL A   1      34.098  33.346  30.535  1.00  0.00     0.014 A 
ATOM     28  C   UNL A   1      35.697  34.390  29.045  1.00  0.00     0.014 A 
ATOM     29  C   UNL A   1      35.151  32.798  31.271  1.00  0.00     0.010 A 
ATOM     30  C   UNL A   1      36.742  33.778  29.733  1.00  0.00     0.010 A 
ATOM     31  C   UNL A   1      36.481  32.971  30.850  1.00  0.00    -0.014 A 
BRANCH  31  32
ATOM     32  C   UNL A   1      37.595  32.287  31.556  1.00  0.00     0.031 A 
ATOM     33  C   UNL A   1      38.355  31.171  30.892  1.00  0.00     0.074 A 
ATOM     34  C   UNL A   1      37.889  32.642  32.823  1.00  0.00     0.049 A 
ATOM     35  N   UNL A   1      39.356  30.464  31.350  1.00  0.00    -0.248 NA
ATOM     36  C   UNL A   1      37.909  30.779  29.548  1.00  0.00     0.031 C 
ATOM     37  C   UNL A   1      37.182  33.666  33.598  1.00  0.00     0.029 A 
ATOM     38  N   UNL A   1      38.859  32.190  33.683  1.00  0.00    -0.354 N 
ATOM     39  C   UNL A   1      39.653  29.536  30.357  1.00  0.00     0.074 A 
ATOM     40  C   UNL A   1      38.679  29.730  29.303  1.00  0.00     0.031 C 
ATOM     41  C   UNL A   1      37.772  33.796  34.796  1.00  0.00     0.029 A 
ATOM     42  C   UNL A   1      38.870  32.842  34.894  1.00  0.00     0.049 A 
ATOM     43  H   UNL A   1      39.487  31.468  33.453  1.00  0.00     0.167 HD
ATOM     44  C   UNL A   1      40.658  28.625  30.318  1.00  0.00     0.034 A 
ATOM     45  C   UNL A   1      39.677  32.690  35.963  1.00  0.00     0.034 A 
ATOM     46  C   UNL A   1      41.626  28.454  31.377  1.00  0.00     0.049 A 
ATOM     47  C   UNL A   1      40.781  31.668  35.899  1.00  0.00     0.074 A 
ATOM     48  C   UNL A   1      42.730  27.619  31.409  1.00  0.00     0.029 A 
ATOM     49  N   UNL A   1      41.599  29.117  32.598  1.00  0.00    -0.354 N 
ATOM     50  N   UNL A   1      41.100  30.853  34.920  1.00  0.00    -0.248 NA
ATOM     51  C   UNL A   1      41.642  31.557  37.082  1.00  0.00     0.031 C 
ATOM     52  C   UNL A   1      43.323  27.722  32.674  1.00  0.00     0.029 A 
ATOM     53  C   UNL A   1      42.640  28.680  33.405  1.00  0.00     0.049 A 
ATOM     54  H   UNL A   1      40.935  29.799  32.853  1.00  0.00     0.167 HD
ATOM     55  C   UNL A   1      42.215  30.148  35.363  1.00  0.00     0.074 A 
ATOM     56  C   UNL A   1      42.527  30.656  36.684  1.00  0.00     0.031 C 
ATOM     57  C   UNL A   1      42.921  29.171  34.735  1.00  0.00     0.034 A 
BRANCH  44  58
ATOM     58  C   UNL A   1      40.734  27.727  29.103  1.00  0.00     0.023 A 
ATOM     59  C   UNL A   1      41.680  27.936  28.084  1.00  0.00     0.031 A 
ATOM     60  C   UNL A   1      39.819  26.672  28.939  1.00  0.00     0.131 A 
ATOM     61  C   UNL A   1      41.634  27.166  26.912  1.00  0.00     0.055 A 
ATOM     62  C   UNL A   1      39.835  25.850  27.810  1.00  0.00     0.041 A 
ATOM     63  F   UNL A   1      38.878  26.431  29.865  1.00  0.00    -0.206 F 
ATOM     64  C   UNL A   1      40.734  26.107  26.779  1.00  0.00     0.022 A 
BRANCH  61  65
ATOM     65  S   UNL A   1      42.653  27.674  25.500  1.00  0.00     0.124 S 
ATOM     66  O   UNL A   1      42.586  26.490  24.646  1.00  0.00    -0.237 OA
ATOM     67  O   UNL A   1      41.950  28.855  25.013  1.00  0.00    -0.237 OA
ATOM     68  O   UNL A   1      43.963  27.928  26.095  1.00  0.00    -0.744 OA
ENDBRANCH  61  65
ENDBRANCH  44  58
BRANCH  45  69
ATOM     69  C   UNL A   1      39.487  33.531  37.179  1.00  0.00     0.023 A 
ATOM     70  C   UNL A   1      40.270  34.678  37.390  1.00  0.00     0.031 A 
ATOM     71  C   UNL A   1      38.546  33.184  38.163  1.00  0.00     0.131 A 
ATOM     72  C   UNL A   1      40.127  35.413  38.577  1.00  0.00     0.055 A 
ATOM     73  C   UNL A   1      38.373  33.946  39.319  1.00  0.00     0.041 A 
ATOM     74  F   UNL A   1      37.767  32.100  38.007  1.00  0.00    -0.206 F 
ATOM     75  C   UNL A   1      39.176  35.063  39.537  1.00  0.00     0.022 A 
BRANCH  72  76
ATOM     76  S   UNL A   1      41.258  36.798  38.880  1.00  0.00     0.124 S 
ATOM     77  O   UNL A   1      42.075  36.283  39.973  1.00  0.00    -0.237 OA
ATOM     78  O   UNL A   1      41.923  36.934  37.589  1.00  0.00    -0.237 OA
ATOM     79  O   UNL A   1      40.361  37.897  39.235  1.00  0.00    -0.744 OA
ENDBRANCH  72  76
ENDBRANCH  45  69
BRANCH  57  80
ATOM     80  C   UNL A   1      44.111  28.612  35.480  1.00  0.00     0.023 A 
ATOM     81  C   UNL A   1      43.985  27.520  36.357  1.00  0.00     0.031 A 
ATOM     82  C   UNL A   1      45.377  29.209  35.349  1.00  0.00     0.131 A 
ATOM     83  C   UNL A   1      45.083  27.109  37.128  1.00  0.00     0.055 A 
ATOM     84  C   UNL A   1      46.484  28.751  36.065  1.00  0.00     0.041 A 
ATOM     85  F   UNL A   1      45.558  30.258  34.530  1.00  0.00    -0.206 F 
ATOM     86  C   UNL A   1      46.337  27.708  36.976  1.00  0.00     0.022 A 
BRANCH  83  87
ATOM     87  S   UNL A   1      44.820  25.871  38.428  1.00  0.00     0.124 S 
ATOM     88  O   UNL A   1      44.167  26.659  39.469  1.00  0.00    -0.237 OA
ATOM     89  O   UNL A   1      43.982  24.886  37.754  1.00  0.00    -0.237 OA
ATOM     90  O   UNL A   1      46.172  25.418  38.750  1.00  0.00    -0.744 OA
ENDBRANCH  83  87
ENDBRANCH  57  80
ENDBRANCH  31  32
ENDBRANCH  23  26
ENDBRANCH  21  22
ENDBRANCH  20  21
ENDBRANCH   1  20
TORSDOF 18
ENDMDL
MODEL 2
REMARK VINA RESULT:     -11.2      6.131     11.556
REMARK SMILES O=C(/C=C\c1ccc([N+](=O)[O-])cc1)NCCCCCCNC(=O)c1ccc(-c2c3nc(c(-c4cc(S(=O)(=O)[O-])ccc4F)c4ccc([nH]4)c(-c4cc(S(=O)(=O)[O-])ccc4F)c4nc(c(-c5cc(S(=O)(=O)[O-])ccc5F)c5ccc2[nH]5)C=C4)C=C3)cc1
REMARK SMILES IDX 18 1 17 2 16 3 15 4 14 5 1 6 2 7 3 9 4 10 5 11 6 12 13 13
REMARK SMILES IDX 7 14 12 15 8 16 9 17 10 18 11 19 19 20 20 21 21 22 22 23
REMARK SMILES IDX 23 25 24 26 25 27 86 28 26 29 85 30 27 31 28 32 29 33 79 34
REMARK SMILES IDX 30 35 84 36 78 37 80 38 31 39 83 40 77 41 76 42 32 44 64 45
REMARK SMILES IDX 44 46 63 47 45 48 48 49 62 50 81 51 46 52 47 53 61 55 82 56
REMARK SMILES IDX 49 57 33 58 34 59 42 60 35 61 41 62 43 63 40 64 36 65 37 66
REMARK SMILES IDX 38 67 39 68 65 69 66 70 74 71 67 72 73 73 75 74 72 75 68 76
REMARK SMILES IDX 69 77 70 78 71 79 50 80 51 81 59 82 52 83 58 84 60 85 57 86
REMARK SMILES IDX 53 87 54 88 55 89 56 90
REMARK H PARENT 14 8 21 24 80 43 48 54
REMARK Flexibility Score: inf
ROOT
ATOM      1  C   UNL A   1      35.511  21.848  26.396  1.00  0.00     0.002 C 
ENDROOT
BRANCH   1   2
ATOM      2  C   UNL A   1      34.199  21.426  27.062  1.00  0.00     0.002 C 
BRANCH   2   3
ATOM      3  C   UNL A   1      33.103  22.494  27.118  1.00  0.00     0.021 C 
BRANCH   3   4
ATOM      4  C   UNL A   1      32.952  23.331  25.846  1.00  0.00     0.116 C 
BRANCH   4   5
ATOM      5  N   UNL A   1      32.266  22.622  24.779  1.00  0.00    -0.353 N 
ATOM      6  O   UNL A   1      34.058  22.520  23.355  1.00  0.00    -0.270 OA
ATOM      7  C   UNL A   1      32.879  22.285  23.607  1.00  0.00     0.243 C 
ATOM      8  H   UNL A   1      31.321  22.375  24.907  1.00  0.00     0.163 HD
BRANCH   7   9
ATOM      9  C   UNL A   1      32.078  21.511  22.618  1.00  0.00     0.072 C 
ATOM     10  C   UNL A   1      31.916  20.194  22.416  1.00  0.00     0.014 C 
BRANCH  10  11
ATOM     11  C   UNL A   1      32.509  19.083  23.158  1.00  0.00    -0.025 A 
ATOM     12  C   UNL A   1      32.984  17.967  22.458  1.00  0.00     0.015 A 
ATOM     13  C   UNL A   1      32.603  19.117  24.553  1.00  0.00     0.015 A 
ATOM     14  C   UNL A   1      33.610  16.919  23.139  1.00  0.00     0.086 A 
ATOM     15  C   UNL A   1      33.224  18.071  25.244  1.00  0.00     0.086 A 
ATOM     16  C   UNL A   1      33.748  16.986  24.530  1.00  0.00     0.269 A 
BRANCH  16  17
ATOM     17  N   UNL A   1      34.488  15.938  25.239  1.00  0.00     0.062 N 
ATOM     18  O   UNL A   1      33.860  14.931  25.591  1.00  0.00    -0.258 OA
ATOM     19  O   UNL A   1      35.699  16.122  25.425  1.00  0.00    -0.258 OA
ENDBRANCH  16  17
ENDBRANCH  10  11
ENDBRANCH   7   9
ENDBRANCH   4   5
ENDBRANCH   3   4
ENDBRANCH   2   3
ENDBRANCH   1   2
BRANCH   1  20
ATOM     20  C   UNL A   1      36.050  20.859  25.363  1.00  0.00     0.021 C 
BRANCH  20  21
ATOM     21  C   UNL A   1      37.486  21.120  24.918  1.00  0.00     0.116 C 
BRANCH  21  22
ATOM     22  N   UNL A   1      38.423  20.101  25.367  1.00  0.00    -0.352 N 
ATOM     23  C   UNL A   1      39.616  20.255  26.038  1.00  0.00     0.251 C 
ATOM     24  H   UNL A   1      38.169  19.173  25.162  1.00  0.00     0.163 HD
ATOM     25  O   UNL A   1      40.339  19.288  26.234  1.00  0.00    -0.269 OA
BRANCH  23  26
ATOM     26  C   UNL A   1      40.040  21.603  26.480  1.00  0.00     0.039 A 
ATOM     27  C   UNL A   1      41.173  21.716  27.290  1.00  0.00     0.014 A 
ATOM     28  C   UNL A   1      39.348  22.750  26.080  1.00  0.00     0.014 A 
ATOM     29  C   UNL A   1      41.656  22.982  27.630  1.00  0.00     0.010 A 
ATOM     30  C   UNL A   1      39.876  24.010  26.353  1.00  0.00     0.010 A 
ATOM     31  C   UNL A   1      41.038  24.140  27.127  1.00  0.00    -0.014 A 
BRANCH  31  32
ATOM     32  C   UNL A   1      41.622  25.483  27.383  1.00  0.00     0.031 A 
ATOM     33  C   UNL A   1      40.860  26.513  28.172  1.00  0.00     0.074 A 
ATOM     34  C   UNL A   1      42.824  25.790  26.856  1.00  0.00     0.049 A 
ATOM     35  N   UNL A   1      41.211  27.731  28.498  1.00  0.00    -0.248 NA
ATOM     36  C   UNL A   1      39.516  26.133  28.628  1.00  0.00     0.031 C 
ATOM     37  C   UNL A   1      43.631  24.898  26.019  1.00  0.00     0.029 A 
ATOM     38  N   UNL A   1      43.582  26.930  26.948  1.00  0.00    -0.354 N 
ATOM     39  C   UNL A   1      40.127  28.268  29.186  1.00  0.00     0.074 A 
ATOM     40  C   UNL A   1      39.085  27.262  29.168  1.00  0.00     0.031 C 
ATOM     41  C   UNL A   1      44.788  25.506  25.716  1.00  0.00     0.029 A 
ATOM     42  C   UNL A   1      44.792  26.842  26.299  1.00  0.00     0.049 A 
ATOM     43  H   UNL A   1      43.287  27.735  27.432  1.00  0.00     0.167 HD
ATOM     44  C   UNL A   1      40.021  29.475  29.795  1.00  0.00     0.034 A 
ATOM     45  C   UNL A   1      45.794  27.737  26.190  1.00  0.00     0.034 A 
ATOM     46  C   UNL A   1      41.077  30.461  29.810  1.00  0.00     0.049 A 
ATOM     47  C   UNL A   1      45.651  29.073  26.869  1.00  0.00     0.074 A 
ATOM     48  C   UNL A   1      41.108  31.683  30.462  1.00  0.00     0.029 A 
ATOM     49  N   UNL A   1      42.283  30.348  29.128  1.00  0.00    -0.354 N 
ATOM     50  N   UNL A   1      44.652  29.536  27.586  1.00  0.00    -0.248 NA
ATOM     51  C   UNL A   1      46.779  30.002  26.735  1.00  0.00     0.031 C 
ATOM     52  C   UNL A   1      42.296  32.337  30.114  1.00  0.00     0.029 A 
ATOM     53  C   UNL A   1      43.046  31.494  29.310  1.00  0.00     0.049 A 
ATOM     54  H   UNL A   1      42.557  29.567  28.594  1.00  0.00     0.167 HD
ATOM     55  C   UNL A   1      45.044  30.803  28.007  1.00  0.00     0.074 A 
ATOM     56  C   UNL A   1      46.381  31.016  27.487  1.00  0.00     0.031 C 
ATOM     57  C   UNL A   1      44.364  31.709  28.757  1.00  0.00     0.034 A 
BRANCH  44  58
ATOM     58  C   UNL A   1      38.705  29.801  30.466  1.00  0.00     0.023 A 
ATOM     59  C   UNL A   1      37.700  30.536  29.811  1.00  0.00     0.031 A 
ATOM     60  C   UNL A   1      38.466  29.407  31.794  1.00  0.00     0.131 A 
ATOM     61  C   UNL A   1      36.549  30.931  30.510  1.00  0.00     0.055 A 
ATOM     62  C   UNL A   1      37.278  29.727  32.457  1.00  0.00     0.041 A 
ATOM     63  F   UNL A   1      39.391  28.720  32.482  1.00  0.00    -0.206 F 
ATOM     64  C   UNL A   1      36.320  30.510  31.821  1.00  0.00     0.022 A 
BRANCH  61  65
ATOM     65  S   UNL A   1      35.439  32.140  29.737  1.00  0.00     0.124 S 
ATOM     66  O   UNL A   1      34.872  31.360  28.638  1.00  0.00    -0.237 OA
ATOM     67  O   UNL A   1      34.526  32.469  30.825  1.00  0.00    -0.237 OA
ATOM     68  O   UNL A   1      36.336  33.218  29.326  1.00  0.00    -0.744 OA
ENDBRANCH  61  65
ENDBRANCH  44  58
BRANCH  45  69
ATOM     69  C   UNL A   1      47.028  27.400  25.424  1.00  0.00     0.023 A 
ATOM     70  C   UNL A   1      47.164  27.776  24.077  1.00  0.00     0.031 A 
ATOM     71  C   UNL A   1      48.073  26.670  26.014  1.00  0.00     0.131 A 
ATOM     72  C   UNL A   1      48.300  27.383  23.353  1.00  0.00     0.055 A 
ATOM     73  C   UNL A   1      49.224  26.324  25.303  1.00  0.00     0.041 A 
ATOM     74  F   UNL A   1      47.997  26.292  27.301  1.00  0.00    -0.206 F 
ATOM     75  C   UNL A   1      49.336  26.671  23.960  1.00  0.00     0.022 A 
BRANCH  72  76
ATOM     76  S   UNL A   1      48.370  27.757  21.580  1.00  0.00     0.124 S 
ATOM     77  O   UNL A   1      48.703  26.455  21.013  1.00  0.00    -0.237 OA
ATOM     78  O   UNL A   1      47.020  28.245  21.319  1.00  0.00    -0.237 OA
ATOM     79  O   UNL A   1      49.424  28.767  21.487  1.00  0.00    -0.744 OA
ENDBRANCH  72  76
ENDBRANCH  45  69
BRANCH  57  80
ATOM     80  C   UNL A   1      45.080  33.003  29.069  1.00  0.00     0.023 A 
ATOM     81  C   UNL A   1      45.909  33.133  30.198  1.00  0.00     0.031 A 
ATOM     82  C   UNL A   1      44.892  34.135  28.256  1.00  0.00     0.131 A 
ATOM     83  C   UNL A   1      46.454  34.384  30.527  1.00  0.00     0.055 A 
ATOM     84  C   UNL A   1      45.495  35.359  28.548  1.00  0.00     0.041 A 
ATOM     85  F   UNL A   1      44.108  34.072  27.167  1.00  0.00    -0.206 F 
ATOM     86  C   UNL A   1      46.266  35.494  29.700  1.00  0.00     0.022 A 
BRANCH  83  87
ATOM     87  S   UNL A   1      47.304  34.571  32.119  1.00  0.00     0.124 S 
ATOM     88  O   UNL A   1      46.805  35.864  32.578  1.00  0.00    -0.237 OA
ATOM     89  O   UNL A   1      46.833  33.407  32.861  1.00  0.00    -0.237 OA
ATOM     90  O   UNL A   1      48.719  34.546  31.758  1.00  0.00    -0.744 OA
ENDBRANCH  83  87
ENDBRANCH  57  80
ENDBRANCH  31  32
ENDBRANCH  23  26
ENDBRANCH  21  22
ENDBRANCH  20  21
ENDBRANCH   1  20
TORSDOF 18
ENDMDL
MODEL 3
REMARK VINA RESULT:     -11.0      6.913     11.995
REMARK SMILES O=C(/C=C\c1ccc([N+](=O)[O-])cc1)NCCCCCCNC(=O)c1ccc(-c2c3nc(c(-c4cc(S(=O)(=O)[O-])ccc4F)c4ccc([nH]4)c(-c4cc(S(=O)(=O)[O-])ccc4F)c4nc(c(-c5cc(S(=O)(=O)[O-])ccc5F)c5ccc2[nH]5)C=C4)C=C3)cc1
REMARK SMILES IDX 18 1 17 2 16 3 15 4 14 5 1 6 2 7 3 9 4 10 5 11 6 12 13 13
REMARK SMILES IDX 7 14 12 15 8 16 9 17 10 18 11 19 19 20 20 21 21 22 22 23
REMARK SMILES IDX 23 25 24 26 25 27 86 28 26 29 85 30 27 31 28 32 29 33 79 34
REMARK SMILES IDX 30 35 84 36 78 37 80 38 31 39 83 40 77 41 76 42 32 44 64 45
REMARK SMILES IDX 44 46 63 47 45 48 48 49 62 50 81 51 46 52 47 53 61 55 82 56
REMARK SMILES IDX 49 57 33 58 34 59 42 60 35 61 41 62 43 63 40 64 36 65 37 66
REMARK SMILES IDX 38 67 39 68 65 69 66 70 74 71 67 72 73 73 75 74 72 75 68 76
REMARK SMILES IDX 69 77 70 78 71 79 50 80 51 81 59 82 52 83 58 84 60 85 57 86
REMARK SMILES IDX 53 87 54 88 55 89 56 90
REMARK H PARENT 14 8 21 24 80 43 48 54
REMARK Flexibility Score: inf
ROOT
ATOM      1  C   UNL A   1      36.954  20.079  24.682  1.00  0.00     0.002 C 
ENDROOT
BRANCH   1   2
ATOM      2  C   UNL A   1      36.930  21.446  25.372  1.00  0.00     0.002 C 
BRANCH   2   3
ATOM      3  C   UNL A   1      37.325  22.642  24.502  1.00  0.00     0.021 C 
BRANCH   3   4
ATOM      4  C   UNL A   1      36.295  23.035  23.441  1.00  0.00     0.116 C 
BRANCH   4   5
ATOM      5  N   UNL A   1      34.925  22.930  23.913  1.00  0.00    -0.353 N 
ATOM      6  O   UNL A   1      33.933  23.287  21.879  1.00  0.00    -0.270 OA
ATOM      7  C   UNL A   1      33.849  23.079  23.086  1.00  0.00     0.243 C 
ATOM      8  H   UNL A   1      34.766  22.742  24.867  1.00  0.00     0.163 HD
BRANCH   7   9
ATOM      9  C   UNL A   1      32.499  22.891  23.686  1.00  0.00     0.072 C 
ATOM     10  C   UNL A   1      31.821  21.796  24.068  1.00  0.00     0.014 C 
BRANCH  10  11
ATOM     11  C   UNL A   1      32.246  20.400  24.005  1.00  0.00    -0.025 A 
ATOM     12  C   UNL A   1      32.105  19.692  22.805  1.00  0.00     0.015 A 
ATOM     13  C   UNL A   1      32.786  19.760  25.126  1.00  0.00     0.015 A 
ATOM     14  C   UNL A   1      32.559  18.375  22.701  1.00  0.00     0.086 A 
ATOM     15  C   UNL A   1      33.240  18.440  25.034  1.00  0.00     0.086 A 
ATOM     16  C   UNL A   1      33.147  17.760  23.813  1.00  0.00     0.269 A 
BRANCH  16  17
ATOM     17  N   UNL A   1      33.714  16.414  23.685  1.00  0.00     0.062 N 
ATOM     18  O   UNL A   1      33.490  15.609  24.598  1.00  0.00    -0.258 OA
ATOM     19  O   UNL A   1      34.366  16.165  22.662  1.00  0.00    -0.258 OA
ENDBRANCH  16  17
ENDBRANCH  10  11
ENDBRANCH   7   9
ENDBRANCH   4   5
ENDBRANCH   3   4
ENDBRANCH   2   3
ENDBRANCH   1   2
BRANCH   1  20
ATOM     20  C   UNL A   1      38.174  19.220  25.008  1.00  0.00     0.021 C 
BRANCH  20  21
ATOM     21  C   UNL A   1      39.144  19.842  26.009  1.00  0.00     0.116 C 
BRANCH  21  22
ATOM     22  N   UNL A   1      40.397  19.113  26.128  1.00  0.00    -0.352 N 
ATOM     23  C   UNL A   1      41.660  19.596  26.389  1.00  0.00     0.251 C 
ATOM     24  H   UNL A   1      40.333  18.138  26.004  1.00  0.00     0.163 HD
ATOM     25  O   UNL A   1      42.626  18.848  26.337  1.00  0.00    -0.269 OA
BRANCH  23  26
ATOM     26  C   UNL A   1      41.848  21.034  26.688  1.00  0.00     0.039 A 
ATOM     27  C   UNL A   1      42.388  21.395  27.925  1.00  0.00     0.014 A 
ATOM     28  C   UNL A   1      41.523  22.019  25.750  1.00  0.00     0.014 A 
ATOM     29  C   UNL A   1      42.675  22.737  28.188  1.00  0.00     0.010 A 
ATOM     30  C   UNL A   1      41.884  23.344  25.984  1.00  0.00     0.010 A 
ATOM     31  C   UNL A   1      42.468  23.717  27.202  1.00  0.00    -0.014 A 
BRANCH  31  32
ATOM     32  C   UNL A   1      42.890  25.124  27.432  1.00  0.00     0.031 A 
ATOM     33  C   UNL A   1      41.961  26.105  28.095  1.00  0.00     0.074 A 
ATOM     34  C   UNL A   1      44.098  25.530  26.994  1.00  0.00     0.049 A 
ATOM     35  N   UNL A   1      42.158  27.366  28.381  1.00  0.00    -0.248 NA
ATOM     36  C   UNL A   1      40.626  25.608  28.455  1.00  0.00     0.031 C 
ATOM     37  C   UNL A   1      45.063  24.688  26.279  1.00  0.00     0.029 A 
ATOM     38  N   UNL A   1      44.728  26.746  27.086  1.00  0.00    -0.354 N 
ATOM     39  C   UNL A   1      40.968  27.819  28.943  1.00  0.00     0.074 A 
ATOM     40  C   UNL A   1      40.037  26.711  28.893  1.00  0.00     0.031 C 
ATOM     41  C   UNL A   1      46.176  25.399  26.043  1.00  0.00     0.029 A 
ATOM     42  C   UNL A   1      45.994  26.754  26.549  1.00  0.00     0.049 A 
ATOM     43  H   UNL A   1      44.311  27.537  27.498  1.00  0.00     0.167 HD
ATOM     44  C   UNL A   1      40.687  29.036  29.473  1.00  0.00     0.034 A 
ATOM     45  C   UNL A   1      46.908  27.742  26.477  1.00  0.00     0.034 A 
ATOM     46  C   UNL A   1      41.633  30.126  29.523  1.00  0.00     0.049 A 
ATOM     47  C   UNL A   1      46.571  29.087  27.066  1.00  0.00     0.074 A 
ATOM     48  C   UNL A   1      41.484  31.373  30.106  1.00  0.00     0.029 A 
ATOM     49  N   UNL A   1      42.902  30.108  28.955  1.00  0.00    -0.354 N 
ATOM     50  N   UNL A   1      45.470  29.476  27.668  1.00  0.00    -0.248 NA
ATOM     51  C   UNL A   1      47.609  30.121  26.977  1.00  0.00     0.031 C 
ATOM     52  C   UNL A   1      42.627  32.131  29.826  1.00  0.00     0.029 A 
ATOM     53  C   UNL A   1      43.527  31.334  29.137  1.00  0.00     0.049 A 
ATOM     54  H   UNL A   1      43.299  29.336  28.490  1.00  0.00     0.167 HD
ATOM     55  C   UNL A   1      45.694  30.795  28.050  1.00  0.00     0.074 A 
ATOM     56  C   UNL A   1      47.044  31.122  27.635  1.00  0.00     0.031 C 
ATOM     57  C   UNL A   1      44.862  31.659  28.688  1.00  0.00     0.034 A 
BRANCH  44  58
ATOM     58  C   UNL A   1      39.290  29.253  30.010  1.00  0.00     0.023 A 
ATOM     59  C   UNL A   1      38.315  29.957  29.279  1.00  0.00     0.031 A 
ATOM     60  C   UNL A   1      38.937  28.787  31.289  1.00  0.00     0.131 A 
ATOM     61  C   UNL A   1      37.074  30.253  29.864  1.00  0.00     0.055 A 
ATOM     62  C   UNL A   1      37.668  29.007  31.831  1.00  0.00     0.041 A 
ATOM     63  F   UNL A   1      39.826  28.125  32.045  1.00  0.00    -0.206 F 
ATOM     64  C   UNL A   1      36.735  29.760  31.125  1.00  0.00     0.022 A 
BRANCH  61  65
ATOM     65  S   UNL A   1      35.978  31.428  29.023  1.00  0.00     0.124 S 
ATOM     66  O   UNL A   1      35.345  30.575  28.019  1.00  0.00    -0.237 OA
ATOM     67  O   UNL A   1      35.117  31.887  30.107  1.00  0.00    -0.237 OA
ATOM     68  O   UNL A   1      36.895  32.430  28.486  1.00  0.00    -0.744 OA
ENDBRANCH  61  65
ENDBRANCH  44  58
BRANCH  45  69
ATOM     69  C   UNL A   1      48.233  27.501  25.839  1.00  0.00     0.023 A 
ATOM     70  C   UNL A   1      48.417  27.707  24.462  1.00  0.00     0.031 A 
ATOM     71  C   UNL A   1      49.325  27.029  26.588  1.00  0.00     0.131 A 
ATOM     72  C   UNL A   1      49.651  27.401  23.868  1.00  0.00     0.055 A 
ATOM     73  C   UNL A   1      50.565  26.773  26.001  1.00  0.00     0.041 A 
ATOM     74  F   UNL A   1      49.204  26.821  27.909  1.00  0.00    -0.206 F 
ATOM     75  C   UNL A   1      50.730  26.948  24.630  1.00  0.00     0.022 A 
BRANCH  72  76
ATOM     76  S   UNL A   1      49.805  27.538  22.066  1.00  0.00     0.124 S 
ATOM     77  O   UNL A   1      51.231  27.795  21.907  1.00  0.00    -0.237 OA
ATOM     78  O   UNL A   1      49.334  26.231  21.622  1.00  0.00    -0.237 OA
ATOM     79  O   UNL A   1      48.927  28.659  21.734  1.00  0.00    -0.744 OA
ENDBRANCH  72  76
ENDBRANCH  45  69
BRANCH  57  80
ATOM     80  C   UNL A   1      45.414  33.034  28.987  1.00  0.00     0.023 A 
ATOM     81  C   UNL A   1      45.257  34.103  28.086  1.00  0.00     0.031 A 
ATOM     82  C   UNL A   1      46.150  33.266  30.162  1.00  0.00     0.131 A 
ATOM     83  C   UNL A   1      45.892  35.329  28.335  1.00  0.00     0.055 A 
ATOM     84  C   UNL A   1      46.719  34.510  30.441  1.00  0.00     0.041 A 
ATOM     85  F   UNL A   1      46.336  32.283  31.058  1.00  0.00    -0.206 F 
ATOM     86  C   UNL A   1      46.609  35.544  29.515  1.00  0.00     0.022 A 
BRANCH  83  87
ATOM     87  S   UNL A   1      45.879  36.595  27.036  1.00  0.00     0.124 S 
ATOM     88  O   UNL A   1      46.764  37.613  27.596  1.00  0.00    -0.237 OA
ATOM     89  O   UNL A   1      46.397  35.865  25.884  1.00  0.00    -0.237 OA
ATOM     90  O   UNL A   1      44.473  36.980  26.945  1.00  0.00    -0.744 OA
ENDBRANCH  83  87
ENDBRANCH  57  80
ENDBRANCH  31  32
ENDBRANCH  23  26
ENDBRANCH  21  22
ENDBRANCH  20  21
ENDBRANCH   1  20
TORSDOF 18
ENDMDL
