MODEL 1
REMARK VINA RESULT:     -12.3      0.000      0.000
REMARK SMILES O=C(C/C(=C/c1ccc(N2CCOCC2)c(F)c1)c1nc2ccccc2s1)NCCCCCCNC(=O)c1ccc(-c2c3nc(c(-c4cc(S(=O)(=O)[O-])ccc4F)c4ccc([nH]4)c(-c4cc(S(=O)(=O)[O-])ccc4F)c4nc(c(-c5cc(S(=O)(=O)[O-])ccc5F)c5ccc2[nH]5)C=C4)C=C3)cc1
REMARK SMILES IDX 31 1 30 2 29 3 28 4 1 5 2 6 3 8 4 9 5 10 19 11 20 12 27 13
REMARK SMILES IDX 21 14 26 15 22 16 25 17 23 18 24 19 6 20 7 21 18 22 8 23
REMARK SMILES IDX 16 24 9 25 17 26 10 27 11 28 15 29 12 30 14 31 13 32 32 33
REMARK SMILES IDX 33 34 34 35 35 36 36 37 37 39 38 40 39 41 100 42 40 43 99 44
REMARK SMILES IDX 41 45 42 46 43 47 93 48 44 49 98 50 92 51 94 52 45 53 97 54
REMARK SMILES IDX 91 55 90 56 46 58 78 59 58 60 77 61 59 62 62 63 76 64 95 65
REMARK SMILES IDX 60 66 61 67 75 69 96 70 63 71 47 72 48 73 56 74 49 75 55 76
REMARK SMILES IDX 57 77 54 78 50 79 51 80 52 81 53 82 79 83 80 84 88 85 81 86
REMARK SMILES IDX 87 87 89 88 86 89 82 90 83 91 84 92 85 93 64 94 65 95 73 96
REMARK SMILES IDX 66 97 72 98 74 99 71 100 67 101 68 102 69 103 70 104
REMARK H PARENT 28 7 35 38 94 57 62 68
REMARK Flexibility Score: inf
ROOT
ATOM      1  C   UNL A   1      31.742  29.205  24.258  1.00  0.00     0.002 C 
ENDROOT
BRANCH   1   2
ATOM      2  C   UNL A   1      33.198  29.269  23.779  1.00  0.00     0.021 C 
BRANCH   2   3
ATOM      3  C   UNL A   1      33.607  28.130  22.847  1.00  0.00     0.116 C 
BRANCH   3   4
ATOM      4  N   UNL A   1      32.715  26.993  22.970  1.00  0.00    -0.356 N 
ATOM      5  O   UNL A   1      33.409  25.928  21.057  1.00  0.00    -0.275 OA
ATOM      6  C   UNL A   1      32.708  25.954  22.064  1.00  0.00     0.224 C 
ATOM      7  H   UNL A   1      32.090  26.962  23.729  1.00  0.00     0.163 HD
BRANCH   6   8
ATOM      8  C   UNL A   1      31.711  24.842  22.370  1.00  0.00     0.138 C 
BRANCH   8   9
ATOM      9  C   UNL A   1      32.332  23.616  23.022  1.00  0.00    -0.002 C 
ATOM     10  C   UNL A   1      31.628  22.456  22.992  1.00  0.00     0.015 C 
BRANCH   9  11
ATOM     11  C   UNL A   1      33.654  23.603  23.603  1.00  0.00     0.121 A 
ATOM     12  N   UNL A   1      34.694  22.940  23.130  1.00  0.00    -0.236 NA
ATOM     13  S   UNL A   1      33.969  24.421  25.095  1.00  0.00    -0.114 S 
ATOM     14  C   UNL A   1      35.740  22.952  24.034  1.00  0.00     0.082 A 
ATOM     15  C   UNL A   1      35.531  23.719  25.176  1.00  0.00     0.055 A 
ATOM     16  C   UNL A   1      36.956  22.252  23.898  1.00  0.00     0.030 A 
ATOM     17  C   UNL A   1      36.501  23.830  26.186  1.00  0.00     0.021 A 
ATOM     18  C   UNL A   1      37.923  22.341  24.904  1.00  0.00     0.002 A 
ATOM     19  C   UNL A   1      37.698  23.124  26.031  1.00  0.00     0.002 A 
ENDBRANCH   9  11
BRANCH  10  20
ATOM     20  C   UNL A   1      32.040  21.160  23.557  1.00  0.00    -0.022 A 
ATOM     21  C   UNL A   1      32.304  21.017  24.923  1.00  0.00     0.010 A 
ATOM     22  C   UNL A   1      32.191  20.055  22.722  1.00  0.00     0.049 A 
ATOM     23  C   UNL A   1      32.754  19.796  25.436  1.00  0.00     0.029 A 
ATOM     24  C   UNL A   1      32.645  18.843  23.248  1.00  0.00     0.147 A 
ATOM     25  C   UNL A   1      32.941  18.678  24.613  1.00  0.00     0.073 A 
ATOM     26  F   UNL A   1      32.753  17.800  22.407  1.00  0.00    -0.205 F 
BRANCH  25  27
ATOM     27  N   UNL A   1      33.370  17.479  25.139  1.00  0.00    -0.365 N 
ATOM     28  C   UNL A   1      34.788  17.106  25.186  1.00  0.00     0.145 C 
ATOM     29  C   UNL A   1      32.454  16.542  25.791  1.00  0.00     0.145 C 
ATOM     30  C   UNL A   1      34.959  15.659  24.700  1.00  0.00     0.181 C 
ATOM     31  C   UNL A   1      32.721  15.132  25.240  1.00  0.00     0.181 C 
ATOM     32  O   UNL A   1      34.098  14.748  25.411  1.00  0.00    -0.378 OA
ENDBRANCH  25  27
ENDBRANCH  10  20
ENDBRANCH   8   9
ENDBRANCH   6   8
ENDBRANCH   3   4
ENDBRANCH   2   3
ENDBRANCH   1   2
BRANCH   1  33
ATOM     33  C   UNL A   1      31.552  29.186  25.778  1.00  0.00     0.002 C 
BRANCH  33  34
ATOM     34  C   UNL A   1      32.304  28.077  26.517  1.00  0.00     0.021 C 
BRANCH  34  35
ATOM     35  C   UNL A   1      33.416  28.559  27.444  1.00  0.00     0.116 C 
BRANCH  35  36
ATOM     36  N   UNL A   1      33.498  30.011  27.499  1.00  0.00    -0.352 N 
ATOM     37  C   UNL A   1      34.502  30.808  27.993  1.00  0.00     0.251 C 
ATOM     38  H   UNL A   1      32.723  30.491  27.128  1.00  0.00     0.163 HD
ATOM     39  O   UNL A   1      34.309  32.015  28.122  1.00  0.00    -0.269 OA
BRANCH  37  40
ATOM     40  C   UNL A   1      35.797  30.213  28.390  1.00  0.00     0.039 A 
ATOM     41  C   UNL A   1      36.860  30.239  27.483  1.00  0.00     0.014 A 
ATOM     42  C   UNL A   1      35.966  29.625  29.648  1.00  0.00     0.014 A 
ATOM     43  C   UNL A   1      38.107  29.736  27.862  1.00  0.00     0.010 A 
ATOM     44  C   UNL A   1      37.228  29.193  30.050  1.00  0.00     0.010 A 
ATOM     45  C   UNL A   1      38.313  29.241  29.161  1.00  0.00    -0.014 A 
BRANCH  45  46
ATOM     46  C   UNL A   1      39.654  28.776  29.603  1.00  0.00     0.031 A 
ATOM     47  C   UNL A   1      40.395  29.513  30.685  1.00  0.00     0.074 A 
ATOM     48  C   UNL A   1      40.223  27.712  29.001  1.00  0.00     0.049 A 
ATOM     49  N   UNL A   1      41.594  29.292  31.161  1.00  0.00    -0.248 NA
ATOM     50  C   UNL A   1      39.711  30.663  31.298  1.00  0.00     0.031 C 
ATOM     51  C   UNL A   1      39.618  26.931  27.919  1.00  0.00     0.029 A 
ATOM     52  N   UNL A   1      41.435  27.099  29.209  1.00  0.00    -0.354 N 
ATOM     53  C   UNL A   1      41.810  30.275  32.120  1.00  0.00     0.074 A 
ATOM     54  C   UNL A   1      40.641  31.127  32.121  1.00  0.00     0.031 C 
ATOM     55  C   UNL A   1      40.441  25.924  27.587  1.00  0.00     0.029 A 
ATOM     56  C   UNL A   1      41.656  26.014  28.393  1.00  0.00     0.049 A 
ATOM     57  H   UNL A   1      42.085  27.409  29.881  1.00  0.00     0.167 HD
ATOM     58  C   UNL A   1      42.876  30.439  32.939  1.00  0.00     0.034 A 
ATOM     59  C   UNL A   1      42.717  25.190  28.290  1.00  0.00     0.034 A 
ATOM     60  C   UNL A   1      44.026  29.569  32.946  1.00  0.00     0.049 A 
ATOM     61  C   UNL A   1      43.906  25.413  29.187  1.00  0.00     0.074 A 
ATOM     62  C   UNL A   1      45.130  29.617  33.779  1.00  0.00     0.029 A 
ATOM     63  N   UNL A   1      44.224  28.503  32.081  1.00  0.00    -0.354 N 
ATOM     64  N   UNL A   1      44.083  26.336  30.103  1.00  0.00    -0.248 NA
ATOM     65  C   UNL A   1      45.038  24.487  29.037  1.00  0.00     0.031 C 
ATOM     66  C   UNL A   1      46.028  28.627  33.371  1.00  0.00     0.029 A 
ATOM     67  C   UNL A   1      45.450  27.909  32.336  1.00  0.00     0.049 A 
ATOM     68  H   UNL A   1      43.588  28.211  31.388  1.00  0.00     0.167 HD
ATOM     69  C   UNL A   1      45.338  26.091  30.652  1.00  0.00     0.074 A 
ATOM     70  C   UNL A   1      45.873  24.932  29.969  1.00  0.00     0.031 C 
ATOM     71  C   UNL A   1      45.982  26.763  31.638  1.00  0.00     0.034 A 
BRANCH  58  72
ATOM     72  C   UNL A   1      42.863  31.607  33.892  1.00  0.00     0.023 A 
ATOM     73  C   UNL A   1      42.372  31.482  35.202  1.00  0.00     0.031 A 
ATOM     74  C   UNL A   1      43.384  32.850  33.495  1.00  0.00     0.131 A 
ATOM     75  C   UNL A   1      42.379  32.595  36.058  1.00  0.00     0.055 A 
ATOM     76  C   UNL A   1      43.447  33.934  34.371  1.00  0.00     0.041 A 
ATOM     77  F   UNL A   1      43.849  33.029  32.248  1.00  0.00    -0.206 F 
ATOM     78  C   UNL A   1      42.936  33.812  35.659  1.00  0.00     0.022 A 
BRANCH  75  79
ATOM     79  S   UNL A   1      41.578  32.450  37.679  1.00  0.00     0.124 S 
ATOM     80  O   UNL A   1      40.210  32.103  37.301  1.00  0.00    -0.237 OA
ATOM     81  O   UNL A   1      42.351  31.393  38.320  1.00  0.00    -0.237 OA
ATOM     82  O   UNL A   1      41.739  33.781  38.260  1.00  0.00    -0.744 OA
ENDBRANCH  75  79
ENDBRANCH  58  72
BRANCH  59  83
ATOM     83  C   UNL A   1      42.703  24.086  27.290  1.00  0.00     0.023 A 
ATOM     84  C   UNL A   1      42.096  22.855  27.577  1.00  0.00     0.031 A 
ATOM     85  C   UNL A   1      43.278  24.262  26.018  1.00  0.00     0.131 A 
ATOM     86  C   UNL A   1      42.089  21.838  26.609  1.00  0.00     0.055 A 
ATOM     87  C   UNL A   1      43.235  23.261  25.045  1.00  0.00     0.041 A 
ATOM     88  F   UNL A   1      43.862  25.426  25.692  1.00  0.00    -0.206 F 
ATOM     89  C   UNL A   1      42.641  22.039  25.341  1.00  0.00     0.022 A 
BRANCH  86  90
ATOM     90  S   UNL A   1      41.360  20.231  27.033  1.00  0.00     0.124 S 
ATOM     91  O   UNL A   1      40.388  20.055  25.962  1.00  0.00    -0.237 OA
ATOM     92  O   UNL A   1      42.524  19.351  26.998  1.00  0.00    -0.237 OA
ATOM     93  O   UNL A   1      40.795  20.456  28.362  1.00  0.00    -0.744 OA
ENDBRANCH  86  90
ENDBRANCH  59  83
BRANCH  71  94
ATOM     94  C   UNL A   1      47.332  26.255  32.066  1.00  0.00     0.023 A 
ATOM     95  C   UNL A   1      47.468  25.295  33.083  1.00  0.00     0.031 A 
ATOM     96  C   UNL A   1      48.493  26.684  31.396  1.00  0.00     0.131 A 
ATOM     97  C   UNL A   1      48.742  24.808  33.413  1.00  0.00     0.055 A 
ATOM     98  C   UNL A   1      49.749  26.161  31.696  1.00  0.00     0.041 A 
ATOM     99  F   UNL A   1      48.414  27.597  30.414  1.00  0.00    -0.206 F 
ATOM    100  C   UNL A   1      49.880  25.219  32.713  1.00  0.00     0.022 A 
BRANCH  97 101
ATOM    101  S   UNL A   1      48.899  23.640  34.792  1.00  0.00     0.124 S 
ATOM    102  O   UNL A   1      47.543  23.111  34.894  1.00  0.00    -0.237 OA
ATOM    103  O   UNL A   1      49.911  22.709  34.304  1.00  0.00    -0.237 OA
ATOM    104  O   UNL A   1      49.323  24.483  35.908  1.00  0.00    -0.744 OA
ENDBRANCH  97 101
ENDBRANCH  71  94
ENDBRANCH  45  46
ENDBRANCH  37  40
ENDBRANCH  35  36
ENDBRANCH  34  35
ENDBRANCH  33  34
ENDBRANCH   1  33
TORSDOF 20
ENDMDL
MODEL 2
REMARK VINA RESULT:     -12.2      3.074      7.933
REMARK SMILES O=C(C/C(=C/c1ccc(N2CCOCC2)c(F)c1)c1nc2ccccc2s1)NCCCCCCNC(=O)c1ccc(-c2c3nc(c(-c4cc(S(=O)(=O)[O-])ccc4F)c4ccc([nH]4)c(-c4cc(S(=O)(=O)[O-])ccc4F)c4nc(c(-c5cc(S(=O)(=O)[O-])ccc5F)c5ccc2[nH]5)C=C4)C=C3)cc1
REMARK SMILES IDX 31 1 30 2 29 3 28 4 1 5 2 6 3 8 4 9 5 10 19 11 20 12 27 13
REMARK SMILES IDX 21 14 26 15 22 16 25 17 23 18 24 19 6 20 7 21 18 22 8 23
REMARK SMILES IDX 16 24 9 25 17 26 10 27 11 28 15 29 12 30 14 31 13 32 32 33
REMARK SMILES IDX 33 34 34 35 35 36 36 37 37 39 38 40 39 41 100 42 40 43 99 44
REMARK SMILES IDX 41 45 42 46 43 47 93 48 44 49 98 50 92 51 94 52 45 53 97 54
REMARK SMILES IDX 91 55 90 56 46 58 78 59 58 60 77 61 59 62 62 63 76 64 95 65
REMARK SMILES IDX 60 66 61 67 75 69 96 70 63 71 47 72 48 73 56 74 49 75 55 76
REMARK SMILES IDX 57 77 54 78 50 79 51 80 52 81 53 82 79 83 80 84 88 85 81 86
REMARK SMILES IDX 87 87 89 88 86 89 82 90 83 91 84 92 85 93 64 94 65 95 73 96
REMARK SMILES IDX 66 97 72 98 74 99 71 100 67 101 68 102 69 103 70 104
REMARK H PARENT 28 7 35 38 94 57 62 68
REMARK Flexibility Score: inf
ROOT
ATOM      1  C   UNL A   1      31.853  29.358  25.726  1.00  0.00     0.002 C 
ENDROOT
BRANCH   1   2
ATOM      2  C   UNL A   1      33.222  29.372  25.034  1.00  0.00     0.021 C 
BRANCH   2   3
ATOM      3  C   UNL A   1      33.210  28.848  23.600  1.00  0.00     0.116 C 
BRANCH   3   4
ATOM      4  N   UNL A   1      32.384  27.664  23.470  1.00  0.00    -0.356 N 
ATOM      5  O   UNL A   1      33.427  26.837  21.599  1.00  0.00    -0.275 OA
ATOM      6  C   UNL A   1      32.580  26.725  22.481  1.00  0.00     0.224 C 
ATOM      7  H   UNL A   1      31.653  27.524  24.115  1.00  0.00     0.163 HD
BRANCH   6   8
ATOM      8  C   UNL A   1      31.620  25.542  22.517  1.00  0.00     0.138 C 
BRANCH   8   9
ATOM      9  C   UNL A   1      32.227  24.270  23.089  1.00  0.00    -0.002 C 
ATOM     10  C   UNL A   1      31.504  23.125  23.001  1.00  0.00     0.015 C 
BRANCH   9  11
ATOM     11  C   UNL A   1      33.554  24.201  23.655  1.00  0.00     0.121 A 
ATOM     12  N   UNL A   1      34.602  23.631  23.088  1.00  0.00    -0.236 NA
ATOM     13  S   UNL A   1      33.869  24.812  25.243  1.00  0.00    -0.114 S 
ATOM     14  C   UNL A   1      35.656  23.537  23.977  1.00  0.00     0.082 A 
ATOM     15  C   UNL A   1      35.444  24.135  25.216  1.00  0.00     0.055 A 
ATOM     16  C   UNL A   1      36.882  22.886  23.738  1.00  0.00     0.030 A 
ATOM     17  C   UNL A   1      36.421  24.124  26.225  1.00  0.00     0.021 A 
ATOM     18  C   UNL A   1      37.858  22.853  24.740  1.00  0.00     0.002 A 
ATOM     19  C   UNL A   1      37.628  23.469  25.967  1.00  0.00     0.002 A 
ENDBRANCH   9  11
BRANCH  10  20
ATOM     20  C   UNL A   1      31.899  21.792  23.485  1.00  0.00    -0.022 A 
ATOM     21  C   UNL A   1      32.194  21.570  24.834  1.00  0.00     0.010 A 
ATOM     22  C   UNL A   1      32.004  20.730  22.588  1.00  0.00     0.049 A 
ATOM     23  C   UNL A   1      32.629  20.314  25.269  1.00  0.00     0.029 A 
ATOM     24  C   UNL A   1      32.443  19.482  23.037  1.00  0.00     0.147 A 
ATOM     25  C   UNL A   1      32.770  19.237  24.383  1.00  0.00     0.073 A 
ATOM     26  F   UNL A   1      32.505  18.483  22.140  1.00  0.00    -0.205 F 
BRANCH  25  27
ATOM     27  N   UNL A   1      33.184  18.003  24.833  1.00  0.00    -0.365 N 
ATOM     28  C   UNL A   1      34.499  17.447  24.498  1.00  0.00     0.145 C 
ATOM     29  C   UNL A   1      32.389  17.209  25.771  1.00  0.00     0.145 C 
ATOM     30  C   UNL A   1      34.346  15.980  24.066  1.00  0.00     0.181 C 
ATOM     31  C   UNL A   1      32.312  15.765  25.248  1.00  0.00     0.181 C 
ATOM     32  O   UNL A   1      33.623  15.206  25.043  1.00  0.00    -0.378 OA
ENDBRANCH  25  27
ENDBRANCH  10  20
ENDBRANCH   8   9
ENDBRANCH   6   8
ENDBRANCH   3   4
ENDBRANCH   2   3
ENDBRANCH   1   2
BRANCH   1  33
ATOM     33  C   UNL A   1      31.750  30.212  26.994  1.00  0.00     0.002 C 
BRANCH  33  34
ATOM     34  C   UNL A   1      31.500  31.703  26.758  1.00  0.00     0.021 C 
BRANCH  34  35
ATOM     35  C   UNL A   1      32.752  32.575  26.760  1.00  0.00     0.116 C 
BRANCH  35  36
ATOM     36  N   UNL A   1      32.530  33.860  27.406  1.00  0.00    -0.352 N 
ATOM     37  C   UNL A   1      33.131  34.388  28.523  1.00  0.00     0.251 C 
ATOM     38  H   UNL A   1      31.853  34.434  26.982  1.00  0.00     0.163 HD
ATOM     39  O   UNL A   1      32.677  35.413  29.027  1.00  0.00    -0.269 OA
BRANCH  37  40
ATOM     40  C   UNL A   1      34.300  33.713  29.129  1.00  0.00     0.039 A 
ATOM     41  C   UNL A   1      35.574  34.240  28.908  1.00  0.00     0.014 A 
ATOM     42  C   UNL A   1      34.144  32.562  29.908  1.00  0.00     0.014 A 
ATOM     43  C   UNL A   1      36.684  33.651  29.520  1.00  0.00     0.010 A 
ATOM     44  C   UNL A   1      35.241  32.021  30.577  1.00  0.00     0.010 A 
ATOM     45  C   UNL A   1      36.523  32.559  30.390  1.00  0.00    -0.014 A 
BRANCH  45  46
ATOM     46  C   UNL A   1      37.685  31.972  31.110  1.00  0.00     0.031 A 
ATOM     47  C   UNL A   1      38.486  30.863  30.483  1.00  0.00     0.074 A 
ATOM     48  C   UNL A   1      37.994  32.411  32.347  1.00  0.00     0.049 A 
ATOM     49  N   UNL A   1      39.491  30.190  30.980  1.00  0.00    -0.248 NA
ATOM     50  C   UNL A   1      38.092  30.438  29.130  1.00  0.00     0.031 C 
ATOM     51  C   UNL A   1      37.275  33.460  33.074  1.00  0.00     0.029 A 
ATOM     52  N   UNL A   1      38.990  32.034  33.215  1.00  0.00    -0.354 N 
ATOM     53  C   UNL A   1      39.845  29.261  30.009  1.00  0.00     0.074 A 
ATOM     54  C   UNL A   1      38.912  29.420  28.914  1.00  0.00     0.031 C 
ATOM     55  C   UNL A   1      37.876  33.669  34.256  1.00  0.00     0.029 A 
ATOM     56  C   UNL A   1      38.990  32.736  34.398  1.00  0.00     0.049 A 
ATOM     57  H   UNL A   1      39.643  31.327  33.008  1.00  0.00     0.167 HD
ATOM     58  C   UNL A   1      40.868  28.372  30.019  1.00  0.00     0.034 A 
ATOM     59  C   UNL A   1      39.784  32.636  35.482  1.00  0.00     0.034 A 
ATOM     60  C   UNL A   1      41.806  28.240  31.105  1.00  0.00     0.049 A 
ATOM     61  C   UNL A   1      40.892  31.616  35.486  1.00  0.00     0.074 A 
ATOM     62  C   UNL A   1      42.911  27.410  31.185  1.00  0.00     0.029 A 
ATOM     63  N   UNL A   1      41.750  28.946  32.298  1.00  0.00    -0.354 N 
ATOM     64  N   UNL A   1      41.224  30.761  34.548  1.00  0.00    -0.248 NA
ATOM     65  C   UNL A   1      41.731  31.547  36.690  1.00  0.00     0.031 C 
ATOM     66  C   UNL A   1      43.480  27.561  32.453  1.00  0.00     0.029 A 
ATOM     67  C   UNL A   1      42.779  28.543  33.135  1.00  0.00     0.049 A 
ATOM     68  H   UNL A   1      41.079  29.632  32.519  1.00  0.00     0.167 HD
ATOM     69  C   UNL A   1      42.322  30.062  35.042  1.00  0.00     0.074 A 
ATOM     70  C   UNL A   1      42.600  30.599  36.358  1.00  0.00     0.031 C 
ATOM     71  C   UNL A   1      43.038  29.073  34.453  1.00  0.00     0.034 A 
BRANCH  58  72
ATOM     72  C   UNL A   1      41.025  27.462  28.829  1.00  0.00     0.023 A 
ATOM     73  C   UNL A   1      42.017  27.683  27.859  1.00  0.00     0.031 A 
ATOM     74  C   UNL A   1      40.196  26.336  28.684  1.00  0.00     0.131 A 
ATOM     75  C   UNL A   1      42.130  26.810  26.766  1.00  0.00     0.055 A 
ATOM     76  C   UNL A   1      40.356  25.436  27.630  1.00  0.00     0.041 A 
ATOM     77  F   UNL A   1      39.220  26.088  29.573  1.00  0.00    -0.206 F 
ATOM     78  C   UNL A   1      41.323  25.674  26.659  1.00  0.00     0.022 A 
BRANCH  75  79
ATOM     79  S   UNL A   1      43.300  27.221  25.442  1.00  0.00     0.124 S 
ATOM     80  O   UNL A   1      42.463  28.018  24.548  1.00  0.00    -0.237 OA
ATOM     81  O   UNL A   1      44.343  27.947  26.156  1.00  0.00    -0.237 OA
ATOM     82  O   UNL A   1      43.695  25.916  24.917  1.00  0.00    -0.744 OA
ENDBRANCH  75  79
ENDBRANCH  58  72
BRANCH  59  83
ATOM     83  C   UNL A   1      39.548  33.520  36.657  1.00  0.00     0.023 A 
ATOM     84  C   UNL A   1      38.894  33.044  37.803  1.00  0.00     0.031 A 
ATOM     85  C   UNL A   1      40.001  34.852  36.658  1.00  0.00     0.131 A 
ATOM     86  C   UNL A   1      38.697  33.898  38.900  1.00  0.00     0.055 A 
ATOM     87  C   UNL A   1      39.838  35.686  37.765  1.00  0.00     0.041 A 
ATOM     88  F   UNL A   1      40.642  35.350  35.589  1.00  0.00    -0.206 F 
ATOM     89  C   UNL A   1      39.178  35.211  38.894  1.00  0.00     0.022 A 
BRANCH  86  90
ATOM     90  S   UNL A   1      37.784  33.278  40.340  1.00  0.00     0.124 S 
ATOM     91  O   UNL A   1      37.785  34.444  41.215  1.00  0.00    -0.237 OA
ATOM     92  O   UNL A   1      36.498  32.915  39.752  1.00  0.00    -0.237 OA
ATOM     93  O   UNL A   1      38.595  32.152  40.796  1.00  0.00    -0.744 OA
ENDBRANCH  86  90
ENDBRANCH  59  83
BRANCH  71  94
ATOM     94  C   UNL A   1      44.213  28.512  35.207  1.00  0.00     0.023 A 
ATOM     95  C   UNL A   1      44.055  27.499  36.167  1.00  0.00     0.031 A 
ATOM     96  C   UNL A   1      45.517  28.947  34.906  1.00  0.00     0.131 A 
ATOM     97  C   UNL A   1      45.184  26.965  36.807  1.00  0.00     0.055 A 
ATOM     98  C   UNL A   1      46.638  28.380  35.511  1.00  0.00     0.041 A 
ATOM     99  F   UNL A   1      45.720  29.911  33.993  1.00  0.00    -0.206 F 
ATOM    100  C   UNL A   1      46.474  27.385  36.471  1.00  0.00     0.022 A 
BRANCH  97 101
ATOM    101  S   UNL A   1      44.945  25.726  38.109  1.00  0.00     0.124 S 
ATOM    102  O   UNL A   1      44.342  24.623  37.367  1.00  0.00    -0.237 OA
ATOM    103  O   UNL A   1      46.305  25.502  38.587  1.00  0.00    -0.237 OA
ATOM    104  O   UNL A   1      44.058  26.393  39.059  1.00  0.00    -0.744 OA
ENDBRANCH  97 101
ENDBRANCH  71  94
ENDBRANCH  45  46
ENDBRANCH  37  40
ENDBRANCH  35  36
ENDBRANCH  34  35
ENDBRANCH  33  34
ENDBRANCH   1  33
TORSDOF 20
ENDMDL
MODEL 3
REMARK VINA RESULT:     -11.8      2.156      2.820
REMARK SMILES O=C(C/C(=C/c1ccc(N2CCOCC2)c(F)c1)c1nc2ccccc2s1)NCCCCCCNC(=O)c1ccc(-c2c3nc(c(-c4cc(S(=O)(=O)[O-])ccc4F)c4ccc([nH]4)c(-c4cc(S(=O)(=O)[O-])ccc4F)c4nc(c(-c5cc(S(=O)(=O)[O-])ccc5F)c5ccc2[nH]5)C=C4)C=C3)cc1
REMARK SMILES IDX 31 1 30 2 29 3 28 4 1 5 2 6 3 8 4 9 5 10 19 11 20 12 27 13
REMARK SMILES IDX 21 14 26 15 22 16 25 17 23 18 24 19 6 20 7 21 18 22 8 23
REMARK SMILES IDX 16 24 9 25 17 26 10 27 11 28 15 29 12 30 14 31 13 32 32 33
REMARK SMILES IDX 33 34 34 35 35 36 36 37 37 39 38 40 39 41 100 42 40 43 99 44
REMARK SMILES IDX 41 45 42 46 43 47 93 48 44 49 98 50 92 51 94 52 45 53 97 54
REMARK SMILES IDX 91 55 90 56 46 58 78 59 58 60 77 61 59 62 62 63 76 64 95 65
REMARK SMILES IDX 60 66 61 67 75 69 96 70 63 71 47 72 48 73 56 74 49 75 55 76
REMARK SMILES IDX 57 77 54 78 50 79 51 80 52 81 53 82 79 83 80 84 88 85 81 86
REMARK SMILES IDX 87 87 89 88 86 89 82 90 83 91 84 92 85 93 64 94 65 95 73 96
REMARK SMILES IDX 66 97 72 98 74 99 71 100 67 101 68 102 69 103 70 104
REMARK H PARENT 28 7 35 38 94 57 62 68
REMARK Flexibility Score: inf
ROOT
ATOM      1  C   UNL A   1      31.822  29.319  23.021  1.00  0.00     0.002 C 
ENDROOT
BRANCH   1   2
ATOM      2  C   UNL A   1      33.348  29.191  23.113  1.00  0.00     0.021 C 
BRANCH   2   3
ATOM      3  C   UNL A   1      33.901  27.856  22.618  1.00  0.00     0.116 C 
BRANCH   3   4
ATOM      4  N   UNL A   1      32.962  26.774  22.838  1.00  0.00    -0.356 N 
ATOM      5  O   UNL A   1      33.274  25.757  20.803  1.00  0.00    -0.275 OA
ATOM      6  C   UNL A   1      32.742  25.781  21.909  1.00  0.00     0.224 C 
ATOM      7  H   UNL A   1      32.462  26.747  23.686  1.00  0.00     0.163 HD
BRANCH   6   8
ATOM      8  C   UNL A   1      31.730  24.721  22.327  1.00  0.00     0.138 C 
BRANCH   8   9
ATOM      9  C   UNL A   1      32.350  23.499  22.987  1.00  0.00    -0.002 C 
ATOM     10  C   UNL A   1      31.657  22.333  22.944  1.00  0.00     0.015 C 
BRANCH   9  11
ATOM     11  C   UNL A   1      33.662  23.496  23.591  1.00  0.00     0.121 A 
ATOM     12  N   UNL A   1      34.723  22.868  23.119  1.00  0.00    -0.236 NA
ATOM     13  S   UNL A   1      33.936  24.279  25.110  1.00  0.00    -0.114 S 
ATOM     14  C   UNL A   1      35.754  22.875  24.040  1.00  0.00     0.082 A 
ATOM     15  C   UNL A   1      35.510  23.606  25.199  1.00  0.00     0.055 A 
ATOM     16  C   UNL A   1      36.986  22.203  23.907  1.00  0.00     0.030 A 
ATOM     17  C   UNL A   1      36.460  23.708  26.229  1.00  0.00     0.021 A 
ATOM     18  C   UNL A   1      37.934  22.284  24.932  1.00  0.00     0.002 A 
ATOM     19  C   UNL A   1      37.674  23.032  26.076  1.00  0.00     0.002 A 
ENDBRANCH   9  11
BRANCH  10  20
ATOM     20  C   UNL A   1      32.071  21.040  23.513  1.00  0.00    -0.022 A 
ATOM     21  C   UNL A   1      32.361  20.907  24.875  1.00  0.00     0.010 A 
ATOM     22  C   UNL A   1      32.197  19.925  22.686  1.00  0.00     0.049 A 
ATOM     23  C   UNL A   1      32.812  19.688  25.391  1.00  0.00     0.029 A 
ATOM     24  C   UNL A   1      32.653  18.715  23.215  1.00  0.00     0.147 A 
ATOM     25  C   UNL A   1      32.975  18.561  24.575  1.00  0.00     0.073 A 
ATOM     26  F   UNL A   1      32.736  17.662  22.382  1.00  0.00    -0.205 F 
BRANCH  25  27
ATOM     27  N   UNL A   1      33.406  17.364  25.104  1.00  0.00    -0.365 N 
ATOM     28  C   UNL A   1      34.815  16.957  25.078  1.00  0.00     0.145 C 
ATOM     29  C   UNL A   1      32.508  16.465  25.831  1.00  0.00     0.145 C 
ATOM     30  C   UNL A   1      34.923  15.495  24.618  1.00  0.00     0.181 C 
ATOM     31  C   UNL A   1      32.708  15.036  25.300  1.00  0.00     0.181 C 
ATOM     32  O   UNL A   1      34.084  14.622  25.400  1.00  0.00    -0.378 OA
ENDBRANCH  25  27
ENDBRANCH  10  20
ENDBRANCH   8   9
ENDBRANCH   6   8
ENDBRANCH   3   4
ENDBRANCH   2   3
ENDBRANCH   1   2
BRANCH   1  33
ATOM     33  C   UNL A   1      31.109  29.639  24.339  1.00  0.00     0.002 C 
BRANCH  33  34
ATOM     34  C   UNL A   1      31.433  28.698  25.502  1.00  0.00     0.021 C 
BRANCH  34  35
ATOM     35  C   UNL A   1      32.290  29.309  26.606  1.00  0.00     0.116 C 
BRANCH  35  36
ATOM     36  N   UNL A   1      32.237  30.763  26.605  1.00  0.00    -0.352 N 
ATOM     37  C   UNL A   1      33.075  31.665  27.214  1.00  0.00     0.251 C 
ATOM     38  H   UNL A   1      31.495  31.158  26.094  1.00  0.00     0.163 HD
ATOM     39  O   UNL A   1      32.760  32.853  27.254  1.00  0.00    -0.269 OA
BRANCH  37  40
ATOM     40  C   UNL A   1      34.335  31.206  27.839  1.00  0.00     0.039 A 
ATOM     41  C   UNL A   1      35.311  32.150  28.165  1.00  0.00     0.014 A 
ATOM     42  C   UNL A   1      34.558  29.850  28.101  1.00  0.00     0.014 A 
ATOM     43  C   UNL A   1      36.482  31.742  28.810  1.00  0.00     0.010 A 
ATOM     44  C   UNL A   1      35.690  29.456  28.810  1.00  0.00     0.010 A 
ATOM     45  C   UNL A   1      36.666  30.397  29.172  1.00  0.00    -0.014 A 
BRANCH  45  46
ATOM     46  C   UNL A   1      37.870  29.962  29.929  1.00  0.00     0.031 A 
ATOM     47  C   UNL A   1      38.103  30.452  31.332  1.00  0.00     0.074 A 
ATOM     48  C   UNL A   1      38.776  29.157  29.337  1.00  0.00     0.049 A 
ATOM     49  N   UNL A   1      39.120  30.229  32.125  1.00  0.00    -0.248 NA
ATOM     50  C   UNL A   1      37.071  31.325  31.914  1.00  0.00     0.031 C 
ATOM     51  C   UNL A   1      38.678  28.639  27.970  1.00  0.00     0.029 A 
ATOM     52  N   UNL A   1      39.956  28.632  29.803  1.00  0.00    -0.354 N 
ATOM     53  C   UNL A   1      38.854  30.937  33.292  1.00  0.00     0.074 A 
ATOM     54  C   UNL A   1      37.607  31.641  33.084  1.00  0.00     0.031 C 
ATOM     55  C   UNL A   1      39.729  27.841  27.724  1.00  0.00     0.029 A 
ATOM     56  C   UNL A   1      40.605  27.830  28.893  1.00  0.00     0.049 A 
ATOM     57  H   UNL A   1      40.305  28.812  30.706  1.00  0.00     0.167 HD
ATOM     58  C   UNL A   1      39.574  30.978  34.439  1.00  0.00     0.034 A 
ATOM     59  C   UNL A   1      41.776  27.169  28.977  1.00  0.00     0.034 A 
ATOM     60  C   UNL A   1      40.803  30.254  34.644  1.00  0.00     0.049 A 
ATOM     61  C   UNL A   1      42.577  27.259  30.250  1.00  0.00     0.074 A 
ATOM     62  C   UNL A   1      41.574  30.184  35.790  1.00  0.00     0.029 A 
ATOM     63  N   UNL A   1      41.442  29.481  33.685  1.00  0.00    -0.354 N 
ATOM     64  N   UNL A   1      42.299  27.917  31.350  1.00  0.00    -0.248 NA
ATOM     65  C   UNL A   1      43.847  26.520  30.293  1.00  0.00     0.031 C 
ATOM     66  C   UNL A   1      42.716  29.430  35.504  1.00  0.00     0.029 A 
ATOM     67  C   UNL A   1      42.618  28.962  34.204  1.00  0.00     0.049 A 
ATOM     68  H   UNL A   1      41.109  29.324  32.771  1.00  0.00     0.167 HD
ATOM     69  C   UNL A   1      43.350  27.657  32.224  1.00  0.00     0.074 A 
ATOM     70  C   UNL A   1      44.266  26.779  31.526  1.00  0.00     0.031 C 
ATOM     71  C   UNL A   1      43.533  28.100  33.493  1.00  0.00     0.034 A 
BRANCH  58  72
ATOM     72  C   UNL A   1      39.063  31.843  35.563  1.00  0.00     0.023 A 
ATOM     73  C   UNL A   1      38.356  31.299  36.648  1.00  0.00     0.031 A 
ATOM     74  C   UNL A   1      39.321  33.225  35.567  1.00  0.00     0.131 A 
ATOM     75  C   UNL A   1      37.898  32.139  37.674  1.00  0.00     0.055 A 
ATOM     76  C   UNL A   1      38.920  34.044  36.622  1.00  0.00     0.041 A 
ATOM     77  F   UNL A   1      39.977  33.799  34.545  1.00  0.00    -0.206 F 
ATOM     78  C   UNL A   1      38.198  33.503  37.681  1.00  0.00     0.022 A 
BRANCH  75  79
ATOM     79  S   UNL A   1      36.838  31.435  38.967  1.00  0.00     0.124 S 
ATOM     80  O   UNL A   1      37.707  31.520  40.138  1.00  0.00    -0.237 OA
ATOM     81  O   UNL A   1      35.689  32.332  38.957  1.00  0.00    -0.237 OA
ATOM     82  O   UNL A   1      36.574  30.079  38.491  1.00  0.00    -0.744 OA
ENDBRANCH  75  79
ENDBRANCH  58  72
BRANCH  59  83
ATOM     83  C   UNL A   1      42.265  26.376  27.815  1.00  0.00     0.023 A 
ATOM     84  C   UNL A   1      42.136  24.980  27.784  1.00  0.00     0.031 A 
ATOM     85  C   UNL A   1      42.846  27.013  26.703  1.00  0.00     0.131 A 
ATOM     86  C   UNL A   1      42.595  24.262  26.669  1.00  0.00     0.055 A 
ATOM     87  C   UNL A   1      43.266  26.298  25.580  1.00  0.00     0.041 A 
ATOM     88  F   UNL A   1      42.982  28.349  26.681  1.00  0.00    -0.206 F 
ATOM     89  C   UNL A   1      43.146  24.913  25.561  1.00  0.00     0.022 A 
BRANCH  86  90
ATOM     90  S   UNL A   1      42.482  22.450  26.688  1.00  0.00     0.124 S 
ATOM     91  O   UNL A   1      43.872  22.065  26.477  1.00  0.00    -0.237 OA
ATOM     92  O   UNL A   1      41.936  22.193  28.017  1.00  0.00    -0.237 OA
ATOM     93  O   UNL A   1      41.576  22.156  25.579  1.00  0.00    -0.744 OA
ENDBRANCH  86  90
ENDBRANCH  59  83
BRANCH  71  94
ATOM     94  C   UNL A   1      44.757  27.630  34.231  1.00  0.00     0.023 A 
ATOM     95  C   UNL A   1      44.800  26.372  34.857  1.00  0.00     0.031 A 
ATOM     96  C   UNL A   1      45.921  28.421  34.244  1.00  0.00     0.131 A 
ATOM     97  C   UNL A   1      45.981  25.950  35.486  1.00  0.00     0.055 A 
ATOM     98  C   UNL A   1      47.104  27.974  34.830  1.00  0.00     0.041 A 
ATOM     99  F   UNL A   1      45.930  29.628  33.656  1.00  0.00    -0.206 F 
ATOM    100  C   UNL A   1      47.138  26.733  35.460  1.00  0.00     0.022 A 
BRANCH  97 101
ATOM    101  S   UNL A   1      45.981  24.364  36.366  1.00  0.00     0.124 S 
ATOM    102  O   UNL A   1      44.670  24.374  37.006  1.00  0.00    -0.237 OA
ATOM    103  O   UNL A   1      46.152  23.401  35.283  1.00  0.00    -0.237 OA
ATOM    104  O   UNL A   1      47.118  24.477  37.277  1.00  0.00    -0.744 OA
ENDBRANCH  97 101
ENDBRANCH  71  94
ENDBRANCH  45  46
ENDBRANCH  37  40
ENDBRANCH  35  36
ENDBRANCH  34  35
ENDBRANCH  33  34
ENDBRANCH   1  33
TORSDOF 20
ENDMDL
