MODEL 1
REMARK VINA RESULT:     -11.7      0.000      0.000
REMARK SMILES COc1cc(OC)cc(-c2ccc(C(=O)NCCCCCCNC(=O)c3ccc(-c4c5nc(c(-c6cc(S(=O)(=O)[O-])ccc6F)c6ccc([nH]6)c(-c6cc(S(=O)(=O)[O-])ccc6F)c6nc(c(-c7cc(S(=O)(=O)[O-])ccc7F)c7ccc4[nH]7)C=C6)C=C5)cc3)o2)c1
REMARK SMILES IDX 20 1 19 2 18 3 17 4 16 5 14 6 15 7 13 9 10 10 11 11 89 12
REMARK SMILES IDX 12 13 9 14 3 15 4 16 90 17 5 18 8 19 2 20 1 21 6 22 7 23
REMARK SMILES IDX 21 24 22 25 23 26 24 27 25 29 26 30 27 31 88 32 28 33 87 34
REMARK SMILES IDX 29 35 30 36 31 37 81 38 32 39 86 40 80 41 82 42 33 43 85 44
REMARK SMILES IDX 79 45 78 46 34 48 66 49 46 50 65 51 47 52 50 53 64 54 83 55
REMARK SMILES IDX 48 56 49 57 63 59 84 60 51 61 35 62 36 63 44 64 37 65 43 66
REMARK SMILES IDX 45 67 42 68 38 69 39 70 40 71 41 72 67 73 68 74 76 75 69 76
REMARK SMILES IDX 75 77 77 78 74 79 70 80 71 81 72 82 73 83 52 84 53 85 61 86
REMARK SMILES IDX 54 87 60 88 62 89 59 90 55 91 56 92 57 93 58 94
REMARK H PARENT 16 8 23 28 82 47 50 58
REMARK Flexibility Score: inf
ROOT
ATOM      1  C   UNL A   1      34.864  21.935  24.167  1.00  0.00     0.002 C 
ENDROOT
BRANCH   1   2
ATOM      2  C   UNL A   1      34.398  20.698  24.947  1.00  0.00     0.002 C 
BRANCH   2   3
ATOM      3  C   UNL A   1      33.122  20.901  25.777  1.00  0.00     0.021 C 
BRANCH   3   4
ATOM      4  C   UNL A   1      33.170  22.153  26.653  1.00  0.00     0.116 C 
BRANCH   4   5
ATOM      5  N   UNL A   1      31.873  22.424  27.234  1.00  0.00    -0.349 N 
ATOM      6  C   UNL A   1      30.794  23.138  26.764  1.00  0.00     0.287 C 
ATOM      7  O   UNL A   1      29.802  23.146  27.500  1.00  0.00    -0.266 OA
ATOM      8  H   UNL A   1      31.738  22.028  28.124  1.00  0.00     0.163 HD
BRANCH   6   9
ATOM      9  C   UNL A   1      30.827  23.809  25.477  1.00  0.00     0.192 A 
ATOM     10  C   UNL A   1      30.710  25.613  24.204  1.00  0.00     0.135 A 
ATOM     11  C   UNL A   1      30.853  24.551  23.345  1.00  0.00     0.052 A 
ATOM     12  O   UNL A   1      30.697  25.183  25.492  1.00  0.00    -0.451 OA
ATOM     13  C   UNL A   1      30.994  23.407  24.161  1.00  0.00     0.057 A 
BRANCH  10  14
ATOM     14  C   UNL A   1      30.649  27.040  23.979  1.00  0.00     0.025 A 
ATOM     15  C   UNL A   1      31.161  29.290  24.710  1.00  0.00     0.123 A 
ATOM     16  C   UNL A   1      30.204  29.778  23.815  1.00  0.00     0.092 A 
ATOM     17  C   UNL A   1      31.375  27.915  24.797  1.00  0.00     0.058 A 
ATOM     18  C   UNL A   1      29.484  28.914  22.985  1.00  0.00     0.123 A 
ATOM     19  C   UNL A   1      29.733  27.546  23.048  1.00  0.00     0.058 A 
BRANCH  15  20
ATOM     20  O   UNL A   1      31.769  30.241  25.482  1.00  0.00    -0.497 OA
ATOM     21  C   UNL A   1      31.934  29.933  26.862  1.00  0.00     0.278 C 
ENDBRANCH  15  20
BRANCH  18  22
ATOM     22  O   UNL A   1      28.554  29.515  22.181  1.00  0.00    -0.497 OA
ATOM     23  C   UNL A   1      28.889  30.810  21.692  1.00  0.00     0.278 C 
ENDBRANCH  18  22
ENDBRANCH  10  14
ENDBRANCH   6   9
ENDBRANCH   4   5
ENDBRANCH   3   4
ENDBRANCH   2   3
ENDBRANCH   1   2
BRANCH   1  24
ATOM     24  C   UNL A   1      36.357  22.252  24.293  1.00  0.00     0.021 C 
BRANCH  24  25
ATOM     25  C   UNL A   1      36.892  22.165  25.719  1.00  0.00     0.116 C 
BRANCH  25  26
ATOM     26  N   UNL A   1      37.812  21.050  25.878  1.00  0.00    -0.352 N 
ATOM     27  C   UNL A   1      39.152  21.076  26.188  1.00  0.00     0.251 C 
ATOM     28  H   UNL A   1      37.423  20.156  25.746  1.00  0.00     0.163 HD
ATOM     29  O   UNL A   1      39.835  20.073  26.055  1.00  0.00    -0.269 OA
BRANCH  27  30
ATOM     30  C   UNL A   1      39.750  22.343  26.662  1.00  0.00     0.039 A 
ATOM     31  C   UNL A   1      40.759  22.304  27.626  1.00  0.00     0.014 A 
ATOM     32  C   UNL A   1      39.325  23.562  26.126  1.00  0.00     0.014 A 
ATOM     33  C   UNL A   1      41.392  23.490  28.007  1.00  0.00     0.010 A 
ATOM     34  C   UNL A   1      40.006  24.729  26.451  1.00  0.00     0.010 A 
ATOM     35  C   UNL A   1      41.045  24.706  27.395  1.00  0.00    -0.014 A 
BRANCH  35  36
ATOM     36  C   UNL A   1      41.748  25.973  27.722  1.00  0.00     0.031 A 
ATOM     37  C   UNL A   1      41.029  27.050  28.484  1.00  0.00     0.074 A 
ATOM     38  C   UNL A   1      42.989  26.191  27.248  1.00  0.00     0.049 A 
ATOM     39  N   UNL A   1      41.405  28.275  28.747  1.00  0.00    -0.248 NA
ATOM     40  C   UNL A   1      39.686  26.711  28.978  1.00  0.00     0.031 C 
ATOM     41  C   UNL A   1      43.772  25.239  26.457  1.00  0.00     0.029 A 
ATOM     42  N   UNL A   1      43.803  27.293  27.340  1.00  0.00    -0.354 N 
ATOM     43  C   UNL A   1      40.338  28.861  29.419  1.00  0.00     0.074 A 
ATOM     44  C   UNL A   1      39.277  27.875  29.455  1.00  0.00     0.031 C 
ATOM     45  C   UNL A   1      44.952  25.794  26.143  1.00  0.00     0.029 A 
ATOM     46  C   UNL A   1      44.992  27.157  26.665  1.00  0.00     0.049 A 
ATOM     47  H   UNL A   1      43.557  28.103  27.843  1.00  0.00     0.167 HD
ATOM     48  C   UNL A   1      40.259  30.097  29.976  1.00  0.00     0.034 A 
ATOM     49  C   UNL A   1      45.993  28.037  26.465  1.00  0.00     0.034 A 
ATOM     50  C   UNL A   1      41.332  31.061  29.928  1.00  0.00     0.049 A 
ATOM     51  C   UNL A   1      45.884  29.414  27.068  1.00  0.00     0.074 A 
ATOM     52  C   UNL A   1      41.390  32.319  30.502  1.00  0.00     0.029 A 
ATOM     53  N   UNL A   1      42.534  30.882  29.252  1.00  0.00    -0.354 N 
ATOM     54  N   UNL A   1      44.891  29.940  27.748  1.00  0.00    -0.248 NA
ATOM     55  C   UNL A   1      47.034  30.308  26.887  1.00  0.00     0.031 C 
ATOM     56  C   UNL A   1      42.589  32.926  30.112  1.00  0.00     0.029 A 
ATOM     57  C   UNL A   1      43.323  32.018  29.365  1.00  0.00     0.049 A 
ATOM     58  H   UNL A   1      42.789  30.065  28.763  1.00  0.00     0.167 HD
ATOM     59  C   UNL A   1      45.309  31.220  28.100  1.00  0.00     0.074 A 
ATOM     60  C   UNL A   1      46.647  31.380  27.564  1.00  0.00     0.031 C 
ATOM     61  C   UNL A   1      44.649  32.172  28.810  1.00  0.00     0.034 A 
BRANCH  48  62
ATOM     62  C   UNL A   1      38.954  30.469  30.645  1.00  0.00     0.023 A 
ATOM     63  C   UNL A   1      37.917  31.103  29.937  1.00  0.00     0.031 A 
ATOM     64  C   UNL A   1      38.768  30.255  32.023  1.00  0.00     0.131 A 
ATOM     65  C   UNL A   1      36.802  31.605  30.624  1.00  0.00     0.055 A 
ATOM     66  C   UNL A   1      37.606  30.664  32.682  1.00  0.00     0.041 A 
ATOM     67  F   UNL A   1      39.725  29.672  32.761  1.00  0.00    -0.206 F 
ATOM     68  C   UNL A   1      36.625  31.366  31.988  1.00  0.00     0.022 A 
BRANCH  65  69
ATOM     69  S   UNL A   1      35.695  32.747  29.750  1.00  0.00     0.124 S 
ATOM     70  O   UNL A   1      35.943  32.388  28.356  1.00  0.00    -0.237 OA
ATOM     71  O   UNL A   1      34.386  32.385  30.281  1.00  0.00    -0.237 OA
ATOM     72  O   UNL A   1      36.187  34.067  30.141  1.00  0.00    -0.744 OA
ENDBRANCH  65  69
ENDBRANCH  48  62
BRANCH  49  73
ATOM     73  C   UNL A   1      47.171  27.646  25.642  1.00  0.00     0.023 A 
ATOM     74  C   UNL A   1      47.219  27.913  24.265  1.00  0.00     0.031 A 
ATOM     75  C   UNL A   1      48.277  27.004  26.229  1.00  0.00     0.131 A 
ATOM     76  C   UNL A   1      48.336  27.515  23.515  1.00  0.00     0.055 A 
ATOM     77  C   UNL A   1      49.405  26.650  25.487  1.00  0.00     0.041 A 
ATOM     78  F   UNL A   1      48.286  26.735  27.545  1.00  0.00    -0.206 F 
ATOM     79  C   UNL A   1      49.435  26.900  24.119  1.00  0.00     0.022 A 
BRANCH  76  80
ATOM     80  S   UNL A   1      48.317  27.774  21.719  1.00  0.00     0.124 S 
ATOM     81  O   UNL A   1      49.411  28.722  21.545  1.00  0.00    -0.237 OA
ATOM     82  O   UNL A   1      48.550  26.425  21.216  1.00  0.00    -0.237 OA
ATOM     83  O   UNL A   1      46.980  28.308  21.467  1.00  0.00    -0.744 OA
ENDBRANCH  76  80
ENDBRANCH  49  73
BRANCH  61  84
ATOM     84  C   UNL A   1      45.389  33.461  29.084  1.00  0.00     0.023 A 
ATOM     85  C   UNL A   1      45.253  34.589  28.256  1.00  0.00     0.031 A 
ATOM     86  C   UNL A   1      46.248  33.556  30.195  1.00  0.00     0.131 A 
ATOM     87  C   UNL A   1      46.002  35.746  28.523  1.00  0.00     0.055 A 
ATOM     88  C   UNL A   1      46.942  34.729  30.491  1.00  0.00     0.041 A 
ATOM     89  F   UNL A   1      46.421  32.508  31.017  1.00  0.00    -0.206 F 
ATOM     90  C   UNL A   1      46.832  35.830  29.645  1.00  0.00     0.022 A 
BRANCH  87  91
ATOM     91  S   UNL A   1      45.953  37.112  27.331  1.00  0.00     0.124 S 
ATOM     92  O   UNL A   1      46.520  38.211  28.106  1.00  0.00    -0.237 OA
ATOM     93  O   UNL A   1      46.782  36.605  26.242  1.00  0.00    -0.237 OA
ATOM     94  O   UNL A   1      44.531  37.243  27.016  1.00  0.00    -0.744 OA
ENDBRANCH  87  91
ENDBRANCH  61  84
ENDBRANCH  35  36
ENDBRANCH  27  30
ENDBRANCH  25  26
ENDBRANCH  24  25
ENDBRANCH   1  24
TORSDOF 19
ENDMDL
MODEL 2
REMARK VINA RESULT:     -11.7      1.526      2.196
REMARK SMILES COc1cc(OC)cc(-c2ccc(C(=O)NCCCCCCNC(=O)c3ccc(-c4c5nc(c(-c6cc(S(=O)(=O)[O-])ccc6F)c6ccc([nH]6)c(-c6cc(S(=O)(=O)[O-])ccc6F)c6nc(c(-c7cc(S(=O)(=O)[O-])ccc7F)c7ccc4[nH]7)C=C6)C=C5)cc3)o2)c1
REMARK SMILES IDX 20 1 19 2 18 3 17 4 16 5 14 6 15 7 13 9 10 10 11 11 89 12
REMARK SMILES IDX 12 13 9 14 3 15 4 16 90 17 5 18 8 19 2 20 1 21 6 22 7 23
REMARK SMILES IDX 21 24 22 25 23 26 24 27 25 29 26 30 27 31 88 32 28 33 87 34
REMARK SMILES IDX 29 35 30 36 31 37 81 38 32 39 86 40 80 41 82 42 33 43 85 44
REMARK SMILES IDX 79 45 78 46 34 48 66 49 46 50 65 51 47 52 50 53 64 54 83 55
REMARK SMILES IDX 48 56 49 57 63 59 84 60 51 61 35 62 36 63 44 64 37 65 43 66
REMARK SMILES IDX 45 67 42 68 38 69 39 70 40 71 41 72 67 73 68 74 76 75 69 76
REMARK SMILES IDX 75 77 77 78 74 79 70 80 71 81 72 82 73 83 52 84 53 85 61 86
REMARK SMILES IDX 54 87 60 88 62 89 59 90 55 91 56 92 57 93 58 94
REMARK H PARENT 16 8 23 28 82 47 50 58
REMARK Flexibility Score: inf
ROOT
ATOM      1  C   UNL A   1      34.778  22.428  24.216  1.00  0.00     0.002 C 
ENDROOT
BRANCH   1   2
ATOM      2  C   UNL A   1      33.879  21.234  24.563  1.00  0.00     0.002 C 
BRANCH   2   3
ATOM      3  C   UNL A   1      33.557  21.081  26.057  1.00  0.00     0.021 C 
BRANCH   3   4
ATOM      4  C   UNL A   1      33.366  22.421  26.768  1.00  0.00     0.116 C 
BRANCH   4   5
ATOM      5  N   UNL A   1      32.045  22.509  27.352  1.00  0.00    -0.349 N 
ATOM      6  C   UNL A   1      30.880  23.081  26.894  1.00  0.00     0.287 C 
ATOM      7  O   UNL A   1      29.898  22.946  27.629  1.00  0.00    -0.266 OA
ATOM      8  H   UNL A   1      31.965  22.085  28.236  1.00  0.00     0.163 HD
BRANCH   6   9
ATOM      9  C   UNL A   1      30.822  23.770  25.617  1.00  0.00     0.192 A 
ATOM     10  C   UNL A   1      30.529  25.578  24.378  1.00  0.00     0.135 A 
ATOM     11  C   UNL A   1      30.724  24.543  23.497  1.00  0.00     0.052 A 
ATOM     12  O   UNL A   1      30.589  25.131  25.658  1.00  0.00    -0.451 OA
ATOM     13  C   UNL A   1      30.976  23.401  24.290  1.00  0.00     0.057 A 
BRANCH  10  14
ATOM     14  C   UNL A   1      30.354  27.000  24.179  1.00  0.00     0.025 A 
ATOM     15  C   UNL A   1      29.615  28.835  22.784  1.00  0.00     0.123 A 
ATOM     16  C   UNL A   1      30.375  29.710  23.566  1.00  0.00     0.092 A 
ATOM     17  C   UNL A   1      29.614  27.474  23.088  1.00  0.00     0.058 A 
ATOM     18  C   UNL A   1      31.107  29.249  24.664  1.00  0.00     0.123 A 
ATOM     19  C   UNL A   1      31.068  27.895  24.987  1.00  0.00     0.058 A 
BRANCH  15  20
ATOM     20  O   UNL A   1      28.973  29.414  21.724  1.00  0.00    -0.497 OA
ATOM     21  C   UNL A   1      28.974  30.837  21.679  1.00  0.00     0.278 C 
ENDBRANCH  15  20
BRANCH  18  22
ATOM     22  O   UNL A   1      31.835  30.201  25.324  1.00  0.00    -0.497 OA
ATOM     23  C   UNL A   1      33.050  29.761  25.922  1.00  0.00     0.278 C 
ENDBRANCH  18  22
ENDBRANCH  10  14
ENDBRANCH   6   9
ENDBRANCH   4   5
ENDBRANCH   3   4
ENDBRANCH   2   3
ENDBRANCH   1   2
BRANCH   1  24
ATOM     24  C   UNL A   1      36.278  22.119  24.180  1.00  0.00     0.021 C 
BRANCH  24  25
ATOM     25  C   UNL A   1      36.954  22.169  25.545  1.00  0.00     0.116 C 
BRANCH  25  26
ATOM     26  N   UNL A   1      37.892  21.071  25.719  1.00  0.00    -0.352 N 
ATOM     27  C   UNL A   1      39.210  21.116  26.109  1.00  0.00     0.251 C 
ATOM     28  H   UNL A   1      37.534  20.173  25.532  1.00  0.00     0.163 HD
ATOM     29  O   UNL A   1      39.925  20.134  25.980  1.00  0.00    -0.269 OA
BRANCH  27  30
ATOM     30  C   UNL A   1      39.747  22.378  26.662  1.00  0.00     0.039 A 
ATOM     31  C   UNL A   1      40.709  22.327  27.673  1.00  0.00     0.014 A 
ATOM     32  C   UNL A   1      39.314  23.606  26.155  1.00  0.00     0.014 A 
ATOM     33  C   UNL A   1      41.288  23.513  28.131  1.00  0.00     0.010 A 
ATOM     34  C   UNL A   1      39.944  24.776  26.559  1.00  0.00     0.010 A 
ATOM     35  C   UNL A   1      40.937  24.742  27.552  1.00  0.00    -0.014 A 
BRANCH  35  36
ATOM     36  C   UNL A   1      41.586  26.014  27.964  1.00  0.00     0.031 A 
ATOM     37  C   UNL A   1      40.783  27.064  28.679  1.00  0.00     0.074 A 
ATOM     38  C   UNL A   1      42.860  26.261  27.606  1.00  0.00     0.049 A 
ATOM     39  N   UNL A   1      41.113  28.289  28.998  1.00  0.00    -0.248 NA
ATOM     40  C   UNL A   1      39.409  26.693  29.046  1.00  0.00     0.031 C 
ATOM     41  C   UNL A   1      43.725  25.338  26.869  1.00  0.00     0.029 A 
ATOM     42  N   UNL A   1      43.643  27.373  27.790  1.00  0.00    -0.354 N 
ATOM     43  C   UNL A   1      39.981  28.843  29.584  1.00  0.00     0.074 A 
ATOM     44  C   UNL A   1      38.939  27.841  29.507  1.00  0.00     0.031 C 
ATOM     45  C   UNL A   1      44.919  25.918  26.671  1.00  0.00     0.029 A 
ATOM     46  C   UNL A   1      44.889  27.270  27.220  1.00  0.00     0.049 A 
ATOM     47  H   UNL A   1      43.339  28.169  28.285  1.00  0.00     0.167 HD
ATOM     48  C   UNL A   1      39.832  30.066  30.156  1.00  0.00     0.034 A 
ATOM     49  C   UNL A   1      45.888  28.170  27.126  1.00  0.00     0.034 A 
ATOM     50  C   UNL A   1      40.888  31.048  30.220  1.00  0.00     0.049 A 
ATOM     51  C   UNL A   1      45.702  29.532  27.743  1.00  0.00     0.074 A 
ATOM     52  C   UNL A   1      40.873  32.295  30.821  1.00  0.00     0.029 A 
ATOM     53  N   UNL A   1      42.148  30.902  29.650  1.00  0.00    -0.354 N 
ATOM     54  N   UNL A   1      44.644  30.029  28.343  1.00  0.00    -0.248 NA
ATOM     55  C   UNL A   1      46.848  30.447  27.682  1.00  0.00     0.031 C 
ATOM     56  C   UNL A   1      42.091  32.929  30.550  1.00  0.00     0.029 A 
ATOM     57  C   UNL A   1      42.904  32.048  29.854  1.00  0.00     0.049 A 
ATOM     58  H   UNL A   1      42.460  30.100  29.170  1.00  0.00     0.167 HD
ATOM     59  C   UNL A   1      45.007  31.308  28.754  1.00  0.00     0.074 A 
ATOM     60  C   UNL A   1      46.384  31.499  28.342  1.00  0.00     0.031 C 
ATOM     61  C   UNL A   1      44.271  32.235  29.421  1.00  0.00     0.034 A 
BRANCH  48  62
ATOM     62  C   UNL A   1      38.467  30.404  30.714  1.00  0.00     0.023 A 
ATOM     63  C   UNL A   1      37.495  31.061  29.937  1.00  0.00     0.031 A 
ATOM     64  C   UNL A   1      38.155  30.134  32.058  1.00  0.00     0.131 A 
ATOM     65  C   UNL A   1      36.316  31.529  30.536  1.00  0.00     0.055 A 
ATOM     66  C   UNL A   1      36.933  30.510  32.621  1.00  0.00     0.041 A 
ATOM     67  F   UNL A   1      39.044  29.527  32.859  1.00  0.00    -0.206 F 
ATOM     68  C   UNL A   1      36.014  31.234  31.867  1.00  0.00     0.022 A 
BRANCH  65  69
ATOM     69  S   UNL A   1      35.284  32.699  29.608  1.00  0.00     0.124 S 
ATOM     70  O   UNL A   1      34.308  33.096  30.621  1.00  0.00    -0.237 OA
ATOM     71  O   UNL A   1      36.246  33.720  29.211  1.00  0.00    -0.237 OA
ATOM     72  O   UNL A   1      34.743  31.889  28.518  1.00  0.00    -0.744 OA
ENDBRANCH  65  69
ENDBRANCH  48  62
BRANCH  49  73
ATOM     73  C   UNL A   1      47.141  27.814  26.403  1.00  0.00     0.023 A 
ATOM     74  C   UNL A   1      47.235  27.932  25.008  1.00  0.00     0.031 A 
ATOM     75  C   UNL A   1      48.271  27.357  27.105  1.00  0.00     0.131 A 
ATOM     76  C   UNL A   1      48.424  27.572  24.356  1.00  0.00     0.055 A 
ATOM     77  C   UNL A   1      49.466  27.043  26.457  1.00  0.00     0.041 A 
ATOM     78  F   UNL A   1      48.237  27.238  28.443  1.00  0.00    -0.206 F 
ATOM     79  C   UNL A   1      49.544  27.142  25.071  1.00  0.00     0.022 A 
BRANCH  76  80
ATOM     80  S   UNL A   1      48.475  27.628  22.543  1.00  0.00     0.124 S 
ATOM     81  O   UNL A   1      48.561  26.212  22.204  1.00  0.00    -0.237 OA
ATOM     82  O   UNL A   1      47.214  28.289  22.225  1.00  0.00    -0.237 OA
ATOM     83  O   UNL A   1      49.675  28.413  22.261  1.00  0.00    -0.744 OA
ENDBRANCH  76  80
ENDBRANCH  49  73
BRANCH  61  84
ATOM     84  C   UNL A   1      44.961  33.529  29.784  1.00  0.00     0.023 A 
ATOM     85  C   UNL A   1      45.644  33.693  31.002  1.00  0.00     0.031 A 
ATOM     86  C   UNL A   1      44.929  34.616  28.892  1.00  0.00     0.131 A 
ATOM     87  C   UNL A   1      46.224  34.932  31.316  1.00  0.00     0.055 A 
ATOM     88  C   UNL A   1      45.562  35.826  29.182  1.00  0.00     0.041 A 
ATOM     89  F   UNL A   1      44.288  34.518  27.716  1.00  0.00    -0.206 F 
ATOM     90  C   UNL A   1      46.204  35.993  30.406  1.00  0.00     0.022 A 
BRANCH  87  91
ATOM     91  S   UNL A   1      46.927  35.172  32.970  1.00  0.00     0.124 S 
ATOM     92  O   UNL A   1      46.337  36.447  33.367  1.00  0.00    -0.237 OA
ATOM     93  O   UNL A   1      46.447  33.996  33.687  1.00  0.00    -0.237 OA
ATOM     94  O   UNL A   1      48.369  35.204  32.730  1.00  0.00    -0.744 OA
ENDBRANCH  87  91
ENDBRANCH  61  84
ENDBRANCH  35  36
ENDBRANCH  27  30
ENDBRANCH  25  26
ENDBRANCH  24  25
ENDBRANCH   1  24
TORSDOF 19
ENDMDL
MODEL 3
REMARK VINA RESULT:     -11.2      1.820      7.834
REMARK SMILES COc1cc(OC)cc(-c2ccc(C(=O)NCCCCCCNC(=O)c3ccc(-c4c5nc(c(-c6cc(S(=O)(=O)[O-])ccc6F)c6ccc([nH]6)c(-c6cc(S(=O)(=O)[O-])ccc6F)c6nc(c(-c7cc(S(=O)(=O)[O-])ccc7F)c7ccc4[nH]7)C=C6)C=C5)cc3)o2)c1
REMARK SMILES IDX 20 1 19 2 18 3 17 4 16 5 14 6 15 7 13 9 10 10 11 11 89 12
REMARK SMILES IDX 12 13 9 14 3 15 4 16 90 17 5 18 8 19 2 20 1 21 6 22 7 23
REMARK SMILES IDX 21 24 22 25 23 26 24 27 25 29 26 30 27 31 88 32 28 33 87 34
REMARK SMILES IDX 29 35 30 36 31 37 81 38 32 39 86 40 80 41 82 42 33 43 85 44
REMARK SMILES IDX 79 45 78 46 34 48 66 49 46 50 65 51 47 52 50 53 64 54 83 55
REMARK SMILES IDX 48 56 49 57 63 59 84 60 51 61 35 62 36 63 44 64 37 65 43 66
REMARK SMILES IDX 45 67 42 68 38 69 39 70 40 71 41 72 67 73 68 74 76 75 69 76
REMARK SMILES IDX 75 77 77 78 74 79 70 80 71 81 72 82 73 83 52 84 53 85 61 86
REMARK SMILES IDX 54 87 60 88 62 89 59 90 55 91 56 92 57 93 58 94
REMARK H PARENT 16 8 23 28 82 47 50 58
REMARK Flexibility Score: inf
ROOT
ATOM      1  C   UNL A   1      35.262  21.343  24.353  1.00  0.00     0.002 C 
ENDROOT
BRANCH   1   2
ATOM      2  C   UNL A   1      34.593  21.170  25.723  1.00  0.00     0.002 C 
BRANCH   2   3
ATOM      3  C   UNL A   1      33.231  20.462  25.692  1.00  0.00     0.021 C 
BRANCH   3   4
ATOM      4  C   UNL A   1      32.120  21.328  25.096  1.00  0.00     0.116 C 
BRANCH   4   5
ATOM      5  N   UNL A   1      31.220  21.791  26.130  1.00  0.00    -0.349 N 
ATOM      6  C   UNL A   1      31.116  23.003  26.775  1.00  0.00     0.287 C 
ATOM      7  O   UNL A   1      30.197  23.090  27.596  1.00  0.00    -0.266 OA
ATOM      8  H   UNL A   1      30.564  21.120  26.425  1.00  0.00     0.163 HD
BRANCH   6   9
ATOM      9  C   UNL A   1      32.018  24.101  26.479  1.00  0.00     0.192 A 
ATOM     10  C   UNL A   1      32.446  26.237  26.102  1.00  0.00     0.135 A 
ATOM     11  C   UNL A   1      33.640  25.578  25.941  1.00  0.00     0.052 A 
ATOM     12  O   UNL A   1      31.461  25.364  26.430  1.00  0.00    -0.451 OA
ATOM     13  C   UNL A   1      33.379  24.223  26.247  1.00  0.00     0.057 A 
BRANCH  10  14
ATOM     14  C   UNL A   1      32.101  27.642  26.055  1.00  0.00     0.025 A 
ATOM     15  C   UNL A   1      31.070  29.497  24.893  1.00  0.00     0.123 A 
ATOM     16  C   UNL A   1      31.779  30.380  25.714  1.00  0.00     0.092 A 
ATOM     17  C   UNL A   1      31.241  28.124  25.060  1.00  0.00     0.058 A 
ATOM     18  C   UNL A   1      32.629  29.908  26.718  1.00  0.00     0.123 A 
ATOM     19  C   UNL A   1      32.764  28.535  26.906  1.00  0.00     0.058 A 
BRANCH  15  20
ATOM     20  O   UNL A   1      30.298  30.093  23.934  1.00  0.00    -0.497 OA
ATOM     21  C   UNL A   1      29.441  29.238  23.185  1.00  0.00     0.278 C 
ENDBRANCH  15  20
BRANCH  18  22
ATOM     22  O   UNL A   1      33.290  30.875  27.427  1.00  0.00    -0.497 OA
ATOM     23  C   UNL A   1      34.599  30.540  27.876  1.00  0.00     0.278 C 
ENDBRANCH  18  22
ENDBRANCH  10  14
ENDBRANCH   6   9
ENDBRANCH   4   5
ENDBRANCH   3   4
ENDBRANCH   2   3
ENDBRANCH   1   2
BRANCH   1  24
ATOM     24  C   UNL A   1      36.564  22.150  24.368  1.00  0.00     0.021 C 
BRANCH  24  25
ATOM     25  C   UNL A   1      37.162  22.337  25.758  1.00  0.00     0.116 C 
BRANCH  25  26
ATOM     26  N   UNL A   1      38.188  21.344  26.037  1.00  0.00    -0.352 N 
ATOM     27  C   UNL A   1      39.492  21.538  26.429  1.00  0.00     0.251 C 
ATOM     28  H   UNL A   1      37.911  20.406  25.931  1.00  0.00     0.163 HD
ATOM     29  O   UNL A   1      40.290  20.615  26.395  1.00  0.00    -0.269 OA
BRANCH  27  30
ATOM     30  C   UNL A   1      39.911  22.888  26.868  1.00  0.00     0.039 A 
ATOM     31  C   UNL A   1      40.794  23.013  27.941  1.00  0.00     0.014 A 
ATOM     32  C   UNL A   1      39.446  24.019  26.193  1.00  0.00     0.014 A 
ATOM     33  C   UNL A   1      41.266  24.279  28.298  1.00  0.00     0.010 A 
ATOM     34  C   UNL A   1      39.974  25.267  26.501  1.00  0.00     0.010 A 
ATOM     35  C   UNL A   1      40.889  25.410  27.557  1.00  0.00    -0.014 A 
BRANCH  35  36
ATOM     36  C   UNL A   1      41.430  26.760  27.862  1.00  0.00     0.031 A 
ATOM     37  C   UNL A   1      42.851  27.093  27.505  1.00  0.00     0.074 A 
ATOM     38  C   UNL A   1      40.678  27.643  28.547  1.00  0.00     0.049 A 
ATOM     39  N   UNL A   1      43.559  28.151  27.807  1.00  0.00    -0.248 NA
ATOM     40  C   UNL A   1      43.584  26.074  26.740  1.00  0.00     0.031 C 
ATOM     41  C   UNL A   1      39.301  27.416  28.989  1.00  0.00     0.029 A 
ATOM     42  N   UNL A   1      40.974  28.899  29.014  1.00  0.00    -0.354 N 
ATOM     43  C   UNL A   1      44.827  27.917  27.288  1.00  0.00     0.074 A 
ATOM     44  C   UNL A   1      44.804  26.586  26.718  1.00  0.00     0.031 C 
ATOM     45  C   UNL A   1      38.869  28.498  29.656  1.00  0.00     0.029 A 
ATOM     46  C   UNL A   1      39.953  29.474  29.733  1.00  0.00     0.049 A 
ATOM     47  H   UNL A   1      41.836  29.346  28.849  1.00  0.00     0.167 HD
ATOM     48  C   UNL A   1      45.902  28.746  27.267  1.00  0.00     0.034 A 
ATOM     49  C   UNL A   1      39.901  30.643  30.401  1.00  0.00     0.034 A 
ATOM     50  C   UNL A   1      45.899  30.069  27.842  1.00  0.00     0.049 A 
ATOM     51  C   UNL A   1      41.109  31.543  30.391  1.00  0.00     0.074 A 
ATOM     52  C   UNL A   1      46.906  31.019  27.832  1.00  0.00     0.029 A 
ATOM     53  N   UNL A   1      44.838  30.629  28.545  1.00  0.00    -0.354 N 
ATOM     54  N   UNL A   1      42.288  31.335  29.851  1.00  0.00    -0.248 NA
ATOM     55  C   UNL A   1      40.975  32.838  31.068  1.00  0.00     0.031 C 
ATOM     56  C   UNL A   1      46.484  32.116  28.591  1.00  0.00     0.029 A 
ATOM     57  C   UNL A   1      45.179  31.894  29.003  1.00  0.00     0.049 A 
ATOM     58  H   UNL A   1      43.968  30.192  28.696  1.00  0.00     0.167 HD
ATOM     59  C   UNL A   1      43.029  32.486  30.100  1.00  0.00     0.074 A 
ATOM     60  C   UNL A   1      42.158  33.387  30.830  1.00  0.00     0.031 C 
ATOM     61  C   UNL A   1      44.309  32.776  29.748  1.00  0.00     0.034 A 
BRANCH  48  62
ATOM     62  C   UNL A   1      47.169  28.213  26.633  1.00  0.00     0.023 A 
ATOM     63  C   UNL A   1      47.397  28.310  25.247  1.00  0.00     0.031 A 
ATOM     64  C   UNL A   1      48.128  27.535  27.406  1.00  0.00     0.131 A 
ATOM     65  C   UNL A   1      48.485  27.642  24.666  1.00  0.00     0.055 A 
ATOM     66  C   UNL A   1      49.265  26.961  26.833  1.00  0.00     0.041 A 
ATOM     67  F   UNL A   1      47.962  27.391  28.730  1.00  0.00    -0.206 F 
ATOM     68  C   UNL A   1      49.438  26.991  25.452  1.00  0.00     0.022 A 
BRANCH  65  69
ATOM     69  S   UNL A   1      48.521  27.463  22.861  1.00  0.00     0.124 S 
ATOM     70  O   UNL A   1      47.334  28.221  22.467  1.00  0.00    -0.237 OA
ATOM     71  O   UNL A   1      49.805  28.057  22.511  1.00  0.00    -0.237 OA
ATOM     72  O   UNL A   1      48.423  26.019  22.657  1.00  0.00    -0.744 OA
ENDBRANCH  65  69
ENDBRANCH  48  62
BRANCH  49  73
ATOM     73  C   UNL A   1      38.668  31.014  31.151  1.00  0.00     0.023 A 
ATOM     74  C   UNL A   1      37.728  31.905  30.612  1.00  0.00     0.031 A 
ATOM     75  C   UNL A   1      38.408  30.469  32.422  1.00  0.00     0.131 A 
ATOM     76  C   UNL A   1      36.586  32.248  31.352  1.00  0.00     0.055 A 
ATOM     77  C   UNL A   1      37.249  30.778  33.135  1.00  0.00     0.041 A 
ATOM     78  F   UNL A   1      39.271  29.601  32.978  1.00  0.00    -0.206 F 
ATOM     79  C   UNL A   1      36.333  31.679  32.602  1.00  0.00     0.022 A 
BRANCH  76  80
ATOM     80  S   UNL A   1      35.449  33.489  30.674  1.00  0.00     0.124 S 
ATOM     81  O   UNL A   1      34.187  32.758  30.660  1.00  0.00    -0.237 OA
ATOM     82  O   UNL A   1      35.557  34.565  31.653  1.00  0.00    -0.237 OA
ATOM     83  O   UNL A   1      36.014  33.786  29.360  1.00  0.00    -0.744 OA
ENDBRANCH  76  80
ENDBRANCH  49  73
BRANCH  61  84
ATOM     84  C   UNL A   1      44.829  34.146  30.115  1.00  0.00     0.023 A 
ATOM     85  C   UNL A   1      45.507  34.387  31.322  1.00  0.00     0.031 A 
ATOM     86  C   UNL A   1      44.637  35.229  29.237  1.00  0.00     0.131 A 
ATOM     87  C   UNL A   1      45.925  35.688  31.642  1.00  0.00     0.055 A 
ATOM     88  C   UNL A   1      45.110  36.508  29.531  1.00  0.00     0.041 A 
ATOM     89  F   UNL A   1      43.991  35.059  28.072  1.00  0.00    -0.206 F 
ATOM     90  C   UNL A   1      45.747  36.747  30.746  1.00  0.00     0.022 A 
BRANCH  87  91
ATOM     91  S   UNL A   1      46.622  36.003  33.287  1.00  0.00     0.124 S 
ATOM     92  O   UNL A   1      47.640  34.961  33.388  1.00  0.00    -0.237 OA
ATOM     93  O   UNL A   1      47.117  37.369  33.159  1.00  0.00    -0.237 OA
ATOM     94  O   UNL A   1      45.477  35.841  34.182  1.00  0.00    -0.744 OA
ENDBRANCH  87  91
ENDBRANCH  61  84
ENDBRANCH  35  36
ENDBRANCH  27  30
ENDBRANCH  25  26
ENDBRANCH  24  25
ENDBRANCH   1  24
TORSDOF 19
ENDMDL
