MODEL 1
REMARK VINA RESULT:     -12.2      0.000      0.000
REMARK SMILES Cc1cc(Cl)c2c(c1)C=C(C(=O)NCCCCCCNC(=O)c1ccc(-c3c4nc(c(-c5cc(S(=O)(=O)[O-])ccc5F)c5ccc([nH]5)c(-c5cc(S(=O)(=O)[O-])ccc5F)c5nc(c(-c6cc(S(=O)(=O)[O-])ccc6F)c6ccc3[nH]6)C=C5)C=C4)cc1)[C@@H](C(F)(F)F)O2
REMARK SMILES IDX 17 1 16 2 15 3 14 4 13 5 11 6 12 7 10 9 1 10 2 11 3 12 8 13
REMARK SMILES IDX 4 14 7 15 5 16 6 17 9 18 91 19 86 20 87 21 88 22 89 23 90 24
REMARK SMILES IDX 18 25 19 26 20 27 21 28 22 30 23 31 24 32 85 33 25 34 84 35
REMARK SMILES IDX 26 36 27 37 28 38 78 39 29 40 83 41 77 42 79 43 30 44 82 45
REMARK SMILES IDX 76 46 75 47 31 49 63 50 43 51 62 52 44 53 47 54 61 55 80 56
REMARK SMILES IDX 45 57 46 58 60 60 81 61 48 62 32 63 33 64 41 65 34 66 40 67
REMARK SMILES IDX 42 68 39 69 35 70 36 71 37 72 38 73 64 74 65 75 73 76 66 77
REMARK SMILES IDX 72 78 74 79 71 80 67 81 68 82 69 83 70 84 49 85 50 86 58 87
REMARK SMILES IDX 51 88 57 89 59 90 56 91 52 92 53 93 54 94 55 95
REMARK H PARENT 13 8 20 29 79 48 47 59
REMARK Flexibility Score: inf
ROOT
ATOM      1  C   UNL A   1      31.311  28.870  25.075  1.00  0.00     0.002 C 
ENDROOT
BRANCH   1   2
ATOM      2  C   UNL A   1      30.978  28.812  23.578  1.00  0.00     0.002 C 
BRANCH   2   3
ATOM      3  C   UNL A   1      30.011  27.697  23.174  1.00  0.00     0.021 C 
BRANCH   3   4
ATOM      4  C   UNL A   1      30.652  26.314  23.148  1.00  0.00     0.116 C 
BRANCH   4   5
ATOM      5  N   UNL A   1      31.559  26.162  22.024  1.00  0.00    -0.352 N 
ATOM      6  C   UNL A   1      32.623  25.387  21.709  1.00  0.00     0.251 C 
ATOM      7  O   UNL A   1      33.103  25.579  20.586  1.00  0.00    -0.270 OA
ATOM      8  H   UNL A   1      31.342  26.790  21.297  1.00  0.00     0.163 HD
BRANCH   6   9
ATOM      9  C   UNL A   1      33.232  24.357  22.604  1.00  0.00     0.067 C 
ATOM     10  C   UNL A   1      32.335  18.501  24.410  1.00  0.00     0.044 C 
ATOM     11  C   UNL A   1      33.057  19.810  24.290  1.00  0.00    -0.049 A 
ATOM     12  C   UNL A   1      34.253  20.022  24.985  1.00  0.00     0.028 A 
ATOM     13  C   UNL A   1      32.518  20.850  23.518  1.00  0.00     0.015 A 
ATOM     14  C   UNL A   1      34.912  21.247  24.889  1.00  0.00     0.084 A 
ATOM     15  C   UNL A   1      33.178  22.081  23.421  1.00  0.00     0.019 A 
ATOM     16  Cl  UNL A   1      36.396  21.452  25.749  1.00  0.00    -0.080 Cl
ATOM     17  C   UNL A   1      34.373  22.278  24.114  1.00  0.00     0.146 A 
ATOM     18  C   UNL A   1      32.653  23.142  22.569  1.00  0.00     0.025 C 
ATOM     19  O   UNL A   1      35.076  23.444  24.025  1.00  0.00    -0.474 OA
ATOM     20  C   UNL A   1      34.384  24.617  23.532  1.00  0.00     0.314 C 
BRANCH  20  21
ATOM     21  C   UNL A   1      33.996  25.510  24.723  1.00  0.00     0.429 C 
ATOM     22  F   UNL A   1      32.786  25.151  25.217  1.00  0.00    -0.167 F 
ATOM     23  F   UNL A   1      34.871  25.418  25.753  1.00  0.00    -0.167 F 
ATOM     24  F   UNL A   1      33.929  26.817  24.384  1.00  0.00    -0.167 F 
ENDBRANCH  20  21
ENDBRANCH   6   9
ENDBRANCH   4   5
ENDBRANCH   3   4
ENDBRANCH   2   3
ENDBRANCH   1   2
BRANCH   1  25
ATOM     25  C   UNL A   1      32.567  29.671  25.433  1.00  0.00     0.021 C 
BRANCH  25  26
ATOM     26  C   UNL A   1      32.580  30.219  26.855  1.00  0.00     0.116 C 
BRANCH  26  27
ATOM     27  N   UNL A   1      32.646  31.670  26.869  1.00  0.00    -0.352 N 
ATOM     28  C   UNL A   1      33.529  32.488  27.523  1.00  0.00     0.251 C 
ATOM     29  H   UNL A   1      31.959  32.130  26.334  1.00  0.00     0.163 HD
ATOM     30  O   UNL A   1      33.291  33.689  27.625  1.00  0.00    -0.269 OA
BRANCH  28  31
ATOM     31  C   UNL A   1      34.755  31.912  28.111  1.00  0.00     0.039 A 
ATOM     32  C   UNL A   1      35.883  32.721  28.258  1.00  0.00     0.014 A 
ATOM     33  C   UNL A   1      34.787  30.571  28.512  1.00  0.00     0.014 A 
ATOM     34  C   UNL A   1      37.031  32.196  28.853  1.00  0.00     0.010 A 
ATOM     35  C   UNL A   1      35.906  30.073  29.169  1.00  0.00     0.010 A 
ATOM     36  C   UNL A   1      37.043  30.877  29.337  1.00  0.00    -0.014 A 
BRANCH  36  37
ATOM     37  C   UNL A   1      38.249  30.315  29.992  1.00  0.00     0.031 A 
ATOM     38  C   UNL A   1      38.619  30.755  31.382  1.00  0.00     0.074 A 
ATOM     39  C   UNL A   1      39.017  29.427  29.330  1.00  0.00     0.049 A 
ATOM     40  N   UNL A   1      39.655  30.419  32.105  1.00  0.00    -0.248 NA
ATOM     41  C   UNL A   1      37.715  31.713  32.039  1.00  0.00     0.031 C 
ATOM     42  C   UNL A   1      38.762  28.936  27.973  1.00  0.00     0.029 A 
ATOM     43  N   UNL A   1      40.160  28.771  29.708  1.00  0.00    -0.354 N 
ATOM     44  C   UNL A   1      39.525  31.117  33.300  1.00  0.00     0.074 A 
ATOM     45  C   UNL A   1      38.346  31.945  33.181  1.00  0.00     0.031 C 
ATOM     46  C   UNL A   1      39.696  28.027  27.652  1.00  0.00     0.029 A 
ATOM     47  C   UNL A   1      40.643  27.903  28.755  1.00  0.00     0.049 A 
ATOM     48  H   UNL A   1      40.597  28.909  30.580  1.00  0.00     0.167 HD
ATOM     49  C   UNL A   1      40.301  31.047  34.407  1.00  0.00     0.034 A 
ATOM     50  C   UNL A   1      41.726  27.101  28.770  1.00  0.00     0.034 A 
ATOM     51  C   UNL A   1      41.462  30.204  34.522  1.00  0.00     0.049 A 
ATOM     52  C   UNL A   1      42.608  27.090  29.992  1.00  0.00     0.074 A 
ATOM     53  C   UNL A   1      42.302  30.043  35.609  1.00  0.00     0.029 A 
ATOM     54  N   UNL A   1      41.945  29.377  33.517  1.00  0.00    -0.354 N 
ATOM     55  N   UNL A   1      42.468  27.757  31.113  1.00  0.00    -0.248 NA
ATOM     56  C   UNL A   1      43.792  26.223  29.950  1.00  0.00     0.031 C 
ATOM     57  C   UNL A   1      43.326  29.165  35.244  1.00  0.00     0.029 A 
ATOM     58  C   UNL A   1      43.087  28.724  33.952  1.00  0.00     0.049 A 
ATOM     59  H   UNL A   1      41.537  29.270  32.628  1.00  0.00     0.167 HD
ATOM     60  C   UNL A   1      43.534  27.370  31.920  1.00  0.00     0.074 A 
ATOM     61  C   UNL A   1      44.303  26.406  31.160  1.00  0.00     0.031 C 
ATOM     62  C   UNL A   1      43.847  27.773  33.176  1.00  0.00     0.034 A 
BRANCH  49  63
ATOM     63  C   UNL A   1      39.920  31.903  35.585  1.00  0.00     0.023 A 
ATOM     64  C   UNL A   1      38.973  31.467  36.527  1.00  0.00     0.031 A 
ATOM     65  C   UNL A   1      40.533  33.151  35.789  1.00  0.00     0.131 A 
ATOM     66  C   UNL A   1      38.640  32.287  37.614  1.00  0.00     0.055 A 
ATOM     67  C   UNL A   1      40.243  33.936  36.906  1.00  0.00     0.041 A 
ATOM     68  F   UNL A   1      41.430  33.623  34.909  1.00  0.00    -0.206 F 
ATOM     69  C   UNL A   1      39.288  33.507  37.823  1.00  0.00     0.022 A 
BRANCH  66  70
ATOM     70  S   UNL A   1      37.298  31.769  38.716  1.00  0.00     0.124 S 
ATOM     71  O   UNL A   1      37.028  30.417  38.235  1.00  0.00    -0.237 OA
ATOM     72  O   UNL A   1      37.913  31.867  40.035  1.00  0.00    -0.237 OA
ATOM     73  O   UNL A   1      36.240  32.742  38.448  1.00  0.00    -0.744 OA
ENDBRANCH  66  70
ENDBRANCH  49  63
BRANCH  50  74
ATOM     74  C   UNL A   1      42.041  26.243  27.594  1.00  0.00     0.023 A 
ATOM     75  C   UNL A   1      41.682  24.886  27.577  1.00  0.00     0.031 A 
ATOM     76  C   UNL A   1      42.720  26.761  26.476  1.00  0.00     0.131 A 
ATOM     77  C   UNL A   1      42.027  24.085  26.477  1.00  0.00     0.055 A 
ATOM     78  C   UNL A   1      43.023  25.970  25.367  1.00  0.00     0.041 A 
ATOM     79  F   UNL A   1      43.081  28.053  26.441  1.00  0.00    -0.206 F 
ATOM     80  C   UNL A   1      42.683  24.621  25.367  1.00  0.00     0.022 A 
BRANCH  77  81
ATOM     81  S   UNL A   1      41.646  22.313  26.538  1.00  0.00     0.124 S 
ATOM     82  O   UNL A   1      40.197  22.315  26.359  1.00  0.00    -0.237 OA
ATOM     83  O   UNL A   1      42.430  21.794  25.422  1.00  0.00    -0.237 OA
ATOM     84  O   UNL A   1      42.111  21.911  27.863  1.00  0.00    -0.744 OA
ENDBRANCH  77  81
ENDBRANCH  50  74
BRANCH  62  85
ATOM     85  C   UNL A   1      45.058  27.158  33.824  1.00  0.00     0.023 A 
ATOM     86  C   UNL A   1      44.971  25.956  34.545  1.00  0.00     0.031 A 
ATOM     87  C   UNL A   1      46.322  27.754  33.671  1.00  0.00     0.131 A 
ATOM     88  C   UNL A   1      46.127  25.399  35.110  1.00  0.00     0.055 A 
ATOM     89  C   UNL A   1      47.475  27.169  34.193  1.00  0.00     0.041 A 
ATOM     90  F   UNL A   1      46.458  28.902  32.986  1.00  0.00    -0.206 F 
ATOM     91  C   UNL A   1      47.380  25.987  34.923  1.00  0.00     0.022 A 
BRANCH  88  92
ATOM     92  S   UNL A   1      45.965  23.907  36.126  1.00  0.00     0.124 S 
ATOM     93  O   UNL A   1      44.539  23.620  36.018  1.00  0.00    -0.237 OA
ATOM     94  O   UNL A   1      46.856  22.967  35.451  1.00  0.00    -0.237 OA
ATOM     95  O   UNL A   1      46.413  24.341  37.448  1.00  0.00    -0.744 OA
ENDBRANCH  88  92
ENDBRANCH  62  85
ENDBRANCH  36  37
ENDBRANCH  28  31
ENDBRANCH  26  27
ENDBRANCH  25  26
ENDBRANCH   1  25
TORSDOF 17
ENDMDL
MODEL 2
REMARK VINA RESULT:     -12.2      1.485      7.584
REMARK SMILES Cc1cc(Cl)c2c(c1)C=C(C(=O)NCCCCCCNC(=O)c1ccc(-c3c4nc(c(-c5cc(S(=O)(=O)[O-])ccc5F)c5ccc([nH]5)c(-c5cc(S(=O)(=O)[O-])ccc5F)c5nc(c(-c6cc(S(=O)(=O)[O-])ccc6F)c6ccc3[nH]6)C=C5)C=C4)cc1)[C@@H](C(F)(F)F)O2
REMARK SMILES IDX 17 1 16 2 15 3 14 4 13 5 11 6 12 7 10 9 1 10 2 11 3 12 8 13
REMARK SMILES IDX 4 14 7 15 5 16 6 17 9 18 91 19 86 20 87 21 88 22 89 23 90 24
REMARK SMILES IDX 18 25 19 26 20 27 21 28 22 30 23 31 24 32 85 33 25 34 84 35
REMARK SMILES IDX 26 36 27 37 28 38 78 39 29 40 83 41 77 42 79 43 30 44 82 45
REMARK SMILES IDX 76 46 75 47 31 49 63 50 43 51 62 52 44 53 47 54 61 55 80 56
REMARK SMILES IDX 45 57 46 58 60 60 81 61 48 62 32 63 33 64 41 65 34 66 40 67
REMARK SMILES IDX 42 68 39 69 35 70 36 71 37 72 38 73 64 74 65 75 73 76 66 77
REMARK SMILES IDX 72 78 74 79 71 80 67 81 68 82 69 83 70 84 49 85 50 86 58 87
REMARK SMILES IDX 51 88 57 89 59 90 56 91 52 92 53 93 54 94 55 95
REMARK H PARENT 13 8 20 29 79 48 47 59
REMARK Flexibility Score: inf
ROOT
ATOM      1  C   UNL A   1      30.984  29.350  24.136  1.00  0.00     0.002 C 
ENDROOT
BRANCH   1   2
ATOM      2  C   UNL A   1      30.121  28.144  23.741  1.00  0.00     0.002 C 
BRANCH   2   3
ATOM      3  C   UNL A   1      30.628  26.792  24.247  1.00  0.00     0.021 C 
BRANCH   3   4
ATOM      4  C   UNL A   1      30.497  25.670  23.223  1.00  0.00     0.116 C 
BRANCH   4   5
ATOM      5  N   UNL A   1      31.513  25.761  22.190  1.00  0.00    -0.352 N 
ATOM      6  C   UNL A   1      32.680  25.143  21.894  1.00  0.00     0.251 C 
ATOM      7  O   UNL A   1      33.236  25.532  20.861  1.00  0.00    -0.270 OA
ATOM      8  H   UNL A   1      31.297  26.459  21.530  1.00  0.00     0.163 HD
BRANCH   6   9
ATOM      9  C   UNL A   1      33.313  24.063  22.710  1.00  0.00     0.067 C 
ATOM     10  C   UNL A   1      32.335  18.186  24.399  1.00  0.00     0.044 C 
ATOM     11  C   UNL A   1      33.094  19.472  24.266  1.00  0.00    -0.049 A 
ATOM     12  C   UNL A   1      34.344  19.620  24.877  1.00  0.00     0.028 A 
ATOM     13  C   UNL A   1      32.540  20.555  23.568  1.00  0.00     0.015 A 
ATOM     14  C   UNL A   1      35.039  20.824  24.771  1.00  0.00     0.084 A 
ATOM     15  C   UNL A   1      33.235  21.765  23.459  1.00  0.00     0.019 A 
ATOM     16  Cl  UNL A   1      36.587  20.950  25.525  1.00  0.00    -0.080 Cl
ATOM     17  C   UNL A   1      34.484  21.898  24.069  1.00  0.00     0.146 A 
ATOM     18  C   UNL A   1      32.690  22.871  22.681  1.00  0.00     0.025 C 
ATOM     19  O   UNL A   1      35.221  23.041  23.964  1.00  0.00    -0.474 OA
ATOM     20  C   UNL A   1      34.539  24.253  23.558  1.00  0.00     0.314 C 
BRANCH  20  21
ATOM     21  C   UNL A   1      34.270  25.119  24.802  1.00  0.00     0.429 C 
ATOM     22  F   UNL A   1      34.072  26.413  24.452  1.00  0.00    -0.167 F 
ATOM     23  F   UNL A   1      33.163  24.732  25.479  1.00  0.00    -0.167 F 
ATOM     24  F   UNL A   1      35.297  25.085  25.682  1.00  0.00    -0.167 F 
ENDBRANCH  20  21
ENDBRANCH   6   9
ENDBRANCH   4   5
ENDBRANCH   3   4
ENDBRANCH   2   3
ENDBRANCH   1   2
BRANCH   1  25
ATOM     25  C   UNL A   1      32.490  29.077  24.212  1.00  0.00     0.021 C 
BRANCH  25  26
ATOM     26  C   UNL A   1      33.141  29.508  25.521  1.00  0.00     0.116 C 
BRANCH  26  27
ATOM     27  N   UNL A   1      32.709  30.836  25.922  1.00  0.00    -0.352 N 
ATOM     28  C   UNL A   1      33.150  31.610  26.964  1.00  0.00     0.251 C 
ATOM     29  H   UNL A   1      32.000  31.235  25.367  1.00  0.00     0.163 HD
ATOM     30  O   UNL A   1      32.507  32.598  27.306  1.00  0.00    -0.269 OA
BRANCH  28  31
ATOM     31  C   UNL A   1      34.389  31.236  27.673  1.00  0.00     0.039 A 
ATOM     32  C   UNL A   1      35.384  32.199  27.856  1.00  0.00     0.014 A 
ATOM     33  C   UNL A   1      34.568  29.933  28.152  1.00  0.00     0.014 A 
ATOM     34  C   UNL A   1      36.539  31.866  28.563  1.00  0.00     0.010 A 
ATOM     35  C   UNL A   1      35.687  29.625  28.917  1.00  0.00     0.010 A 
ATOM     36  C   UNL A   1      36.688  30.586  29.122  1.00  0.00    -0.014 A 
BRANCH  36  37
ATOM     37  C   UNL A   1      37.902  30.226  29.896  1.00  0.00     0.031 A 
ATOM     38  C   UNL A   1      38.921  29.295  29.298  1.00  0.00     0.074 A 
ATOM     39  C   UNL A   1      38.075  30.722  31.137  1.00  0.00     0.049 A 
ATOM     40  N   UNL A   1      40.018  28.824  29.829  1.00  0.00    -0.248 NA
ATOM     41  C   UNL A   1      38.662  28.816  27.930  1.00  0.00     0.031 C 
ATOM     42  C   UNL A   1      37.147  31.626  31.823  1.00  0.00     0.029 A 
ATOM     43  N   UNL A   1      39.092  30.548  32.040  1.00  0.00    -0.354 N 
ATOM     44  C   UNL A   1      40.583  28.001  28.862  1.00  0.00     0.074 A 
ATOM     45  C   UNL A   1      39.675  27.984  27.737  1.00  0.00     0.031 C 
ATOM     46  C   UNL A   1      37.660  31.957  33.018  1.00  0.00     0.029 A 
ATOM     47  C   UNL A   1      38.926  31.257  33.208  1.00  0.00     0.049 A 
ATOM     48  H   UNL A   1      39.870  29.968  31.869  1.00  0.00     0.167 HD
ATOM     49  C   UNL A   1      41.767  27.346  28.898  1.00  0.00     0.034 A 
ATOM     50  C   UNL A   1      39.706  31.331  34.305  1.00  0.00     0.034 A 
ATOM     51  C   UNL A   1      42.673  27.385  30.015  1.00  0.00     0.049 A 
ATOM     52  C   UNL A   1      40.988  30.542  34.343  1.00  0.00     0.074 A 
ATOM     53  C   UNL A   1      43.908  26.775  30.142  1.00  0.00     0.029 A 
ATOM     54  N   UNL A   1      42.445  28.075  31.198  1.00  0.00    -0.354 N 
ATOM     55  N   UNL A   1      41.506  29.769  33.417  1.00  0.00    -0.248 NA
ATOM     56  C   UNL A   1      41.789  30.632  35.570  1.00  0.00     0.031 C 
ATOM     57  C   UNL A   1      44.401  27.047  31.421  1.00  0.00     0.029 A 
ATOM     58  C   UNL A   1      43.506  27.883  32.068  1.00  0.00     0.049 A 
ATOM     59  H   UNL A   1      41.649  28.620  31.390  1.00  0.00     0.167 HD
ATOM     60  C   UNL A   1      42.706  29.300  33.943  1.00  0.00     0.074 A 
ATOM     61  C   UNL A   1      42.839  29.883  35.262  1.00  0.00     0.031 C 
ATOM     62  C   UNL A   1      43.617  28.465  33.384  1.00  0.00     0.034 A 
BRANCH  49  63
ATOM     63  C   UNL A   1      42.155  26.531  27.692  1.00  0.00     0.023 A 
ATOM     64  C   UNL A   1      41.803  25.176  27.585  1.00  0.00     0.031 A 
ATOM     65  C   UNL A   1      42.851  27.123  26.624  1.00  0.00     0.131 A 
ATOM     66  C   UNL A   1      42.178  24.444  26.449  1.00  0.00     0.055 A 
ATOM     67  C   UNL A   1      43.167  26.406  25.470  1.00  0.00     0.041 A 
ATOM     68  F   UNL A   1      43.228  28.410  26.685  1.00  0.00    -0.206 F 
ATOM     69  C   UNL A   1      42.835  25.057  25.380  1.00  0.00     0.022 A 
BRANCH  66  70
ATOM     70  S   UNL A   1      41.855  22.661  26.417  1.00  0.00     0.124 S 
ATOM     71  O   UNL A   1      42.551  22.215  27.621  1.00  0.00    -0.237 OA
ATOM     72  O   UNL A   1      40.397  22.601  26.462  1.00  0.00    -0.237 OA
ATOM     73  O   UNL A   1      42.457  22.227  25.158  1.00  0.00    -0.744 OA
ENDBRANCH  66  70
ENDBRANCH  49  63
BRANCH  50  74
ATOM     74  C   UNL A   1      39.298  32.182  35.458  1.00  0.00     0.023 A 
ATOM     75  C   UNL A   1      39.742  33.510  35.565  1.00  0.00     0.031 A 
ATOM     76  C   UNL A   1      38.473  31.677  36.480  1.00  0.00     0.131 A 
ATOM     77  C   UNL A   1      39.382  34.280  36.681  1.00  0.00     0.055 A 
ATOM     78  C   UNL A   1      38.084  32.460  37.566  1.00  0.00     0.041 A 
ATOM     79  F   UNL A   1      38.018  30.416  36.422  1.00  0.00    -0.206 F 
ATOM     80  C   UNL A   1      38.546  33.768  37.676  1.00  0.00     0.022 A 
BRANCH  77  81
ATOM     81  S   UNL A   1      40.065  35.952  36.841  1.00  0.00     0.124 S 
ATOM     82  O   UNL A   1      39.670  36.555  35.572  1.00  0.00    -0.237 OA
ATOM     83  O   UNL A   1      39.378  36.449  38.029  1.00  0.00    -0.237 OA
ATOM     84  O   UNL A   1      41.498  35.721  37.004  1.00  0.00    -0.744 OA
ENDBRANCH  77  81
ENDBRANCH  50  74
BRANCH  62  85
ATOM     85  C   UNL A   1      44.853  28.148  34.183  1.00  0.00     0.023 A 
ATOM     86  C   UNL A   1      44.909  27.027  35.028  1.00  0.00     0.031 A 
ATOM     87  C   UNL A   1      46.004  28.944  34.053  1.00  0.00     0.131 A 
ATOM     88  C   UNL A   1      46.087  26.748  35.734  1.00  0.00     0.055 A 
ATOM     89  C   UNL A   1      47.188  28.633  34.719  1.00  0.00     0.041 A 
ATOM     90  F   UNL A   1      46.000  30.023  33.253  1.00  0.00    -0.206 F 
ATOM     91  C   UNL A   1      47.233  27.532  35.571  1.00  0.00     0.022 A 
BRANCH  88  92
ATOM     92  S   UNL A   1      46.095  25.361  36.900  1.00  0.00     0.124 S 
ATOM     93  O   UNL A   1      44.707  25.338  37.352  1.00  0.00    -0.237 OA
ATOM     94  O   UNL A   1      46.508  24.243  36.059  1.00  0.00    -0.237 OA
ATOM     95  O   UNL A   1      47.070  25.766  37.911  1.00  0.00    -0.744 OA
ENDBRANCH  88  92
ENDBRANCH  62  85
ENDBRANCH  36  37
ENDBRANCH  28  31
ENDBRANCH  26  27
ENDBRANCH  25  26
ENDBRANCH   1  25
TORSDOF 17
ENDMDL
MODEL 3
REMARK VINA RESULT:     -12.2      5.253      7.921
REMARK SMILES Cc1cc(Cl)c2c(c1)C=C(C(=O)NCCCCCCNC(=O)c1ccc(-c3c4nc(c(-c5cc(S(=O)(=O)[O-])ccc5F)c5ccc([nH]5)c(-c5cc(S(=O)(=O)[O-])ccc5F)c5nc(c(-c6cc(S(=O)(=O)[O-])ccc6F)c6ccc3[nH]6)C=C5)C=C4)cc1)[C@@H](C(F)(F)F)O2
REMARK SMILES IDX 17 1 16 2 15 3 14 4 13 5 11 6 12 7 10 9 1 10 2 11 3 12 8 13
REMARK SMILES IDX 4 14 7 15 5 16 6 17 9 18 91 19 86 20 87 21 88 22 89 23 90 24
REMARK SMILES IDX 18 25 19 26 20 27 21 28 22 30 23 31 24 32 85 33 25 34 84 35
REMARK SMILES IDX 26 36 27 37 28 38 78 39 29 40 83 41 77 42 79 43 30 44 82 45
REMARK SMILES IDX 76 46 75 47 31 49 63 50 43 51 62 52 44 53 47 54 61 55 80 56
REMARK SMILES IDX 45 57 46 58 60 60 81 61 48 62 32 63 33 64 41 65 34 66 40 67
REMARK SMILES IDX 42 68 39 69 35 70 36 71 37 72 38 73 64 74 65 75 73 76 66 77
REMARK SMILES IDX 72 78 74 79 71 80 67 81 68 82 69 83 70 84 49 85 50 86 58 87
REMARK SMILES IDX 51 88 57 89 59 90 56 91 52 92 53 93 54 94 55 95
REMARK H PARENT 13 8 20 29 79 48 47 59
REMARK Flexibility Score: inf
ROOT
ATOM      1  C   UNL A   1      34.506  22.366  23.836  1.00  0.00     0.002 C 
ENDROOT
BRANCH   1   2
ATOM      2  C   UNL A   1      33.957  21.028  24.349  1.00  0.00     0.002 C 
BRANCH   2   3
ATOM      3  C   UNL A   1      32.648  21.126  25.135  1.00  0.00     0.021 C 
BRANCH   3   4
ATOM      4  C   UNL A   1      32.775  21.911  26.436  1.00  0.00     0.116 C 
BRANCH   4   5
ATOM      5  N   UNL A   1      31.505  22.485  26.845  1.00  0.00    -0.352 N 
ATOM      6  C   UNL A   1      30.857  23.663  26.691  1.00  0.00     0.251 C 
ATOM      7  O   UNL A   1      29.734  23.719  27.205  1.00  0.00    -0.270 OA
ATOM      8  H   UNL A   1      30.974  21.848  27.376  1.00  0.00     0.163 HD
BRANCH   6   9
ATOM      9  C   UNL A   1      31.398  24.855  25.971  1.00  0.00     0.067 C 
ATOM     10  C   UNL A   1      31.948  30.985  26.663  1.00  0.00     0.044 C 
ATOM     11  C   UNL A   1      32.168  29.646  26.025  1.00  0.00    -0.049 A 
ATOM     12  C   UNL A   1      32.865  29.547  24.815  1.00  0.00     0.028 A 
ATOM     13  C   UNL A   1      31.639  28.485  26.608  1.00  0.00     0.015 A 
ATOM     14  C   UNL A   1      33.049  28.304  24.212  1.00  0.00     0.084 A 
ATOM     15  C   UNL A   1      31.823  27.236  26.004  1.00  0.00     0.019 A 
ATOM     16  Cl  UNL A   1      33.935  28.232  22.730  1.00  0.00    -0.080 Cl
ATOM     17  C   UNL A   1      32.524  27.150  24.800  1.00  0.00     0.146 A 
ATOM     18  C   UNL A   1      31.328  26.020  26.640  1.00  0.00     0.025 C 
ATOM     19  O   UNL A   1      32.765  25.955  24.188  1.00  0.00    -0.474 OA
ATOM     20  C   UNL A   1      31.953  24.819  24.575  1.00  0.00     0.314 C 
BRANCH  20  21
ATOM     21  C   UNL A   1      30.865  24.593  23.510  1.00  0.00     0.429 C 
ATOM     22  F   UNL A   1      31.272  25.054  22.303  1.00  0.00    -0.167 F 
ATOM     23  F   UNL A   1      30.567  23.283  23.338  1.00  0.00    -0.167 F 
ATOM     24  F   UNL A   1      29.707  25.220  23.819  1.00  0.00    -0.167 F 
ENDBRANCH  20  21
ENDBRANCH   6   9
ENDBRANCH   4   5
ENDBRANCH   3   4
ENDBRANCH   2   3
ENDBRANCH   1   2
BRANCH   1  25
ATOM     25  C   UNL A   1      35.985  22.625  24.142  1.00  0.00     0.021 C 
BRANCH  25  26
ATOM     26  C   UNL A   1      36.365  22.444  25.607  1.00  0.00     0.116 C 
BRANCH  26  27
ATOM     27  N   UNL A   1      37.248  21.306  25.794  1.00  0.00    -0.352 N 
ATOM     28  C   UNL A   1      38.596  21.289  26.040  1.00  0.00     0.251 C 
ATOM     29  H   UNL A   1      36.817  20.422  25.735  1.00  0.00     0.163 HD
ATOM     30  O   UNL A   1      39.226  20.242  25.926  1.00  0.00    -0.269 OA
BRANCH  28  31
ATOM     31  C   UNL A   1      39.278  22.539  26.429  1.00  0.00     0.039 A 
ATOM     32  C   UNL A   1      40.354  22.478  27.316  1.00  0.00     0.014 A 
ATOM     33  C   UNL A   1      38.851  23.770  25.918  1.00  0.00     0.014 A 
ATOM     34  C   UNL A   1      41.033  23.649  27.654  1.00  0.00     0.010 A 
ATOM     35  C   UNL A   1      39.573  24.925  26.200  1.00  0.00     0.010 A 
ATOM     36  C   UNL A   1      40.665  24.877  27.078  1.00  0.00    -0.014 A 
BRANCH  36  37
ATOM     37  C   UNL A   1      41.393  26.126  27.412  1.00  0.00     0.031 A 
ATOM     38  C   UNL A   1      40.734  27.167  28.276  1.00  0.00     0.074 A 
ATOM     39  C   UNL A   1      42.633  26.328  26.924  1.00  0.00     0.049 A 
ATOM     40  N   UNL A   1      41.182  28.340  28.639  1.00  0.00    -0.248 NA
ATOM     41  C   UNL A   1      39.387  26.856  28.782  1.00  0.00     0.031 C 
ATOM     42  C   UNL A   1      43.366  25.393  26.066  1.00  0.00     0.029 A 
ATOM     43  N   UNL A   1      43.500  27.378  27.084  1.00  0.00    -0.354 N 
ATOM     44  C   UNL A   1      40.179  28.902  29.420  1.00  0.00     0.074 A 
ATOM     45  C   UNL A   1      39.073  27.972  29.423  1.00  0.00     0.031 C 
ATOM     46  C   UNL A   1      44.585  25.894  25.813  1.00  0.00     0.029 A 
ATOM     47  C   UNL A   1      44.707  27.202  26.447  1.00  0.00     0.049 A 
ATOM     48  H   UNL A   1      43.279  28.184  27.606  1.00  0.00     0.167 HD
ATOM     49  C   UNL A   1      40.194  30.074  30.097  1.00  0.00     0.034 A 
ATOM     50  C   UNL A   1      45.787  28.007  26.380  1.00  0.00     0.034 A 
ATOM     51  C   UNL A   1      41.309  30.984  30.103  1.00  0.00     0.049 A 
ATOM     52  C   UNL A   1      45.752  29.334  27.093  1.00  0.00     0.074 A 
ATOM     53  C   UNL A   1      41.433  32.186  30.777  1.00  0.00     0.029 A 
ATOM     54  N   UNL A   1      42.494  30.793  29.406  1.00  0.00    -0.354 N 
ATOM     55  N   UNL A   1      44.793  29.848  27.827  1.00  0.00    -0.248 NA
ATOM     56  C   UNL A   1      46.941  30.187  26.968  1.00  0.00     0.031 C 
ATOM     57  C   UNL A   1      42.666  32.750  30.441  1.00  0.00     0.029 A 
ATOM     58  C   UNL A   1      43.342  31.868  29.613  1.00  0.00     0.049 A 
ATOM     59  H   UNL A   1      42.700  30.009  28.847  1.00  0.00     0.167 HD
ATOM     60  C   UNL A   1      45.274  31.076  28.270  1.00  0.00     0.074 A 
ATOM     61  C   UNL A   1      46.610  31.222  27.729  1.00  0.00     0.031 C 
ATOM     62  C   UNL A   1      44.667  32.000  29.057  1.00  0.00     0.034 A 
BRANCH  49  63
ATOM     63  C   UNL A   1      38.969  30.439  30.893  1.00  0.00     0.023 A 
ATOM     64  C   UNL A   1      37.923  31.181  30.320  1.00  0.00     0.031 A 
ATOM     65  C   UNL A   1      38.829  30.012  32.225  1.00  0.00     0.131 A 
ATOM     66  C   UNL A   1      36.794  31.505  31.087  1.00  0.00     0.055 A 
ATOM     67  C   UNL A   1      37.677  30.285  32.964  1.00  0.00     0.041 A 
ATOM     68  F   UNL A   1      39.808  29.318  32.825  1.00  0.00    -0.206 F 
ATOM     69  C   UNL A   1      36.654  31.040  32.397  1.00  0.00     0.022 A 
BRANCH  66  70
ATOM     70  S   UNL A   1      35.542  32.602  30.372  1.00  0.00     0.124 S 
ATOM     71  O   UNL A   1      35.355  32.012  29.049  1.00  0.00    -0.237 OA
ATOM     72  O   UNL A   1      34.424  32.456  31.299  1.00  0.00    -0.237 OA
ATOM     73  O   UNL A   1      36.190  33.911  30.378  1.00  0.00    -0.744 OA
ENDBRANCH  66  70
ENDBRANCH  49  63
BRANCH  50  74
ATOM     74  C   UNL A   1      46.992  27.584  25.612  1.00  0.00     0.023 A 
ATOM     75  C   UNL A   1      47.127  27.908  24.252  1.00  0.00     0.031 A 
ATOM     76  C   UNL A   1      48.017  26.837  26.219  1.00  0.00     0.131 A 
ATOM     77  C   UNL A   1      48.249  27.463  23.536  1.00  0.00     0.055 A 
ATOM     78  C   UNL A   1      49.151  26.434  25.513  1.00  0.00     0.041 A 
ATOM     79  F   UNL A   1      47.938  26.507  27.517  1.00  0.00    -0.206 F 
ATOM     80  C   UNL A   1      49.267  26.739  24.160  1.00  0.00     0.022 A 
BRANCH  77  81
ATOM     81  S   UNL A   1      48.337  27.803  21.757  1.00  0.00     0.124 S 
ATOM     82  O   UNL A   1      46.995  28.310  21.486  1.00  0.00    -0.237 OA
ATOM     83  O   UNL A   1      49.418  28.780  21.687  1.00  0.00    -0.237 OA
ATOM     84  O   UNL A   1      48.640  26.498  21.176  1.00  0.00    -0.744 OA
ENDBRANCH  77  81
ENDBRANCH  50  74
BRANCH  62  85
ATOM     85  C   UNL A   1      45.446  33.240  29.404  1.00  0.00     0.023 A 
ATOM     86  C   UNL A   1      45.373  34.395  28.607  1.00  0.00     0.031 A 
ATOM     87  C   UNL A   1      46.226  33.284  30.572  1.00  0.00     0.131 A 
ATOM     88  C   UNL A   1      46.091  35.541  28.978  1.00  0.00     0.055 A 
ATOM     89  C   UNL A   1      46.897  34.442  30.962  1.00  0.00     0.041 A 
ATOM     90  F   UNL A   1      46.323  32.206  31.368  1.00  0.00    -0.206 F 
ATOM     91  C   UNL A   1      46.837  35.578  30.159  1.00  0.00     0.022 A 
BRANCH  88  92
ATOM     92  S   UNL A   1      46.065  36.979  27.874  1.00  0.00     0.124 S 
ATOM     93  O   UNL A   1      45.132  37.868  28.558  1.00  0.00    -0.237 OA
ATOM     94  O   UNL A   1      47.462  37.401  27.872  1.00  0.00    -0.237 OA
ATOM     95  O   UNL A   1      45.584  36.430  26.607  1.00  0.00    -0.744 OA
ENDBRANCH  88  92
ENDBRANCH  62  85
ENDBRANCH  36  37
ENDBRANCH  28  31
ENDBRANCH  26  27
ENDBRANCH  25  26
ENDBRANCH   1  25
TORSDOF 17
ENDMDL
