MODEL 1
REMARK VINA RESULT:      -9.8      0.000      0.000
REMARK SMILES Cc1cc(C)cc(-c2ccc([C@@H](C)C(=O)NCCCCCCNC(=O)c3ccc(-c4c5nc(c(-c6cc(S(=O)(=O)[O-])ccc6F)c6ccc([nH]6)c(-c6cc(S(=O)(=O)[O-])ccc6F)c6nc(c(-c7cc(S(=O)(=O)[O-])ccc7F)c7ccc4[nH]7)C=C6)C=C5)cc3)cc2F)c1
REMARK SMILES IDX 20 1 19 2 18 3 17 4 16 5 14 6 15 7 12 9 13 10 11 11 8 12
REMARK SMILES IDX 9 13 90 14 10 15 89 16 91 17 7 18 1 19 2 20 3 21 92 22 4 23
REMARK SMILES IDX 5 24 6 25 21 26 22 27 23 28 24 29 25 31 26 32 27 33 88 34
REMARK SMILES IDX 28 35 87 36 29 37 30 38 31 39 81 40 32 41 86 42 80 43 82 44
REMARK SMILES IDX 33 45 85 46 79 47 78 48 34 50 66 51 46 52 65 53 47 54 50 55
REMARK SMILES IDX 64 56 83 57 48 58 49 59 63 61 84 62 51 63 35 64 36 65 44 66
REMARK SMILES IDX 37 67 43 68 45 69 42 70 38 71 39 72 40 73 41 74 67 75 68 76
REMARK SMILES IDX 76 77 69 78 75 79 77 80 74 81 70 82 71 83 72 84 73 85 52 86
REMARK SMILES IDX 53 87 61 88 54 89 60 90 62 91 59 92 55 93 56 94 57 95 58 96
REMARK H PARENT 16 8 23 30 82 49 50 60
REMARK Flexibility Score: inf
ROOT
ATOM      1  C   UNL A   1      42.384  19.454  26.961  1.00  0.00     0.002 C 
ENDROOT
BRANCH   1   2
ATOM      2  C   UNL A   1      42.943  18.575  25.834  1.00  0.00     0.002 C 
BRANCH   2   3
ATOM      3  C   UNL A   1      44.017  19.240  24.965  1.00  0.00     0.021 C 
BRANCH   3   4
ATOM      4  C   UNL A   1      45.325  19.519  25.709  1.00  0.00     0.116 C 
BRANCH   4   5
ATOM      5  N   UNL A   1      45.961  20.731  25.234  1.00  0.00    -0.356 N 
ATOM      6  C   UNL A   1      45.511  22.011  25.144  1.00  0.00     0.227 C 
ATOM      7  O   UNL A   1      46.267  22.823  24.595  1.00  0.00    -0.274 OA
ATOM      8  H   UNL A   1      46.886  20.605  24.919  1.00  0.00     0.163 HD
BRANCH   6   9
ATOM      9  C   UNL A   1      44.156  22.483  25.695  1.00  0.00     0.105 C 
ATOM     10  C   UNL A   1      43.339  23.311  24.703  1.00  0.00     0.023 C 
BRANCH   9  11
ATOM     11  C   UNL A   1      44.227  23.026  27.113  1.00  0.00    -0.033 A 
ATOM     12  C   UNL A   1      44.401  24.188  29.726  1.00  0.00     0.017 A 
ATOM     13  C   UNL A   1      43.226  23.571  29.265  1.00  0.00     0.012 A 
ATOM     14  C   UNL A   1      45.494  24.183  28.850  1.00  0.00     0.131 A 
ATOM     15  C   UNL A   1      43.151  22.974  28.003  1.00  0.00     0.005 A 
ATOM     16  C   UNL A   1      45.410  23.632  27.566  1.00  0.00     0.044 A 
ATOM     17  F   UNL A   1      46.672  24.709  29.224  1.00  0.00    -0.206 F 
BRANCH  12  18
ATOM     18  C   UNL A   1      44.433  24.815  31.066  1.00  0.00    -0.015 A 
ATOM     19  C   UNL A   1      44.648  23.817  34.754  1.00  0.00     0.044 C 
ATOM     20  C   UNL A   1      44.593  24.648  33.507  1.00  0.00    -0.050 A 
ATOM     21  C   UNL A   1      44.654  26.044  33.600  1.00  0.00     0.006 A 
ATOM     22  C   UNL A   1      44.485  24.048  32.243  1.00  0.00     0.012 A 
ATOM     23  C   UNL A   1      44.602  26.837  32.451  1.00  0.00    -0.050 A 
ATOM     24  C   UNL A   1      44.693  28.331  32.558  1.00  0.00     0.044 C 
ATOM     25  C   UNL A   1      44.473  26.216  31.202  1.00  0.00     0.012 A 
ENDBRANCH  12  18
ENDBRANCH   9  11
ENDBRANCH   6   9
ENDBRANCH   4   5
ENDBRANCH   3   4
ENDBRANCH   2   3
ENDBRANCH   1   2
BRANCH   1  26
ATOM     26  C   UNL A   1      40.931  19.907  26.783  1.00  0.00     0.021 C 
BRANCH  26  27
ATOM     27  C   UNL A   1      40.766  21.360  26.342  1.00  0.00     0.116 C 
BRANCH  27  28
ATOM     28  N   UNL A   1      39.416  21.627  25.871  1.00  0.00    -0.352 N 
ATOM     29  C   UNL A   1      38.616  22.721  26.087  1.00  0.00     0.251 C 
ATOM     30  H   UNL A   1      39.018  20.918  25.316  1.00  0.00     0.163 HD
ATOM     31  O   UNL A   1      37.419  22.658  25.829  1.00  0.00    -0.269 OA
BRANCH  29  32
ATOM     32  C   UNL A   1      39.196  23.966  26.636  1.00  0.00     0.039 A 
ATOM     33  C   UNL A   1      39.917  24.811  25.789  1.00  0.00     0.014 A 
ATOM     34  C   UNL A   1      39.052  24.285  27.990  1.00  0.00     0.014 A 
ATOM     35  C   UNL A   1      40.445  26.005  26.287  1.00  0.00     0.010 A 
ATOM     36  C   UNL A   1      39.523  25.506  28.469  1.00  0.00     0.010 A 
ATOM     37  C   UNL A   1      40.225  26.376  27.624  1.00  0.00    -0.014 A 
BRANCH  37  38
ATOM     38  C   UNL A   1      40.726  27.670  28.154  1.00  0.00     0.031 A 
ATOM     39  C   UNL A   1      42.204  27.942  28.210  1.00  0.00     0.074 A 
ATOM     40  C   UNL A   1      39.852  28.581  28.625  1.00  0.00     0.049 A 
ATOM     41  N   UNL A   1      42.836  28.972  28.713  1.00  0.00    -0.248 NA
ATOM     42  C   UNL A   1      43.090  26.911  27.647  1.00  0.00     0.031 C 
ATOM     43  C   UNL A   1      38.396  28.426  28.638  1.00  0.00     0.029 A 
ATOM     44  N   UNL A   1      40.057  29.821  29.178  1.00  0.00    -0.354 N 
ATOM     45  C   UNL A   1      44.189  28.713  28.530  1.00  0.00     0.074 A 
ATOM     46  C   UNL A   1      44.289  27.403  27.923  1.00  0.00     0.031 C 
ATOM     47  C   UNL A   1      37.839  29.541  29.135  1.00  0.00     0.029 A 
ATOM     48  C   UNL A   1      38.895  30.471  29.524  1.00  0.00     0.049 A 
ATOM     49  H   UNL A   1      40.952  30.207  29.317  1.00  0.00     0.167 HD
ATOM     50  C   UNL A   1      45.250  29.505  28.819  1.00  0.00     0.034 A 
ATOM     51  C   UNL A   1      38.700  31.677  30.093  1.00  0.00     0.034 A 
ATOM     52  C   UNL A   1      45.138  30.817  29.407  1.00  0.00     0.049 A 
ATOM     53  C   UNL A   1      39.896  32.520  30.448  1.00  0.00     0.074 A 
ATOM     54  C   UNL A   1      46.149  31.711  29.712  1.00  0.00     0.029 A 
ATOM     55  N   UNL A   1      43.946  31.423  29.776  1.00  0.00    -0.354 N 
ATOM     56  N   UNL A   1      41.169  32.254  30.279  1.00  0.00    -0.248 NA
ATOM     57  C   UNL A   1      39.628  33.824  31.072  1.00  0.00     0.031 C 
ATOM     58  C   UNL A   1      45.574  32.833  30.316  1.00  0.00     0.029 A 
ATOM     59  C   UNL A   1      44.199  32.669  30.327  1.00  0.00     0.049 A 
ATOM     60  H   UNL A   1      43.051  31.027  29.663  1.00  0.00     0.167 HD
ATOM     61  C   UNL A   1      41.855  33.366  30.756  1.00  0.00     0.074 A 
ATOM     62  C   UNL A   1      40.855  34.307  31.217  1.00  0.00     0.031 C 
ATOM     63  C   UNL A   1      43.192  33.590  30.797  1.00  0.00     0.034 A 
BRANCH  50  64
ATOM     64  C   UNL A   1      46.625  28.971  28.514  1.00  0.00     0.023 A 
ATOM     65  C   UNL A   1      47.363  28.257  29.474  1.00  0.00     0.031 A 
ATOM     66  C   UNL A   1      47.200  29.162  27.246  1.00  0.00     0.131 A 
ATOM     67  C   UNL A   1      48.653  27.802  29.166  1.00  0.00     0.055 A 
ATOM     68  C   UNL A   1      48.458  28.649  26.923  1.00  0.00     0.041 A 
ATOM     69  F   UNL A   1      46.546  29.852  26.297  1.00  0.00    -0.206 F 
ATOM     70  C   UNL A   1      49.196  27.971  27.889  1.00  0.00     0.022 A 
BRANCH  67  71
ATOM     71  S   UNL A   1      49.650  27.059  30.485  1.00  0.00     0.124 S 
ATOM     72  O   UNL A   1      49.264  25.654  30.387  1.00  0.00    -0.237 OA
ATOM     73  O   UNL A   1      51.013  27.377  30.073  1.00  0.00    -0.237 OA
ATOM     74  O   UNL A   1      49.189  27.744  31.690  1.00  0.00    -0.744 OA
ENDBRANCH  67  71
ENDBRANCH  50  64
BRANCH  51  75
ATOM     75  C   UNL A   1      37.317  32.155  30.360  1.00  0.00     0.023 A 
ATOM     76  C   UNL A   1      36.574  32.797  29.358  1.00  0.00     0.031 A 
ATOM     77  C   UNL A   1      36.714  31.965  31.616  1.00  0.00     0.131 A 
ATOM     78  C   UNL A   1      35.271  33.243  29.633  1.00  0.00     0.055 A 
ATOM     79  C   UNL A   1      35.406  32.377  31.874  1.00  0.00     0.041 A 
ATOM     80  F   UNL A   1      37.382  31.345  32.602  1.00  0.00    -0.206 F 
ATOM     81  C   UNL A   1      34.678  33.026  30.880  1.00  0.00     0.022 A 
BRANCH  78  82
ATOM     82  S   UNL A   1      34.363  34.132  28.340  1.00  0.00     0.124 S 
ATOM     83  O   UNL A   1      35.365  34.225  27.284  1.00  0.00    -0.237 OA
ATOM     84  O   UNL A   1      33.241  33.236  28.084  1.00  0.00    -0.237 OA
ATOM     85  O   UNL A   1      34.011  35.398  28.982  1.00  0.00    -0.744 OA
ENDBRANCH  78  82
ENDBRANCH  51  75
BRANCH  63  86
ATOM     86  C   UNL A   1      43.658  34.917  31.335  1.00  0.00     0.023 A 
ATOM     87  C   UNL A   1      43.783  36.043  30.506  1.00  0.00     0.031 A 
ATOM     88  C   UNL A   1      43.930  35.063  32.707  1.00  0.00     0.131 A 
ATOM     89  C   UNL A   1      44.194  37.267  31.054  1.00  0.00     0.055 A 
ATOM     90  C   UNL A   1      44.294  36.294  33.254  1.00  0.00     0.041 A 
ATOM     91  F   UNL A   1      43.821  34.016  33.540  1.00  0.00    -0.206 F 
ATOM     92  C   UNL A   1      44.432  37.404  32.425  1.00  0.00     0.022 A 
BRANCH  89  93
ATOM     93  S   UNL A   1      44.439  38.681  29.945  1.00  0.00     0.124 S 
ATOM     94  O   UNL A   1      45.720  39.207  30.407  1.00  0.00    -0.237 OA
ATOM     95  O   UNL A   1      44.444  38.053  28.628  1.00  0.00    -0.237 OA
ATOM     96  O   UNL A   1      43.285  39.535  30.219  1.00  0.00    -0.744 OA
ENDBRANCH  89  93
ENDBRANCH  63  86
ENDBRANCH  37  38
ENDBRANCH  29  32
ENDBRANCH  27  28
ENDBRANCH  26  27
ENDBRANCH   1  26
TORSDOF 18
ENDMDL
MODEL 2
REMARK VINA RESULT:      -9.6      1.972      2.429
REMARK SMILES Cc1cc(C)cc(-c2ccc([C@@H](C)C(=O)NCCCCCCNC(=O)c3ccc(-c4c5nc(c(-c6cc(S(=O)(=O)[O-])ccc6F)c6ccc([nH]6)c(-c6cc(S(=O)(=O)[O-])ccc6F)c6nc(c(-c7cc(S(=O)(=O)[O-])ccc7F)c7ccc4[nH]7)C=C6)C=C5)cc3)cc2F)c1
REMARK SMILES IDX 20 1 19 2 18 3 17 4 16 5 14 6 15 7 12 9 13 10 11 11 8 12
REMARK SMILES IDX 9 13 90 14 10 15 89 16 91 17 7 18 1 19 2 20 3 21 92 22 4 23
REMARK SMILES IDX 5 24 6 25 21 26 22 27 23 28 24 29 25 31 26 32 27 33 88 34
REMARK SMILES IDX 28 35 87 36 29 37 30 38 31 39 81 40 32 41 86 42 80 43 82 44
REMARK SMILES IDX 33 45 85 46 79 47 78 48 34 50 66 51 46 52 65 53 47 54 50 55
REMARK SMILES IDX 64 56 83 57 48 58 49 59 63 61 84 62 51 63 35 64 36 65 44 66
REMARK SMILES IDX 37 67 43 68 45 69 42 70 38 71 39 72 40 73 41 74 67 75 68 76
REMARK SMILES IDX 76 77 69 78 75 79 77 80 74 81 70 82 71 83 72 84 73 85 52 86
REMARK SMILES IDX 53 87 61 88 54 89 60 90 62 91 59 92 55 93 56 94 57 95 58 96
REMARK H PARENT 16 8 23 30 82 49 50 60
REMARK Flexibility Score: inf
ROOT
ATOM      1  C   UNL A   1      42.404  19.450  27.161  1.00  0.00     0.002 C 
ENDROOT
BRANCH   1   2
ATOM      2  C   UNL A   1      42.663  18.610  25.903  1.00  0.00     0.002 C 
BRANCH   2   3
ATOM      3  C   UNL A   1      43.823  19.097  25.027  1.00  0.00     0.021 C 
BRANCH   3   4
ATOM      4  C   UNL A   1      45.175  19.104  25.744  1.00  0.00     0.116 C 
BRANCH   4   5
ATOM      5  N   UNL A   1      45.978  20.246  25.356  1.00  0.00    -0.356 N 
ATOM      6  C   UNL A   1      45.683  21.571  25.274  1.00  0.00     0.227 C 
ATOM      7  O   UNL A   1      46.565  22.304  24.809  1.00  0.00    -0.274 OA
ATOM      8  H   UNL A   1      46.904  20.023  25.108  1.00  0.00     0.163 HD
BRANCH   6   9
ATOM      9  C   UNL A   1      44.350  22.181  25.737  1.00  0.00     0.105 C 
ATOM     10  C   UNL A   1      43.642  23.009  24.664  1.00  0.00     0.023 C 
BRANCH   9  11
ATOM     11  C   UNL A   1      44.411  22.804  27.123  1.00  0.00    -0.033 A 
ATOM     12  C   UNL A   1      44.550  24.115  29.667  1.00  0.00     0.017 A 
ATOM     13  C   UNL A   1      43.423  23.375  29.273  1.00  0.00     0.012 A 
ATOM     14  C   UNL A   1      45.617  24.156  28.759  1.00  0.00     0.131 A 
ATOM     15  C   UNL A   1      43.367  22.707  28.047  1.00  0.00     0.005 A 
ATOM     16  C   UNL A   1      45.547  23.532  27.507  1.00  0.00     0.044 A 
ATOM     17  F   UNL A   1      46.753  24.801  29.069  1.00  0.00    -0.206 F 
BRANCH  12  18
ATOM     18  C   UNL A   1      44.562  24.812  30.971  1.00  0.00    -0.015 A 
ATOM     19  C   UNL A   1      44.765  28.364  32.383  1.00  0.00     0.044 C 
ATOM     20  C   UNL A   1      44.626  26.873  32.299  1.00  0.00    -0.050 A 
ATOM     21  C   UNL A   1      44.421  26.128  33.467  1.00  0.00     0.006 A 
ATOM     22  C   UNL A   1      44.692  26.209  31.064  1.00  0.00     0.012 A 
ATOM     23  C   UNL A   1      44.291  24.739  33.411  1.00  0.00    -0.050 A 
ATOM     24  C   UNL A   1      44.048  23.951  34.665  1.00  0.00     0.044 C 
ATOM     25  C   UNL A   1      44.382  24.096  32.170  1.00  0.00     0.012 A 
ENDBRANCH  12  18
ENDBRANCH   9  11
ENDBRANCH   6   9
ENDBRANCH   4   5
ENDBRANCH   3   4
ENDBRANCH   2   3
ENDBRANCH   1   2
BRANCH   1  26
ATOM     26  C   UNL A   1      41.032  20.130  27.229  1.00  0.00     0.021 C 
BRANCH  26  27
ATOM     27  C   UNL A   1      40.830  21.257  26.218  1.00  0.00     0.116 C 
BRANCH  27  28
ATOM     28  N   UNL A   1      39.431  21.398  25.848  1.00  0.00    -0.352 N 
ATOM     29  C   UNL A   1      38.559  22.427  26.104  1.00  0.00     0.251 C 
ATOM     30  H   UNL A   1      39.053  20.645  25.338  1.00  0.00     0.163 HD
ATOM     31  O   UNL A   1      37.356  22.259  25.940  1.00  0.00    -0.269 OA
BRANCH  29  32
ATOM     32  C   UNL A   1      39.071  23.730  26.584  1.00  0.00     0.039 A 
ATOM     33  C   UNL A   1      38.997  24.028  27.947  1.00  0.00     0.014 A 
ATOM     34  C   UNL A   1      39.599  24.664  25.688  1.00  0.00     0.014 A 
ATOM     35  C   UNL A   1      39.505  25.242  28.418  1.00  0.00     0.010 A 
ATOM     36  C   UNL A   1      40.163  25.844  26.167  1.00  0.00     0.010 A 
ATOM     37  C   UNL A   1      40.120  26.146  27.536  1.00  0.00    -0.014 A 
BRANCH  37  38
ATOM     38  C   UNL A   1      40.720  27.413  28.028  1.00  0.00     0.031 A 
ATOM     39  C   UNL A   1      42.209  27.616  27.967  1.00  0.00     0.074 A 
ATOM     40  C   UNL A   1      39.929  28.360  28.567  1.00  0.00     0.049 A 
ATOM     41  N   UNL A   1      42.925  28.613  28.420  1.00  0.00    -0.248 NA
ATOM     42  C   UNL A   1      42.999  26.548  27.334  1.00  0.00     0.031 C 
ATOM     43  C   UNL A   1      38.472  28.272  28.695  1.00  0.00     0.029 A 
ATOM     44  N   UNL A   1      40.233  29.586  29.104  1.00  0.00    -0.354 N 
ATOM     45  C   UNL A   1      44.246  28.293  28.130  1.00  0.00     0.074 A 
ATOM     46  C   UNL A   1      44.237  26.983  27.515  1.00  0.00     0.031 C 
ATOM     47  C   UNL A   1      38.008  29.410  29.236  1.00  0.00     0.029 A 
ATOM     48  C   UNL A   1      39.134  30.288  29.541  1.00  0.00     0.049 A 
ATOM     49  H   UNL A   1      41.153  29.931  29.172  1.00  0.00     0.167 HD
ATOM     50  C   UNL A   1      45.362  29.034  28.336  1.00  0.00     0.034 A 
ATOM     51  C   UNL A   1      39.040  31.498  30.126  1.00  0.00     0.034 A 
ATOM     52  C   UNL A   1      45.357  30.347  28.933  1.00  0.00     0.049 A 
ATOM     53  C   UNL A   1      40.298  32.284  30.387  1.00  0.00     0.074 A 
ATOM     54  C   UNL A   1      46.430  31.192  29.158  1.00  0.00     0.029 A 
ATOM     55  N   UNL A   1      44.227  31.006  29.395  1.00  0.00    -0.354 N 
ATOM     56  N   UNL A   1      41.540  31.960  30.117  1.00  0.00    -0.248 NA
ATOM     57  C   UNL A   1      40.141  33.595  31.032  1.00  0.00     0.031 C 
ATOM     58  C   UNL A   1      45.957  32.336  29.808  1.00  0.00     0.029 A 
ATOM     59  C   UNL A   1      44.580  32.236  29.927  1.00  0.00     0.049 A 
ATOM     60  H   UNL A   1      43.309  30.651  29.353  1.00  0.00     0.167 HD
ATOM     61  C   UNL A   1      42.312  33.038  30.540  1.00  0.00     0.074 A 
ATOM     62  C   UNL A   1      41.397  34.021  31.081  1.00  0.00     0.031 C 
ATOM     63  C   UNL A   1      43.657  33.199  30.476  1.00  0.00     0.034 A 
BRANCH  50  64
ATOM     64  C   UNL A   1      46.683  28.439  27.922  1.00  0.00     0.023 A 
ATOM     65  C   UNL A   1      47.052  28.348  26.569  1.00  0.00     0.031 A 
ATOM     66  C   UNL A   1      47.589  27.970  28.888  1.00  0.00     0.131 A 
ATOM     67  C   UNL A   1      48.275  27.758  26.217  1.00  0.00     0.055 A 
ATOM     68  C   UNL A   1      48.833  27.445  28.535  1.00  0.00     0.041 A 
ATOM     69  F   UNL A   1      47.279  28.016  30.194  1.00  0.00    -0.206 F 
ATOM     70  C   UNL A   1      49.178  27.328  27.192  1.00  0.00     0.022 A 
BRANCH  67  71
ATOM     71  S   UNL A   1      48.632  27.481  24.461  1.00  0.00     0.124 S 
ATOM     72  O   UNL A   1      47.493  28.137  23.824  1.00  0.00    -0.237 OA
ATOM     73  O   UNL A   1      49.924  28.137  24.292  1.00  0.00    -0.237 OA
ATOM     74  O   UNL A   1      48.653  26.026  24.342  1.00  0.00    -0.744 OA
ENDBRANCH  67  71
ENDBRANCH  50  64
BRANCH  51  75
ATOM     75  C   UNL A   1      37.706  32.038  30.502  1.00  0.00     0.023 A 
ATOM     76  C   UNL A   1      36.855  32.589  29.532  1.00  0.00     0.031 A 
ATOM     77  C   UNL A   1      37.257  31.998  31.834  1.00  0.00     0.131 A 
ATOM     78  C   UNL A   1      35.602  33.096  29.910  1.00  0.00     0.055 A 
ATOM     79  C   UNL A   1      35.996  32.470  32.199  1.00  0.00     0.041 A 
ATOM     80  F   UNL A   1      38.031  31.470  32.795  1.00  0.00    -0.206 F 
ATOM     81  C   UNL A   1      35.161  33.027  31.235  1.00  0.00     0.022 A 
BRANCH  78  82
ATOM     82  S   UNL A   1      34.555  33.866  28.645  1.00  0.00     0.124 S 
ATOM     83  O   UNL A   1      34.630  32.888  27.564  1.00  0.00    -0.237 OA
ATOM     84  O   UNL A   1      33.272  33.969  29.331  1.00  0.00    -0.237 OA
ATOM     85  O   UNL A   1      35.222  35.140  28.383  1.00  0.00    -0.744 OA
ENDBRANCH  78  82
ENDBRANCH  51  75
BRANCH  63  86
ATOM     86  C   UNL A   1      44.225  34.501  30.978  1.00  0.00     0.023 A 
ATOM     87  C   UNL A   1      44.661  34.650  32.303  1.00  0.00     0.031 A 
ATOM     88  C   UNL A   1      44.376  35.587  30.097  1.00  0.00     0.131 A 
ATOM     89  C   UNL A   1      45.209  35.872  32.721  1.00  0.00     0.055 A 
ATOM     90  C   UNL A   1      44.964  36.785  30.507  1.00  0.00     0.041 A 
ATOM     91  F   UNL A   1      43.977  35.491  28.820  1.00  0.00    -0.206 F 
ATOM     92  C   UNL A   1      45.380  36.933  31.827  1.00  0.00     0.022 A 
BRANCH  89  93
ATOM     93  S   UNL A   1      45.677  36.068  34.462  1.00  0.00     0.124 S 
ATOM     94  O   UNL A   1      47.126  35.902  34.406  1.00  0.00    -0.237 OA
ATOM     95  O   UNL A   1      45.200  37.413  34.769  1.00  0.00    -0.237 OA
ATOM     96  O   UNL A   1      44.955  34.989  35.135  1.00  0.00    -0.744 OA
ENDBRANCH  89  93
ENDBRANCH  63  86
ENDBRANCH  37  38
ENDBRANCH  29  32
ENDBRANCH  27  28
ENDBRANCH  26  27
ENDBRANCH   1  26
TORSDOF 18
ENDMDL
MODEL 3
REMARK VINA RESULT:      -9.5      1.810      2.166
REMARK SMILES Cc1cc(C)cc(-c2ccc([C@@H](C)C(=O)NCCCCCCNC(=O)c3ccc(-c4c5nc(c(-c6cc(S(=O)(=O)[O-])ccc6F)c6ccc([nH]6)c(-c6cc(S(=O)(=O)[O-])ccc6F)c6nc(c(-c7cc(S(=O)(=O)[O-])ccc7F)c7ccc4[nH]7)C=C6)C=C5)cc3)cc2F)c1
REMARK SMILES IDX 20 1 19 2 18 3 17 4 16 5 14 6 15 7 12 9 13 10 11 11 8 12
REMARK SMILES IDX 9 13 90 14 10 15 89 16 91 17 7 18 1 19 2 20 3 21 92 22 4 23
REMARK SMILES IDX 5 24 6 25 21 26 22 27 23 28 24 29 25 31 26 32 27 33 88 34
REMARK SMILES IDX 28 35 87 36 29 37 30 38 31 39 81 40 32 41 86 42 80 43 82 44
REMARK SMILES IDX 33 45 85 46 79 47 78 48 34 50 66 51 46 52 65 53 47 54 50 55
REMARK SMILES IDX 64 56 83 57 48 58 49 59 63 61 84 62 51 63 35 64 36 65 44 66
REMARK SMILES IDX 37 67 43 68 45 69 42 70 38 71 39 72 40 73 41 74 67 75 68 76
REMARK SMILES IDX 76 77 69 78 75 79 77 80 74 81 70 82 71 83 72 84 73 85 52 86
REMARK SMILES IDX 53 87 61 88 54 89 60 90 62 91 59 92 55 93 56 94 57 95 58 96
REMARK H PARENT 16 8 23 30 82 49 50 60
REMARK Flexibility Score: inf
ROOT
ATOM      1  C   UNL A   1      42.155  19.543  27.466  1.00  0.00     0.002 C 
ENDROOT
BRANCH   1   2
ATOM      2  C   UNL A   1      42.137  18.832  26.106  1.00  0.00     0.002 C 
BRANCH   2   3
ATOM      3  C   UNL A   1      43.404  19.014  25.261  1.00  0.00     0.021 C 
BRANCH   3   4
ATOM      4  C   UNL A   1      44.698  18.707  26.018  1.00  0.00     0.116 C 
BRANCH   4   5
ATOM      5  N   UNL A   1      45.837  19.370  25.417  1.00  0.00    -0.356 N 
ATOM      6  C   UNL A   1      46.006  20.640  24.961  1.00  0.00     0.227 C 
ATOM      7  O   UNL A   1      47.082  20.886  24.401  1.00  0.00    -0.274 OA
ATOM      8  H   UNL A   1      46.632  18.797  25.320  1.00  0.00     0.163 HD
BRANCH   6   9
ATOM      9  C   UNL A   1      44.961  21.754  25.125  1.00  0.00     0.105 C 
ATOM     10  C   UNL A   1      44.627  22.486  23.824  1.00  0.00     0.023 C 
BRANCH   9  11
ATOM     11  C   UNL A   1      45.190  22.636  26.342  1.00  0.00    -0.033 A 
ATOM     12  C   UNL A   1      45.593  24.422  28.546  1.00  0.00     0.017 A 
ATOM     13  C   UNL A   1      44.652  23.380  28.596  1.00  0.00     0.012 A 
ATOM     14  C   UNL A   1      46.345  24.526  27.368  1.00  0.00     0.131 A 
ATOM     15  C   UNL A   1      44.479  22.488  27.534  1.00  0.00     0.005 A 
ATOM     16  C   UNL A   1      46.141  23.667  26.282  1.00  0.00     0.044 A 
ATOM     17  F   UNL A   1      47.300  25.463  27.249  1.00  0.00    -0.206 F 
BRANCH  12  18
ATOM     18  C   UNL A   1      45.737  25.348  29.690  1.00  0.00    -0.015 A 
ATOM     19  C   UNL A   1      43.561  27.340  32.129  1.00  0.00     0.044 C 
ATOM     20  C   UNL A   1      44.761  26.737  31.460  1.00  0.00    -0.050 A 
ATOM     21  C   UNL A   1      46.040  26.986  31.972  1.00  0.00     0.006 A 
ATOM     22  C   UNL A   1      44.621  25.921  30.327  1.00  0.00     0.012 A 
ATOM     23  C   UNL A   1      47.170  26.437  31.362  1.00  0.00    -0.050 A 
ATOM     24  C   UNL A   1      48.535  26.689  31.931  1.00  0.00     0.044 C 
ATOM     25  C   UNL A   1      47.008  25.642  30.220  1.00  0.00     0.012 A 
ENDBRANCH  12  18
ENDBRANCH   9  11
ENDBRANCH   6   9
ENDBRANCH   4   5
ENDBRANCH   3   4
ENDBRANCH   2   3
ENDBRANCH   1   2
BRANCH   1  26
ATOM     26  C   UNL A   1      41.173  20.710  27.612  1.00  0.00     0.021 C 
BRANCH  26  27
ATOM     27  C   UNL A   1      40.920  21.494  26.327  1.00  0.00     0.116 C 
BRANCH  27  28
ATOM     28  N   UNL A   1      39.503  21.549  26.004  1.00  0.00    -0.352 N 
ATOM     29  C   UNL A   1      38.585  22.535  26.266  1.00  0.00     0.251 C 
ATOM     30  H   UNL A   1      39.151  20.762  25.527  1.00  0.00     0.163 HD
ATOM     31  O   UNL A   1      37.388  22.296  26.150  1.00  0.00    -0.269 OA
BRANCH  29  32
ATOM     32  C   UNL A   1      39.040  23.876  26.694  1.00  0.00     0.039 A 
ATOM     33  C   UNL A   1      38.915  24.239  28.037  1.00  0.00     0.014 A 
ATOM     34  C   UNL A   1      39.565  24.782  25.767  1.00  0.00     0.014 A 
ATOM     35  C   UNL A   1      39.368  25.491  28.460  1.00  0.00     0.010 A 
ATOM     36  C   UNL A   1      40.075  26.003  26.202  1.00  0.00     0.010 A 
ATOM     37  C   UNL A   1      39.980  26.371  27.552  1.00  0.00    -0.014 A 
BRANCH  37  38
ATOM     38  C   UNL A   1      40.524  27.680  27.996  1.00  0.00     0.031 A 
ATOM     39  C   UNL A   1      41.992  27.975  27.853  1.00  0.00     0.074 A 
ATOM     40  C   UNL A   1      39.704  28.584  28.566  1.00  0.00     0.049 A 
ATOM     41  N   UNL A   1      42.667  29.022  28.256  1.00  0.00    -0.248 NA
ATOM     42  C   UNL A   1      42.814  26.949  27.192  1.00  0.00     0.031 C 
ATOM     43  C   UNL A   1      38.265  28.406  28.773  1.00  0.00     0.029 A 
ATOM     44  N   UNL A   1      39.958  29.834  29.072  1.00  0.00    -0.354 N 
ATOM     45  C   UNL A   1      43.988  28.781  27.900  1.00  0.00     0.074 A 
ATOM     46  C   UNL A   1      44.030  27.464  27.302  1.00  0.00     0.031 C 
ATOM     47  C   UNL A   1      37.759  29.521  29.324  1.00  0.00     0.029 A 
ATOM     48  C   UNL A   1      38.841  30.472  29.559  1.00  0.00     0.049 A 
ATOM     49  H   UNL A   1      40.857  30.237  29.086  1.00  0.00     0.167 HD
ATOM     50  C   UNL A   1      45.064  29.593  28.037  1.00  0.00     0.034 A 
ATOM     51  C   UNL A   1      38.702  31.683  30.133  1.00  0.00     0.034 A 
ATOM     52  C   UNL A   1      45.008  30.912  28.618  1.00  0.00     0.049 A 
ATOM     53  C   UNL A   1      39.919  32.550  30.317  1.00  0.00     0.074 A 
ATOM     54  C   UNL A   1      46.035  31.826  28.776  1.00  0.00     0.029 A 
ATOM     55  N   UNL A   1      43.864  31.505  29.133  1.00  0.00    -0.354 N 
ATOM     56  N   UNL A   1      41.163  32.300  29.986  1.00  0.00    -0.248 NA
ATOM     57  C   UNL A   1      39.713  33.858  30.954  1.00  0.00     0.031 C 
ATOM     58  C   UNL A   1      45.525  32.948  29.436  1.00  0.00     0.029 A 
ATOM     59  C   UNL A   1      44.166  32.763  29.630  1.00  0.00     0.049 A 
ATOM     60  H   UNL A   1      42.969  31.094  29.143  1.00  0.00     0.167 HD
ATOM     61  C   UNL A   1      41.887  33.430  30.354  1.00  0.00     0.074 A 
ATOM     62  C   UNL A   1      40.940  34.362  30.931  1.00  0.00     0.031 C 
ATOM     63  C   UNL A   1      43.213  33.675  30.216  1.00  0.00     0.034 A 
BRANCH  50  64
ATOM     64  C   UNL A   1      46.396  29.076  27.560  1.00  0.00     0.023 A 
ATOM     65  C   UNL A   1      46.618  28.763  26.208  1.00  0.00     0.031 A 
ATOM     66  C   UNL A   1      47.460  28.906  28.461  1.00  0.00     0.131 A 
ATOM     67  C   UNL A   1      47.860  28.252  25.804  1.00  0.00     0.055 A 
ATOM     68  C   UNL A   1      48.716  28.460  28.042  1.00  0.00     0.041 A 
ATOM     69  F   UNL A   1      47.298  29.173  29.768  1.00  0.00    -0.206 F 
ATOM     70  C   UNL A   1      48.918  28.122  26.707  1.00  0.00     0.022 A 
BRANCH  67  71
ATOM     71  S   UNL A   1      48.048  27.678  24.094  1.00  0.00     0.124 S 
ATOM     72  O   UNL A   1      47.721  26.260  24.225  1.00  0.00    -0.237 OA
ATOM     73  O   UNL A   1      47.076  28.494  23.376  1.00  0.00    -0.237 OA
ATOM     74  O   UNL A   1      49.448  27.964  23.790  1.00  0.00    -0.744 OA
ENDBRANCH  67  71
ENDBRANCH  50  64
BRANCH  51  75
ATOM     75  C   UNL A   1      37.357  32.144  30.574  1.00  0.00     0.023 A 
ATOM     76  C   UNL A   1      36.499  32.807  29.684  1.00  0.00     0.031 A 
ATOM     77  C   UNL A   1      36.906  31.915  31.886  1.00  0.00     0.131 A 
ATOM     78  C   UNL A   1      35.236  33.237  30.122  1.00  0.00     0.055 A 
ATOM     79  C   UNL A   1      35.637  32.311  32.306  1.00  0.00     0.041 A 
ATOM     80  F   UNL A   1      37.688  31.274  32.769  1.00  0.00    -0.206 F 
ATOM     81  C   UNL A   1      34.794  32.981  31.423  1.00  0.00     0.022 A 
BRANCH  78  82
ATOM     82  S   UNL A   1      34.179  34.154  28.969  1.00  0.00     0.124 S 
ATOM     83  O   UNL A   1      33.056  34.520  29.825  1.00  0.00    -0.237 OA
ATOM     84  O   UNL A   1      35.053  35.244  28.554  1.00  0.00    -0.237 OA
ATOM     85  O   UNL A   1      33.879  33.170  27.930  1.00  0.00    -0.744 OA
ENDBRANCH  78  82
ENDBRANCH  51  75
BRANCH  63  86
ATOM     86  C   UNL A   1      43.723  35.017  30.672  1.00  0.00     0.023 A 
ATOM     87  C   UNL A   1      43.698  36.138  29.827  1.00  0.00     0.031 A 
ATOM     88  C   UNL A   1      44.192  35.181  31.987  1.00  0.00     0.131 A 
ATOM     89  C   UNL A   1      44.157  37.375  30.301  1.00  0.00     0.055 A 
ATOM     90  C   UNL A   1      44.605  36.425  32.467  1.00  0.00     0.041 A 
ATOM     91  F   UNL A   1      44.232  34.140  32.833  1.00  0.00    -0.206 F 
ATOM     92  C   UNL A   1      44.592  37.530  31.621  1.00  0.00     0.022 A 
BRANCH  89  93
ATOM     93  S   UNL A   1      44.202  38.784  29.160  1.00  0.00     0.124 S 
ATOM     94  O   UNL A   1      45.294  39.582  29.710  1.00  0.00    -0.237 OA
ATOM     95  O   UNL A   1      44.464  38.144  27.875  1.00  0.00    -0.237 OA
ATOM     96  O   UNL A   1      42.872  39.378  29.295  1.00  0.00    -0.744 OA
ENDBRANCH  89  93
ENDBRANCH  63  86
ENDBRANCH  37  38
ENDBRANCH  29  32
ENDBRANCH  27  28
ENDBRANCH  26  27
ENDBRANCH   1  26
TORSDOF 18
ENDMDL
