MODEL 1
REMARK VINA RESULT:     -10.1      0.000      0.000
REMARK SMILES [NH3+]CCOCC(=O)N[C@H](C(=O)NCCCCCCNC(=O)c1ccc(-c2c3nc(c(-c4cc(S(=O)(=O)[O-])ccc4F)c4ccc([nH]4)c(-c4cc(S(=O)(=O)[O-])ccc4F)c4nc(c(-c5cc(S(=O)(=O)[O-])ccc5F)c5ccc2[nH]5)C=C4)C=C3)cc1)c1ccccc1
REMARK SMILES IDX 14 1 13 2 12 3 10 4 11 5 9 7 8 8 6 9 7 10 5 12 4 13 3 14
REMARK SMILES IDX 2 15 1 16 85 20 86 21 90 22 87 23 89 24 88 25 15 26 16 27
REMARK SMILES IDX 17 28 18 29 19 30 20 31 21 33 22 34 23 35 84 36 24 37 83 38
REMARK SMILES IDX 25 39 26 40 27 41 77 42 28 43 82 44 76 45 78 46 29 47 81 48
REMARK SMILES IDX 75 49 74 50 30 52 62 53 42 54 61 55 43 56 46 57 60 58 79 59
REMARK SMILES IDX 44 60 45 61 59 63 80 64 47 65 31 66 32 67 40 68 33 69 39 70
REMARK SMILES IDX 41 71 38 72 34 73 35 74 36 75 37 76 63 77 64 78 72 79 65 80
REMARK SMILES IDX 71 81 73 82 70 83 66 84 67 85 68 86 69 87 48 88 49 89 57 90
REMARK SMILES IDX 50 91 56 92 58 93 55 94 51 95 52 96 53 97 54 98
REMARK H PARENT 12 6 8 11 1 17 1 18 1 19 19 32 78 51 46 62
REMARK Flexibility Score: inf
ROOT
ATOM      1  C   UNL A   1      35.722  22.530  23.459  1.00  0.00     0.021 C 
ENDROOT
BRANCH   1   2
ATOM      2  C   UNL A   1      34.877  23.654  24.069  1.00  0.00     0.116 C 
BRANCH   2   3
ATOM      3  N   UNL A   1      33.556  23.783  23.479  1.00  0.00    -0.354 N 
ATOM      4  C   UNL A   1      32.374  23.148  23.782  1.00  0.00     0.247 C 
ATOM      5  O   UNL A   1      31.435  23.413  23.027  1.00  0.00    -0.272 OA
ATOM      6  H   UNL A   1      33.497  24.432  22.742  1.00  0.00     0.163 HD
BRANCH   4   7
ATOM      7  C   UNL A   1      32.335  22.030  24.875  1.00  0.00     0.202 C 
BRANCH   7   8
ATOM      8  N   UNL A   1      31.195  22.217  25.779  1.00  0.00    -0.339 N 
ATOM      9  C   UNL A   1      31.004  23.149  26.753  1.00  0.00     0.246 C 
ATOM     10  O   UNL A   1      29.955  23.095  27.400  1.00  0.00    -0.272 OA
ATOM     11  H   UNL A   1      30.460  21.572  25.666  1.00  0.00     0.164 HD
BRANCH   9  12
ATOM     12  C   UNL A   1      32.078  24.206  27.078  1.00  0.00     0.260 C 
BRANCH  12  13
ATOM     13  O   UNL A   1      32.131  25.424  26.364  1.00  0.00    -0.366 OA
BRANCH  13  14
ATOM     14  C   UNL A   1      30.896  26.099  26.171  1.00  0.00     0.222 C 
BRANCH  14  15
ATOM     15  C   UNL A   1      30.479  26.379  24.723  1.00  0.00     0.287 C 
BRANCH  15  16
ATOM     16  N   UNL A   1      29.496  25.448  24.177  1.00  0.00    -0.356 N 
ATOM     17  H   UNL A   1      28.565  25.858  24.249  1.00  0.00     0.344 HD
ATOM     18  H   UNL A   1      29.526  24.576  24.705  1.00  0.00     0.344 HD
ATOM     19  H   UNL A   1      29.711  25.262  23.198  1.00  0.00     0.344 HD
ENDBRANCH  15  16
ENDBRANCH  14  15
ENDBRANCH  13  14
ENDBRANCH  12  13
ENDBRANCH   9  12
ENDBRANCH   7   8
BRANCH   7  20
ATOM     20  C   UNL A   1      32.512  20.557  24.478  1.00  0.00    -0.016 A 
ATOM     21  C   UNL A   1      32.243  20.055  23.195  1.00  0.00     0.006 A 
ATOM     22  C   UNL A   1      33.055  19.646  25.415  1.00  0.00     0.006 A 
ATOM     23  C   UNL A   1      32.431  18.702  22.884  1.00  0.00     0.000 A 
ATOM     24  C   UNL A   1      33.244  18.295  25.105  1.00  0.00     0.000 A 
ATOM     25  C   UNL A   1      32.921  17.820  23.840  1.00  0.00     0.000 A 
ENDBRANCH   7  20
ENDBRANCH   4   7
ENDBRANCH   2   3
ENDBRANCH   1   2
BRANCH   1  26
ATOM     26  C   UNL A   1      36.928  22.018  24.262  1.00  0.00     0.002 C 
BRANCH  26  27
ATOM     27  C   UNL A   1      36.821  20.639  24.910  1.00  0.00     0.002 C 
BRANCH  27  28
ATOM     28  C   UNL A   1      38.100  19.816  25.006  1.00  0.00     0.021 C 
BRANCH  28  29
ATOM     29  C   UNL A   1      39.145  20.406  25.939  1.00  0.00     0.116 C 
BRANCH  29  30
ATOM     30  N   UNL A   1      40.334  19.572  26.033  1.00  0.00    -0.352 N 
ATOM     31  C   UNL A   1      41.635  19.950  26.252  1.00  0.00     0.251 C 
ATOM     32  H   UNL A   1      40.186  18.605  25.924  1.00  0.00     0.163 HD
ATOM     33  O   UNL A   1      42.540  19.128  26.111  1.00  0.00    -0.269 OA
BRANCH  31  34
ATOM     34  C   UNL A   1      41.942  21.344  26.636  1.00  0.00     0.039 A 
ATOM     35  C   UNL A   1      42.199  21.642  27.976  1.00  0.00     0.014 A 
ATOM     36  C   UNL A   1      41.966  22.359  25.675  1.00  0.00     0.014 A 
ATOM     37  C   UNL A   1      42.506  22.954  28.344  1.00  0.00     0.010 A 
ATOM     38  C   UNL A   1      42.377  23.638  26.025  1.00  0.00     0.010 A 
ATOM     39  C   UNL A   1      42.614  23.958  27.368  1.00  0.00    -0.014 A 
BRANCH  39  40
ATOM     40  C   UNL A   1      42.894  25.367  27.737  1.00  0.00     0.031 A 
ATOM     41  C   UNL A   1      44.296  25.902  27.597  1.00  0.00     0.074 A 
ATOM     42  C   UNL A   1      41.909  26.141  28.231  1.00  0.00     0.049 A 
ATOM     43  N   UNL A   1      44.774  27.076  27.920  1.00  0.00    -0.248 NA
ATOM     44  C   UNL A   1      45.305  24.974  27.062  1.00  0.00     0.031 C 
ATOM     45  C   UNL A   1      40.525  25.711  28.447  1.00  0.00     0.029 A 
ATOM     46  N   UNL A   1      41.917  27.449  28.640  1.00  0.00    -0.354 N 
ATOM     47  C   UNL A   1      46.136  27.020  27.642  1.00  0.00     0.074 A 
ATOM     48  C   UNL A   1      46.421  25.671  27.207  1.00  0.00     0.031 C 
ATOM     49  C   UNL A   1      39.811  26.749  28.911  1.00  0.00     0.029 A 
ATOM     50  C   UNL A   1      40.692  27.902  29.071  1.00  0.00     0.049 A 
ATOM     51  H   UNL A   1      42.724  28.013  28.626  1.00  0.00     0.167 HD
ATOM     52  C   UNL A   1      47.057  28.011  27.709  1.00  0.00     0.034 A 
ATOM     53  C   UNL A   1      40.326  29.109  29.542  1.00  0.00     0.034 A 
ATOM     54  C   UNL A   1      46.743  29.355  28.128  1.00  0.00     0.049 A 
ATOM     55  C   UNL A   1      41.369  30.196  29.617  1.00  0.00     0.074 A 
ATOM     56  C   UNL A   1      47.578  30.456  28.203  1.00  0.00     0.029 A 
ATOM     57  N   UNL A   1      45.487  29.781  28.548  1.00  0.00    -0.354 N 
ATOM     58  N   UNL A   1      42.646  30.142  29.310  1.00  0.00    -0.248 NA
ATOM     59  C   UNL A   1      40.916  31.512  30.079  1.00  0.00     0.031 C 
ATOM     60  C   UNL A   1      46.848  31.524  28.734  1.00  0.00     0.029 A 
ATOM     61  C   UNL A   1      45.532  31.119  28.904  1.00  0.00     0.049 A 
ATOM     62  H   UNL A   1      44.683  29.215  28.586  1.00  0.00     0.167 HD
ATOM     63  C   UNL A   1      43.138  31.430  29.504  1.00  0.00     0.074 A 
ATOM     64  C   UNL A   1      42.014  32.238  29.934  1.00  0.00     0.031 C 
ATOM     65  C   UNL A   1      44.400  31.907  29.336  1.00  0.00     0.034 A 
BRANCH  52  66
ATOM     66  C   UNL A   1      48.483  27.663  27.343  1.00  0.00     0.023 A 
ATOM     67  C   UNL A   1      48.987  27.868  26.045  1.00  0.00     0.031 A 
ATOM     68  C   UNL A   1      49.341  27.078  28.291  1.00  0.00     0.131 A 
ATOM     69  C   UNL A   1      50.269  27.409  25.708  1.00  0.00     0.055 A 
ATOM     70  C   UNL A   1      50.651  26.711  27.973  1.00  0.00     0.041 A 
ATOM     71  F   UNL A   1      48.914  26.832  29.539  1.00  0.00    -0.206 F 
ATOM     72  C   UNL A   1      51.116  26.859  26.671  1.00  0.00     0.022 A 
BRANCH  69  73
ATOM     73  S   UNL A   1      50.750  27.388  23.957  1.00  0.00     0.124 S 
ATOM     74  O   UNL A   1      49.556  26.823  23.333  1.00  0.00    -0.237 OA
ATOM     75  O   UNL A   1      51.008  28.797  23.684  1.00  0.00    -0.237 OA
ATOM     76  O   UNL A   1      51.925  26.520  23.936  1.00  0.00    -0.744 OA
ENDBRANCH  69  73
ENDBRANCH  52  66
BRANCH  53  77
ATOM     77  C   UNL A   1      38.919  29.365  29.967  1.00  0.00     0.023 A 
ATOM     78  C   UNL A   1      38.022  30.052  29.132  1.00  0.00     0.031 A 
ATOM     79  C   UNL A   1      38.461  28.966  31.235  1.00  0.00     0.131 A 
ATOM     80  C   UNL A   1      36.736  30.369  29.595  1.00  0.00     0.055 A 
ATOM     81  C   UNL A   1      37.159  29.229  31.668  1.00  0.00     0.041 A 
ATOM     82  F   UNL A   1      39.273  28.301  32.073  1.00  0.00    -0.206 F 
ATOM     83  C   UNL A   1      36.293  29.950  30.851  1.00  0.00     0.022 A 
BRANCH  80  84
ATOM     84  S   UNL A   1      35.681  31.430  28.568  1.00  0.00     0.124 S 
ATOM     85  O   UNL A   1      36.622  32.460  28.144  1.00  0.00    -0.237 OA
ATOM     86  O   UNL A   1      35.234  30.502  27.535  1.00  0.00    -0.237 OA
ATOM     87  O   UNL A   1      34.643  31.875  29.495  1.00  0.00    -0.744 OA
ENDBRANCH  80  84
ENDBRANCH  53  77
BRANCH  65  88
ATOM     88  C   UNL A   1      44.605  33.387  29.561  1.00  0.00     0.023 A 
ATOM     89  C   UNL A   1      44.416  34.329  28.536  1.00  0.00     0.031 A 
ATOM     90  C   UNL A   1      45.032  33.856  30.817  1.00  0.00     0.131 A 
ATOM     91  C   UNL A   1      44.737  35.676  28.758  1.00  0.00     0.055 A 
ATOM     92  C   UNL A   1      45.270  35.209  31.056  1.00  0.00     0.041 A 
ATOM     93  F   UNL A   1      45.230  33.002  31.835  1.00  0.00    -0.206 F 
ATOM     94  C   UNL A   1      45.144  36.125  30.016  1.00  0.00     0.022 A 
BRANCH  91  95
ATOM     95  S   UNL A   1      44.754  36.807  27.341  1.00  0.00     0.124 S 
ATOM     96  O   UNL A   1      43.458  36.541  26.725  1.00  0.00    -0.237 OA
ATOM     97  O   UNL A   1      44.897  38.110  27.984  1.00  0.00    -0.237 OA
ATOM     98  O   UNL A   1      45.912  36.368  26.564  1.00  0.00    -0.744 OA
ENDBRANCH  91  95
ENDBRANCH  65  88
ENDBRANCH  39  40
ENDBRANCH  31  34
ENDBRANCH  29  30
ENDBRANCH  28  29
ENDBRANCH  27  28
ENDBRANCH  26  27
ENDBRANCH   1  26
TORSDOF 23
ENDMDL
MODEL 2
REMARK VINA RESULT:     -10.0      1.789      3.304
REMARK SMILES [NH3+]CCOCC(=O)N[C@H](C(=O)NCCCCCCNC(=O)c1ccc(-c2c3nc(c(-c4cc(S(=O)(=O)[O-])ccc4F)c4ccc([nH]4)c(-c4cc(S(=O)(=O)[O-])ccc4F)c4nc(c(-c5cc(S(=O)(=O)[O-])ccc5F)c5ccc2[nH]5)C=C4)C=C3)cc1)c1ccccc1
REMARK SMILES IDX 14 1 13 2 12 3 10 4 11 5 9 7 8 8 6 9 7 10 5 12 4 13 3 14
REMARK SMILES IDX 2 15 1 16 85 20 86 21 90 22 87 23 89 24 88 25 15 26 16 27
REMARK SMILES IDX 17 28 18 29 19 30 20 31 21 33 22 34 23 35 84 36 24 37 83 38
REMARK SMILES IDX 25 39 26 40 27 41 77 42 28 43 82 44 76 45 78 46 29 47 81 48
REMARK SMILES IDX 75 49 74 50 30 52 62 53 42 54 61 55 43 56 46 57 60 58 79 59
REMARK SMILES IDX 44 60 45 61 59 63 80 64 47 65 31 66 32 67 40 68 33 69 39 70
REMARK SMILES IDX 41 71 38 72 34 73 35 74 36 75 37 76 63 77 64 78 72 79 65 80
REMARK SMILES IDX 71 81 73 82 70 83 66 84 67 85 68 86 69 87 48 88 49 89 57 90
REMARK SMILES IDX 50 91 56 92 58 93 55 94 51 95 52 96 53 97 54 98
REMARK H PARENT 12 6 8 11 1 17 1 18 1 19 19 32 78 51 46 62
REMARK Flexibility Score: inf
ROOT
ATOM      1  C   UNL A   1      33.709  22.801  24.702  1.00  0.00     0.021 C 
ENDROOT
BRANCH   1   2
ATOM      2  C   UNL A   1      33.596  23.292  26.149  1.00  0.00     0.116 C 
BRANCH   2   3
ATOM      3  N   UNL A   1      32.270  23.135  26.722  1.00  0.00    -0.354 N 
ATOM      4  C   UNL A   1      31.133  23.894  26.569  1.00  0.00     0.247 C 
ATOM      5  O   UNL A   1      30.180  23.547  27.271  1.00  0.00    -0.272 OA
ATOM      6  H   UNL A   1      32.169  22.357  27.317  1.00  0.00     0.163 HD
BRANCH   4   7
ATOM      7  C   UNL A   1      31.168  25.207  25.720  1.00  0.00     0.202 C 
BRANCH   7   8
ATOM      8  N   UNL A   1      29.830  25.551  25.228  1.00  0.00    -0.339 N 
ATOM      9  C   UNL A   1      29.466  26.228  24.104  1.00  0.00     0.246 C 
ATOM     10  O   UNL A   1      28.262  26.408  23.907  1.00  0.00    -0.272 OA
ATOM     11  H   UNL A   1      29.083  25.249  25.795  1.00  0.00     0.164 HD
BRANCH   9  12
ATOM     12  C   UNL A   1      30.519  26.797  23.132  1.00  0.00     0.260 C 
BRANCH  12  13
ATOM     13  O   UNL A   1      30.918  28.149  23.211  1.00  0.00    -0.366 OA
BRANCH  13  14
ATOM     14  C   UNL A   1      30.209  29.068  22.391  1.00  0.00     0.222 C 
BRANCH  14  15
ATOM     15  C   UNL A   1      28.928  29.672  22.978  1.00  0.00     0.287 C 
BRANCH  15  16
ATOM     16  N   UNL A   1      27.695  29.254  22.317  1.00  0.00    -0.356 N 
ATOM     17  H   UNL A   1      27.909  28.929  21.374  1.00  0.00     0.344 HD
ATOM     18  H   UNL A   1      27.052  30.044  22.266  1.00  0.00     0.344 HD
ATOM     19  H   UNL A   1      27.265  28.497  22.848  1.00  0.00     0.344 HD
ENDBRANCH  15  16
ENDBRANCH  14  15
ENDBRANCH  13  14
ENDBRANCH  12  13
ENDBRANCH   9  12
ENDBRANCH   7   8
BRANCH   7  20
ATOM     20  C   UNL A   1      31.919  26.442  26.240  1.00  0.00    -0.016 A 
ATOM     21  C   UNL A   1      33.253  26.739  25.918  1.00  0.00     0.006 A 
ATOM     22  C   UNL A   1      31.229  27.395  27.025  1.00  0.00     0.006 A 
ATOM     23  C   UNL A   1      33.888  27.885  26.413  1.00  0.00     0.000 A 
ATOM     24  C   UNL A   1      31.862  28.541  27.520  1.00  0.00     0.000 A 
ATOM     25  C   UNL A   1      33.197  28.780  27.221  1.00  0.00     0.000 A 
ENDBRANCH   7  20
ENDBRANCH   4   7
ENDBRANCH   2   3
ENDBRANCH   1   2
BRANCH   1  26
ATOM     26  C   UNL A   1      34.265  21.390  24.461  1.00  0.00     0.002 C 
BRANCH  26  27
ATOM     27  C   UNL A   1      35.427  20.922  25.335  1.00  0.00     0.002 C 
BRANCH  27  28
ATOM     28  C   UNL A   1      36.472  21.964  25.716  1.00  0.00     0.021 C 
BRANCH  28  29
ATOM     29  C   UNL A   1      37.818  21.764  25.040  1.00  0.00     0.116 C 
BRANCH  29  30
ATOM     30  N   UNL A   1      38.625  20.750  25.703  1.00  0.00    -0.352 N 
ATOM     31  C   UNL A   1      39.781  20.906  26.427  1.00  0.00     0.251 C 
ATOM     32  H   UNL A   1      38.297  19.825  25.620  1.00  0.00     0.163 HD
ATOM     33  O   UNL A   1      40.432  19.914  26.754  1.00  0.00    -0.269 OA
BRANCH  31  34
ATOM     34  C   UNL A   1      40.244  22.262  26.790  1.00  0.00     0.039 A 
ATOM     35  C   UNL A   1      39.688  23.369  26.144  1.00  0.00     0.014 A 
ATOM     36  C   UNL A   1      41.235  22.440  27.759  1.00  0.00     0.014 A 
ATOM     37  C   UNL A   1      40.109  24.653  26.493  1.00  0.00     0.010 A 
ATOM     38  C   UNL A   1      41.573  23.719  28.180  1.00  0.00     0.010 A 
ATOM     39  C   UNL A   1      41.042  24.838  27.527  1.00  0.00    -0.014 A 
BRANCH  39  40
ATOM     40  C   UNL A   1      41.540  26.189  27.886  1.00  0.00     0.031 A 
ATOM     41  C   UNL A   1      42.935  26.593  27.483  1.00  0.00     0.074 A 
ATOM     42  C   UNL A   1      40.762  27.023  28.602  1.00  0.00     0.049 A 
ATOM     43  N   UNL A   1      43.590  27.694  27.747  1.00  0.00    -0.248 NA
ATOM     44  C   UNL A   1      43.711  25.607  26.715  1.00  0.00     0.031 C 
ATOM     45  C   UNL A   1      39.412  26.717  29.081  1.00  0.00     0.029 A 
ATOM     46  N   UNL A   1      40.991  28.297  29.052  1.00  0.00    -0.354 N 
ATOM     47  C   UNL A   1      44.855  27.523  27.194  1.00  0.00     0.074 A 
ATOM     48  C   UNL A   1      44.901  26.182  26.657  1.00  0.00     0.031 C 
ATOM     49  C   UNL A   1      38.919  27.789  29.722  1.00  0.00     0.029 A 
ATOM     50  C   UNL A   1      39.932  28.839  29.743  1.00  0.00     0.049 A 
ATOM     51  H   UNL A   1      41.835  28.780  28.895  1.00  0.00     0.167 HD
ATOM     52  C   UNL A   1      45.872  28.415  27.109  1.00  0.00     0.034 A 
ATOM     53  C   UNL A   1      39.799  30.046  30.326  1.00  0.00     0.034 A 
ATOM     54  C   UNL A   1      45.793  29.755  27.637  1.00  0.00     0.049 A 
ATOM     55  C   UNL A   1      40.946  31.020  30.228  1.00  0.00     0.074 A 
ATOM     56  C   UNL A   1      46.738  30.763  27.582  1.00  0.00     0.029 A 
ATOM     57  N   UNL A   1      44.699  30.275  28.322  1.00  0.00    -0.354 N 
ATOM     58  N   UNL A   1      42.124  30.861  29.665  1.00  0.00    -0.248 NA
ATOM     59  C   UNL A   1      40.738  32.343  30.825  1.00  0.00     0.031 C 
ATOM     60  C   UNL A   1      46.248  31.863  28.293  1.00  0.00     0.029 A 
ATOM     61  C   UNL A   1      44.957  31.578  28.714  1.00  0.00     0.049 A 
ATOM     62  H   UNL A   1      43.863  29.787  28.502  1.00  0.00     0.167 HD
ATOM     63  C   UNL A   1      42.779  32.082  29.804  1.00  0.00     0.074 A 
ATOM     64  C   UNL A   1      41.857  32.967  30.487  1.00  0.00     0.031 C 
ATOM     65  C   UNL A   1      44.025  32.444  29.400  1.00  0.00     0.034 A 
BRANCH  52  66
ATOM     66  C   UNL A   1      47.150  27.954  26.445  1.00  0.00     0.023 A 
ATOM     67  C   UNL A   1      47.359  28.096  25.061  1.00  0.00     0.031 A 
ATOM     68  C   UNL A   1      48.157  27.323  27.196  1.00  0.00     0.131 A 
ATOM     69  C   UNL A   1      48.497  27.535  24.460  1.00  0.00     0.055 A 
ATOM     70  C   UNL A   1      49.333  26.852  26.606  1.00  0.00     0.041 A 
ATOM     71  F   UNL A   1      48.008  27.133  28.516  1.00  0.00    -0.206 F 
ATOM     72  C   UNL A   1      49.500  26.941  25.228  1.00  0.00     0.022 A 
BRANCH  69  73
ATOM     73  S   UNL A   1      48.566  27.445  22.649  1.00  0.00     0.124 S 
ATOM     74  O   UNL A   1      49.907  27.959  22.381  1.00  0.00    -0.237 OA
ATOM     75  O   UNL A   1      48.364  26.024  22.395  1.00  0.00    -0.237 OA
ATOM     76  O   UNL A   1      47.475  28.319  22.221  1.00  0.00    -0.744 OA
ENDBRANCH  69  73
ENDBRANCH  52  66
BRANCH  53  77
ATOM     77  C   UNL A   1      38.542  30.409  31.041  1.00  0.00     0.023 A 
ATOM     78  C   UNL A   1      37.545  31.175  30.412  1.00  0.00     0.031 A 
ATOM     79  C   UNL A   1      38.335  30.036  32.381  1.00  0.00     0.131 A 
ATOM     80  C   UNL A   1      36.418  31.590  31.138  1.00  0.00     0.055 A 
ATOM     81  C   UNL A   1      37.182  30.400  33.080  1.00  0.00     0.041 A 
ATOM     82  F   UNL A   1      39.251  29.301  33.031  1.00  0.00    -0.206 F 
ATOM     83  C   UNL A   1      36.222  31.196  32.462  1.00  0.00     0.022 A 
BRANCH  80  84
ATOM     84  S   UNL A   1      35.257  32.743  30.352  1.00  0.00     0.124 S 
ATOM     85  O   UNL A   1      34.988  32.074  29.085  1.00  0.00    -0.237 OA
ATOM     86  O   UNL A   1      34.159  32.767  31.312  1.00  0.00    -0.237 OA
ATOM     87  O   UNL A   1      36.025  33.983  30.254  1.00  0.00    -0.744 OA
ENDBRANCH  80  84
ENDBRANCH  53  77
BRANCH  65  88
ATOM     88  C   UNL A   1      44.428  33.881  29.637  1.00  0.00     0.023 A 
ATOM     89  C   UNL A   1      44.190  34.887  28.685  1.00  0.00     0.031 A 
ATOM     90  C   UNL A   1      45.095  34.239  30.823  1.00  0.00     0.131 A 
ATOM     91  C   UNL A   1      44.691  36.180  28.896  1.00  0.00     0.055 A 
ATOM     92  C   UNL A   1      45.518  35.546  31.063  1.00  0.00     0.041 A 
ATOM     93  F   UNL A   1      45.352  33.320  31.768  1.00  0.00    -0.206 F 
ATOM     94  C   UNL A   1      45.336  36.521  30.087  1.00  0.00     0.022 A 
BRANCH  91  95
ATOM     95  S   UNL A   1      44.615  37.371  27.531  1.00  0.00     0.124 S 
ATOM     96  O   UNL A   1      43.312  37.077  26.945  1.00  0.00    -0.237 OA
ATOM     97  O   UNL A   1      44.726  38.650  28.227  1.00  0.00    -0.237 OA
ATOM     98  O   UNL A   1      45.763  37.015  26.700  1.00  0.00    -0.744 OA
ENDBRANCH  91  95
ENDBRANCH  65  88
ENDBRANCH  39  40
ENDBRANCH  31  34
ENDBRANCH  29  30
ENDBRANCH  28  29
ENDBRANCH  27  28
ENDBRANCH  26  27
ENDBRANCH   1  26
TORSDOF 23
ENDMDL
MODEL 3
REMARK VINA RESULT:      -9.8      1.143      7.559
REMARK SMILES [NH3+]CCOCC(=O)N[C@H](C(=O)NCCCCCCNC(=O)c1ccc(-c2c3nc(c(-c4cc(S(=O)(=O)[O-])ccc4F)c4ccc([nH]4)c(-c4cc(S(=O)(=O)[O-])ccc4F)c4nc(c(-c5cc(S(=O)(=O)[O-])ccc5F)c5ccc2[nH]5)C=C4)C=C3)cc1)c1ccccc1
REMARK SMILES IDX 14 1 13 2 12 3 10 4 11 5 9 7 8 8 6 9 7 10 5 12 4 13 3 14
REMARK SMILES IDX 2 15 1 16 85 20 86 21 90 22 87 23 89 24 88 25 15 26 16 27
REMARK SMILES IDX 17 28 18 29 19 30 20 31 21 33 22 34 23 35 84 36 24 37 83 38
REMARK SMILES IDX 25 39 26 40 27 41 77 42 28 43 82 44 76 45 78 46 29 47 81 48
REMARK SMILES IDX 75 49 74 50 30 52 62 53 42 54 61 55 43 56 46 57 60 58 79 59
REMARK SMILES IDX 44 60 45 61 59 63 80 64 47 65 31 66 32 67 40 68 33 69 39 70
REMARK SMILES IDX 41 71 38 72 34 73 35 74 36 75 37 76 63 77 64 78 72 79 65 80
REMARK SMILES IDX 71 81 73 82 70 83 66 84 67 85 68 86 69 87 48 88 49 89 57 90
REMARK SMILES IDX 50 91 56 92 58 93 55 94 51 95 52 96 53 97 54 98
REMARK H PARENT 12 6 8 11 1 17 1 18 1 19 19 32 78 51 46 62
REMARK Flexibility Score: inf
ROOT
ATOM      1  C   UNL A   1      36.081  22.597  23.601  1.00  0.00     0.021 C 
ENDROOT
BRANCH   1   2
ATOM      2  C   UNL A   1      35.110  23.731  23.949  1.00  0.00     0.116 C 
BRANCH   2   3
ATOM      3  N   UNL A   1      33.829  23.639  23.268  1.00  0.00    -0.354 N 
ATOM      4  C   UNL A   1      32.688  22.947  23.598  1.00  0.00     0.247 C 
ATOM      5  O   UNL A   1      31.788  23.000  22.755  1.00  0.00    -0.272 OA
ATOM      6  H   UNL A   1      33.770  24.157  22.433  1.00  0.00     0.163 HD
BRANCH   4   7
ATOM      7  C   UNL A   1      32.663  22.014  24.853  1.00  0.00     0.202 C 
BRANCH   7   8
ATOM      8  N   UNL A   1      31.606  22.414  25.787  1.00  0.00    -0.339 N 
ATOM      9  C   UNL A   1      31.476  23.561  26.510  1.00  0.00     0.246 C 
ATOM     10  O   UNL A   1      30.492  23.664  27.248  1.00  0.00    -0.272 OA
ATOM     11  H   UNL A   1      30.884  21.756  25.911  1.00  0.00     0.164 HD
BRANCH   9  12
ATOM     12  C   UNL A   1      32.541  24.674  26.452  1.00  0.00     0.260 C 
BRANCH  12  13
ATOM     13  O   UNL A   1      32.168  26.019  26.237  1.00  0.00    -0.366 OA
BRANCH  13  14
ATOM     14  C   UNL A   1      31.684  26.344  24.942  1.00  0.00     0.222 C 
BRANCH  14  15
ATOM     15  C   UNL A   1      31.098  27.748  24.753  1.00  0.00     0.287 C 
BRANCH  15  16
ATOM     16  N   UNL A   1      31.682  28.512  23.655  1.00  0.00    -0.356 N 
ATOM     17  H   UNL A   1      32.633  28.186  23.482  1.00  0.00     0.344 HD
ATOM     18  H   UNL A   1      31.702  29.501  23.903  1.00  0.00     0.344 HD
ATOM     19  H   UNL A   1      31.120  28.383  22.814  1.00  0.00     0.344 HD
ENDBRANCH  15  16
ENDBRANCH  14  15
ENDBRANCH  13  14
ENDBRANCH  12  13
ENDBRANCH   9  12
ENDBRANCH   7   8
BRANCH   7  20
ATOM     20  C   UNL A   1      32.724  20.488  24.680  1.00  0.00    -0.016 A 
ATOM     21  C   UNL A   1      32.894  19.587  25.743  1.00  0.00     0.006 A 
ATOM     22  C   UNL A   1      32.518  19.926  23.399  1.00  0.00     0.006 A 
ATOM     23  C   UNL A   1      32.933  18.203  25.531  1.00  0.00     0.000 A 
ATOM     24  C   UNL A   1      32.557  18.543  23.185  1.00  0.00     0.000 A 
ATOM     25  C   UNL A   1      32.776  17.682  24.252  1.00  0.00     0.000 A 
ENDBRANCH   7  20
ENDBRANCH   4   7
ENDBRANCH   2   3
ENDBRANCH   1   2
BRANCH   1  26
ATOM     26  C   UNL A   1      36.779  21.866  24.758  1.00  0.00     0.002 C 
BRANCH  26  27
ATOM     27  C   UNL A   1      36.553  20.361  24.890  1.00  0.00     0.002 C 
BRANCH  27  28
ATOM     28  C   UNL A   1      37.793  19.481  24.999  1.00  0.00     0.021 C 
BRANCH  28  29
ATOM     29  C   UNL A   1      38.949  20.131  25.742  1.00  0.00     0.116 C 
BRANCH  29  30
ATOM     30  N   UNL A   1      40.049  19.206  25.970  1.00  0.00    -0.352 N 
ATOM     31  C   UNL A   1      41.373  19.484  26.201  1.00  0.00     0.251 C 
ATOM     32  H   UNL A   1      39.811  18.251  25.956  1.00  0.00     0.163 HD
ATOM     33  O   UNL A   1      42.199  18.570  26.182  1.00  0.00    -0.269 OA
BRANCH  31  34
ATOM     34  C   UNL A   1      41.801  20.876  26.451  1.00  0.00     0.039 A 
ATOM     35  C   UNL A   1      41.870  21.771  25.381  1.00  0.00     0.014 A 
ATOM     36  C   UNL A   1      42.143  21.296  27.740  1.00  0.00     0.014 A 
ATOM     37  C   UNL A   1      42.258  23.092  25.612  1.00  0.00     0.010 A 
ATOM     38  C   UNL A   1      42.422  22.634  27.984  1.00  0.00     0.010 A 
ATOM     39  C   UNL A   1      42.519  23.538  26.918  1.00  0.00    -0.014 A 
BRANCH  39  40
ATOM     40  C   UNL A   1      42.976  24.924  27.185  1.00  0.00     0.031 A 
ATOM     41  C   UNL A   1      42.043  25.888  27.872  1.00  0.00     0.074 A 
ATOM     42  C   UNL A   1      44.196  25.320  26.776  1.00  0.00     0.049 A 
ATOM     43  N   UNL A   1      42.213  27.156  28.144  1.00  0.00    -0.248 NA
ATOM     44  C   UNL A   1      40.727  25.364  28.267  1.00  0.00     0.031 C 
ATOM     45  C   UNL A   1      45.162  24.480  26.064  1.00  0.00     0.029 A 
ATOM     46  N   UNL A   1      44.834  26.526  26.899  1.00  0.00    -0.354 N 
ATOM     47  C   UNL A   1      41.022  27.581  28.725  1.00  0.00     0.074 A 
ATOM     48  C   UNL A   1      40.112  26.459  28.686  1.00  0.00     0.031 C 
ATOM     49  C   UNL A   1      46.284  25.186  25.851  1.00  0.00     0.029 A 
ATOM     50  C   UNL A   1      46.102  26.539  26.365  1.00  0.00     0.049 A 
ATOM     51  H   UNL A   1      44.424  27.311  27.330  1.00  0.00     0.167 HD
ATOM     52  C   UNL A   1      40.727  28.785  29.273  1.00  0.00     0.034 A 
ATOM     53  C   UNL A   1      47.009  27.533  26.298  1.00  0.00     0.034 A 
ATOM     54  C   UNL A   1      41.660  29.883  29.316  1.00  0.00     0.049 A 
ATOM     55  C   UNL A   1      46.657  28.868  26.906  1.00  0.00     0.074 A 
ATOM     56  C   UNL A   1      41.495  31.138  29.875  1.00  0.00     0.029 A 
ATOM     57  N   UNL A   1      42.941  29.857  28.774  1.00  0.00    -0.354 N 
ATOM     58  N   UNL A   1      45.541  29.244  27.490  1.00  0.00    -0.248 NA
ATOM     59  C   UNL A   1      47.694  29.903  26.865  1.00  0.00     0.031 C 
ATOM     60  C   UNL A   1      42.642  31.891  29.608  1.00  0.00     0.029 A 
ATOM     61  C   UNL A   1      43.565  31.079  28.965  1.00  0.00     0.049 A 
ATOM     62  H   UNL A   1      43.346  29.083  28.321  1.00  0.00     0.167 HD
ATOM     63  C   UNL A   1      45.760  30.549  27.924  1.00  0.00     0.074 A 
ATOM     64  C   UNL A   1      47.120  30.882  27.548  1.00  0.00     0.031 C 
ATOM     65  C   UNL A   1      44.921  31.394  28.578  1.00  0.00     0.034 A 
BRANCH  52  66
ATOM     66  C   UNL A   1      39.337  28.970  29.840  1.00  0.00     0.023 A 
ATOM     67  C   UNL A   1      38.302  29.558  29.088  1.00  0.00     0.031 A 
ATOM     68  C   UNL A   1      39.050  28.597  31.164  1.00  0.00     0.131 A 
ATOM     69  C   UNL A   1      37.066  29.836  29.692  1.00  0.00     0.055 A 
ATOM     70  C   UNL A   1      37.787  28.789  31.729  1.00  0.00     0.041 A 
ATOM     71  F   UNL A   1      40.000  28.055  31.943  1.00  0.00    -0.206 F 
ATOM     72  C   UNL A   1      36.791  29.429  30.998  1.00  0.00     0.022 A 
BRANCH  69  73
ATOM     73  S   UNL A   1      35.884  30.887  28.801  1.00  0.00     0.124 S 
ATOM     74  O   UNL A   1      36.778  31.721  28.002  1.00  0.00    -0.237 OA
ATOM     75  O   UNL A   1      35.089  29.913  28.064  1.00  0.00    -0.237 OA
ATOM     76  O   UNL A   1      35.178  31.591  29.871  1.00  0.00    -0.744 OA
ENDBRANCH  69  73
ENDBRANCH  52  66
BRANCH  53  77
ATOM     77  C   UNL A   1      48.333  27.310  25.648  1.00  0.00     0.023 A 
ATOM     78  C   UNL A   1      48.503  27.493  24.266  1.00  0.00     0.031 A 
ATOM     79  C   UNL A   1      49.440  26.866  26.393  1.00  0.00     0.131 A 
ATOM     80  C   UNL A   1      49.730  27.180  23.663  1.00  0.00     0.055 A 
ATOM     81  C   UNL A   1      50.678  26.615  25.797  1.00  0.00     0.041 A 
ATOM     82  F   UNL A   1      49.338  26.679  27.718  1.00  0.00    -0.206 F 
ATOM     83  C   UNL A   1      50.824  26.756  24.420  1.00  0.00     0.022 A 
BRANCH  80  84
ATOM     84  S   UNL A   1      49.847  27.236  21.853  1.00  0.00     0.124 S 
ATOM     85  O   UNL A   1      51.213  26.779  21.630  1.00  0.00    -0.237 OA
ATOM     86  O   UNL A   1      48.788  26.316  21.453  1.00  0.00    -0.237 OA
ATOM     87  O   UNL A   1      49.598  28.642  21.540  1.00  0.00    -0.744 OA
ENDBRANCH  80  84
ENDBRANCH  53  77
BRANCH  65  88
ATOM     88  C   UNL A   1      45.484  32.738  28.980  1.00  0.00     0.023 A 
ATOM     89  C   UNL A   1      45.326  33.881  28.179  1.00  0.00     0.031 A 
ATOM     90  C   UNL A   1      46.223  32.864  30.170  1.00  0.00     0.131 A 
ATOM     91  C   UNL A   1      45.969  35.076  28.532  1.00  0.00     0.055 A 
ATOM     92  C   UNL A   1      46.793  34.076  30.558  1.00  0.00     0.041 A 
ATOM     93  F   UNL A   1      46.410  31.805  30.975  1.00  0.00    -0.206 F 
ATOM     94  C   UNL A   1      46.685  35.186  29.726  1.00  0.00     0.022 A 
BRANCH  91  95
ATOM     95  S   UNL A   1      45.979  36.441  27.338  1.00  0.00     0.124 S 
ATOM     96  O   UNL A   1      47.108  37.240  27.801  1.00  0.00    -0.237 OA
ATOM     97  O   UNL A   1      46.168  35.744  26.070  1.00  0.00    -0.237 OA
ATOM     98  O   UNL A   1      44.667  37.061  27.516  1.00  0.00    -0.744 OA
ENDBRANCH  91  95
ENDBRANCH  65  88
ENDBRANCH  39  40
ENDBRANCH  31  34
ENDBRANCH  29  30
ENDBRANCH  28  29
ENDBRANCH  27  28
ENDBRANCH  26  27
ENDBRANCH   1  26
TORSDOF 23
ENDMDL
