MODEL 1
REMARK VINA RESULT:     -12.2      0.000      0.000
REMARK SMILES CC(=O)NS(=O)(=O)c1cc(-c2ccn(C(F)F)c(=O)c2)ccc1C(=O)NCCCCCCNC(=O)c1ccc(-c2c3nc(c(-c4cc(S(=O)(=O)[O-])ccc4F)c4ccc([nH]4)c(-c4cc(S(=O)(=O)[O-])ccc4F)c4nc(c(-c5cc(S(=O)(=O)[O-])ccc5F)c5ccc2[nH]5)C=C4)C=C3)cc1
REMARK SMILES IDX 30 1 29 2 28 3 27 4 26 5 24 6 25 7 23 9 8 10 9 11 10 12
REMARK SMILES IDX 22 13 21 14 5 15 6 16 7 17 4 18 1 19 2 20 3 21 11 23 12 24
REMARK SMILES IDX 20 25 13 26 18 27 14 28 19 29 15 30 16 31 17 32 31 33 32 34
REMARK SMILES IDX 33 35 34 36 35 38 36 39 37 40 98 41 38 42 97 43 39 44 40 45
REMARK SMILES IDX 41 46 91 47 42 48 96 49 90 50 92 51 43 52 95 53 89 54 88 55
REMARK SMILES IDX 44 57 76 58 56 59 75 60 57 61 60 62 74 63 93 64 58 65 59 66
REMARK SMILES IDX 73 68 94 69 61 70 45 71 46 72 54 73 47 74 53 75 55 76 52 77
REMARK SMILES IDX 48 78 49 79 50 80 51 81 77 82 78 83 86 84 79 85 85 86 87 87
REMARK SMILES IDX 84 88 80 89 81 90 82 91 83 92 62 93 63 94 71 95 64 96 70 97
REMARK SMILES IDX 72 98 69 99 65 100 66 101 67 102 68 103
REMARK H PARENT 26 8 4 22 33 37 92 56 60 67
REMARK Flexibility Score: inf
ROOT
ATOM      1  C   UNL A   1      31.906  30.507  26.825  1.00  0.00     0.002 C 
ENDROOT
BRANCH   1   2
ATOM      2  C   UNL A   1      33.354  30.013  26.750  1.00  0.00     0.002 C 
BRANCH   2   3
ATOM      3  C   UNL A   1      33.553  28.547  27.145  1.00  0.00     0.021 C 
BRANCH   3   4
ATOM      4  C   UNL A   1      33.733  27.581  25.964  1.00  0.00     0.116 C 
BRANCH   4   5
ATOM      5  N   UNL A   1      33.477  28.293  24.722  1.00  0.00    -0.352 N 
ATOM      6  C   UNL A   1      33.208  27.888  23.450  1.00  0.00     0.252 C 
ATOM      7  O   UNL A   1      33.127  28.740  22.564  1.00  0.00    -0.269 OA
ATOM      8  H   UNL A   1      33.505  29.272  24.821  1.00  0.00     0.163 HD
BRANCH   6   9
ATOM      9  C   UNL A   1      32.890  26.498  23.054  1.00  0.00     0.060 A 
ATOM     10  C   UNL A   1      31.680  25.839  23.300  1.00  0.00     0.101 A 
ATOM     11  C   UNL A   1      31.642  24.432  23.320  1.00  0.00     0.031 A 
ATOM     12  C   UNL A   1      32.811  23.680  23.151  1.00  0.00    -0.017 A 
ATOM     13  C   UNL A   1      34.032  25.725  22.752  1.00  0.00     0.016 A 
ATOM     14  C   UNL A   1      33.995  24.329  22.805  1.00  0.00     0.009 A 
BRANCH  10  15
ATOM     15  S   UNL A   1      30.209  26.728  23.696  1.00  0.00     0.264 S 
ATOM     16  O   UNL A   1      30.527  27.517  24.866  1.00  0.00    -0.201 OA
ATOM     17  O   UNL A   1      29.083  25.830  23.652  1.00  0.00    -0.201 OA
BRANCH  15  18
ATOM     18  N   UNL A   1      30.021  27.841  22.481  1.00  0.00    -0.249 N 
ATOM     19  C   UNL A   1      27.792  28.819  23.082  1.00  0.00     0.115 C 
ATOM     20  C   UNL A   1      29.139  28.929  22.430  1.00  0.00     0.230 C 
ATOM     21  O   UNL A   1      29.427  29.875  21.709  1.00  0.00    -0.274 OA
ATOM     22  H   UNL A   1      30.602  27.721  21.695  1.00  0.00     0.183 HD
ENDBRANCH  15  18
ENDBRANCH  10  15
BRANCH  12  23
ATOM     23  C   UNL A   1      32.830  22.279  23.614  1.00  0.00    -0.011 A 
ATOM     24  C   UNL A   1      33.164  21.978  24.996  1.00  0.00     0.027 A 
ATOM     25  C   UNL A   1      32.461  21.278  22.798  1.00  0.00     0.080 A 
ATOM     26  C   UNL A   1      33.042  20.738  25.475  1.00  0.00     0.095 A 
ATOM     27  C   UNL A   1      32.372  19.875  23.310  1.00  0.00     0.255 A 
ATOM     28  N   UNL A   1      32.630  19.702  24.662  1.00  0.00    -0.258 N 
ATOM     29  O   UNL A   1      32.068  18.984  22.524  1.00  0.00    -0.269 OA
BRANCH  28  30
ATOM     30  C   UNL A   1      32.472  18.375  25.203  1.00  0.00     0.451 C 
ATOM     31  F   UNL A   1      33.422  17.533  24.729  1.00  0.00    -0.185 F 
ATOM     32  F   UNL A   1      32.555  18.386  26.555  1.00  0.00    -0.185 F 
ENDBRANCH  28  30
ENDBRANCH  12  23
ENDBRANCH   6   9
ENDBRANCH   4   5
ENDBRANCH   3   4
ENDBRANCH   2   3
ENDBRANCH   1   2
BRANCH   1  33
ATOM     33  C   UNL A   1      31.700  32.028  26.916  1.00  0.00     0.021 C 
BRANCH  33  34
ATOM     34  C   UNL A   1      32.955  32.887  27.106  1.00  0.00     0.116 C 
BRANCH  34  35
ATOM     35  N   UNL A   1      32.665  34.180  27.699  1.00  0.00    -0.352 N 
ATOM     36  C   UNL A   1      33.230  34.798  28.787  1.00  0.00     0.251 C 
ATOM     37  H   UNL A   1      31.953  34.693  27.252  1.00  0.00     0.163 HD
ATOM     38  O   UNL A   1      32.749  35.854  29.194  1.00  0.00    -0.269 OA
BRANCH  36  39
ATOM     39  C   UNL A   1      34.388  34.202  29.493  1.00  0.00     0.039 A 
ATOM     40  C   UNL A   1      35.676  34.541  29.062  1.00  0.00     0.014 A 
ATOM     41  C   UNL A   1      34.222  33.273  30.526  1.00  0.00     0.014 A 
ATOM     42  C   UNL A   1      36.796  34.000  29.700  1.00  0.00     0.010 A 
ATOM     43  C   UNL A   1      35.343  32.748  31.176  1.00  0.00     0.010 A 
ATOM     44  C   UNL A   1      36.637  33.110  30.772  1.00  0.00    -0.014 A 
BRANCH  44  45
ATOM     45  C   UNL A   1      37.818  32.554  31.479  1.00  0.00     0.031 A 
ATOM     46  C   UNL A   1      38.624  31.449  30.858  1.00  0.00     0.074 A 
ATOM     47  C   UNL A   1      38.134  33.006  32.706  1.00  0.00     0.049 A 
ATOM     48  N   UNL A   1      39.623  30.771  31.362  1.00  0.00    -0.248 NA
ATOM     49  C   UNL A   1      38.242  31.047  29.498  1.00  0.00     0.031 C 
ATOM     50  C   UNL A   1      37.418  34.057  33.432  1.00  0.00     0.029 A 
ATOM     51  N   UNL A   1      39.128  32.620  33.570  1.00  0.00    -0.354 N 
ATOM     52  C   UNL A   1      39.976  29.841  30.393  1.00  0.00     0.074 A 
ATOM     53  C   UNL A   1      39.077  30.042  29.273  1.00  0.00     0.031 C 
ATOM     54  C   UNL A   1      37.986  34.219  34.640  1.00  0.00     0.029 A 
ATOM     55  C   UNL A   1      39.091  33.274  34.777  1.00  0.00     0.049 A 
ATOM     56  H   UNL A   1      39.803  31.939  33.345  1.00  0.00     0.167 HD
ATOM     57  C   UNL A   1      40.956  28.902  30.431  1.00  0.00     0.034 A 
ATOM     58  C   UNL A   1      39.847  33.116  35.880  1.00  0.00     0.034 A 
ATOM     59  C   UNL A   1      41.861  28.710  31.536  1.00  0.00     0.049 A 
ATOM     60  C   UNL A   1      40.944  32.091  35.890  1.00  0.00     0.074 A 
ATOM     61  C   UNL A   1      42.915  27.818  31.647  1.00  0.00     0.029 A 
ATOM     62  N   UNL A   1      41.814  29.418  32.727  1.00  0.00    -0.354 N 
ATOM     63  N   UNL A   1      41.267  31.222  34.964  1.00  0.00    -0.248 NA
ATOM     64  C   UNL A   1      41.777  32.029  37.099  1.00  0.00     0.031 C 
ATOM     65  C   UNL A   1      43.489  27.970  32.918  1.00  0.00     0.029 A 
ATOM     66  C   UNL A   1      42.810  28.975  33.586  1.00  0.00     0.049 A 
ATOM     67  H   UNL A   1      41.168  30.131  32.935  1.00  0.00     0.167 HD
ATOM     68  C   UNL A   1      42.345  30.510  35.475  1.00  0.00     0.074 A 
ATOM     69  C   UNL A   1      42.617  31.050  36.793  1.00  0.00     0.031 C 
ATOM     70  C   UNL A   1      43.052  29.506  34.902  1.00  0.00     0.034 A 
BRANCH  57  71
ATOM     71  C   UNL A   1      41.052  27.981  29.246  1.00  0.00     0.023 A 
ATOM     72  C   UNL A   1      42.049  28.141  28.270  1.00  0.00     0.031 A 
ATOM     73  C   UNL A   1      40.098  26.965  29.068  1.00  0.00     0.131 A 
ATOM     74  C   UNL A   1      42.034  27.331  27.124  1.00  0.00     0.055 A 
ATOM     75  C   UNL A   1      40.119  26.128  27.952  1.00  0.00     0.041 A 
ATOM     76  F   UNL A   1      39.114  26.788  29.964  1.00  0.00    -0.206 F 
ATOM     77  C   UNL A   1      41.085  26.317  26.965  1.00  0.00     0.022 A 
BRANCH  74  78
ATOM     78  S   UNL A   1      43.209  27.695  25.789  1.00  0.00     0.124 S 
ATOM     79  O   UNL A   1      43.982  26.457  25.729  1.00  0.00    -0.237 OA
ATOM     80  O   UNL A   1      42.327  27.952  24.656  1.00  0.00    -0.237 OA
ATOM     81  O   UNL A   1      43.942  28.857  26.285  1.00  0.00    -0.744 OA
ENDBRANCH  74  78
ENDBRANCH  57  71
BRANCH  58  82
ATOM     82  C   UNL A   1      39.556  33.916  37.093  1.00  0.00     0.023 A 
ATOM     83  C   UNL A   1      38.821  33.377  38.159  1.00  0.00     0.031 A 
ATOM     84  C   UNL A   1      40.016  35.239  37.191  1.00  0.00     0.131 A 
ATOM     85  C   UNL A   1      38.549  34.171  39.281  1.00  0.00     0.055 A 
ATOM     86  C   UNL A   1      39.753  36.021  38.314  1.00  0.00     0.041 A 
ATOM     87  F   UNL A   1      40.734  35.782  36.195  1.00  0.00    -0.206 F 
ATOM     88  C   UNL A   1      39.012  35.489  39.367  1.00  0.00     0.022 A 
BRANCH  85  89
ATOM     89  S   UNL A   1      37.572  33.456  40.635  1.00  0.00     0.124 S 
ATOM     90  O   UNL A   1      37.249  34.636  41.430  1.00  0.00    -0.237 OA
ATOM     91  O   UNL A   1      36.459  32.845  39.917  1.00  0.00    -0.237 OA
ATOM     92  O   UNL A   1      38.496  32.514  41.262  1.00  0.00    -0.744 OA
ENDBRANCH  85  89
ENDBRANCH  58  82
BRANCH  70  93
ATOM     93  C   UNL A   1      44.198  28.956  35.700  1.00  0.00     0.023 A 
ATOM     94  C   UNL A   1      44.030  27.851  36.551  1.00  0.00     0.031 A 
ATOM     95  C   UNL A   1      45.461  29.566  35.630  1.00  0.00     0.131 A 
ATOM     96  C   UNL A   1      45.111  27.402  37.325  1.00  0.00     0.055 A 
ATOM     97  C   UNL A   1      46.537  29.104  36.386  1.00  0.00     0.041 A 
ATOM     98  F   UNL A   1      45.661  30.628  34.834  1.00  0.00    -0.206 F 
ATOM     99  C   UNL A   1      46.363  28.019  37.245  1.00  0.00     0.022 A 
BRANCH  96 100
ATOM    100  S   UNL A   1      44.851  26.018  38.471  1.00  0.00     0.124 S 
ATOM    101  O   UNL A   1      43.995  26.620  39.489  1.00  0.00    -0.237 OA
ATOM    102  O   UNL A   1      44.220  25.017  37.619  1.00  0.00    -0.237 OA
ATOM    103  O   UNL A   1      46.202  25.685  38.919  1.00  0.00    -0.744 OA
ENDBRANCH  96 100
ENDBRANCH  70  93
ENDBRANCH  44  45
ENDBRANCH  36  39
ENDBRANCH  34  35
ENDBRANCH  33  34
ENDBRANCH   1  33
TORSDOF 20
ENDMDL
MODEL 2
REMARK VINA RESULT:     -11.9      1.653      2.137
REMARK SMILES CC(=O)NS(=O)(=O)c1cc(-c2ccn(C(F)F)c(=O)c2)ccc1C(=O)NCCCCCCNC(=O)c1ccc(-c2c3nc(c(-c4cc(S(=O)(=O)[O-])ccc4F)c4ccc([nH]4)c(-c4cc(S(=O)(=O)[O-])ccc4F)c4nc(c(-c5cc(S(=O)(=O)[O-])ccc5F)c5ccc2[nH]5)C=C4)C=C3)cc1
REMARK SMILES IDX 30 1 29 2 28 3 27 4 26 5 24 6 25 7 23 9 8 10 9 11 10 12
REMARK SMILES IDX 22 13 21 14 5 15 6 16 7 17 4 18 1 19 2 20 3 21 11 23 12 24
REMARK SMILES IDX 20 25 13 26 18 27 14 28 19 29 15 30 16 31 17 32 31 33 32 34
REMARK SMILES IDX 33 35 34 36 35 38 36 39 37 40 98 41 38 42 97 43 39 44 40 45
REMARK SMILES IDX 41 46 91 47 42 48 96 49 90 50 92 51 43 52 95 53 89 54 88 55
REMARK SMILES IDX 44 57 76 58 56 59 75 60 57 61 60 62 74 63 93 64 58 65 59 66
REMARK SMILES IDX 73 68 94 69 61 70 45 71 46 72 54 73 47 74 53 75 55 76 52 77
REMARK SMILES IDX 48 78 49 79 50 80 51 81 77 82 78 83 86 84 79 85 85 86 87 87
REMARK SMILES IDX 84 88 80 89 81 90 82 91 83 92 62 93 63 94 71 95 64 96 70 97
REMARK SMILES IDX 72 98 69 99 65 100 66 101 67 102 68 103
REMARK H PARENT 26 8 4 22 33 37 92 56 60 67
REMARK Flexibility Score: inf
ROOT
ATOM      1  C   UNL A   1      31.237  30.830  26.681  1.00  0.00     0.002 C 
ENDROOT
BRANCH   1   2
ATOM      2  C   UNL A   1      31.808  29.824  25.677  1.00  0.00     0.002 C 
BRANCH   2   3
ATOM      3  C   UNL A   1      33.299  29.520  25.850  1.00  0.00     0.021 C 
BRANCH   3   4
ATOM      4  C   UNL A   1      33.607  28.197  26.568  1.00  0.00     0.116 C 
BRANCH   4   5
ATOM      5  N   UNL A   1      32.365  27.474  26.789  1.00  0.00    -0.352 N 
ATOM      6  C   UNL A   1      31.912  26.253  26.392  1.00  0.00     0.252 C 
ATOM      7  O   UNL A   1      30.750  25.940  26.659  1.00  0.00    -0.269 OA
ATOM      8  H   UNL A   1      31.717  27.971  27.338  1.00  0.00     0.163 HD
BRANCH   6   9
ATOM      9  C   UNL A   1      32.741  25.209  25.751  1.00  0.00     0.060 A 
ATOM     10  C   UNL A   1      32.785  24.933  24.380  1.00  0.00     0.101 A 
ATOM     11  C   UNL A   1      33.210  23.668  23.934  1.00  0.00     0.031 A 
ATOM     12  C   UNL A   1      33.537  22.658  24.848  1.00  0.00    -0.017 A 
ATOM     13  C   UNL A   1      33.203  24.226  26.653  1.00  0.00     0.016 A 
ATOM     14  C   UNL A   1      33.593  22.960  26.207  1.00  0.00     0.009 A 
BRANCH  10  15
ATOM     15  S   UNL A   1      32.217  26.101  23.186  1.00  0.00     0.264 S 
ATOM     16  O   UNL A   1      31.943  25.338  21.987  1.00  0.00    -0.201 OA
ATOM     17  O   UNL A   1      33.087  27.249  23.189  1.00  0.00    -0.201 OA
BRANCH  15  18
ATOM     18  N   UNL A   1      30.725  26.592  23.718  1.00  0.00    -0.249 N 
ATOM     19  C   UNL A   1      30.437  28.715  22.415  1.00  0.00     0.115 C 
ATOM     20  C   UNL A   1      29.863  27.531  23.137  1.00  0.00     0.230 C 
ATOM     21  O   UNL A   1      28.666  27.449  23.382  1.00  0.00    -0.274 OA
ATOM     22  H   UNL A   1      30.405  26.171  24.549  1.00  0.00     0.183 HD
ENDBRANCH  15  18
ENDBRANCH  10  15
BRANCH  12  23
ATOM     23  C   UNL A   1      33.537  21.255  24.390  1.00  0.00    -0.011 A 
ATOM     24  C   UNL A   1      34.464  20.303  24.978  1.00  0.00     0.027 A 
ATOM     25  C   UNL A   1      32.633  20.821  23.496  1.00  0.00     0.080 A 
ATOM     26  C   UNL A   1      34.381  19.001  24.691  1.00  0.00     0.095 A 
ATOM     27  C   UNL A   1      32.567  19.373  23.126  1.00  0.00     0.255 A 
ATOM     28  N   UNL A   1      33.437  18.530  23.801  1.00  0.00    -0.258 N 
ATOM     29  O   UNL A   1      31.753  19.023  22.277  1.00  0.00    -0.269 OA
BRANCH  28  30
ATOM     30  C   UNL A   1      33.341  17.118  23.528  1.00  0.00     0.451 C 
ATOM     31  F   UNL A   1      34.399  16.683  22.802  1.00  0.00    -0.185 F 
ATOM     32  F   UNL A   1      33.293  16.401  24.676  1.00  0.00    -0.185 F 
ENDBRANCH  28  30
ENDBRANCH  12  23
ENDBRANCH   6   9
ENDBRANCH   4   5
ENDBRANCH   3   4
ENDBRANCH   2   3
ENDBRANCH   1   2
BRANCH   1  33
ATOM     33  C   UNL A   1      31.669  32.295  26.511  1.00  0.00     0.021 C 
BRANCH  33  34
ATOM     34  C   UNL A   1      32.896  32.753  27.306  1.00  0.00     0.116 C 
BRANCH  34  35
ATOM     35  N   UNL A   1      32.754  34.099  27.831  1.00  0.00    -0.352 N 
ATOM     36  C   UNL A   1      33.442  34.730  28.839  1.00  0.00     0.251 C 
ATOM     37  H   UNL A   1      32.057  34.643  27.399  1.00  0.00     0.163 HD
ATOM     38  O   UNL A   1      33.078  35.845  29.206  1.00  0.00    -0.269 OA
BRANCH  36  39
ATOM     39  C   UNL A   1      34.594  34.080  29.505  1.00  0.00     0.039 A 
ATOM     40  C   UNL A   1      35.886  34.437  29.101  1.00  0.00     0.014 A 
ATOM     41  C   UNL A   1      34.419  33.086  30.474  1.00  0.00     0.014 A 
ATOM     42  C   UNL A   1      37.000  33.847  29.703  1.00  0.00     0.010 A 
ATOM     43  C   UNL A   1      35.534  32.510  31.091  1.00  0.00     0.010 A 
ATOM     44  C   UNL A   1      36.832  32.889  30.714  1.00  0.00    -0.014 A 
BRANCH  44  45
ATOM     45  C   UNL A   1      38.007  32.279  31.385  1.00  0.00     0.031 A 
ATOM     46  C   UNL A   1      38.756  31.154  30.729  1.00  0.00     0.074 A 
ATOM     47  C   UNL A   1      38.368  32.701  32.610  1.00  0.00     0.049 A 
ATOM     48  N   UNL A   1      39.740  30.431  31.200  1.00  0.00    -0.248 NA
ATOM     49  C   UNL A   1      38.328  30.786  29.373  1.00  0.00     0.031 C 
ATOM     50  C   UNL A   1      37.709  33.767  33.368  1.00  0.00     0.029 A 
ATOM     51  N   UNL A   1      39.367  32.264  33.445  1.00  0.00    -0.354 N 
ATOM     52  C   UNL A   1      40.035  29.503  30.210  1.00  0.00     0.074 A 
ATOM     53  C   UNL A   1      39.119  29.755  29.114  1.00  0.00     0.031 C 
ATOM     54  C   UNL A   1      38.311  33.889  34.563  1.00  0.00     0.029 A 
ATOM     55  C   UNL A   1      39.382  32.902  34.662  1.00  0.00     0.049 A 
ATOM     56  H   UNL A   1      40.010  31.562  33.195  1.00  0.00     0.167 HD
ATOM     57  C   UNL A   1      40.979  28.528  30.211  1.00  0.00     0.034 A 
ATOM     58  C   UNL A   1      40.157  32.699  35.744  1.00  0.00     0.034 A 
ATOM     59  C   UNL A   1      41.902  28.285  31.292  1.00  0.00     0.049 A 
ATOM     60  C   UNL A   1      41.214  31.634  35.714  1.00  0.00     0.074 A 
ATOM     61  C   UNL A   1      42.924  27.353  31.366  1.00  0.00     0.029 A 
ATOM     62  N   UNL A   1      41.909  28.977  32.494  1.00  0.00    -0.354 N 
ATOM     63  N   UNL A   1      41.483  30.767  34.768  1.00  0.00    -0.248 NA
ATOM     64  C   UNL A   1      42.073  31.523  36.901  1.00  0.00     0.031 C 
ATOM     65  C   UNL A   1      43.532  27.464  32.625  1.00  0.00     0.029 A 
ATOM     66  C   UNL A   1      42.907  28.485  33.323  1.00  0.00     0.049 A 
ATOM     67  H   UNL A   1      41.296  29.711  32.727  1.00  0.00     0.167 HD
ATOM     68  C   UNL A   1      42.545  30.008  35.244  1.00  0.00     0.074 A 
ATOM     69  C   UNL A   1      42.868  30.517  36.562  1.00  0.00     0.031 C 
ATOM     70  C   UNL A   1      43.200  28.987  34.640  1.00  0.00     0.034 A 
BRANCH  57  71
ATOM     71  C   UNL A   1      41.013  27.621  29.012  1.00  0.00     0.023 A 
ATOM     72  C   UNL A   1      41.988  27.763  28.011  1.00  0.00     0.031 A 
ATOM     73  C   UNL A   1      40.022  26.639  28.847  1.00  0.00     0.131 A 
ATOM     74  C   UNL A   1      41.915  26.972  26.855  1.00  0.00     0.055 A 
ATOM     75  C   UNL A   1      39.986  25.819  27.719  1.00  0.00     0.041 A 
ATOM     76  F   UNL A   1      39.058  26.481  29.767  1.00  0.00    -0.206 F 
ATOM     77  C   UNL A   1      40.930  25.990  26.709  1.00  0.00     0.022 A 
BRANCH  74  78
ATOM     78  S   UNL A   1      43.064  27.316  25.492  1.00  0.00     0.124 S 
ATOM     79  O   UNL A   1      44.158  27.988  26.189  1.00  0.00    -0.237 OA
ATOM     80  O   UNL A   1      43.355  25.982  24.981  1.00  0.00    -0.237 OA
ATOM     81  O   UNL A   1      42.287  28.171  24.598  1.00  0.00    -0.744 OA
ENDBRANCH  74  78
ENDBRANCH  57  71
BRANCH  58  82
ATOM     82  C   UNL A   1      39.925  33.491  36.974  1.00  0.00     0.023 A 
ATOM     83  C   UNL A   1      40.717  34.608  37.279  1.00  0.00     0.031 A 
ATOM     84  C   UNL A   1      38.900  33.128  37.863  1.00  0.00     0.131 A 
ATOM     85  C   UNL A   1      40.481  35.320  38.463  1.00  0.00     0.055 A 
ATOM     86  C   UNL A   1      38.661  33.845  39.034  1.00  0.00     0.041 A 
ATOM     87  F   UNL A   1      38.115  32.072  37.597  1.00  0.00    -0.206 F 
ATOM     88  C   UNL A   1      39.456  34.948  39.340  1.00  0.00     0.022 A 
BRANCH  85  89
ATOM     89  S   UNL A   1      41.538  36.746  38.844  1.00  0.00     0.124 S 
ATOM     90  O   UNL A   1      42.460  36.185  39.825  1.00  0.00    -0.237 OA
ATOM     91  O   UNL A   1      42.107  37.061  37.538  1.00  0.00    -0.237 OA
ATOM     92  O   UNL A   1      40.599  37.738  39.365  1.00  0.00    -0.744 OA
ENDBRANCH  85  89
ENDBRANCH  58  82
BRANCH  70  93
ATOM     93  C   UNL A   1      44.342  28.382  35.403  1.00  0.00     0.023 A 
ATOM     94  C   UNL A   1      44.121  27.455  36.434  1.00  0.00     0.031 A 
ATOM     95  C   UNL A   1      45.663  28.765  35.113  1.00  0.00     0.131 A 
ATOM     96  C   UNL A   1      45.211  26.956  37.164  1.00  0.00     0.055 A 
ATOM     97  C   UNL A   1      46.744  28.251  35.827  1.00  0.00     0.041 A 
ATOM     98  F   UNL A   1      45.916  29.653  34.139  1.00  0.00    -0.206 F 
ATOM     99  C   UNL A   1      46.520  27.345  36.863  1.00  0.00     0.022 A 
BRANCH  96 100
ATOM    100  S   UNL A   1      44.895  25.814  38.539  1.00  0.00     0.124 S 
ATOM    101  O   UNL A   1      46.182  25.799  39.226  1.00  0.00    -0.237 OA
ATOM    102  O   UNL A   1      43.801  26.469  39.248  1.00  0.00    -0.237 OA
ATOM    103  O   UNL A   1      44.537  24.563  37.872  1.00  0.00    -0.744 OA
ENDBRANCH  96 100
ENDBRANCH  70  93
ENDBRANCH  44  45
ENDBRANCH  36  39
ENDBRANCH  34  35
ENDBRANCH  33  34
ENDBRANCH   1  33
TORSDOF 20
ENDMDL
MODEL 3
REMARK VINA RESULT:     -11.4      1.811      2.344
REMARK SMILES CC(=O)NS(=O)(=O)c1cc(-c2ccn(C(F)F)c(=O)c2)ccc1C(=O)NCCCCCCNC(=O)c1ccc(-c2c3nc(c(-c4cc(S(=O)(=O)[O-])ccc4F)c4ccc([nH]4)c(-c4cc(S(=O)(=O)[O-])ccc4F)c4nc(c(-c5cc(S(=O)(=O)[O-])ccc5F)c5ccc2[nH]5)C=C4)C=C3)cc1
REMARK SMILES IDX 30 1 29 2 28 3 27 4 26 5 24 6 25 7 23 9 8 10 9 11 10 12
REMARK SMILES IDX 22 13 21 14 5 15 6 16 7 17 4 18 1 19 2 20 3 21 11 23 12 24
REMARK SMILES IDX 20 25 13 26 18 27 14 28 19 29 15 30 16 31 17 32 31 33 32 34
REMARK SMILES IDX 33 35 34 36 35 38 36 39 37 40 98 41 38 42 97 43 39 44 40 45
REMARK SMILES IDX 41 46 91 47 42 48 96 49 90 50 92 51 43 52 95 53 89 54 88 55
REMARK SMILES IDX 44 57 76 58 56 59 75 60 57 61 60 62 74 63 93 64 58 65 59 66
REMARK SMILES IDX 73 68 94 69 61 70 45 71 46 72 54 73 47 74 53 75 55 76 52 77
REMARK SMILES IDX 48 78 49 79 50 80 51 81 77 82 78 83 86 84 79 85 85 86 87 87
REMARK SMILES IDX 84 88 80 89 81 90 82 91 83 92 62 93 63 94 71 95 64 96 70 97
REMARK SMILES IDX 72 98 69 99 65 100 66 101 67 102 68 103
REMARK H PARENT 26 8 4 22 33 37 92 56 60 67
REMARK Flexibility Score: inf
ROOT
ATOM      1  C   UNL A   1      34.609  30.530  27.707  1.00  0.00     0.002 C 
ENDROOT
BRANCH   1   2
ATOM      2  C   UNL A   1      34.445  29.624  26.482  1.00  0.00     0.002 C 
BRANCH   2   3
ATOM      3  C   UNL A   1      33.753  28.286  26.762  1.00  0.00     0.021 C 
BRANCH   3   4
ATOM      4  C   UNL A   1      32.641  27.917  25.769  1.00  0.00     0.116 C 
BRANCH   4   5
ATOM      5  N   UNL A   1      31.705  27.012  26.416  1.00  0.00    -0.352 N 
ATOM      6  C   UNL A   1      31.436  25.685  26.272  1.00  0.00     0.252 C 
ATOM      7  O   UNL A   1      30.499  25.200  26.909  1.00  0.00    -0.269 OA
ATOM      8  H   UNL A   1      31.149  27.450  27.100  1.00  0.00     0.163 HD
BRANCH   6   9
ATOM      9  C   UNL A   1      32.256  24.735  25.487  1.00  0.00     0.060 A 
ATOM     10  C   UNL A   1      31.942  24.254  24.211  1.00  0.00     0.101 A 
ATOM     11  C   UNL A   1      32.501  23.042  23.764  1.00  0.00     0.031 A 
ATOM     12  C   UNL A   1      33.325  22.280  24.602  1.00  0.00    -0.017 A 
ATOM     13  C   UNL A   1      33.193  24.024  26.266  1.00  0.00     0.016 A 
ATOM     14  C   UNL A   1      33.720  22.805  25.831  1.00  0.00     0.009 A 
BRANCH  10  15
ATOM     15  S   UNL A   1      30.772  25.075  23.177  1.00  0.00     0.264 S 
ATOM     16  O   UNL A   1      30.720  26.442  23.647  1.00  0.00    -0.201 OA
ATOM     17  O   UNL A   1      29.593  24.257  23.047  1.00  0.00    -0.201 OA
BRANCH  15  18
ATOM     18  N   UNL A   1      31.489  25.174  21.685  1.00  0.00    -0.249 N 
ATOM     19  C   UNL A   1      33.481  26.602  22.216  1.00  0.00     0.115 C 
ATOM     20  C   UNL A   1      32.801  25.559  21.377  1.00  0.00     0.230 C 
ATOM     21  O   UNL A   1      33.293  25.158  20.331  1.00  0.00    -0.274 OA
ATOM     22  H   UNL A   1      30.921  24.931  20.918  1.00  0.00     0.183 HD
ENDBRANCH  15  18
ENDBRANCH  10  15
BRANCH  12  23
ATOM     23  C   UNL A   1      33.522  20.849  24.298  1.00  0.00    -0.011 A 
ATOM     24  C   UNL A   1      34.683  20.152  24.825  1.00  0.00     0.027 A 
ATOM     25  C   UNL A   1      32.598  20.156  23.612  1.00  0.00     0.080 A 
ATOM     26  C   UNL A   1      34.804  18.828  24.692  1.00  0.00     0.095 A 
ATOM     27  C   UNL A   1      32.751  18.682  23.409  1.00  0.00     0.255 A 
ATOM     28  N   UNL A   1      33.850  18.094  24.019  1.00  0.00    -0.258 N 
ATOM     29  O   UNL A   1      31.907  18.092  22.744  1.00  0.00    -0.269 OA
BRANCH  28  30
ATOM     30  C   UNL A   1      33.980  16.662  23.913  1.00  0.00     0.451 C 
ATOM     31  F   UNL A   1      35.096  16.221  24.544  1.00  0.00    -0.185 F 
ATOM     32  F   UNL A   1      32.912  16.032  24.458  1.00  0.00    -0.185 F 
ENDBRANCH  28  30
ENDBRANCH  12  23
ENDBRANCH   6   9
ENDBRANCH   4   5
ENDBRANCH   3   4
ENDBRANCH   2   3
ENDBRANCH   1   2
BRANCH   1  33
ATOM     33  C   UNL A   1      33.440  31.475  28.027  1.00  0.00     0.021 C 
BRANCH  33  34
ATOM     34  C   UNL A   1      33.141  32.578  27.006  1.00  0.00     0.116 C 
BRANCH  34  35
ATOM     35  N   UNL A   1      32.774  33.836  27.631  1.00  0.00    -0.352 N 
ATOM     36  C   UNL A   1      33.309  34.466  28.728  1.00  0.00     0.251 C 
ATOM     37  H   UNL A   1      32.025  34.311  27.203  1.00  0.00     0.163 HD
ATOM     38  O   UNL A   1      32.765  35.478  29.163  1.00  0.00    -0.269 OA
BRANCH  36  39
ATOM     39  C   UNL A   1      34.512  33.931  29.408  1.00  0.00     0.039 A 
ATOM     40  C   UNL A   1      34.335  33.147  30.555  1.00  0.00     0.014 A 
ATOM     41  C   UNL A   1      35.804  34.238  28.969  1.00  0.00     0.014 A 
ATOM     42  C   UNL A   1      35.443  32.624  31.227  1.00  0.00     0.010 A 
ATOM     43  C   UNL A   1      36.911  33.698  29.630  1.00  0.00     0.010 A 
ATOM     44  C   UNL A   1      36.740  32.883  30.760  1.00  0.00    -0.014 A 
BRANCH  44  45
ATOM     45  C   UNL A   1      37.923  32.306  31.445  1.00  0.00     0.031 A 
ATOM     46  C   UNL A   1      38.720  31.213  30.792  1.00  0.00     0.074 A 
ATOM     47  C   UNL A   1      38.249  32.728  32.680  1.00  0.00     0.049 A 
ATOM     48  N   UNL A   1      39.720  30.519  31.272  1.00  0.00    -0.248 NA
ATOM     49  C   UNL A   1      38.327  30.845  29.426  1.00  0.00     0.031 C 
ATOM     50  C   UNL A   1      37.542  33.763  33.436  1.00  0.00     0.029 A 
ATOM     51  N   UNL A   1      39.248  32.317  33.527  1.00  0.00    -0.354 N 
ATOM     52  C   UNL A   1      40.063  29.611  30.279  1.00  0.00     0.074 A 
ATOM     53  C   UNL A   1      39.157  29.843  29.170  1.00  0.00     0.031 C 
ATOM     54  C   UNL A   1      38.120  33.894  34.643  1.00  0.00     0.029 A 
ATOM     55  C   UNL A   1      39.222  32.942  34.750  1.00  0.00     0.049 A 
ATOM     56  H   UNL A   1      39.919  31.639  33.282  1.00  0.00     0.167 HD
ATOM     57  C   UNL A   1      41.039  28.668  30.287  1.00  0.00     0.034 A 
ATOM     58  C   UNL A   1      39.985  32.755  35.843  1.00  0.00     0.034 A 
ATOM     59  C   UNL A   1      41.951  28.446  31.381  1.00  0.00     0.049 A 
ATOM     60  C   UNL A   1      41.078  31.726  35.821  1.00  0.00     0.074 A 
ATOM     61  C   UNL A   1      43.002  27.548  31.464  1.00  0.00     0.029 A 
ATOM     62  N   UNL A   1      41.915  29.126  32.589  1.00  0.00    -0.354 N 
ATOM     63  N   UNL A   1      41.391  30.878  34.872  1.00  0.00    -0.248 NA
ATOM     64  C   UNL A   1      41.920  31.632  37.022  1.00  0.00     0.031 C 
ATOM     65  C   UNL A   1      43.586  27.667  32.734  1.00  0.00     0.029 A 
ATOM     66  C   UNL A   1      42.915  28.659  33.430  1.00  0.00     0.049 A 
ATOM     67  H   UNL A   1      41.273  29.837  32.819  1.00  0.00     0.167 HD
ATOM     68  C   UNL A   1      42.470  30.150  35.359  1.00  0.00     0.074 A 
ATOM     69  C   UNL A   1      42.754  30.658  36.687  1.00  0.00     0.031 C 
ATOM     70  C   UNL A   1      43.169  29.158  34.757  1.00  0.00     0.034 A 
BRANCH  57  71
ATOM     71  C   UNL A   1      41.123  27.775  29.081  1.00  0.00     0.023 A 
ATOM     72  C   UNL A   1      42.076  27.991  28.072  1.00  0.00     0.031 A 
ATOM     73  C   UNL A   1      40.200  26.729  28.916  1.00  0.00     0.131 A 
ATOM     74  C   UNL A   1      42.047  27.205  26.910  1.00  0.00     0.055 A 
ATOM     75  C   UNL A   1      40.209  25.916  27.783  1.00  0.00     0.041 A 
ATOM     76  F   UNL A   1      39.258  26.498  29.844  1.00  0.00    -0.206 F 
ATOM     77  C   UNL A   1      41.130  26.160  26.765  1.00  0.00     0.022 A 
BRANCH  74  78
ATOM     78  S   UNL A   1      43.156  27.638  25.540  1.00  0.00     0.124 S 
ATOM     79  O   UNL A   1      44.103  28.535  26.197  1.00  0.00    -0.237 OA
ATOM     80  O   UNL A   1      43.682  26.338  25.138  1.00  0.00    -0.237 OA
ATOM     81  O   UNL A   1      42.270  28.279  24.572  1.00  0.00    -0.744 OA
ENDBRANCH  74  78
ENDBRANCH  57  71
BRANCH  58  82
ATOM     82  C   UNL A   1      39.706  33.526  37.077  1.00  0.00     0.023 A 
ATOM     83  C   UNL A   1      38.993  32.959  38.143  1.00  0.00     0.031 A 
ATOM     84  C   UNL A   1      40.155  34.852  37.196  1.00  0.00     0.131 A 
ATOM     85  C   UNL A   1      38.731  33.727  39.286  1.00  0.00     0.055 A 
ATOM     86  C   UNL A   1      39.903  35.608  38.338  1.00  0.00     0.041 A 
ATOM     87  F   UNL A   1      40.853  35.423  36.200  1.00  0.00    -0.206 F 
ATOM     88  C   UNL A   1      39.184  35.047  39.391  1.00  0.00     0.022 A 
BRANCH  85  89
ATOM     89  S   UNL A   1      37.782  32.975  40.639  1.00  0.00     0.124 S 
ATOM     90  O   UNL A   1      37.940  33.962  41.703  1.00  0.00    -0.237 OA
ATOM     91  O   UNL A   1      36.448  32.872  40.055  1.00  0.00    -0.237 OA
ATOM     92  O   UNL A   1      38.459  31.700  40.863  1.00  0.00    -0.744 OA
ENDBRANCH  85  89
ENDBRANCH  58  82
BRANCH  70  93
ATOM     93  C   UNL A   1      44.318  28.584  35.533  1.00  0.00     0.023 A 
ATOM     94  C   UNL A   1      45.621  29.088  35.387  1.00  0.00     0.031 A 
ATOM     95  C   UNL A   1      44.108  27.501  36.404  1.00  0.00     0.131 A 
ATOM     96  C   UNL A   1      46.679  28.487  36.086  1.00  0.00     0.055 A 
ATOM     97  C   UNL A   1      45.160  26.921  37.112  1.00  0.00     0.041 A 
ATOM     98  F   UNL A   1      42.879  26.987  36.567  1.00  0.00    -0.206 F 
ATOM     99  C   UNL A   1      46.455  27.410  36.950  1.00  0.00     0.022 A 
BRANCH  96 100
ATOM    100  S   UNL A   1      48.365  29.108  35.825  1.00  0.00     0.124 S 
ATOM    101  O   UNL A   1      48.747  28.444  34.583  1.00  0.00    -0.237 OA
ATOM    102  O   UNL A   1      48.160  30.550  35.739  1.00  0.00    -0.237 OA
ATOM    103  O   UNL A   1      49.085  28.657  37.015  1.00  0.00    -0.744 OA
ENDBRANCH  96 100
ENDBRANCH  70  93
ENDBRANCH  44  45
ENDBRANCH  36  39
ENDBRANCH  34  35
ENDBRANCH  33  34
ENDBRANCH   1  33
TORSDOF 20
ENDMDL
