MODEL 1
REMARK VINA RESULT:     -11.8      0.000      0.000
REMARK SMILES O=C(C[C@@H]1CN(c2ccc([N+](=O)[O-])cc2Cl)CCO1)NCCCCCCNC(=O)c1ccc(-c2c3nc(c(-c4cc(S(=O)(=O)[O-])ccc4F)c4ccc([nH]4)c(-c4cc(S(=O)(=O)[O-])ccc4F)c4nc(c(-c5cc(S(=O)(=O)[O-])ccc5F)c5ccc2[nH]5)C=C4)C=C3)cc1
REMARK SMILES IDX 23 1 22 2 21 3 20 4 1 5 2 6 3 8 4 9 5 10 19 11 6 12 18 13
REMARK SMILES IDX 17 14 7 15 8 16 15 17 9 18 14 19 16 20 10 21 11 22 12 23
REMARK SMILES IDX 13 24 24 25 25 26 26 27 27 28 28 29 29 31 30 32 31 33 92 34
REMARK SMILES IDX 32 35 91 36 33 37 34 38 35 39 85 40 36 41 90 42 84 43 86 44
REMARK SMILES IDX 37 45 89 46 83 47 82 48 38 50 70 51 50 52 69 53 51 54 54 55
REMARK SMILES IDX 68 56 87 57 52 58 53 59 67 61 88 62 55 63 39 64 40 65 48 66
REMARK SMILES IDX 41 67 47 68 49 69 46 70 42 71 43 72 44 73 45 74 71 75 72 76
REMARK SMILES IDX 80 77 73 78 79 79 81 80 78 81 74 82 75 83 76 84 77 85 56 86
REMARK SMILES IDX 57 87 65 88 58 89 64 90 66 91 63 92 59 93 60 94 61 95 62 96
REMARK H PARENT 20 7 27 30 86 49 54 60
REMARK Flexibility Score: inf
ROOT
ATOM      1  C   UNL A   1      31.244  26.563  26.500  1.00  0.00     0.002 C 
ENDROOT
BRANCH   1   2
ATOM      2  C   UNL A   1      30.279  26.713  25.315  1.00  0.00     0.021 C 
BRANCH   2   3
ATOM      3  C   UNL A   1      30.947  27.111  23.999  1.00  0.00     0.116 C 
BRANCH   3   4
ATOM      4  N   UNL A   1      31.844  26.071  23.543  1.00  0.00    -0.356 N 
ATOM      5  O   UNL A   1      33.772  27.329  23.474  1.00  0.00    -0.275 OA
ATOM      6  C   UNL A   1      33.181  26.270  23.296  1.00  0.00     0.222 C 
ATOM      7  H   UNL A   1      31.476  25.169  23.401  1.00  0.00     0.163 HD
BRANCH   6   8
ATOM      8  C   UNL A   1      33.877  25.047  22.742  1.00  0.00     0.133 C 
BRANCH   8   9
ATOM      9  C   UNL A   1      34.153  24.042  23.857  1.00  0.00     0.147 C 
ATOM     10  C   UNL A   1      33.239  22.806  23.737  1.00  0.00     0.149 C 
ATOM     11  O   UNL A   1      33.957  24.701  25.133  1.00  0.00    -0.374 OA
ATOM     12  N   UNL A   1      33.497  21.919  24.878  1.00  0.00    -0.365 N 
ATOM     13  C   UNL A   1      34.285  23.804  26.214  1.00  0.00     0.182 C 
ATOM     14  C   UNL A   1      33.401  22.541  26.198  1.00  0.00     0.145 C 
BRANCH  12  15
ATOM     15  C   UNL A   1      33.686  20.568  24.697  1.00  0.00     0.056 A 
ATOM     16  C   UNL A   1      32.595  19.758  24.344  1.00  0.00     0.034 A 
ATOM     17  C   UNL A   1      34.948  19.942  24.830  1.00  0.00     0.071 A 
ATOM     18  C   UNL A   1      32.752  18.392  24.086  1.00  0.00     0.088 A 
ATOM     19  C   UNL A   1      35.120  18.577  24.583  1.00  0.00     0.108 A 
ATOM     20  Cl  UNL A   1      36.346  20.807  25.377  1.00  0.00    -0.082 Cl
ATOM     21  C   UNL A   1      34.020  17.811  24.198  1.00  0.00     0.271 A 
BRANCH  21  22
ATOM     22  N   UNL A   1      34.199  16.385  23.906  1.00  0.00     0.062 N 
ATOM     23  O   UNL A   1      34.375  15.619  24.865  1.00  0.00    -0.258 OA
ATOM     24  O   UNL A   1      34.159  16.028  22.721  1.00  0.00    -0.258 OA
ENDBRANCH  21  22
ENDBRANCH  12  15
ENDBRANCH   8   9
ENDBRANCH   6   8
ENDBRANCH   3   4
ENDBRANCH   2   3
ENDBRANCH   1   2
BRANCH   1  25
ATOM     25  C   UNL A   1      32.282  27.680  26.646  1.00  0.00     0.002 C 
BRANCH  25  26
ATOM     26  C   UNL A   1      31.705  29.094  26.728  1.00  0.00     0.021 C 
BRANCH  26  27
ATOM     27  C   UNL A   1      32.476  30.152  25.940  1.00  0.00     0.116 C 
BRANCH  27  28
ATOM     28  N   UNL A   1      32.184  31.504  26.394  1.00  0.00    -0.352 N 
ATOM     29  C   UNL A   1      32.871  32.289  27.289  1.00  0.00     0.251 C 
ATOM     30  H   UNL A   1      31.380  31.915  26.004  1.00  0.00     0.163 HD
ATOM     31  O   UNL A   1      32.374  33.341  27.683  1.00  0.00    -0.269 OA
BRANCH  29  32
ATOM     32  C   UNL A   1      34.189  31.849  27.799  1.00  0.00     0.039 A 
ATOM     33  C   UNL A   1      35.208  32.794  27.945  1.00  0.00     0.014 A 
ATOM     34  C   UNL A   1      34.414  30.515  28.150  1.00  0.00     0.014 A 
ATOM     35  C   UNL A   1      36.424  32.418  28.523  1.00  0.00     0.010 A 
ATOM     36  C   UNL A   1      35.600  30.158  28.790  1.00  0.00     0.010 A 
ATOM     37  C   UNL A   1      36.611  31.108  28.995  1.00  0.00    -0.014 A 
BRANCH  37  38
ATOM     38  C   UNL A   1      37.843  30.726  29.737  1.00  0.00     0.031 A 
ATOM     39  C   UNL A   1      38.836  29.775  29.127  1.00  0.00     0.074 A 
ATOM     40  C   UNL A   1      38.026  31.176  30.994  1.00  0.00     0.049 A 
ATOM     41  N   UNL A   1      39.914  29.255  29.654  1.00  0.00    -0.248 NA
ATOM     42  C   UNL A   1      38.559  29.332  27.755  1.00  0.00     0.031 C 
ATOM     43  C   UNL A   1      37.109  32.065  31.713  1.00  0.00     0.029 A 
ATOM     44  N   UNL A   1      39.029  30.933  31.901  1.00  0.00    -0.354 N 
ATOM     45  C   UNL A   1      40.446  28.419  28.677  1.00  0.00     0.074 A 
ATOM     46  C   UNL A   1      39.528  28.451  27.557  1.00  0.00     0.031 C 
ATOM     47  C   UNL A   1      37.597  32.301  32.940  1.00  0.00     0.029 A 
ATOM     48  C   UNL A   1      38.831  31.541  33.119  1.00  0.00     0.049 A 
ATOM     49  H   UNL A   1      39.814  30.377  31.698  1.00  0.00     0.167 HD
ATOM     50  C   UNL A   1      41.604  27.710  28.705  1.00  0.00     0.034 A 
ATOM     51  C   UNL A   1      39.542  31.475  34.261  1.00  0.00     0.034 A 
ATOM     52  C   UNL A   1      42.500  27.681  29.836  1.00  0.00     0.049 A 
ATOM     53  C   UNL A   1      40.798  30.643  34.291  1.00  0.00     0.074 A 
ATOM     54  C   UNL A   1      43.721  27.039  29.955  1.00  0.00     0.029 A 
ATOM     55  N   UNL A   1      42.265  28.306  31.057  1.00  0.00    -0.354 N 
ATOM     56  N   UNL A   1      41.320  29.905  33.339  1.00  0.00    -0.248 NA
ATOM     57  C   UNL A   1      41.563  30.641  35.544  1.00  0.00     0.031 C 
ATOM     58  C   UNL A   1      44.183  27.209  31.265  1.00  0.00     0.029 A 
ATOM     59  C   UNL A   1      43.296  28.029  31.944  1.00  0.00     0.049 A 
ATOM     60  H   UNL A   1      41.481  28.864  31.262  1.00  0.00     0.167 HD
ATOM     61  C   UNL A   1      42.488  29.366  33.874  1.00  0.00     0.074 A 
ATOM     62  C   UNL A   1      42.600  29.880  35.223  1.00  0.00     0.031 C 
ATOM     63  C   UNL A   1      43.386  28.525  33.298  1.00  0.00     0.034 A 
BRANCH  50  64
ATOM     64  C   UNL A   1      41.939  26.887  27.480  1.00  0.00     0.023 A 
ATOM     65  C   UNL A   1      41.618  25.520  27.402  1.00  0.00     0.031 A 
ATOM     66  C   UNL A   1      42.629  27.460  26.398  1.00  0.00     0.131 A 
ATOM     67  C   UNL A   1      42.071  24.753  26.318  1.00  0.00     0.055 A 
ATOM     68  C   UNL A   1      42.994  26.711  25.276  1.00  0.00     0.041 A 
ATOM     69  F   UNL A   1      42.981  28.755  26.418  1.00  0.00    -0.206 F 
ATOM     70  C   UNL A   1      42.734  25.344  25.241  1.00  0.00     0.022 A 
BRANCH  67  71
ATOM     71  S   UNL A   1      41.941  22.947  26.426  1.00  0.00     0.124 S 
ATOM     72  O   UNL A   1      42.787  22.658  27.582  1.00  0.00    -0.237 OA
ATOM     73  O   UNL A   1      40.510  22.744  26.614  1.00  0.00    -0.237 OA
ATOM     74  O   UNL A   1      42.474  22.488  25.145  1.00  0.00    -0.744 OA
ENDBRANCH  67  71
ENDBRANCH  50  64
BRANCH  51  75
ATOM     75  C   UNL A   1      39.064  32.189  35.480  1.00  0.00     0.023 A 
ATOM     76  C   UNL A   1      38.419  31.507  36.522  1.00  0.00     0.031 A 
ATOM     77  C   UNL A   1      39.238  33.580  35.611  1.00  0.00     0.131 A 
ATOM     78  C   UNL A   1      37.940  32.219  37.634  1.00  0.00     0.055 A 
ATOM     79  C   UNL A   1      38.808  34.276  36.742  1.00  0.00     0.041 A 
ATOM     80  F   UNL A   1      39.854  34.280  34.645  1.00  0.00    -0.206 F 
ATOM     81  C   UNL A   1      38.144  33.595  37.757  1.00  0.00     0.022 A 
BRANCH  78  82
ATOM     82  S   UNL A   1      36.982  31.330  38.891  1.00  0.00     0.124 S 
ATOM     83  O   UNL A   1      35.724  32.068  38.883  1.00  0.00    -0.237 OA
ATOM     84  O   UNL A   1      36.938  29.979  38.341  1.00  0.00    -0.237 OA
ATOM     85  O   UNL A   1      37.787  31.481  40.102  1.00  0.00    -0.744 OA
ENDBRANCH  78  82
ENDBRANCH  51  75
BRANCH  63  86
ATOM     86  C   UNL A   1      44.587  28.133  34.126  1.00  0.00     0.023 A 
ATOM     87  C   UNL A   1      44.586  26.984  34.937  1.00  0.00     0.031 A 
ATOM     88  C   UNL A   1      45.751  28.923  34.104  1.00  0.00     0.131 A 
ATOM     89  C   UNL A   1      45.704  26.686  35.731  1.00  0.00     0.055 A 
ATOM     90  C   UNL A   1      46.884  28.587  34.847  1.00  0.00     0.041 A 
ATOM     91  F   UNL A   1      45.808  30.035  33.354  1.00  0.00    -0.206 F 
ATOM     92  C   UNL A   1      46.860  27.469  35.676  1.00  0.00     0.022 A 
BRANCH  89  93
ATOM     93  S   UNL A   1      45.599  25.308  36.905  1.00  0.00     0.124 S 
ATOM     94  O   UNL A   1      46.043  24.181  36.091  1.00  0.00    -0.237 OA
ATOM     95  O   UNL A   1      46.511  25.728  37.964  1.00  0.00    -0.237 OA
ATOM     96  O   UNL A   1      44.186  25.283  37.281  1.00  0.00    -0.744 OA
ENDBRANCH  89  93
ENDBRANCH  63  86
ENDBRANCH  37  38
ENDBRANCH  29  32
ENDBRANCH  27  28
ENDBRANCH  26  27
ENDBRANCH  25  26
ENDBRANCH   1  25
TORSDOF 19
ENDMDL
MODEL 2
REMARK VINA RESULT:     -11.7      2.022      2.627
REMARK SMILES O=C(C[C@@H]1CN(c2ccc([N+](=O)[O-])cc2Cl)CCO1)NCCCCCCNC(=O)c1ccc(-c2c3nc(c(-c4cc(S(=O)(=O)[O-])ccc4F)c4ccc([nH]4)c(-c4cc(S(=O)(=O)[O-])ccc4F)c4nc(c(-c5cc(S(=O)(=O)[O-])ccc5F)c5ccc2[nH]5)C=C4)C=C3)cc1
REMARK SMILES IDX 23 1 22 2 21 3 20 4 1 5 2 6 3 8 4 9 5 10 19 11 6 12 18 13
REMARK SMILES IDX 17 14 7 15 8 16 15 17 9 18 14 19 16 20 10 21 11 22 12 23
REMARK SMILES IDX 13 24 24 25 25 26 26 27 27 28 28 29 29 31 30 32 31 33 92 34
REMARK SMILES IDX 32 35 91 36 33 37 34 38 35 39 85 40 36 41 90 42 84 43 86 44
REMARK SMILES IDX 37 45 89 46 83 47 82 48 38 50 70 51 50 52 69 53 51 54 54 55
REMARK SMILES IDX 68 56 87 57 52 58 53 59 67 61 88 62 55 63 39 64 40 65 48 66
REMARK SMILES IDX 41 67 47 68 49 69 46 70 42 71 43 72 44 73 45 74 71 75 72 76
REMARK SMILES IDX 80 77 73 78 79 79 81 80 78 81 74 82 75 83 76 84 77 85 56 86
REMARK SMILES IDX 57 87 65 88 58 89 64 90 66 91 63 92 59 93 60 94 61 95 62 96
REMARK H PARENT 20 7 27 30 86 49 54 60
REMARK Flexibility Score: inf
ROOT
ATOM      1  C   UNL A   1      33.663  29.313  26.863  1.00  0.00     0.002 C 
ENDROOT
BRANCH   1   2
ATOM      2  C   UNL A   1      34.021  28.082  26.018  1.00  0.00     0.021 C 
BRANCH   2   3
ATOM      3  C   UNL A   1      33.673  28.206  24.535  1.00  0.00     0.116 C 
BRANCH   3   4
ATOM      4  N   UNL A   1      33.094  26.975  24.039  1.00  0.00    -0.356 N 
ATOM      5  O   UNL A   1      34.021  27.019  21.932  1.00  0.00    -0.275 OA
ATOM      6  C   UNL A   1      33.298  26.492  22.770  1.00  0.00     0.222 C 
ATOM      7  H   UNL A   1      32.521  26.453  24.647  1.00  0.00     0.163 HD
BRANCH   6   8
ATOM      8  C   UNL A   1      32.510  25.237  22.471  1.00  0.00     0.133 C 
BRANCH   8   9
ATOM      9  C   UNL A   1      32.620  24.251  23.631  1.00  0.00     0.147 C 
ATOM     10  C   UNL A   1      32.116  22.851  23.228  1.00  0.00     0.149 C 
ATOM     11  O   UNL A   1      31.856  24.766  24.750  1.00  0.00    -0.374 OA
ATOM     12  N   UNL A   1      32.173  21.975  24.404  1.00  0.00    -0.365 N 
ATOM     13  C   UNL A   1      32.000  23.900  25.894  1.00  0.00     0.182 C 
ATOM     14  C   UNL A   1      31.495  22.474  25.600  1.00  0.00     0.145 C 
BRANCH  12  15
ATOM     15  C   UNL A   1      32.722  20.716  24.324  1.00  0.00     0.056 A 
ATOM     16  C   UNL A   1      32.065  19.720  23.585  1.00  0.00     0.034 A 
ATOM     17  C   UNL A   1      33.948  20.369  24.941  1.00  0.00     0.071 A 
ATOM     18  C   UNL A   1      32.618  18.445  23.422  1.00  0.00     0.088 A 
ATOM     19  C   UNL A   1      34.510  19.098  24.794  1.00  0.00     0.108 A 
ATOM     20  Cl  UNL A   1      34.795  21.469  25.978  1.00  0.00    -0.082 Cl
ATOM     21  C   UNL A   1      33.846  18.145  24.021  1.00  0.00     0.271 A 
BRANCH  21  22
ATOM     22  N   UNL A   1      34.446  16.819  23.835  1.00  0.00     0.062 N 
ATOM     23  O   UNL A   1      35.105  16.350  24.775  1.00  0.00    -0.258 OA
ATOM     24  O   UNL A   1      34.255  16.244  22.755  1.00  0.00    -0.258 OA
ENDBRANCH  21  22
ENDBRANCH  12  15
ENDBRANCH   8   9
ENDBRANCH   6   8
ENDBRANCH   3   4
ENDBRANCH   2   3
ENDBRANCH   1   2
BRANCH   1  25
ATOM     25  C   UNL A   1      32.207  29.778  26.760  1.00  0.00     0.002 C 
BRANCH  25  26
ATOM     26  C   UNL A   1      32.013  31.294  26.689  1.00  0.00     0.021 C 
BRANCH  26  27
ATOM     27  C   UNL A   1      33.138  32.117  27.314  1.00  0.00     0.116 C 
BRANCH  27  28
ATOM     28  N   UNL A   1      32.733  33.487  27.593  1.00  0.00    -0.352 N 
ATOM     29  C   UNL A   1      33.189  34.350  28.562  1.00  0.00     0.251 C 
ATOM     30  H   UNL A   1      32.032  33.848  27.004  1.00  0.00     0.163 HD
ATOM     31  O   UNL A   1      32.600  35.411  28.758  1.00  0.00    -0.269 OA
BRANCH  29  32
ATOM     32  C   UNL A   1      34.363  33.984  29.384  1.00  0.00     0.039 A 
ATOM     33  C   UNL A   1      34.164  33.254  30.559  1.00  0.00     0.014 A 
ATOM     34  C   UNL A   1      35.655  34.341  28.991  1.00  0.00     0.014 A 
ATOM     35  C   UNL A   1      35.267  32.809  31.293  1.00  0.00     0.010 A 
ATOM     36  C   UNL A   1      36.755  33.837  29.684  1.00  0.00     0.010 A 
ATOM     37  C   UNL A   1      36.572  33.055  30.834  1.00  0.00    -0.014 A 
BRANCH  37  38
ATOM     38  C   UNL A   1      37.754  32.471  31.524  1.00  0.00     0.031 A 
ATOM     39  C   UNL A   1      38.493  31.310  30.920  1.00  0.00     0.074 A 
ATOM     40  C   UNL A   1      38.112  32.941  32.736  1.00  0.00     0.049 A 
ATOM     41  N   UNL A   1      39.483  30.612  31.413  1.00  0.00    -0.248 NA
ATOM     42  C   UNL A   1      38.036  30.860  29.598  1.00  0.00     0.031 C 
ATOM     43  C   UNL A   1      37.444  34.033  33.448  1.00  0.00     0.029 A 
ATOM     44  N   UNL A   1      39.110  32.549  33.594  1.00  0.00    -0.354 N 
ATOM     45  C   UNL A   1      39.768  29.635  30.464  1.00  0.00     0.074 A 
ATOM     46  C   UNL A   1      38.795  29.793  29.402  1.00  0.00     0.031 C 
ATOM     47  C   UNL A   1      38.056  34.230  34.625  1.00  0.00     0.029 A 
ATOM     48  C   UNL A   1      39.125  33.248  34.779  1.00  0.00     0.049 A 
ATOM     49  H   UNL A   1      39.754  31.837  33.381  1.00  0.00     0.167 HD
ATOM     50  C   UNL A   1      40.761  28.710  30.468  1.00  0.00     0.034 A 
ATOM     51  C   UNL A   1      39.890  33.100  35.879  1.00  0.00     0.034 A 
ATOM     52  C   UNL A   1      41.713  28.561  31.543  1.00  0.00     0.049 A 
ATOM     53  C   UNL A   1      40.956  32.035  35.888  1.00  0.00     0.074 A 
ATOM     54  C   UNL A   1      42.789  27.694  31.630  1.00  0.00     0.029 A 
ATOM     55  N   UNL A   1      41.695  29.283  32.732  1.00  0.00    -0.354 N 
ATOM     56  N   UNL A   1      41.252  31.158  34.956  1.00  0.00    -0.248 NA
ATOM     57  C   UNL A   1      41.793  31.945  37.090  1.00  0.00     0.031 C 
ATOM     58  C   UNL A   1      43.369  27.835  32.896  1.00  0.00     0.029 A 
ATOM     59  C   UNL A   1      42.712  28.852  33.572  1.00  0.00     0.049 A 
ATOM     60  H   UNL A   1      41.053  29.998  32.946  1.00  0.00     0.167 HD
ATOM     61  C   UNL A   1      42.325  30.423  35.454  1.00  0.00     0.074 A 
ATOM     62  C   UNL A   1      42.634  30.975  36.758  1.00  0.00     0.031 C 
ATOM     63  C   UNL A   1      42.996  29.390  34.882  1.00  0.00     0.034 A 
BRANCH  50  64
ATOM     64  C   UNL A   1      40.838  27.774  29.283  1.00  0.00     0.023 A 
ATOM     65  C   UNL A   1      41.778  27.965  28.254  1.00  0.00     0.031 A 
ATOM     66  C   UNL A   1      39.932  26.708  29.151  1.00  0.00     0.131 A 
ATOM     67  C   UNL A   1      41.728  27.169  27.099  1.00  0.00     0.055 A 
ATOM     68  C   UNL A   1      39.949  25.858  28.041  1.00  0.00     0.041 A 
ATOM     69  F   UNL A   1      38.998  26.482  30.087  1.00  0.00    -0.206 F 
ATOM     70  C   UNL A   1      40.837  26.099  26.997  1.00  0.00     0.022 A 
BRANCH  67  71
ATOM     71  S   UNL A   1      42.718  27.669  25.664  1.00  0.00     0.124 S 
ATOM     72  O   UNL A   1      42.307  26.685  24.664  1.00  0.00    -0.237 OA
ATOM     73  O   UNL A   1      42.274  29.038  25.435  1.00  0.00    -0.237 OA
ATOM     74  O   UNL A   1      44.096  27.528  26.133  1.00  0.00    -0.744 OA
ENDBRANCH  67  71
ENDBRANCH  50  64
BRANCH  51  75
ATOM     75  C   UNL A   1      39.651  33.959  37.074  1.00  0.00     0.023 A 
ATOM     76  C   UNL A   1      38.985  33.467  38.207  1.00  0.00     0.031 A 
ATOM     77  C   UNL A   1      40.081  35.299  37.092  1.00  0.00     0.131 A 
ATOM     78  C   UNL A   1      38.736  34.318  39.296  1.00  0.00     0.055 A 
ATOM     79  C   UNL A   1      39.879  36.126  38.198  1.00  0.00     0.041 A 
ATOM     80  F   UNL A   1      40.729  35.818  36.037  1.00  0.00    -0.206 F 
ATOM     81  C   UNL A   1      39.193  35.638  39.305  1.00  0.00     0.022 A 
BRANCH  78  82
ATOM     82  S   UNL A   1      37.744  33.694  40.680  1.00  0.00     0.124 S 
ATOM     83  O   UNL A   1      37.367  34.930  41.357  1.00  0.00    -0.237 OA
ATOM     84  O   UNL A   1      36.671  32.986  39.991  1.00  0.00    -0.237 OA
ATOM     85  O   UNL A   1      38.679  32.842  41.412  1.00  0.00    -0.744 OA
ENDBRANCH  78  82
ENDBRANCH  51  75
BRANCH  63  86
ATOM     86  C   UNL A   1      44.153  28.808  35.660  1.00  0.00     0.023 A 
ATOM     87  C   UNL A   1      43.994  27.693  36.503  1.00  0.00     0.031 A 
ATOM     88  C   UNL A   1      45.434  29.380  35.558  1.00  0.00     0.131 A 
ATOM     89  C   UNL A   1      45.084  27.218  37.249  1.00  0.00     0.055 A 
ATOM     90  C   UNL A   1      46.529  28.863  36.253  1.00  0.00     0.041 A 
ATOM     91  F   UNL A   1      45.645  30.449  34.774  1.00  0.00    -0.206 F 
ATOM     92  C   UNL A   1      46.354  27.783  37.114  1.00  0.00     0.022 A 
BRANCH  89  93
ATOM     93  S   UNL A   1      44.802  25.903  38.466  1.00  0.00     0.124 S 
ATOM     94  O   UNL A   1      46.165  25.495  38.792  1.00  0.00    -0.237 OA
ATOM     95  O   UNL A   1      44.077  26.604  39.521  1.00  0.00    -0.237 OA
ATOM     96  O   UNL A   1      44.018  24.914  37.729  1.00  0.00    -0.744 OA
ENDBRANCH  89  93
ENDBRANCH  63  86
ENDBRANCH  37  38
ENDBRANCH  29  32
ENDBRANCH  27  28
ENDBRANCH  26  27
ENDBRANCH  25  26
ENDBRANCH   1  25
TORSDOF 19
ENDMDL
MODEL 3
REMARK VINA RESULT:     -11.5      5.027      8.639
REMARK SMILES O=C(C[C@@H]1CN(c2ccc([N+](=O)[O-])cc2Cl)CCO1)NCCCCCCNC(=O)c1ccc(-c2c3nc(c(-c4cc(S(=O)(=O)[O-])ccc4F)c4ccc([nH]4)c(-c4cc(S(=O)(=O)[O-])ccc4F)c4nc(c(-c5cc(S(=O)(=O)[O-])ccc5F)c5ccc2[nH]5)C=C4)C=C3)cc1
REMARK SMILES IDX 23 1 22 2 21 3 20 4 1 5 2 6 3 8 4 9 5 10 19 11 6 12 18 13
REMARK SMILES IDX 17 14 7 15 8 16 15 17 9 18 14 19 16 20 10 21 11 22 12 23
REMARK SMILES IDX 13 24 24 25 25 26 26 27 27 28 28 29 29 31 30 32 31 33 92 34
REMARK SMILES IDX 32 35 91 36 33 37 34 38 35 39 85 40 36 41 90 42 84 43 86 44
REMARK SMILES IDX 37 45 89 46 83 47 82 48 38 50 70 51 50 52 69 53 51 54 54 55
REMARK SMILES IDX 68 56 87 57 52 58 53 59 67 61 88 62 55 63 39 64 40 65 48 66
REMARK SMILES IDX 41 67 47 68 49 69 46 70 42 71 43 72 44 73 45 74 71 75 72 76
REMARK SMILES IDX 80 77 73 78 79 79 81 80 78 81 74 82 75 83 76 84 77 85 56 86
REMARK SMILES IDX 57 87 65 88 58 89 64 90 66 91 63 92 59 93 60 94 61 95 62 96
REMARK H PARENT 20 7 27 30 86 49 54 60
REMARK Flexibility Score: inf
ROOT
ATOM      1  C   UNL A   1      34.697  21.078  24.807  1.00  0.00     0.002 C 
ENDROOT
BRANCH   1   2
ATOM      2  C   UNL A   1      33.295  21.047  24.183  1.00  0.00     0.021 C 
BRANCH   2   3
ATOM      3  C   UNL A   1      32.157  20.865  25.188  1.00  0.00     0.116 C 
BRANCH   3   4
ATOM      4  N   UNL A   1      31.469  22.118  25.418  1.00  0.00    -0.356 N 
ATOM      5  O   UNL A   1      32.777  22.879  27.154  1.00  0.00    -0.275 OA
ATOM      6  C   UNL A   1      31.822  23.014  26.398  1.00  0.00     0.222 C 
ATOM      7  H   UNL A   1      30.705  22.341  24.839  1.00  0.00     0.163 HD
BRANCH   6   8
ATOM      8  C   UNL A   1      30.890  24.201  26.489  1.00  0.00     0.133 C 
BRANCH   8   9
ATOM      9  C   UNL A   1      31.262  25.250  25.445  1.00  0.00     0.147 C 
ATOM     10  C   UNL A   1      30.019  25.749  24.683  1.00  0.00     0.149 C 
ATOM     11  O   UNL A   1      32.225  24.671  24.530  1.00  0.00    -0.374 OA
ATOM     12  N   UNL A   1      30.451  26.692  23.644  1.00  0.00    -0.365 N 
ATOM     13  C   UNL A   1      32.662  25.658  23.573  1.00  0.00     0.182 C 
ATOM     14  C   UNL A   1      31.488  26.202  22.735  1.00  0.00     0.145 C 
BRANCH  12  15
ATOM     15  C   UNL A   1      29.818  27.902  23.477  1.00  0.00     0.056 A 
ATOM     16  C   UNL A   1      28.506  27.933  22.979  1.00  0.00     0.034 A 
ATOM     17  C   UNL A   1      30.421  29.139  23.805  1.00  0.00     0.071 A 
ATOM     18  C   UNL A   1      27.800  29.135  22.854  1.00  0.00     0.088 A 
ATOM     19  C   UNL A   1      29.732  30.348  23.679  1.00  0.00     0.108 A 
ATOM     20  Cl  UNL A   1      32.074  29.246  24.313  1.00  0.00    -0.082 Cl
ATOM     21  C   UNL A   1      28.416  30.337  23.215  1.00  0.00     0.271 A 
BRANCH  21  22
ATOM     22  N   UNL A   1      27.675  31.599  23.111  1.00  0.00     0.062 N 
ATOM     23  O   UNL A   1      27.922  32.332  22.142  1.00  0.00    -0.258 OA
ATOM     24  O   UNL A   1      26.844  31.856  23.992  1.00  0.00    -0.258 OA
ENDBRANCH  21  22
ENDBRANCH  12  15
ENDBRANCH   8   9
ENDBRANCH   6   8
ENDBRANCH   3   4
ENDBRANCH   2   3
ENDBRANCH   1   2
BRANCH   1  25
ATOM     25  C   UNL A   1      35.617  22.193  24.299  1.00  0.00     0.002 C 
BRANCH  25  26
ATOM     26  C   UNL A   1      35.521  23.513  25.067  1.00  0.00     0.021 C 
BRANCH  26  27
ATOM     27  C   UNL A   1      36.715  23.822  25.968  1.00  0.00     0.116 C 
BRANCH  27  28
ATOM     28  N   UNL A   1      37.653  22.711  26.047  1.00  0.00    -0.352 N 
ATOM     29  C   UNL A   1      38.996  22.724  26.339  1.00  0.00     0.251 C 
ATOM     30  H   UNL A   1      37.270  21.823  25.866  1.00  0.00     0.163 HD
ATOM     31  O   UNL A   1      39.663  21.704  26.185  1.00  0.00    -0.269 OA
BRANCH  29  32
ATOM     32  C   UNL A   1      39.639  23.973  26.804  1.00  0.00     0.039 A 
ATOM     33  C   UNL A   1      40.103  24.888  25.855  1.00  0.00     0.014 A 
ATOM     34  C   UNL A   1      39.768  24.251  28.167  1.00  0.00     0.014 A 
ATOM     35  C   UNL A   1      40.617  26.119  26.274  1.00  0.00     0.010 A 
ATOM     36  C   UNL A   1      40.214  25.505  28.580  1.00  0.00     0.010 A 
ATOM     37  C   UNL A   1      40.631  26.457  27.637  1.00  0.00    -0.014 A 
BRANCH  37  38
ATOM     38  C   UNL A   1      41.043  27.812  28.091  1.00  0.00     0.031 A 
ATOM     39  C   UNL A   1      42.497  28.191  28.139  1.00  0.00     0.074 A 
ATOM     40  C   UNL A   1      40.108  28.675  28.535  1.00  0.00     0.049 A 
ATOM     41  N   UNL A   1      43.054  29.285  28.590  1.00  0.00    -0.248 NA
ATOM     42  C   UNL A   1      43.450  27.191  27.638  1.00  0.00     0.031 C 
ATOM     43  C   UNL A   1      38.668  28.407  28.582  1.00  0.00     0.029 A 
ATOM     44  N   UNL A   1      40.224  29.943  29.050  1.00  0.00    -0.354 N 
ATOM     45  C   UNL A   1      44.424  29.107  28.431  1.00  0.00     0.074 A 
ATOM     46  C   UNL A   1      44.611  27.768  27.909  1.00  0.00     0.031 C 
ATOM     47  C   UNL A   1      38.037  29.478  29.086  1.00  0.00     0.029 A 
ATOM     48  C   UNL A   1      39.026  30.490  29.448  1.00  0.00     0.049 A 
ATOM     49  H   UNL A   1      41.084  30.416  29.127  1.00  0.00     0.167 HD
ATOM     50  C   UNL A   1      45.430  29.985  28.677  1.00  0.00     0.034 A 
ATOM     51  C   UNL A   1      38.752  31.659  30.060  1.00  0.00     0.034 A 
ATOM     52  C   UNL A   1      45.223  31.311  29.209  1.00  0.00     0.049 A 
ATOM     53  C   UNL A   1      39.885  32.602  30.372  1.00  0.00     0.074 A 
ATOM     54  C   UNL A   1      46.161  32.301  29.450  1.00  0.00     0.029 A 
ATOM     55  N   UNL A   1      43.995  31.830  29.606  1.00  0.00    -0.354 N 
ATOM     56  N   UNL A   1      41.171  32.443  30.160  1.00  0.00    -0.248 NA
ATOM     57  C   UNL A   1      39.530  33.882  30.996  1.00  0.00     0.031 C 
ATOM     58  C   UNL A   1      45.515  33.381  30.062  1.00  0.00     0.029 A 
ATOM     59  C   UNL A   1      44.159  33.106  30.127  1.00  0.00     0.049 A 
ATOM     60  H   UNL A   1      43.134  31.360  29.528  1.00  0.00     0.167 HD
ATOM     61  C   UNL A   1      41.777  33.614  30.608  1.00  0.00     0.074 A 
ATOM     62  C   UNL A   1      40.712  34.475  31.083  1.00  0.00     0.031 C 
ATOM     63  C   UNL A   1      43.094  33.948  30.622  1.00  0.00     0.034 A 
BRANCH  50  64
ATOM     64  C   UNL A   1      46.840  29.516  28.396  1.00  0.00     0.023 A 
ATOM     65  C   UNL A   1      47.621  28.898  29.389  1.00  0.00     0.031 A 
ATOM     66  C   UNL A   1      47.431  29.732  27.139  1.00  0.00     0.131 A 
ATOM     67  C   UNL A   1      48.972  28.608  29.141  1.00  0.00     0.055 A 
ATOM     68  C   UNL A   1      48.749  29.354  26.868  1.00  0.00     0.041 A 
ATOM     69  F   UNL A   1      46.747  30.335  26.154  1.00  0.00    -0.206 F 
ATOM     70  C   UNL A   1      49.534  28.806  27.879  1.00  0.00     0.022 A 
BRANCH  67  71
ATOM     71  S   UNL A   1      50.024  28.140  30.542  1.00  0.00     0.124 S 
ATOM     72  O   UNL A   1      50.509  26.827  30.122  1.00  0.00    -0.237 OA
ATOM     73  O   UNL A   1      51.013  29.210  30.567  1.00  0.00    -0.237 OA
ATOM     74  O   UNL A   1      49.098  28.118  31.673  1.00  0.00    -0.744 OA
ENDBRANCH  67  71
ENDBRANCH  50  64
BRANCH  51  75
ATOM     75  C   UNL A   1      37.350  31.985  30.450  1.00  0.00     0.023 A 
ATOM     76  C   UNL A   1      36.473  32.625  29.561  1.00  0.00     0.031 A 
ATOM     77  C   UNL A   1      36.871  31.669  31.736  1.00  0.00     0.131 A 
ATOM     78  C   UNL A   1      35.175  32.959  29.978  1.00  0.00     0.055 A 
ATOM     79  C   UNL A   1      35.563  31.956  32.128  1.00  0.00     0.041 A 
ATOM     80  F   UNL A   1      37.667  31.053  32.623  1.00  0.00    -0.206 F 
ATOM     81  C   UNL A   1      34.710  32.615  31.249  1.00  0.00     0.022 A 
BRANCH  78  82
ATOM     82  S   UNL A   1      34.119  33.915  28.855  1.00  0.00     0.124 S 
ATOM     83  O   UNL A   1      35.069  34.867  28.292  1.00  0.00    -0.237 OA
ATOM     84  O   UNL A   1      33.629  32.883  27.947  1.00  0.00    -0.237 OA
ATOM     85  O   UNL A   1      33.110  34.490  29.743  1.00  0.00    -0.744 OA
ENDBRANCH  78  82
ENDBRANCH  51  75
BRANCH  63  86
ATOM     86  C   UNL A   1      43.449  35.319  31.146  1.00  0.00     0.023 A 
ATOM     87  C   UNL A   1      43.567  36.431  30.294  1.00  0.00     0.031 A 
ATOM     88  C   UNL A   1      43.676  35.515  32.521  1.00  0.00     0.131 A 
ATOM     89  C   UNL A   1      43.951  37.676  30.816  1.00  0.00     0.055 A 
ATOM     90  C   UNL A   1      43.995  36.768  33.044  1.00  0.00     0.041 A 
ATOM     91  F   UNL A   1      43.584  34.488  33.382  1.00  0.00    -0.206 F 
ATOM     92  C   UNL A   1      44.147  37.856  32.188  1.00  0.00     0.022 A 
BRANCH  89  93
ATOM     93  S   UNL A   1      44.278  39.041  29.668  1.00  0.00     0.124 S 
ATOM     94  O   UNL A   1      43.292  40.032  30.087  1.00  0.00    -0.237 OA
ATOM     95  O   UNL A   1      45.671  39.366  29.957  1.00  0.00    -0.237 OA
ATOM     96  O   UNL A   1      44.042  38.448  28.353  1.00  0.00    -0.744 OA
ENDBRANCH  89  93
ENDBRANCH  63  86
ENDBRANCH  37  38
ENDBRANCH  29  32
ENDBRANCH  27  28
ENDBRANCH  26  27
ENDBRANCH  25  26
ENDBRANCH   1  25
TORSDOF 19
ENDMDL
