MODEL 1
REMARK VINA RESULT:      -9.2      0.000      0.000
REMARK SMILES O=C(/C=C/c1ccc(S(=O)(=O)Nc2ccc3c(c2)OCCO3)cc1)NCCCCCCNC(=O)c1ccc(-c2c3nc(c(-c4cc(S(=O)(=O)[O-])ccc4F)c4ccc([nH]4)c(-c4cc(S(=O)(=O)[O-])ccc4F)c4nc(c(-c5cc(S(=O)(=O)[O-])ccc5F)c5ccc2[nH]5)C=C4)C=C3)cc1
REMARK SMILES IDX 28 1 27 2 26 3 25 4 1 5 2 6 3 8 4 9 5 10 6 11 24 12 7 13
REMARK SMILES IDX 23 14 8 15 9 16 10 17 11 18 12 19 13 21 14 22 18 23 15 24
REMARK SMILES IDX 17 25 16 26 19 27 22 28 20 29 21 30 29 31 30 32 31 33 32 34
REMARK SMILES IDX 33 35 34 37 35 38 36 39 97 40 37 41 96 42 38 43 39 44 40 45
REMARK SMILES IDX 90 46 41 47 95 48 89 49 91 50 42 51 94 52 88 53 87 54 43 56
REMARK SMILES IDX 75 57 55 58 74 59 56 60 59 61 73 62 92 63 57 64 58 65 72 67
REMARK SMILES IDX 93 68 60 69 44 70 45 71 53 72 46 73 52 74 54 75 51 76 47 77
REMARK SMILES IDX 48 78 49 79 50 80 76 81 77 82 85 83 78 84 84 85 86 86 83 87
REMARK SMILES IDX 79 88 80 89 81 90 82 91 61 92 62 93 70 94 63 95 69 96 71 97
REMARK SMILES IDX 68 98 64 99 65 100 66 101 67 102
REMARK H PARENT 25 7 12 20 32 36 91 55 59 66
REMARK Flexibility Score: inf
ROOT
ATOM      1  C   UNL A   1      44.351  22.548  25.124  1.00  0.00     0.002 C 
ENDROOT
BRANCH   1   2
ATOM      2  C   UNL A   1      45.157  23.824  25.398  1.00  0.00     0.021 C 
BRANCH   2   3
ATOM      3  C   UNL A   1      45.991  23.783  26.679  1.00  0.00     0.116 C 
BRANCH   3   4
ATOM      4  N   UNL A   1      45.351  24.507  27.762  1.00  0.00    -0.353 N 
ATOM      5  O   UNL A   1      44.765  22.648  28.974  1.00  0.00    -0.270 OA
ATOM      6  C   UNL A   1      44.751  23.862  28.809  1.00  0.00     0.243 C 
ATOM      7  H   UNL A   1      45.348  25.492  27.742  1.00  0.00     0.163 HD
BRANCH   6   8
ATOM      8  C   UNL A   1      44.105  24.718  29.839  1.00  0.00     0.072 C 
ATOM      9  C   UNL A   1      44.694  25.257  30.921  1.00  0.00     0.014 C 
BRANCH   9  10
ATOM     10  C   UNL A   1      44.028  26.146  31.902  1.00  0.00    -0.025 A 
ATOM     11  C   UNL A   1      44.020  25.777  33.256  1.00  0.00     0.009 A 
ATOM     12  C   UNL A   1      43.404  27.355  31.554  1.00  0.00     0.009 A 
ATOM     13  C   UNL A   1      43.343  26.548  34.214  1.00  0.00     0.023 A 
ATOM     14  C   UNL A   1      42.772  28.155  32.517  1.00  0.00     0.023 A 
ATOM     15  C   UNL A   1      42.691  27.728  33.838  1.00  0.00     0.087 A 
BRANCH  15  16
ATOM     16  S   UNL A   1      41.763  28.624  35.075  1.00  0.00     0.261 S 
ATOM     17  O   UNL A   1      41.191  27.629  35.971  1.00  0.00    -0.201 OA
ATOM     18  O   UNL A   1      42.615  29.665  35.593  1.00  0.00    -0.201 OA
BRANCH  16  19
ATOM     19  N   UNL A   1      40.395  29.397  34.354  1.00  0.00    -0.279 N 
ATOM     20  H   UNL A   1      39.859  28.952  33.659  1.00  0.00     0.180 HD
BRANCH  19  21
ATOM     21  C   UNL A   1      40.080  30.718  34.816  1.00  0.00     0.053 A 
ATOM     22  C   UNL A   1      40.553  31.790  34.051  1.00  0.00     0.031 A 
ATOM     23  C   UNL A   1      39.217  30.930  35.885  1.00  0.00     0.077 A 
ATOM     24  C   UNL A   1      39.981  33.050  34.205  1.00  0.00     0.052 A 
ATOM     25  C   UNL A   1      38.594  32.164  35.990  1.00  0.00     0.163 A 
ATOM     26  C   UNL A   1      38.934  33.198  35.108  1.00  0.00     0.161 A 
ATOM     27  O   UNL A   1      37.557  32.242  36.881  1.00  0.00    -0.486 OA
ATOM     28  O   UNL A   1      38.171  34.334  35.006  1.00  0.00    -0.486 OA
ATOM     29  C   UNL A   1      36.731  33.400  36.697  1.00  0.00     0.271 C 
ATOM     30  C   UNL A   1      36.812  33.963  35.287  1.00  0.00     0.271 C 
ENDBRANCH  19  21
ENDBRANCH  16  19
ENDBRANCH  15  16
ENDBRANCH   9  10
ENDBRANCH   6   8
ENDBRANCH   3   4
ENDBRANCH   2   3
ENDBRANCH   1   2
BRANCH   1  31
ATOM     31  C   UNL A   1      42.925  22.539  25.685  1.00  0.00     0.002 C 
BRANCH  31  32
ATOM     32  C   UNL A   1      42.629  21.442  26.710  1.00  0.00     0.021 C 
BRANCH  32  33
ATOM     33  C   UNL A   1      41.389  21.675  27.570  1.00  0.00     0.116 C 
BRANCH  33  34
ATOM     34  N   UNL A   1      40.157  21.598  26.801  1.00  0.00    -0.352 N 
ATOM     35  C   UNL A   1      39.231  22.579  26.538  1.00  0.00     0.251 C 
ATOM     36  H   UNL A   1      39.958  20.715  26.413  1.00  0.00     0.163 HD
ATOM     37  O   UNL A   1      38.162  22.280  26.012  1.00  0.00    -0.269 OA
BRANCH  35  38
ATOM     38  C   UNL A   1      39.511  23.984  26.914  1.00  0.00     0.039 A 
ATOM     39  C   UNL A   1      39.255  24.398  28.224  1.00  0.00     0.014 A 
ATOM     40  C   UNL A   1      40.023  24.889  25.982  1.00  0.00     0.014 A 
ATOM     41  C   UNL A   1      39.577  25.701  28.616  1.00  0.00     0.010 A 
ATOM     42  C   UNL A   1      40.404  26.166  26.391  1.00  0.00     0.010 A 
ATOM     43  C   UNL A   1      40.189  26.585  27.714  1.00  0.00    -0.014 A 
BRANCH  43  44
ATOM     44  C   UNL A   1      40.620  27.947  28.132  1.00  0.00     0.031 A 
ATOM     45  C   UNL A   1      42.081  28.311  28.123  1.00  0.00     0.074 A 
ATOM     46  C   UNL A   1      39.706  28.827  28.592  1.00  0.00     0.049 A 
ATOM     47  N   UNL A   1      42.664  29.404  28.545  1.00  0.00    -0.248 NA
ATOM     48  C   UNL A   1      43.010  27.300  27.597  1.00  0.00     0.031 C 
ATOM     49  C   UNL A   1      38.264  28.579  28.679  1.00  0.00     0.029 A 
ATOM     50  N   UNL A   1      39.851  30.099  29.087  1.00  0.00    -0.354 N 
ATOM     51  C   UNL A   1      44.028  29.203  28.361  1.00  0.00     0.074 A 
ATOM     52  C   UNL A   1      44.186  27.867  27.825  1.00  0.00     0.031 C 
ATOM     53  C   UNL A   1      37.659  29.669  29.179  1.00  0.00     0.029 A 
ATOM     54  C   UNL A   1      38.669  30.674  29.496  1.00  0.00     0.049 A 
ATOM     55  H   UNL A   1      40.720  30.559  29.143  1.00  0.00     0.167 HD
ATOM     56  C   UNL A   1      45.051  30.059  28.604  1.00  0.00     0.034 A 
ATOM     57  C   UNL A   1      38.428  31.867  30.079  1.00  0.00     0.034 A 
ATOM     58  C   UNL A   1      44.874  31.400  29.107  1.00  0.00     0.049 A 
ATOM     59  C   UNL A   1      39.589  32.793  30.353  1.00  0.00     0.074 A 
ATOM     60  C   UNL A   1      45.835  32.378  29.302  1.00  0.00     0.029 A 
ATOM     61  N   UNL A   1      43.663  31.950  29.504  1.00  0.00    -0.354 N 
ATOM     62  N   UNL A   1      40.866  32.612  30.107  1.00  0.00    -0.248 NA
ATOM     63  C   UNL A   1      39.276  34.085  30.976  1.00  0.00     0.031 C 
ATOM     64  C   UNL A   1      45.218  33.490  29.884  1.00  0.00     0.029 A 
ATOM     65  C   UNL A   1      43.858  33.238  29.978  1.00  0.00     0.049 A 
ATOM     66  H   UNL A   1      42.792  31.492  29.454  1.00  0.00     0.167 HD
ATOM     67  C   UNL A   1      41.498  33.787  30.506  1.00  0.00     0.074 A 
ATOM     68  C   UNL A   1      40.463  34.670  30.999  1.00  0.00     0.031 C 
ATOM     69  C   UNL A   1      42.816  34.109  30.466  1.00  0.00     0.034 A 
BRANCH  56  70
ATOM     70  C   UNL A   1      46.457  29.566  28.361  1.00  0.00     0.023 A 
ATOM     71  C   UNL A   1      47.198  28.906  29.356  1.00  0.00     0.031 A 
ATOM     72  C   UNL A   1      47.060  29.752  27.104  1.00  0.00     0.131 A 
ATOM     73  C   UNL A   1      48.518  28.508  29.096  1.00  0.00     0.055 A 
ATOM     74  C   UNL A   1      48.347  29.288  26.829  1.00  0.00     0.041 A 
ATOM     75  F   UNL A   1      46.408  30.394  26.121  1.00  0.00    -0.206 F 
ATOM     76  C   UNL A   1      49.089  28.671  27.832  1.00  0.00     0.022 A 
BRANCH  73  77
ATOM     77  S   UNL A   1      49.520  27.874  30.469  1.00  0.00     0.124 S 
ATOM     78  O   UNL A   1      50.311  29.051  30.824  1.00  0.00    -0.237 OA
ATOM     79  O   UNL A   1      48.508  27.469  31.437  1.00  0.00    -0.237 OA
ATOM     80  O   UNL A   1      50.279  26.782  29.864  1.00  0.00    -0.744 OA
ENDBRANCH  73  77
ENDBRANCH  56  70
BRANCH  57  81
ATOM     81  C   UNL A   1      37.042  32.264  30.468  1.00  0.00     0.023 A 
ATOM     82  C   UNL A   1      36.174  32.854  29.536  1.00  0.00     0.031 A 
ATOM     83  C   UNL A   1      36.592  32.133  31.794  1.00  0.00     0.131 A 
ATOM     84  C   UNL A   1      34.929  33.351  29.953  1.00  0.00     0.055 A 
ATOM     85  C   UNL A   1      35.327  32.572  32.191  1.00  0.00     0.041 A 
ATOM     86  F   UNL A   1      37.378  31.573  32.727  1.00  0.00    -0.206 F 
ATOM     87  C   UNL A   1      34.495  33.203  31.272  1.00  0.00     0.022 A 
BRANCH  84  88
ATOM     88  S   UNL A   1      33.937  34.305  28.771  1.00  0.00     0.124 S 
ATOM     89  O   UNL A   1      33.637  33.301  27.757  1.00  0.00    -0.237 OA
ATOM     90  O   UNL A   1      32.817  34.737  29.598  1.00  0.00    -0.237 OA
ATOM     91  O   UNL A   1      34.845  35.369  28.347  1.00  0.00    -0.744 OA
ENDBRANCH  84  88
ENDBRANCH  57  81
BRANCH  69  92
ATOM     92  C   UNL A   1      43.198  35.500  30.909  1.00  0.00     0.023 A 
ATOM     93  C   UNL A   1      43.238  35.862  32.266  1.00  0.00     0.031 A 
ATOM     94  C   UNL A   1      43.523  36.479  29.953  1.00  0.00     0.131 A 
ATOM     95  C   UNL A   1      43.542  37.183  32.628  1.00  0.00     0.055 A 
ATOM     96  C   UNL A   1      43.885  37.775  30.322  1.00  0.00     0.041 A 
ATOM     97  F   UNL A   1      43.500  36.188  28.643  1.00  0.00    -0.206 F 
ATOM     98  C   UNL A   1      43.883  38.138  31.665  1.00  0.00     0.022 A 
BRANCH  95  99
ATOM     99  S   UNL A   1      43.406  37.663  34.372  1.00  0.00     0.124 S 
ATOM    100  O   UNL A   1      44.785  37.535  34.831  1.00  0.00    -0.237 OA
ATOM    101  O   UNL A   1      42.889  39.024  34.282  1.00  0.00    -0.237 OA
ATOM    102  O   UNL A   1      42.475  36.682  34.927  1.00  0.00    -0.744 OA
ENDBRANCH  95  99
ENDBRANCH  69  92
ENDBRANCH  43  44
ENDBRANCH  35  38
ENDBRANCH  33  34
ENDBRANCH  32  33
ENDBRANCH  31  32
ENDBRANCH   1  31
TORSDOF 20
ENDMDL
MODEL 2
REMARK VINA RESULT:      -9.1      3.044      7.970
REMARK SMILES O=C(/C=C/c1ccc(S(=O)(=O)Nc2ccc3c(c2)OCCO3)cc1)NCCCCCCNC(=O)c1ccc(-c2c3nc(c(-c4cc(S(=O)(=O)[O-])ccc4F)c4ccc([nH]4)c(-c4cc(S(=O)(=O)[O-])ccc4F)c4nc(c(-c5cc(S(=O)(=O)[O-])ccc5F)c5ccc2[nH]5)C=C4)C=C3)cc1
REMARK SMILES IDX 28 1 27 2 26 3 25 4 1 5 2 6 3 8 4 9 5 10 6 11 24 12 7 13
REMARK SMILES IDX 23 14 8 15 9 16 10 17 11 18 12 19 13 21 14 22 18 23 15 24
REMARK SMILES IDX 17 25 16 26 19 27 22 28 20 29 21 30 29 31 30 32 31 33 32 34
REMARK SMILES IDX 33 35 34 37 35 38 36 39 97 40 37 41 96 42 38 43 39 44 40 45
REMARK SMILES IDX 90 46 41 47 95 48 89 49 91 50 42 51 94 52 88 53 87 54 43 56
REMARK SMILES IDX 75 57 55 58 74 59 56 60 59 61 73 62 92 63 57 64 58 65 72 67
REMARK SMILES IDX 93 68 60 69 44 70 45 71 53 72 46 73 52 74 54 75 51 76 47 77
REMARK SMILES IDX 48 78 49 79 50 80 76 81 77 82 85 83 78 84 84 85 86 86 83 87
REMARK SMILES IDX 79 88 80 89 81 90 82 91 61 92 62 93 70 94 63 95 69 96 71 97
REMARK SMILES IDX 68 98 64 99 65 100 66 101 67 102
REMARK H PARENT 25 7 12 20 32 36 91 55 59 66
REMARK Flexibility Score: inf
ROOT
ATOM      1  C   UNL A   1      43.868  23.477  25.531  1.00  0.00     0.002 C 
ENDROOT
BRANCH   1   2
ATOM      2  C   UNL A   1      42.975  22.233  25.446  1.00  0.00     0.021 C 
BRANCH   2   3
ATOM      3  C   UNL A   1      42.241  21.891  26.744  1.00  0.00     0.116 C 
BRANCH   3   4
ATOM      4  N   UNL A   1      41.715  23.078  27.394  1.00  0.00    -0.353 N 
ATOM      5  O   UNL A   1      39.607  22.921  26.501  1.00  0.00    -0.270 OA
ATOM      6  C   UNL A   1      40.436  23.514  27.179  1.00  0.00     0.243 C 
ATOM      7  H   UNL A   1      42.297  23.584  28.007  1.00  0.00     0.163 HD
BRANCH   6   8
ATOM      8  C   UNL A   1      40.029  24.760  27.883  1.00  0.00     0.072 C 
ATOM      9  C   UNL A   1      40.621  25.963  27.794  1.00  0.00     0.014 C 
BRANCH   9  10
ATOM     10  C   UNL A   1      40.157  27.196  28.474  1.00  0.00    -0.025 A 
ATOM     11  C   UNL A   1      40.838  27.636  29.620  1.00  0.00     0.009 A 
ATOM     12  C   UNL A   1      39.068  27.963  28.030  1.00  0.00     0.009 A 
ATOM     13  C   UNL A   1      40.396  28.757  30.340  1.00  0.00     0.023 A 
ATOM     14  C   UNL A   1      38.656  29.115  28.717  1.00  0.00     0.023 A 
ATOM     15  C   UNL A   1      39.282  29.483  29.903  1.00  0.00     0.087 A 
BRANCH  15  16
ATOM     16  S   UNL A   1      38.701  30.843  30.905  1.00  0.00     0.261 S 
ATOM     17  O   UNL A   1      37.363  30.489  31.357  1.00  0.00    -0.201 OA
ATOM     18  O   UNL A   1      39.733  31.155  31.862  1.00  0.00    -0.201 OA
BRANCH  16  19
ATOM     19  N   UNL A   1      38.470  32.251  29.928  1.00  0.00    -0.279 N 
ATOM     20  H   UNL A   1      39.059  32.451  29.165  1.00  0.00     0.180 HD
BRANCH  19  21
ATOM     21  C   UNL A   1      37.382  33.116  30.285  1.00  0.00     0.053 A 
ATOM     22  C   UNL A   1      36.209  33.007  29.530  1.00  0.00     0.031 A 
ATOM     23  C   UNL A   1      37.429  33.915  31.421  1.00  0.00     0.077 A 
ATOM     24  C   UNL A   1      35.015  33.511  30.038  1.00  0.00     0.052 A 
ATOM     25  C   UNL A   1      36.230  34.352  31.964  1.00  0.00     0.163 A 
ATOM     26  C   UNL A   1      35.024  34.092  31.302  1.00  0.00     0.161 A 
ATOM     27  O   UNL A   1      36.301  34.897  33.219  1.00  0.00    -0.486 OA
ATOM     28  O   UNL A   1      33.812  34.273  31.920  1.00  0.00    -0.486 OA
ATOM     29  C   UNL A   1      35.027  34.998  33.870  1.00  0.00     0.271 C 
ATOM     30  C   UNL A   1      34.005  34.016  33.320  1.00  0.00     0.271 C 
ENDBRANCH  19  21
ENDBRANCH  16  19
ENDBRANCH  15  16
ENDBRANCH   9  10
ENDBRANCH   6   8
ENDBRANCH   3   4
ENDBRANCH   2   3
ENDBRANCH   1   2
BRANCH   1  31
ATOM     31  C   UNL A   1      44.935  23.595  24.438  1.00  0.00     0.002 C 
BRANCH  31  32
ATOM     32  C   UNL A   1      46.375  23.351  24.897  1.00  0.00     0.021 C 
BRANCH  32  33
ATOM     33  C   UNL A   1      47.081  24.567  25.492  1.00  0.00     0.116 C 
BRANCH  33  34
ATOM     34  N   UNL A   1      47.178  25.670  24.549  1.00  0.00    -0.352 N 
ATOM     35  C   UNL A   1      46.669  26.943  24.640  1.00  0.00     0.251 C 
ATOM     36  H   UNL A   1      47.683  25.476  23.726  1.00  0.00     0.163 HD
ATOM     37  O   UNL A   1      46.707  27.684  23.662  1.00  0.00    -0.269 OA
BRANCH  35  38
ATOM     38  C   UNL A   1      46.050  27.406  25.904  1.00  0.00     0.039 A 
ATOM     39  C   UNL A   1      46.861  27.990  26.881  1.00  0.00     0.014 A 
ATOM     40  C   UNL A   1      44.678  27.265  26.126  1.00  0.00     0.014 A 
ATOM     41  C   UNL A   1      46.285  28.495  28.050  1.00  0.00     0.010 A 
ATOM     42  C   UNL A   1      44.097  27.828  27.262  1.00  0.00     0.010 A 
ATOM     43  C   UNL A   1      44.894  28.452  28.235  1.00  0.00    -0.014 A 
BRANCH  43  44
ATOM     44  C   UNL A   1      44.250  29.061  29.431  1.00  0.00     0.031 A 
ATOM     45  C   UNL A   1      43.849  30.512  29.415  1.00  0.00     0.074 A 
ATOM     46  C   UNL A   1      44.097  28.330  30.555  1.00  0.00     0.049 A 
ATOM     47  N   UNL A   1      43.371  31.250  30.384  1.00  0.00    -0.248 NA
ATOM     48  C   UNL A   1      44.038  31.235  28.148  1.00  0.00     0.031 C 
ATOM     49  C   UNL A   1      44.477  26.922  30.704  1.00  0.00     0.029 A 
ATOM     50  N   UNL A   1      43.600  28.668  31.788  1.00  0.00    -0.354 N 
ATOM     51  C   UNL A   1      43.228  32.528  29.854  1.00  0.00     0.074 A 
ATOM     52  C   UNL A   1      43.706  32.472  28.490  1.00  0.00     0.031 C 
ATOM     53  C   UNL A   1      44.181  26.516  31.950  1.00  0.00     0.029 A 
ATOM     54  C   UNL A   1      43.641  27.642  32.705  1.00  0.00     0.049 A 
ATOM     55  H   UNL A   1      43.244  29.563  31.998  1.00  0.00     0.167 HD
ATOM     56  C   UNL A   1      42.730  33.641  30.449  1.00  0.00     0.034 A 
ATOM     57  C   UNL A   1      43.301  27.616  34.010  1.00  0.00     0.034 A 
ATOM     58  C   UNL A   1      42.225  33.672  31.801  1.00  0.00     0.049 A 
ATOM     59  C   UNL A   1      42.765  28.874  34.650  1.00  0.00     0.074 A 
ATOM     60  C   UNL A   1      41.618  34.723  32.466  1.00  0.00     0.029 A 
ATOM     61  N   UNL A   1      42.278  32.612  32.697  1.00  0.00    -0.354 N 
ATOM     62  N   UNL A   1      42.572  30.057  34.112  1.00  0.00    -0.248 NA
ATOM     63  C   UNL A   1      42.396  28.794  36.070  1.00  0.00     0.031 C 
ATOM     64  C   UNL A   1      41.370  34.323  33.784  1.00  0.00     0.029 A 
ATOM     65  C   UNL A   1      41.749  32.997  33.919  1.00  0.00     0.049 A 
ATOM     66  H   UNL A   1      42.637  31.718  32.492  1.00  0.00     0.167 HD
ATOM     67  C   UNL A   1      42.018  30.844  35.119  1.00  0.00     0.074 A 
ATOM     68  C   UNL A   1      41.900  30.001  36.289  1.00  0.00     0.031 C 
ATOM     69  C   UNL A   1      41.636  32.146  35.078  1.00  0.00     0.034 A 
BRANCH  56  70
ATOM     70  C   UNL A   1      42.733  34.925  29.657  1.00  0.00     0.023 A 
ATOM     71  C   UNL A   1      43.876  35.738  29.560  1.00  0.00     0.031 A 
ATOM     72  C   UNL A   1      41.572  35.337  28.979  1.00  0.00     0.131 A 
ATOM     73  C   UNL A   1      43.815  36.947  28.850  1.00  0.00     0.055 A 
ATOM     74  C   UNL A   1      41.541  36.503  28.213  1.00  0.00     0.041 A 
ATOM     75  F   UNL A   1      40.445  34.611  29.052  1.00  0.00    -0.206 F 
ATOM     76  C   UNL A   1      42.664  37.323  28.154  1.00  0.00     0.022 A 
BRANCH  73  77
ATOM     77  S   UNL A   1      45.229  38.079  28.941  1.00  0.00     0.124 S 
ATOM     78  O   UNL A   1      44.570  39.353  29.217  1.00  0.00    -0.237 OA
ATOM     79  O   UNL A   1      46.015  37.516  30.034  1.00  0.00    -0.237 OA
ATOM     80  O   UNL A   1      45.838  37.975  27.617  1.00  0.00    -0.744 OA
ENDBRANCH  73  77
ENDBRANCH  56  70
BRANCH  57  81
ATOM     81  C   UNL A   1      43.467  26.373  34.821  1.00  0.00     0.023 A 
ATOM     82  C   UNL A   1      44.741  25.938  35.220  1.00  0.00     0.031 A 
ATOM     83  C   UNL A   1      42.365  25.560  35.142  1.00  0.00     0.131 A 
ATOM     84  C   UNL A   1      44.891  24.696  35.856  1.00  0.00     0.055 A 
ATOM     85  C   UNL A   1      42.513  24.355  35.831  1.00  0.00     0.041 A 
ATOM     86  F   UNL A   1      41.123  25.927  34.788  1.00  0.00    -0.206 F 
ATOM     87  C   UNL A   1      43.785  23.907  36.176  1.00  0.00     0.022 A 
BRANCH  84  88
ATOM     88  S   UNL A   1      46.568  24.071  36.150  1.00  0.00     0.124 S 
ATOM     89  O   UNL A   1      47.202  25.214  36.797  1.00  0.00    -0.237 OA
ATOM     90  O   UNL A   1      46.313  22.912  36.998  1.00  0.00    -0.237 OA
ATOM     91  O   UNL A   1      47.057  23.764  34.807  1.00  0.00    -0.744 OA
ENDBRANCH  84  88
ENDBRANCH  57  81
BRANCH  69  92
ATOM     92  C   UNL A   1      40.996  32.714  36.321  1.00  0.00     0.023 A 
ATOM     93  C   UNL A   1      39.697  32.356  36.718  1.00  0.00     0.031 A 
ATOM     94  C   UNL A   1      41.702  33.635  37.117  1.00  0.00     0.131 A 
ATOM     95  C   UNL A   1      39.123  32.955  37.849  1.00  0.00     0.055 A 
ATOM     96  C   UNL A   1      41.148  34.181  38.275  1.00  0.00     0.041 A 
ATOM     97  F   UNL A   1      42.946  34.014  36.784  1.00  0.00    -0.206 F 
ATOM     98  C   UNL A   1      39.846  33.853  38.640  1.00  0.00     0.022 A 
BRANCH  95  99
ATOM     99  S   UNL A   1      37.382  32.610  38.230  1.00  0.00     0.124 S 
ATOM    100  O   UNL A   1      36.688  33.397  37.216  1.00  0.00    -0.237 OA
ATOM    101  O   UNL A   1      37.309  31.162  38.073  1.00  0.00    -0.237 OA
ATOM    102  O   UNL A   1      37.228  33.093  39.602  1.00  0.00    -0.744 OA
ENDBRANCH  95  99
ENDBRANCH  69  92
ENDBRANCH  43  44
ENDBRANCH  35  38
ENDBRANCH  33  34
ENDBRANCH  32  33
ENDBRANCH  31  32
ENDBRANCH   1  31
TORSDOF 20
ENDMDL
MODEL 3
REMARK VINA RESULT:      -9.0      3.497     10.678
REMARK SMILES O=C(/C=C/c1ccc(S(=O)(=O)Nc2ccc3c(c2)OCCO3)cc1)NCCCCCCNC(=O)c1ccc(-c2c3nc(c(-c4cc(S(=O)(=O)[O-])ccc4F)c4ccc([nH]4)c(-c4cc(S(=O)(=O)[O-])ccc4F)c4nc(c(-c5cc(S(=O)(=O)[O-])ccc5F)c5ccc2[nH]5)C=C4)C=C3)cc1
REMARK SMILES IDX 28 1 27 2 26 3 25 4 1 5 2 6 3 8 4 9 5 10 6 11 24 12 7 13
REMARK SMILES IDX 23 14 8 15 9 16 10 17 11 18 12 19 13 21 14 22 18 23 15 24
REMARK SMILES IDX 17 25 16 26 19 27 22 28 20 29 21 30 29 31 30 32 31 33 32 34
REMARK SMILES IDX 33 35 34 37 35 38 36 39 97 40 37 41 96 42 38 43 39 44 40 45
REMARK SMILES IDX 90 46 41 47 95 48 89 49 91 50 42 51 94 52 88 53 87 54 43 56
REMARK SMILES IDX 75 57 55 58 74 59 56 60 59 61 73 62 92 63 57 64 58 65 72 67
REMARK SMILES IDX 93 68 60 69 44 70 45 71 53 72 46 73 52 74 54 75 51 76 47 77
REMARK SMILES IDX 48 78 49 79 50 80 76 81 77 82 85 83 78 84 84 85 86 86 83 87
REMARK SMILES IDX 79 88 80 89 81 90 82 91 61 92 62 93 70 94 63 95 69 96 71 97
REMARK SMILES IDX 68 98 64 99 65 100 66 101 67 102
REMARK H PARENT 25 7 12 20 32 36 91 55 59 66
REMARK Flexibility Score: inf
ROOT
ATOM      1  C   UNL A   1      35.930  34.029  31.999  1.00  0.00     0.002 C 
ENDROOT
BRANCH   1   2
ATOM      2  C   UNL A   1      36.943  33.234  31.165  1.00  0.00     0.021 C 
BRANCH   2   3
ATOM      3  C   UNL A   1      36.604  31.751  31.005  1.00  0.00     0.116 C 
BRANCH   3   4
ATOM      4  N   UNL A   1      37.557  31.070  30.146  1.00  0.00    -0.353 N 
ATOM      5  O   UNL A   1      36.787  28.951  30.578  1.00  0.00    -0.270 OA
ATOM      6  C   UNL A   1      37.587  29.706  30.040  1.00  0.00     0.243 C 
ATOM      7  H   UNL A   1      38.199  31.605  29.627  1.00  0.00     0.163 HD
BRANCH   6   8
ATOM      8  C   UNL A   1      38.630  29.130  29.149  1.00  0.00     0.072 C 
ATOM      9  C   UNL A   1      39.944  29.414  29.161  1.00  0.00     0.014 C 
BRANCH   9  10
ATOM     10  C   UNL A   1      40.962  28.783  28.289  1.00  0.00    -0.025 A 
ATOM     11  C   UNL A   1      40.995  27.384  28.186  1.00  0.00     0.009 A 
ATOM     12  C   UNL A   1      41.903  29.512  27.543  1.00  0.00     0.009 A 
ATOM     13  C   UNL A   1      41.983  26.736  27.429  1.00  0.00     0.023 A 
ATOM     14  C   UNL A   1      42.859  28.869  26.743  1.00  0.00     0.023 A 
ATOM     15  C   UNL A   1      42.938  27.481  26.727  1.00  0.00     0.087 A 
BRANCH  15  16
ATOM     16  S   UNL A   1      44.232  26.609  25.857  1.00  0.00     0.261 S 
ATOM     17  O   UNL A   1      44.790  27.545  24.891  1.00  0.00    -0.201 OA
ATOM     18  O   UNL A   1      45.081  25.987  26.842  1.00  0.00    -0.201 OA
BRANCH  16  19
ATOM     19  N   UNL A   1      43.558  25.342  24.894  1.00  0.00    -0.279 N 
ATOM     20  H   UNL A   1      43.046  25.533  24.075  1.00  0.00     0.180 HD
BRANCH  19  21
ATOM     21  C   UNL A   1      43.778  23.998  25.345  1.00  0.00     0.053 A 
ATOM     22  C   UNL A   1      42.647  23.246  25.682  1.00  0.00     0.031 A 
ATOM     23  C   UNL A   1      45.039  23.413  25.304  1.00  0.00     0.077 A 
ATOM     24  C   UNL A   1      42.739  21.859  25.752  1.00  0.00     0.052 A 
ATOM     25  C   UNL A   1      45.119  22.028  25.299  1.00  0.00     0.163 A 
ATOM     26  C   UNL A   1      43.959  21.259  25.459  1.00  0.00     0.161 A 
ATOM     27  O   UNL A   1      46.341  21.497  24.984  1.00  0.00    -0.486 OA
ATOM     28  O   UNL A   1      43.953  19.910  25.203  1.00  0.00    -0.486 OA
ATOM     29  C   UNL A   1      46.288  20.105  24.644  1.00  0.00     0.271 C 
ATOM     30  C   UNL A   1      44.913  19.668  24.163  1.00  0.00     0.271 C 
ENDBRANCH  19  21
ENDBRANCH  16  19
ENDBRANCH  15  16
ENDBRANCH   9  10
ENDBRANCH   6   8
ENDBRANCH   3   4
ENDBRANCH   2   3
ENDBRANCH   1   2
BRANCH   1  31
ATOM     31  C   UNL A   1      35.392  33.310  33.240  1.00  0.00     0.002 C 
BRANCH  31  32
ATOM     32  C   UNL A   1      35.753  33.955  34.581  1.00  0.00     0.021 C 
BRANCH  32  33
ATOM     33  C   UNL A   1      37.180  33.701  35.059  1.00  0.00     0.116 C 
BRANCH  33  34
ATOM     34  N   UNL A   1      37.246  32.681  36.095  1.00  0.00    -0.352 N 
ATOM     35  C   UNL A   1      37.986  31.524  36.132  1.00  0.00     0.251 C 
ATOM     36  H   UNL A   1      36.678  32.844  36.883  1.00  0.00     0.163 HD
ATOM     37  O   UNL A   1      37.778  30.698  37.017  1.00  0.00    -0.269 OA
BRANCH  35  38
ATOM     38  C   UNL A   1      39.008  31.262  35.092  1.00  0.00     0.039 A 
ATOM     39  C   UNL A   1      40.317  31.706  35.302  1.00  0.00     0.014 A 
ATOM     40  C   UNL A   1      38.680  30.584  33.916  1.00  0.00     0.014 A 
ATOM     41  C   UNL A   1      41.310  31.407  34.364  1.00  0.00     0.010 A 
ATOM     42  C   UNL A   1      39.683  30.232  33.014  1.00  0.00     0.010 A 
ATOM     43  C   UNL A   1      41.010  30.636  33.230  1.00  0.00    -0.014 A 
BRANCH  43  44
ATOM     44  C   UNL A   1      42.067  30.233  32.262  1.00  0.00     0.031 A 
ATOM     45  C   UNL A   1      42.783  28.920  32.434  1.00  0.00     0.074 A 
ATOM     46  C   UNL A   1      42.434  31.081  31.280  1.00  0.00     0.049 A 
ATOM     47  N   UNL A   1      43.797  28.437  31.761  1.00  0.00    -0.248 NA
ATOM     48  C   UNL A   1      42.316  28.049  33.522  1.00  0.00     0.031 C 
ATOM     49  C   UNL A   1      41.836  32.396  31.032  1.00  0.00     0.029 A 
ATOM     50  N   UNL A   1      43.405  30.976  30.316  1.00  0.00    -0.354 N 
ATOM     51  C   UNL A   1      44.106  27.220  32.361  1.00  0.00     0.074 A 
ATOM     52  C   UNL A   1      43.196  27.059  33.475  1.00  0.00     0.031 C 
ATOM     53  C   UNL A   1      42.441  32.964  29.976  1.00  0.00     0.029 A 
ATOM     54  C   UNL A   1      43.503  32.081  29.502  1.00  0.00     0.049 A 
ATOM     55  H   UNL A   1      43.978  30.181  30.215  1.00  0.00     0.167 HD
ATOM     56  C   UNL A   1      45.053  26.316  32.005  1.00  0.00     0.034 A 
ATOM     57  C   UNL A   1      44.363  32.362  28.501  1.00  0.00     0.034 A 
ATOM     58  C   UNL A   1      45.930  26.476  30.871  1.00  0.00     0.049 A 
ATOM     59  C   UNL A   1      45.417  31.344  28.138  1.00  0.00     0.074 A 
ATOM     60  C   UNL A   1      46.860  25.581  30.372  1.00  0.00     0.029 A 
ATOM     61  N   UNL A   1      45.996  27.606  30.066  1.00  0.00    -0.354 N 
ATOM     62  N   UNL A   1      45.648  30.167  28.673  1.00  0.00    -0.248 NA
ATOM     63  C   UNL A   1      46.321  31.688  27.032  1.00  0.00     0.031 C 
ATOM     64  C   UNL A   1      47.538  26.195  29.314  1.00  0.00     0.029 A 
ATOM     65  C   UNL A   1      46.977  27.444  29.100  1.00  0.00     0.049 A 
ATOM     66  H   UNL A   1      45.428  28.405  30.167  1.00  0.00     0.167 HD
ATOM     67  C   UNL A   1      46.695  29.617  27.937  1.00  0.00     0.074 A 
ATOM     68  C   UNL A   1      47.043  30.584  26.919  1.00  0.00     0.031 C 
ATOM     69  C   UNL A   1      47.312  28.417  28.088  1.00  0.00     0.034 A 
BRANCH  56  70
ATOM     70  C   UNL A   1      45.213  25.088  32.866  1.00  0.00     0.023 A 
ATOM     71  C   UNL A   1      46.024  25.082  34.014  1.00  0.00     0.031 A 
ATOM     72  C   UNL A   1      44.533  23.902  32.535  1.00  0.00     0.131 A 
ATOM     73  C   UNL A   1      46.178  23.902  34.756  1.00  0.00     0.055 A 
ATOM     74  C   UNL A   1      44.632  22.752  33.319  1.00  0.00     0.041 A 
ATOM     75  F   UNL A   1      43.761  23.841  31.438  1.00  0.00    -0.206 F 
ATOM     76  C   UNL A   1      45.468  22.743  34.431  1.00  0.00     0.022 A 
BRANCH  73  77
ATOM     77  S   UNL A   1      47.409  23.867  36.088  1.00  0.00     0.124 S 
ATOM     78  O   UNL A   1      48.561  24.490  35.441  1.00  0.00    -0.237 OA
ATOM     79  O   UNL A   1      46.763  24.650  37.135  1.00  0.00    -0.237 OA
ATOM     80  O   UNL A   1      47.561  22.443  36.378  1.00  0.00    -0.744 OA
ENDBRANCH  73  77
ENDBRANCH  56  70
BRANCH  57  81
ATOM     81  C   UNL A   1      44.292  33.663  27.772  1.00  0.00     0.023 A 
ATOM     82  C   UNL A   1      44.665  34.862  28.400  1.00  0.00     0.031 A 
ATOM     83  C   UNL A   1      43.777  33.739  26.465  1.00  0.00     0.131 A 
ATOM     84  C   UNL A   1      44.457  36.089  27.751  1.00  0.00     0.055 A 
ATOM     85  C   UNL A   1      43.631  34.957  25.799  1.00  0.00     0.041 A 
ATOM     86  F   UNL A   1      43.407  32.625  25.814  1.00  0.00    -0.206 F 
ATOM     87  C   UNL A   1      43.954  36.144  26.449  1.00  0.00     0.022 A 
BRANCH  84  88
ATOM     88  S   UNL A   1      44.739  37.620  28.682  1.00  0.00     0.124 S 
ATOM     89  O   UNL A   1      46.086  37.408  29.201  1.00  0.00    -0.237 OA
ATOM     90  O   UNL A   1      44.604  38.634  27.642  1.00  0.00    -0.237 OA
ATOM     91  O   UNL A   1      43.675  37.610  29.684  1.00  0.00    -0.744 OA
ENDBRANCH  84  88
ENDBRANCH  57  81
BRANCH  69  92
ATOM     92  C   UNL A   1      48.382  28.063  27.085  1.00  0.00     0.023 A 
ATOM     93  C   UNL A   1      48.074  27.747  25.751  1.00  0.00     0.031 A 
ATOM     94  C   UNL A   1      49.733  28.037  27.477  1.00  0.00     0.131 A 
ATOM     95  C   UNL A   1      49.098  27.367  24.869  1.00  0.00     0.055 A 
ATOM     96  C   UNL A   1      50.753  27.718  26.579  1.00  0.00     0.041 A 
ATOM     97  F   UNL A   1      50.084  28.329  28.739  1.00  0.00    -0.206 F 
ATOM     98  C   UNL A   1      50.437  27.367  25.270  1.00  0.00     0.022 A 
BRANCH  95  99
ATOM     99  S   UNL A   1      48.649  26.790  23.209  1.00  0.00     0.124 S 
ATOM    100  O   UNL A   1      47.625  27.754  22.819  1.00  0.00    -0.237 OA
ATOM    101  O   UNL A   1      49.916  26.882  22.493  1.00  0.00    -0.237 OA
ATOM    102  O   UNL A   1      48.164  25.430  23.437  1.00  0.00    -0.744 OA
ENDBRANCH  95  99
ENDBRANCH  69  92
ENDBRANCH  43  44
ENDBRANCH  35  38
ENDBRANCH  33  34
ENDBRANCH  32  33
ENDBRANCH  31  32
ENDBRANCH   1  31
TORSDOF 20
ENDMDL
