MODEL 1
REMARK VINA RESULT:      -9.8      0.000      0.000
REMARK SMILES CC1=C(CC(=O)NCCCCCCNC(=O)c2ccc(-c3c4nc(c(-c5cc(S(=O)(=O)[O-])ccc5F)c5ccc([nH]5)c(-c5cc(S(=O)(=O)[O-])ccc5F)c5nc(c(-c6cc(S(=O)(=O)[O-])ccc6F)c6ccc3[nH]6)C=C5)C=C4)cc2)c2cc(F)ccc2/C1=C\c1cccc(OCc2ccccc2)c1
REMARK SMILES IDX 9 1 8 2 7 3 5 4 6 5 4 7 3 8 1 9 2 10 87 11 80 12 86 13 88 14
REMARK SMILES IDX 81 15 85 16 82 17 84 18 83 19 89 20 90 21 102 22 91 23 93 24
REMARK SMILES IDX 92 25 94 26 95 27 96 28 97 29 101 30 98 31 100 32 99 33
REMARK SMILES IDX 10 34 11 35 12 36 13 37 14 38 15 39 16 41 17 42 18 43 79 44
REMARK SMILES IDX 19 45 78 46 20 47 21 48 22 49 72 50 23 51 77 52 71 53 73 54
REMARK SMILES IDX 24 55 76 56 70 57 69 58 25 60 57 61 37 62 56 63 38 64 41 65
REMARK SMILES IDX 55 66 74 67 39 68 40 69 54 71 75 72 42 73 26 74 27 75 35 76
REMARK SMILES IDX 28 77 34 78 36 79 33 80 29 81 30 82 31 83 32 84 58 85 59 86
REMARK SMILES IDX 67 87 60 88 66 89 68 90 65 91 61 92 62 93 63 94 64 95 43 96
REMARK SMILES IDX 44 97 52 98 45 99 51 100 53 101 50 102 46 103 47 104 48 105
REMARK SMILES IDX 49 106
REMARK H PARENT 7 6 14 40 73 59 41 70
REMARK Flexibility Score: inf
ROOT
ATOM      1  C   UNL A   1      34.542  33.012  32.024  1.00  0.00     0.021 C 
ENDROOT
BRANCH   1   2
ATOM      2  C   UNL A   1      34.471  34.374  31.331  1.00  0.00     0.116 C 
BRANCH   2   3
ATOM      3  N   UNL A   1      33.388  34.423  30.370  1.00  0.00    -0.356 N 
ATOM      4  C   UNL A   1      33.448  34.567  29.016  1.00  0.00     0.224 C 
ATOM      5  O   UNL A   1      32.389  34.669  28.390  1.00  0.00    -0.275 OA
ATOM      6  H   UNL A   1      32.482  34.341  30.748  1.00  0.00     0.163 HD
BRANCH   4   7
ATOM      7  C   UNL A   1      34.792  34.546  28.292  1.00  0.00     0.136 C 
BRANCH   7   8
ATOM      8  C   UNL A   1      35.537  33.261  28.436  1.00  0.00    -0.027 C 
ATOM      9  C   UNL A   1      37.694  34.032  29.593  1.00  0.00     0.045 C 
ATOM     10  C   UNL A   1      36.767  33.042  28.961  1.00  0.00    -0.039 C 
ATOM     11  C   UNL A   1      37.104  31.615  28.847  1.00  0.00    -0.014 C 
ATOM     12  C   UNL A   1      34.987  31.955  28.029  1.00  0.00    -0.011 A 
ATOM     13  C   UNL A   1      35.919  30.935  28.300  1.00  0.00    -0.010 A 
ATOM     14  C   UNL A   1      38.303  31.100  29.169  1.00  0.00     0.017 C 
ATOM     15  C   UNL A   1      33.751  31.652  27.474  1.00  0.00     0.048 A 
ATOM     16  C   UNL A   1      35.615  29.605  28.042  1.00  0.00     0.012 A 
ATOM     17  C   UNL A   1      33.464  30.317  27.197  1.00  0.00     0.123 A 
ATOM     18  C   UNL A   1      34.376  29.298  27.479  1.00  0.00     0.040 A 
ATOM     19  F   UNL A   1      32.280  29.999  26.656  1.00  0.00    -0.207 F 
BRANCH  14  20
ATOM     20  C   UNL A   1      38.677  29.688  29.124  1.00  0.00    -0.021 A 
ATOM     21  C   UNL A   1      38.259  28.779  30.098  1.00  0.00     0.008 A 
ATOM     22  C   UNL A   1      39.491  29.260  28.069  1.00  0.00     0.054 A 
ATOM     23  C   UNL A   1      38.679  27.453  30.027  1.00  0.00     0.004 A 
ATOM     24  C   UNL A   1      39.877  27.927  27.968  1.00  0.00     0.120 A 
ATOM     25  C   UNL A   1      39.487  27.031  28.966  1.00  0.00     0.046 A 
BRANCH  24  26
ATOM     26  O   UNL A   1      40.629  27.391  26.956  1.00  0.00    -0.489 OA
BRANCH  26  27
ATOM     27  C   UNL A   1      41.886  26.790  27.297  1.00  0.00     0.265 C 
BRANCH  27  28
ATOM     28  C   UNL A   1      43.053  27.743  27.173  1.00  0.00    -0.011 A 
ATOM     29  C   UNL A   1      42.831  29.125  27.101  1.00  0.00     0.007 A 
ATOM     30  C   UNL A   1      44.373  27.267  27.146  1.00  0.00     0.007 A 
ATOM     31  C   UNL A   1      43.905  30.013  27.026  1.00  0.00     0.000 A 
ATOM     32  C   UNL A   1      45.447  28.157  27.084  1.00  0.00     0.000 A 
ATOM     33  C   UNL A   1      45.213  29.530  27.026  1.00  0.00     0.000 A 
ENDBRANCH  27  28
ENDBRANCH  26  27
ENDBRANCH  24  26
ENDBRANCH  14  20
ENDBRANCH   7   8
ENDBRANCH   4   7
ENDBRANCH   2   3
ENDBRANCH   1   2
BRANCH   1  34
ATOM     34  C   UNL A   1      35.810  32.802  32.862  1.00  0.00     0.002 C 
BRANCH  34  35
ATOM     35  C   UNL A   1      36.523  31.462  32.651  1.00  0.00     0.002 C 
BRANCH  35  36
ATOM     36  C   UNL A   1      38.050  31.516  32.731  1.00  0.00     0.021 C 
BRANCH  36  37
ATOM     37  C   UNL A   1      38.632  31.088  34.073  1.00  0.00     0.116 C 
BRANCH  37  38
ATOM     38  N   UNL A   1      39.024  29.687  34.084  1.00  0.00    -0.352 N 
ATOM     39  C   UNL A   1      40.073  29.076  33.436  1.00  0.00     0.251 C 
ATOM     40  H   UNL A   1      38.461  29.093  34.630  1.00  0.00     0.163 HD
ATOM     41  O   UNL A   1      40.152  27.851  33.414  1.00  0.00    -0.269 OA
BRANCH  39  42
ATOM     42  C   UNL A   1      41.081  29.906  32.740  1.00  0.00     0.039 A 
ATOM     43  C   UNL A   1      41.158  29.904  31.346  1.00  0.00     0.014 A 
ATOM     44  C   UNL A   1      41.974  30.673  33.493  1.00  0.00     0.014 A 
ATOM     45  C   UNL A   1      42.224  30.537  30.714  1.00  0.00     0.010 A 
ATOM     46  C   UNL A   1      42.996  31.378  32.849  1.00  0.00     0.010 A 
ATOM     47  C   UNL A   1      43.157  31.280  31.458  1.00  0.00    -0.014 A 
BRANCH  47  48
ATOM     48  C   UNL A   1      44.272  31.964  30.753  1.00  0.00     0.031 A 
ATOM     49  C   UNL A   1      45.522  31.219  30.371  1.00  0.00     0.074 A 
ATOM     50  C   UNL A   1      44.128  33.261  30.415  1.00  0.00     0.049 A 
ATOM     51  N   UNL A   1      46.571  31.655  29.722  1.00  0.00    -0.248 NA
ATOM     52  C   UNL A   1      45.610  29.805  30.769  1.00  0.00     0.031 C 
ATOM     53  C   UNL A   1      42.956  34.078  30.732  1.00  0.00     0.029 A 
ATOM     54  N   UNL A   1      44.949  34.112  29.718  1.00  0.00    -0.354 N 
ATOM     55  C   UNL A   1      47.447  30.579  29.642  1.00  0.00     0.074 A 
ATOM     56  C   UNL A   1      46.822  29.477  30.340  1.00  0.00     0.031 C 
ATOM     57  C   UNL A   1      43.107  35.291  30.186  1.00  0.00     0.029 A 
ATOM     58  C   UNL A   1      44.416  35.368  29.543  1.00  0.00     0.049 A 
ATOM     59  H   UNL A   1      45.833  33.849  29.376  1.00  0.00     0.167 HD
ATOM     60  C   UNL A   1      48.653  30.516  29.030  1.00  0.00     0.034 A 
ATOM     61  C   UNL A   1      44.924  36.467  28.946  1.00  0.00     0.034 A 
ATOM     62  C   UNL A   1      49.254  31.620  28.324  1.00  0.00     0.049 A 
ATOM     63  C   UNL A   1      46.283  36.380  28.307  1.00  0.00     0.074 A 
ATOM     64  C   UNL A   1      50.457  31.643  27.639  1.00  0.00     0.029 A 
ATOM     65  N   UNL A   1      48.708  32.891  28.209  1.00  0.00    -0.354 N 
ATOM     66  N   UNL A   1      47.077  35.340  28.198  1.00  0.00    -0.248 NA
ATOM     67  C   UNL A   1      46.825  37.610  27.713  1.00  0.00     0.031 C 
ATOM     68  C   UNL A   1      50.666  32.937  27.164  1.00  0.00     0.029 A 
ATOM     69  C   UNL A   1      49.564  33.711  27.492  1.00  0.00     0.049 A 
ATOM     70  H   UNL A   1      47.840  33.168  28.582  1.00  0.00     0.167 HD
ATOM     71  C   UNL A   1      48.205  35.787  27.517  1.00  0.00     0.074 A 
ATOM     72  C   UNL A   1      47.976  37.184  27.210  1.00  0.00     0.031 C 
ATOM     73  C   UNL A   1      49.329  35.103  27.186  1.00  0.00     0.034 A 
BRANCH  60  74
ATOM     74  C   UNL A   1      49.420  29.217  29.067  1.00  0.00     0.023 A 
ATOM     75  C   UNL A   1      49.162  28.218  28.107  1.00  0.00     0.031 A 
ATOM     76  C   UNL A   1      50.297  28.914  30.122  1.00  0.00     0.131 A 
ATOM     77  C   UNL A   1      49.749  26.954  28.243  1.00  0.00     0.055 A 
ATOM     78  C   UNL A   1      50.909  27.664  30.232  1.00  0.00     0.041 A 
ATOM     79  F   UNL A   1      50.575  29.831  31.063  1.00  0.00    -0.206 F 
ATOM     80  C   UNL A   1      50.625  26.673  29.296  1.00  0.00     0.022 A 
BRANCH  77  81
ATOM     81  S   UNL A   1      49.352  25.604  27.097  1.00  0.00     0.124 S 
ATOM     82  O   UNL A   1      49.972  24.459  27.760  1.00  0.00    -0.237 OA
ATOM     83  O   UNL A   1      47.893  25.615  27.106  1.00  0.00    -0.237 OA
ATOM     84  O   UNL A   1      49.979  26.012  25.845  1.00  0.00    -0.744 OA
ENDBRANCH  77  81
ENDBRANCH  60  74
BRANCH  61  85
ATOM     85  C   UNL A   1      44.103  37.712  28.906  1.00  0.00     0.023 A 
ATOM     86  C   UNL A   1      44.189  38.667  29.935  1.00  0.00     0.031 A 
ATOM     87  C   UNL A   1      43.131  37.901  27.910  1.00  0.00     0.131 A 
ATOM     88  C   UNL A   1      43.264  39.717  29.994  1.00  0.00     0.055 A 
ATOM     89  C   UNL A   1      42.261  38.993  27.929  1.00  0.00     0.041 A 
ATOM     90  F   UNL A   1      43.002  37.012  26.913  1.00  0.00    -0.206 F 
ATOM     91  C   UNL A   1      42.310  39.896  28.988  1.00  0.00     0.022 A 
BRANCH  88  92
ATOM     92  S   UNL A   1      43.168  40.788  31.456  1.00  0.00     0.124 S 
ATOM     93  O   UNL A   1      44.493  41.398  31.473  1.00  0.00    -0.237 OA
ATOM     94  O   UNL A   1      42.066  41.679  31.100  1.00  0.00    -0.237 OA
ATOM     95  O   UNL A   1      42.885  39.859  32.545  1.00  0.00    -0.744 OA
ENDBRANCH  88  92
ENDBRANCH  61  85
BRANCH  73  96
ATOM     96  C   UNL A   1      50.430  35.838  26.461  1.00  0.00     0.023 A 
ATOM     97  C   UNL A   1      51.284  36.705  27.168  1.00  0.00     0.031 A 
ATOM     98  C   UNL A   1      50.530  35.799  25.060  1.00  0.00     0.131 A 
ATOM     99  C   UNL A   1      52.171  37.533  26.467  1.00  0.00     0.055 A 
ATOM    100  C   UNL A   1      51.448  36.592  24.370  1.00  0.00     0.041 A 
ATOM    101  F   UNL A   1      49.731  34.994  24.342  1.00  0.00    -0.206 F 
ATOM    102  C   UNL A   1      52.262  37.476  25.074  1.00  0.00     0.022 A 
BRANCH  99 103
ATOM    103  S   UNL A   1      53.171  38.776  27.331  1.00  0.00     0.124 S 
ATOM    104  O   UNL A   1      52.152  39.532  28.056  1.00  0.00    -0.237 OA
ATOM    105  O   UNL A   1      54.042  37.948  28.161  1.00  0.00    -0.237 OA
ATOM    106  O   UNL A   1      53.835  39.505  26.255  1.00  0.00    -0.744 OA
ENDBRANCH  99 103
ENDBRANCH  73  96
ENDBRANCH  47  48
ENDBRANCH  39  42
ENDBRANCH  37  38
ENDBRANCH  36  37
ENDBRANCH  35  36
ENDBRANCH  34  35
ENDBRANCH   1  34
TORSDOF 21
ENDMDL
MODEL 2
REMARK VINA RESULT:      -9.7      1.619      7.076
REMARK SMILES CC1=C(CC(=O)NCCCCCCNC(=O)c2ccc(-c3c4nc(c(-c5cc(S(=O)(=O)[O-])ccc5F)c5ccc([nH]5)c(-c5cc(S(=O)(=O)[O-])ccc5F)c5nc(c(-c6cc(S(=O)(=O)[O-])ccc6F)c6ccc3[nH]6)C=C5)C=C4)cc2)c2cc(F)ccc2/C1=C\c1cccc(OCc2ccccc2)c1
REMARK SMILES IDX 9 1 8 2 7 3 5 4 6 5 4 7 3 8 1 9 2 10 87 11 80 12 86 13 88 14
REMARK SMILES IDX 81 15 85 16 82 17 84 18 83 19 89 20 90 21 102 22 91 23 93 24
REMARK SMILES IDX 92 25 94 26 95 27 96 28 97 29 101 30 98 31 100 32 99 33
REMARK SMILES IDX 10 34 11 35 12 36 13 37 14 38 15 39 16 41 17 42 18 43 79 44
REMARK SMILES IDX 19 45 78 46 20 47 21 48 22 49 72 50 23 51 77 52 71 53 73 54
REMARK SMILES IDX 24 55 76 56 70 57 69 58 25 60 57 61 37 62 56 63 38 64 41 65
REMARK SMILES IDX 55 66 74 67 39 68 40 69 54 71 75 72 42 73 26 74 27 75 35 76
REMARK SMILES IDX 28 77 34 78 36 79 33 80 29 81 30 82 31 83 32 84 58 85 59 86
REMARK SMILES IDX 67 87 60 88 66 89 68 90 65 91 61 92 62 93 63 94 64 95 43 96
REMARK SMILES IDX 44 97 52 98 45 99 51 100 53 101 50 102 46 103 47 104 48 105
REMARK SMILES IDX 49 106
REMARK H PARENT 7 6 14 40 73 59 41 70
REMARK Flexibility Score: inf
ROOT
ATOM      1  C   UNL A   1      34.663  32.769  31.856  1.00  0.00     0.021 C 
ENDROOT
BRANCH   1   2
ATOM      2  C   UNL A   1      34.566  34.181  31.275  1.00  0.00     0.116 C 
BRANCH   2   3
ATOM      3  N   UNL A   1      33.471  34.292  30.332  1.00  0.00    -0.356 N 
ATOM      4  C   UNL A   1      33.516  34.485  28.983  1.00  0.00     0.224 C 
ATOM      5  O   UNL A   1      32.451  34.635  28.377  1.00  0.00    -0.275 OA
ATOM      6  H   UNL A   1      32.569  34.217  30.720  1.00  0.00     0.163 HD
BRANCH   4   7
ATOM      7  C   UNL A   1      34.850  34.458  28.240  1.00  0.00     0.136 C 
BRANCH   7   8
ATOM      8  C   UNL A   1      35.596  33.174  28.380  1.00  0.00    -0.027 C 
ATOM      9  C   UNL A   1      37.772  33.951  29.496  1.00  0.00     0.045 C 
ATOM     10  C   UNL A   1      36.834  32.958  28.886  1.00  0.00    -0.039 C 
ATOM     11  C   UNL A   1      37.169  31.530  28.776  1.00  0.00    -0.014 C 
ATOM     12  C   UNL A   1      35.038  31.866  27.991  1.00  0.00    -0.011 A 
ATOM     13  C   UNL A   1      35.974  30.847  28.253  1.00  0.00    -0.010 A 
ATOM     14  C   UNL A   1      38.372  31.016  29.082  1.00  0.00     0.017 C 
ATOM     15  C   UNL A   1      33.793  31.559  27.459  1.00  0.00     0.048 A 
ATOM     16  C   UNL A   1      35.666  29.516  28.010  1.00  0.00     0.012 A 
ATOM     17  C   UNL A   1      33.501  30.223  27.196  1.00  0.00     0.123 A 
ATOM     18  C   UNL A   1      34.417  29.206  27.469  1.00  0.00     0.040 A 
ATOM     19  F   UNL A   1      32.308  29.903  26.676  1.00  0.00    -0.207 F 
BRANCH  14  20
ATOM     20  C   UNL A   1      38.744  29.603  29.041  1.00  0.00    -0.021 A 
ATOM     21  C   UNL A   1      38.364  28.707  30.040  1.00  0.00     0.008 A 
ATOM     22  C   UNL A   1      39.518  29.162  27.961  1.00  0.00     0.054 A 
ATOM     23  C   UNL A   1      38.781  27.379  29.970  1.00  0.00     0.004 A 
ATOM     24  C   UNL A   1      39.901  27.828  27.862  1.00  0.00     0.120 A 
ATOM     25  C   UNL A   1      39.549  26.945  28.885  1.00  0.00     0.046 A 
BRANCH  24  26
ATOM     26  O   UNL A   1      40.614  27.279  26.829  1.00  0.00    -0.489 OA
BRANCH  26  27
ATOM     27  C   UNL A   1      41.321  28.168  25.953  1.00  0.00     0.265 C 
BRANCH  27  28
ATOM     28  C   UNL A   1      42.694  28.540  26.464  1.00  0.00    -0.011 A 
ATOM     29  C   UNL A   1      43.705  27.571  26.541  1.00  0.00     0.007 A 
ATOM     30  C   UNL A   1      42.989  29.856  26.850  1.00  0.00     0.007 A 
ATOM     31  C   UNL A   1      44.985  27.914  26.975  1.00  0.00     0.000 A 
ATOM     32  C   UNL A   1      44.274  30.202  27.271  1.00  0.00     0.000 A 
ATOM     33  C   UNL A   1      45.272  29.231  27.332  1.00  0.00     0.000 A 
ENDBRANCH  27  28
ENDBRANCH  26  27
ENDBRANCH  24  26
ENDBRANCH  14  20
ENDBRANCH   7   8
ENDBRANCH   4   7
ENDBRANCH   2   3
ENDBRANCH   1   2
BRANCH   1  34
ATOM     34  C   UNL A   1      35.850  32.564  32.805  1.00  0.00     0.002 C 
BRANCH  34  35
ATOM     35  C   UNL A   1      36.629  31.258  32.611  1.00  0.00     0.002 C 
BRANCH  35  36
ATOM     36  C   UNL A   1      38.152  31.398  32.639  1.00  0.00     0.021 C 
BRANCH  36  37
ATOM     37  C   UNL A   1      38.796  31.073  33.981  1.00  0.00     0.116 C 
BRANCH  37  38
ATOM     38  N   UNL A   1      39.247  29.691  34.058  1.00  0.00    -0.352 N 
ATOM     39  C   UNL A   1      40.311  29.091  33.426  1.00  0.00     0.251 C 
ATOM     40  H   UNL A   1      38.718  29.104  34.645  1.00  0.00     0.163 HD
ATOM     41  O   UNL A   1      40.441  27.871  33.466  1.00  0.00    -0.269 OA
BRANCH  39  42
ATOM     42  C   UNL A   1      41.272  29.924  32.670  1.00  0.00     0.039 A 
ATOM     43  C   UNL A   1      41.335  29.844  31.277  1.00  0.00     0.014 A 
ATOM     44  C   UNL A   1      42.137  30.774  33.365  1.00  0.00     0.014 A 
ATOM     45  C   UNL A   1      42.363  30.487  30.596  1.00  0.00     0.010 A 
ATOM     46  C   UNL A   1      43.118  31.486  32.668  1.00  0.00     0.010 A 
ATOM     47  C   UNL A   1      43.269  31.314  31.283  1.00  0.00    -0.014 A 
BRANCH  47  48
ATOM     48  C   UNL A   1      44.344  32.007  30.526  1.00  0.00     0.031 A 
ATOM     49  C   UNL A   1      44.133  33.386  29.965  1.00  0.00     0.074 A 
ATOM     50  C   UNL A   1      45.538  31.397  30.388  1.00  0.00     0.049 A 
ATOM     51  N   UNL A   1      44.976  34.145  29.314  1.00  0.00    -0.248 NA
ATOM     52  C   UNL A   1      42.806  33.994  30.155  1.00  0.00     0.031 C 
ATOM     53  C   UNL A   1      45.853  30.061  30.897  1.00  0.00     0.029 A 
ATOM     54  N   UNL A   1      46.709  31.817  29.808  1.00  0.00    -0.354 N 
ATOM     55  C   UNL A   1      44.285  35.311  29.006  1.00  0.00     0.074 A 
ATOM     56  C   UNL A   1      42.939  35.147  29.512  1.00  0.00     0.031 C 
ATOM     57  C   UNL A   1      47.143  29.794  30.657  1.00  0.00     0.029 A 
ATOM     58  C   UNL A   1      47.732  30.904  29.912  1.00  0.00     0.049 A 
ATOM     59  H   UNL A   1      46.807  32.689  29.362  1.00  0.00     0.167 HD
ATOM     60  C   UNL A   1      44.737  36.420  28.374  1.00  0.00     0.034 A 
ATOM     61  C   UNL A   1      49.000  30.943  29.450  1.00  0.00     0.034 A 
ATOM     62  C   UNL A   1      46.087  36.574  27.892  1.00  0.00     0.049 A 
ATOM     63  C   UNL A   1      49.466  32.171  28.717  1.00  0.00     0.074 A 
ATOM     64  C   UNL A   1      46.651  37.675  27.270  1.00  0.00     0.029 A 
ATOM     65  N   UNL A   1      47.082  35.609  27.970  1.00  0.00    -0.354 N 
ATOM     66  N   UNL A   1      48.812  33.285  28.478  1.00  0.00    -0.248 NA
ATOM     67  C   UNL A   1      50.835  32.155  28.184  1.00  0.00     0.031 C 
ATOM     68  C   UNL A   1      47.963  37.356  26.921  1.00  0.00     0.029 A 
ATOM     69  C   UNL A   1      48.245  36.080  27.383  1.00  0.00     0.049 A 
ATOM     70  H   UNL A   1      46.977  34.723  28.384  1.00  0.00     0.167 HD
ATOM     71  C   UNL A   1      49.692  34.103  27.777  1.00  0.00     0.074 A 
ATOM     72  C   UNL A   1      50.936  33.369  27.659  1.00  0.00     0.031 C 
ATOM     73  C   UNL A   1      49.483  35.344  27.271  1.00  0.00     0.034 A 
BRANCH  60  74
ATOM     74  C   UNL A   1      43.791  37.577  28.168  1.00  0.00     0.023 A 
ATOM     75  C   UNL A   1      43.736  38.621  29.112  1.00  0.00     0.031 A 
ATOM     76  C   UNL A   1      42.853  37.578  27.121  1.00  0.00     0.131 A 
ATOM     77  C   UNL A   1      42.743  39.602  29.008  1.00  0.00     0.055 A 
ATOM     78  C   UNL A   1      41.888  38.580  27.001  1.00  0.00     0.041 A 
ATOM     79  F   UNL A   1      42.862  36.604  26.196  1.00  0.00    -0.206 F 
ATOM     80  C   UNL A   1      41.823  39.591  27.955  1.00  0.00     0.022 A 
BRANCH  77  81
ATOM     81  S   UNL A   1      42.564  40.897  30.266  1.00  0.00     0.124 S 
ATOM     82  O   UNL A   1      43.509  41.906  29.793  1.00  0.00    -0.237 OA
ATOM     83  O   UNL A   1      41.154  41.254  30.138  1.00  0.00    -0.237 OA
ATOM     84  O   UNL A   1      42.937  40.232  31.510  1.00  0.00    -0.744 OA
ENDBRANCH  77  81
ENDBRANCH  60  74
BRANCH  61  85
ATOM     85  C   UNL A   1      49.902  29.785  29.720  1.00  0.00     0.023 A 
ATOM     86  C   UNL A   1      50.783  29.796  30.817  1.00  0.00     0.031 A 
ATOM     87  C   UNL A   1      49.988  28.715  28.815  1.00  0.00     0.131 A 
ATOM     88  C   UNL A   1      51.766  28.807  30.933  1.00  0.00     0.055 A 
ATOM     89  C   UNL A   1      50.920  27.687  28.978  1.00  0.00     0.041 A 
ATOM     90  F   UNL A   1      49.177  28.665  27.747  1.00  0.00    -0.206 F 
ATOM     91  C   UNL A   1      51.831  27.743  30.029  1.00  0.00     0.022 A 
BRANCH  88  92
ATOM     92  S   UNL A   1      53.091  28.956  32.165  1.00  0.00     0.124 S 
ATOM     93  O   UNL A   1      54.277  28.646  31.373  1.00  0.00    -0.237 OA
ATOM     94  O   UNL A   1      52.954  30.349  32.582  1.00  0.00    -0.237 OA
ATOM     95  O   UNL A   1      52.732  27.969  33.178  1.00  0.00    -0.744 OA
ENDBRANCH  88  92
ENDBRANCH  61  85
BRANCH  73  96
ATOM     96  C   UNL A   1      50.608  36.013  26.519  1.00  0.00     0.023 A 
ATOM     97  C   UNL A   1      51.459  36.919  27.180  1.00  0.00     0.031 A 
ATOM     98  C   UNL A   1      50.736  35.874  25.126  1.00  0.00     0.131 A 
ATOM     99  C   UNL A   1      52.370  37.684  26.442  1.00  0.00     0.055 A 
ATOM    100  C   UNL A   1      51.678  36.605  24.402  1.00  0.00     0.041 A 
ATOM    101  F   UNL A   1      49.941  35.029  24.451  1.00  0.00    -0.206 F 
ATOM    102  C   UNL A   1      52.489  37.527  25.058  1.00  0.00     0.022 A 
BRANCH  99 103
ATOM    103  S   UNL A   1      53.369  38.974  27.236  1.00  0.00     0.124 S 
ATOM    104  O   UNL A   1      54.233  38.188  28.115  1.00  0.00    -0.237 OA
ATOM    105  O   UNL A   1      54.037  39.592  26.095  1.00  0.00    -0.237 OA
ATOM    106  O   UNL A   1      52.387  39.811  27.919  1.00  0.00    -0.744 OA
ENDBRANCH  99 103
ENDBRANCH  73  96
ENDBRANCH  47  48
ENDBRANCH  39  42
ENDBRANCH  37  38
ENDBRANCH  36  37
ENDBRANCH  35  36
ENDBRANCH  34  35
ENDBRANCH   1  34
TORSDOF 21
ENDMDL
MODEL 3
REMARK VINA RESULT:      -9.6      6.638     10.519
REMARK SMILES CC1=C(CC(=O)NCCCCCCNC(=O)c2ccc(-c3c4nc(c(-c5cc(S(=O)(=O)[O-])ccc5F)c5ccc([nH]5)c(-c5cc(S(=O)(=O)[O-])ccc5F)c5nc(c(-c6cc(S(=O)(=O)[O-])ccc6F)c6ccc3[nH]6)C=C5)C=C4)cc2)c2cc(F)ccc2/C1=C\c1cccc(OCc2ccccc2)c1
REMARK SMILES IDX 9 1 8 2 7 3 5 4 6 5 4 7 3 8 1 9 2 10 87 11 80 12 86 13 88 14
REMARK SMILES IDX 81 15 85 16 82 17 84 18 83 19 89 20 90 21 102 22 91 23 93 24
REMARK SMILES IDX 92 25 94 26 95 27 96 28 97 29 101 30 98 31 100 32 99 33
REMARK SMILES IDX 10 34 11 35 12 36 13 37 14 38 15 39 16 41 17 42 18 43 79 44
REMARK SMILES IDX 19 45 78 46 20 47 21 48 22 49 72 50 23 51 77 52 71 53 73 54
REMARK SMILES IDX 24 55 76 56 70 57 69 58 25 60 57 61 37 62 56 63 38 64 41 65
REMARK SMILES IDX 55 66 74 67 39 68 40 69 54 71 75 72 42 73 26 74 27 75 35 76
REMARK SMILES IDX 28 77 34 78 36 79 33 80 29 81 30 82 31 83 32 84 58 85 59 86
REMARK SMILES IDX 67 87 60 88 66 89 68 90 65 91 61 92 62 93 63 94 64 95 43 96
REMARK SMILES IDX 44 97 52 98 45 99 51 100 53 101 50 102 46 103 47 104 48 105
REMARK SMILES IDX 49 106
REMARK H PARENT 7 6 14 40 73 59 41 70
REMARK Flexibility Score: inf
ROOT
ATOM      1  C   UNL A   1      35.960  34.859  32.513  1.00  0.00     0.021 C 
ENDROOT
BRANCH   1   2
ATOM      2  C   UNL A   1      35.356  33.866  31.517  1.00  0.00     0.116 C 
BRANCH   2   3
ATOM      3  N   UNL A   1      34.040  34.287  31.080  1.00  0.00    -0.356 N 
ATOM      4  C   UNL A   1      33.592  34.526  29.815  1.00  0.00     0.224 C 
ATOM      5  O   UNL A   1      32.446  34.962  29.673  1.00  0.00    -0.275 OA
ATOM      6  H   UNL A   1      33.378  34.419  31.797  1.00  0.00     0.163 HD
BRANCH   4   7
ATOM      7  C   UNL A   1      34.470  34.207  28.608  1.00  0.00     0.136 C 
BRANCH   7   8
ATOM      8  C   UNL A   1      34.292  32.824  28.077  1.00  0.00    -0.027 C 
ATOM      9  C   UNL A   1      31.966  32.970  27.004  1.00  0.00     0.045 C 
ATOM     10  C   UNL A   1      33.231  32.292  27.423  1.00  0.00    -0.039 C 
ATOM     11  C   UNL A   1      33.493  30.873  27.135  1.00  0.00    -0.014 C 
ATOM     12  C   UNL A   1      35.329  31.781  28.169  1.00  0.00    -0.011 A 
ATOM     13  C   UNL A   1      34.869  30.592  27.572  1.00  0.00    -0.010 A 
ATOM     14  C   UNL A   1      32.586  30.038  26.600  1.00  0.00     0.017 C 
ATOM     15  C   UNL A   1      36.604  31.848  28.716  1.00  0.00     0.048 A 
ATOM     16  C   UNL A   1      35.685  29.471  27.495  1.00  0.00     0.012 A 
ATOM     17  C   UNL A   1      37.407  30.711  28.655  1.00  0.00     0.123 A 
ATOM     18  C   UNL A   1      36.964  29.534  28.050  1.00  0.00     0.040 A 
ATOM     19  F   UNL A   1      38.638  30.749  29.182  1.00  0.00    -0.207 F 
BRANCH  14  20
ATOM     20  C   UNL A   1      32.805  28.637  26.246  1.00  0.00    -0.021 A 
ATOM     21  C   UNL A   1      33.842  28.240  25.400  1.00  0.00     0.008 A 
ATOM     22  C   UNL A   1      31.926  27.684  26.773  1.00  0.00     0.054 A 
ATOM     23  C   UNL A   1      33.980  26.894  25.065  1.00  0.00     0.004 A 
ATOM     24  C   UNL A   1      32.084  26.333  26.477  1.00  0.00     0.120 A 
ATOM     25  C   UNL A   1      33.101  25.947  25.600  1.00  0.00     0.046 A 
BRANCH  24  26
ATOM     26  O   UNL A   1      31.316  25.314  26.973  1.00  0.00    -0.489 OA
BRANCH  26  27
ATOM     27  C   UNL A   1      30.383  24.681  26.087  1.00  0.00     0.265 C 
BRANCH  27  28
ATOM     28  C   UNL A   1      30.995  23.555  25.285  1.00  0.00    -0.011 A 
ATOM     29  C   UNL A   1      31.033  23.625  23.885  1.00  0.00     0.007 A 
ATOM     30  C   UNL A   1      31.550  22.435  25.922  1.00  0.00     0.007 A 
ATOM     31  C   UNL A   1      31.631  22.608  23.140  1.00  0.00     0.000 A 
ATOM     32  C   UNL A   1      32.160  21.424  25.176  1.00  0.00     0.000 A 
ATOM     33  C   UNL A   1      32.201  21.512  23.786  1.00  0.00     0.000 A 
ENDBRANCH  27  28
ENDBRANCH  26  27
ENDBRANCH  24  26
ENDBRANCH  14  20
ENDBRANCH   7   8
ENDBRANCH   4   7
ENDBRANCH   2   3
ENDBRANCH   1   2
BRANCH   1  34
ATOM     34  C   UNL A   1      35.294  34.839  33.895  1.00  0.00     0.002 C 
BRANCH  34  35
ATOM     35  C   UNL A   1      35.583  33.596  34.745  1.00  0.00     0.002 C 
BRANCH  35  36
ATOM     36  C   UNL A   1      37.062  33.333  35.034  1.00  0.00     0.021 C 
BRANCH  36  37
ATOM     37  C   UNL A   1      37.557  31.955  34.613  1.00  0.00     0.116 C 
BRANCH  37  38
ATOM     38  N   UNL A   1      36.689  31.335  33.622  1.00  0.00    -0.352 N 
ATOM     39  C   UNL A   1      37.018  30.474  32.601  1.00  0.00     0.251 C 
ATOM     40  H   UNL A   1      35.734  31.563  33.692  1.00  0.00     0.163 HD
ATOM     41  O   UNL A   1      36.185  30.186  31.748  1.00  0.00    -0.269 OA
BRANCH  39  42
ATOM     42  C   UNL A   1      38.392  29.928  32.523  1.00  0.00     0.039 A 
ATOM     43  C   UNL A   1      38.611  28.551  32.596  1.00  0.00     0.014 A 
ATOM     44  C   UNL A   1      39.472  30.806  32.404  1.00  0.00     0.014 A 
ATOM     45  C   UNL A   1      39.909  28.065  32.712  1.00  0.00     0.010 A 
ATOM     46  C   UNL A   1      40.778  30.308  32.436  1.00  0.00     0.010 A 
ATOM     47  C   UNL A   1      41.008  28.938  32.635  1.00  0.00    -0.014 A 
BRANCH  47  48
ATOM     48  C   UNL A   1      42.385  28.388  32.739  1.00  0.00     0.031 A 
ATOM     49  C   UNL A   1      43.026  28.148  34.078  1.00  0.00     0.074 A 
ATOM     50  C   UNL A   1      43.040  28.058  31.608  1.00  0.00     0.049 A 
ATOM     51  N   UNL A   1      44.201  27.640  34.347  1.00  0.00    -0.248 NA
ATOM     52  C   UNL A   1      42.253  28.527  35.272  1.00  0.00     0.031 C 
ATOM     53  C   UNL A   1      42.511  28.244  30.256  1.00  0.00     0.029 A 
ATOM     54  N   UNL A   1      44.270  27.482  31.408  1.00  0.00    -0.354 N 
ATOM     55  C   UNL A   1      44.316  27.648  35.732  1.00  0.00     0.074 A 
ATOM     56  C   UNL A   1      43.104  28.245  36.250  1.00  0.00     0.031 C 
ATOM     57  C   UNL A   1      43.382  27.743  29.372  1.00  0.00     0.029 A 
ATOM     58  C   UNL A   1      44.566  27.266  30.082  1.00  0.00     0.049 A 
ATOM     59  H   UNL A   1      44.881  27.246  32.142  1.00  0.00     0.167 HD
ATOM     60  C   UNL A   1      45.333  27.187  36.498  1.00  0.00     0.034 A 
ATOM     61  C   UNL A   1      45.669  26.756  29.496  1.00  0.00     0.034 A 
ATOM     62  C   UNL A   1      46.527  26.581  35.966  1.00  0.00     0.049 A 
ATOM     63  C   UNL A   1      46.801  26.286  30.369  1.00  0.00     0.074 A 
ATOM     64  C   UNL A   1      47.599  26.049  36.664  1.00  0.00     0.029 A 
ATOM     65  N   UNL A   1      46.815  26.423  34.617  1.00  0.00    -0.354 N 
ATOM     66  N   UNL A   1      46.872  26.257  31.681  1.00  0.00    -0.248 NA
ATOM     67  C   UNL A   1      48.006  25.786  29.694  1.00  0.00     0.031 C 
ATOM     68  C   UNL A   1      48.556  25.627  35.741  1.00  0.00     0.029 A 
ATOM     69  C   UNL A   1      48.058  25.831  34.464  1.00  0.00     0.049 A 
ATOM     70  H   UNL A   1      46.222  26.692  33.879  1.00  0.00     0.167 HD
ATOM     71  C   UNL A   1      48.122  25.727  31.986  1.00  0.00     0.074 A 
ATOM     72  C   UNL A   1      48.761  25.420  30.722  1.00  0.00     0.031 C 
ATOM     73  C   UNL A   1      48.688  25.524  33.201  1.00  0.00     0.034 A 
BRANCH  60  74
ATOM     74  C   UNL A   1      45.219  27.294  37.999  1.00  0.00     0.023 A 
ATOM     75  C   UNL A   1      45.757  28.409  38.671  1.00  0.00     0.031 A 
ATOM     76  C   UNL A   1      44.705  26.238  38.771  1.00  0.00     0.131 A 
ATOM     77  C   UNL A   1      45.800  28.426  40.070  1.00  0.00     0.055 A 
ATOM     78  C   UNL A   1      44.716  26.276  40.167  1.00  0.00     0.041 A 
ATOM     79  F   UNL A   1      44.181  25.152  38.179  1.00  0.00    -0.206 F 
ATOM     80  C   UNL A   1      45.278  27.369  40.821  1.00  0.00     0.022 A 
BRANCH  77  81
ATOM     81  S   UNL A   1      46.591  29.788  40.971  1.00  0.00     0.124 S 
ATOM     82  O   UNL A   1      47.609  29.081  41.746  1.00  0.00    -0.237 OA
ATOM     83  O   UNL A   1      47.099  30.619  39.884  1.00  0.00    -0.237 OA
ATOM     84  O   UNL A   1      45.505  30.367  41.754  1.00  0.00    -0.744 OA
ENDBRANCH  77  81
ENDBRANCH  60  74
BRANCH  61  85
ATOM     85  C   UNL A   1      45.709  26.638  28.009  1.00  0.00     0.023 A 
ATOM     86  C   UNL A   1      45.413  25.419  27.373  1.00  0.00     0.031 A 
ATOM     87  C   UNL A   1      46.166  27.703  27.216  1.00  0.00     0.131 A 
ATOM     88  C   UNL A   1      45.660  25.267  26.004  1.00  0.00     0.055 A 
ATOM     89  C   UNL A   1      46.338  27.570  25.836  1.00  0.00     0.041 A 
ATOM     90  F   UNL A   1      46.472  28.883  27.777  1.00  0.00    -0.206 F 
ATOM     91  C   UNL A   1      46.106  26.340  25.227  1.00  0.00     0.022 A 
BRANCH  88  92
ATOM     92  S   UNL A   1      45.566  23.633  25.219  1.00  0.00     0.124 S 
ATOM     93  O   UNL A   1      46.457  22.841  26.060  1.00  0.00    -0.237 OA
ATOM     94  O   UNL A   1      44.142  23.326  25.341  1.00  0.00    -0.237 OA
ATOM     95  O   UNL A   1      46.031  23.877  23.858  1.00  0.00    -0.744 OA
ENDBRANCH  88  92
ENDBRANCH  61  85
BRANCH  73  96
ATOM     96  C   UNL A   1      50.085  24.953  33.257  1.00  0.00     0.023 A 
ATOM     97  C   UNL A   1      50.287  23.568  33.101  1.00  0.00     0.031 A 
ATOM     98  C   UNL A   1      51.183  25.750  33.619  1.00  0.00     0.131 A 
ATOM     99  C   UNL A   1      51.551  23.017  33.350  1.00  0.00     0.055 A 
ATOM    100  C   UNL A   1      52.450  25.203  33.820  1.00  0.00     0.041 A 
ATOM    101  F   UNL A   1      51.037  27.074  33.788  1.00  0.00    -0.206 F 
ATOM    102  C   UNL A   1      52.634  23.827  33.702  1.00  0.00     0.022 A 
BRANCH  99 103
ATOM    103  S   UNL A   1      51.812  21.222  33.315  1.00  0.00     0.124 S 
ATOM    104  O   UNL A   1      52.689  21.067  32.158  1.00  0.00    -0.237 OA
ATOM    105  O   UNL A   1      52.440  20.977  34.610  1.00  0.00    -0.237 OA
ATOM    106  O   UNL A   1      50.469  20.673  33.154  1.00  0.00    -0.744 OA
ENDBRANCH  99 103
ENDBRANCH  73  96
ENDBRANCH  47  48
ENDBRANCH  39  42
ENDBRANCH  37  38
ENDBRANCH  36  37
ENDBRANCH  35  36
ENDBRANCH  34  35
ENDBRANCH   1  34
TORSDOF 21
ENDMDL
