MODEL 1
REMARK VINA RESULT:     -12.3      0.000      0.000
REMARK SMILES CC1CCN(C(=O)N[C@@H]2C=C[C@H](C(=O)NCCCCCCNC(=O)c3ccc(-c4c5nc(c(-c6cc(S(=O)(=O)[O-])ccc6F)c6ccc([nH]6)c(-c6cc(S(=O)(=O)[O-])ccc6F)c6nc(c(-c7cc(S(=O)(=O)[O-])ccc7F)c7ccc4[nH]7)C=C6)C=C5)cc3)C2)CC1
REMARK SMILES IDX 19 1 18 2 17 3 16 4 15 5 13 6 14 7 12 9 9 10 10 11 88 12
REMARK SMILES IDX 11 13 8 14 1 15 2 16 3 17 90 18 4 19 89 20 5 21 6 22 7 23
REMARK SMILES IDX 20 25 21 26 22 27 23 28 24 30 25 31 26 32 87 33 27 34 86 35
REMARK SMILES IDX 28 36 29 37 30 38 80 39 31 40 85 41 79 42 81 43 32 44 84 45
REMARK SMILES IDX 78 46 77 47 33 49 65 50 45 51 64 52 46 53 49 54 63 55 82 56
REMARK SMILES IDX 47 57 48 58 62 60 83 61 50 62 34 63 35 64 43 65 36 66 42 67
REMARK SMILES IDX 44 68 41 69 37 70 38 71 39 72 40 73 66 74 67 75 75 76 68 77
REMARK SMILES IDX 74 78 76 79 73 80 69 81 70 82 71 83 72 84 51 85 52 86 60 87
REMARK SMILES IDX 53 88 59 89 61 90 58 91 54 92 55 93 56 94 57 95
REMARK H PARENT 15 8 8 24 22 29 81 48 49 59
REMARK Flexibility Score: inf
ROOT
ATOM      1  C   UNL A   1      32.627  30.106  25.827  1.00  0.00     0.002 C 
ENDROOT
BRANCH   1   2
ATOM      2  C   UNL A   1      33.680  29.158  26.399  1.00  0.00     0.002 C 
BRANCH   2   3
ATOM      3  C   UNL A   1      33.260  27.700  26.621  1.00  0.00     0.021 C 
BRANCH   3   4
ATOM      4  C   UNL A   1      33.327  26.780  25.403  1.00  0.00     0.116 C 
BRANCH   4   5
ATOM      5  N   UNL A   1      34.324  25.745  25.553  1.00  0.00    -0.356 N 
ATOM      6  C   UNL A   1      34.188  24.421  25.827  1.00  0.00     0.227 C 
ATOM      7  O   UNL A   1      35.196  23.730  25.680  1.00  0.00    -0.274 OA
ATOM      8  H   UNL A   1      35.252  26.048  25.436  1.00  0.00     0.163 HD
BRANCH   6   9
ATOM      9  C   UNL A   1      32.856  23.868  26.338  1.00  0.00     0.103 C 
ATOM     10  C   UNL A   1      33.112  21.423  26.486  1.00  0.00     0.107 C 
ATOM     11  C   UNL A   1      32.209  21.849  25.340  1.00  0.00    -0.006 C 
ATOM     12  C   UNL A   1      33.083  22.709  27.312  1.00  0.00     0.047 C 
ATOM     13  C   UNL A   1      32.093  23.182  25.251  1.00  0.00    -0.016 C 
BRANCH  10  14
ATOM     14  N   UNL A   1      34.308  20.900  25.843  1.00  0.00    -0.332 N 
ATOM     15  C   UNL A   1      32.704  14.991  25.622  1.00  0.00     0.008 C 
ATOM     16  C   UNL A   1      33.092  16.169  24.732  1.00  0.00    -0.011 C 
ATOM     17  C   UNL A   1      34.588  16.463  24.908  1.00  0.00     0.025 C 
ATOM     18  C   UNL A   1      32.239  17.417  25.035  1.00  0.00     0.025 C 
ATOM     19  C   UNL A   1      35.001  17.723  24.157  1.00  0.00     0.121 C 
ATOM     20  C   UNL A   1      32.771  18.668  24.317  1.00  0.00     0.121 C 
ATOM     21  N   UNL A   1      34.183  18.858  24.587  1.00  0.00    -0.325 N 
ATOM     22  C   UNL A   1      34.835  19.928  25.104  1.00  0.00     0.317 C 
ATOM     23  O   UNL A   1      36.053  20.073  24.915  1.00  0.00    -0.249 OA
ATOM     24  H   UNL A   1      35.035  21.535  26.039  1.00  0.00     0.165 HD
ENDBRANCH  10  14
ENDBRANCH   6   9
ENDBRANCH   4   5
ENDBRANCH   3   4
ENDBRANCH   2   3
ENDBRANCH   1   2
BRANCH   1  25
ATOM     25  C   UNL A   1      32.095  31.155  26.797  1.00  0.00     0.021 C 
BRANCH  25  26
ATOM     26  C   UNL A   1      33.161  32.032  27.432  1.00  0.00     0.116 C 
BRANCH  26  27
ATOM     27  N   UNL A   1      32.734  33.414  27.587  1.00  0.00    -0.352 N 
ATOM     28  C   UNL A   1      33.195  34.351  28.480  1.00  0.00     0.251 C 
ATOM     29  H   UNL A   1      32.024  33.715  26.975  1.00  0.00     0.163 HD
ATOM     30  O   UNL A   1      32.636  35.438  28.589  1.00  0.00    -0.269 OA
BRANCH  28  31
ATOM     31  C   UNL A   1      34.350  34.007  29.334  1.00  0.00     0.039 A 
ATOM     32  C   UNL A   1      34.143  33.236  30.480  1.00  0.00     0.014 A 
ATOM     33  C   UNL A   1      35.642  34.377  28.949  1.00  0.00     0.014 A 
ATOM     34  C   UNL A   1      35.244  32.771  31.201  1.00  0.00     0.010 A 
ATOM     35  C   UNL A   1      36.736  33.847  29.622  1.00  0.00     0.010 A 
ATOM     36  C   UNL A   1      36.548  33.038  30.754  1.00  0.00    -0.014 A 
BRANCH  36  37
ATOM     37  C   UNL A   1      37.735  32.480  31.451  1.00  0.00     0.031 A 
ATOM     38  C   UNL A   1      38.492  31.336  30.837  1.00  0.00     0.074 A 
ATOM     39  C   UNL A   1      38.068  32.936  32.675  1.00  0.00     0.049 A 
ATOM     40  N   UNL A   1      39.481  30.636  31.328  1.00  0.00    -0.248 NA
ATOM     41  C   UNL A   1      38.041  30.895  29.508  1.00  0.00     0.031 C 
ATOM     42  C   UNL A   1      37.368  33.999  33.400  1.00  0.00     0.029 A 
ATOM     43  N   UNL A   1      39.064  32.548  33.535  1.00  0.00    -0.354 N 
ATOM     44  C   UNL A   1      39.757  29.657  30.379  1.00  0.00     0.074 A 
ATOM     45  C   UNL A   1      38.785  29.816  29.319  1.00  0.00     0.031 C 
ATOM     46  C   UNL A   1      37.959  34.180  34.592  1.00  0.00     0.029 A 
ATOM     47  C   UNL A   1      39.052  33.223  34.734  1.00  0.00     0.049 A 
ATOM     48  H   UNL A   1      39.724  31.851  33.316  1.00  0.00     0.167 HD
ATOM     49  C   UNL A   1      40.745  28.727  30.384  1.00  0.00     0.034 A 
ATOM     50  C   UNL A   1      39.819  33.073  35.831  1.00  0.00     0.034 A 
ATOM     51  C   UNL A   1      41.715  28.602  31.444  1.00  0.00     0.049 A 
ATOM     52  C   UNL A   1      40.907  32.034  35.822  1.00  0.00     0.074 A 
ATOM     53  C   UNL A   1      42.821  27.773  31.508  1.00  0.00     0.029 A 
ATOM     54  N   UNL A   1      41.683  29.312  32.639  1.00  0.00    -0.354 N 
ATOM     55  N   UNL A   1      41.216  31.172  34.880  1.00  0.00    -0.248 NA
ATOM     56  C   UNL A   1      41.754  31.950  37.018  1.00  0.00     0.031 C 
ATOM     57  C   UNL A   1      43.412  27.928  32.769  1.00  0.00     0.029 A 
ATOM     58  C   UNL A   1      42.720  28.906  33.466  1.00  0.00     0.049 A 
ATOM     59  H   UNL A   1      41.020  30.003  32.866  1.00  0.00     0.167 HD
ATOM     60  C   UNL A   1      42.300  30.449  35.369  1.00  0.00     0.074 A 
ATOM     61  C   UNL A   1      42.603  30.991  36.680  1.00  0.00     0.031 C 
ATOM     62  C   UNL A   1      42.985  29.431  34.786  1.00  0.00     0.034 A 
BRANCH  49  63
ATOM     63  C   UNL A   1      40.793  27.765  29.220  1.00  0.00     0.023 A 
ATOM     64  C   UNL A   1      41.734  27.903  28.183  1.00  0.00     0.031 A 
ATOM     65  C   UNL A   1      39.844  26.733  29.110  1.00  0.00     0.131 A 
ATOM     66  C   UNL A   1      41.640  27.097  27.038  1.00  0.00     0.055 A 
ATOM     67  C   UNL A   1      39.815  25.873  28.010  1.00  0.00     0.041 A 
ATOM     68  F   UNL A   1      38.909  26.561  30.057  1.00  0.00    -0.206 F 
ATOM     69  C   UNL A   1      40.701  26.066  26.955  1.00  0.00     0.022 A 
BRANCH  66  70
ATOM     70  S   UNL A   1      42.634  27.541  25.587  1.00  0.00     0.124 S 
ATOM     71  O   UNL A   1      43.948  27.762  26.187  1.00  0.00    -0.237 OA
ATOM     72  O   UNL A   1      42.506  26.357  24.745  1.00  0.00    -0.237 OA
ATOM     73  O   UNL A   1      41.981  28.745  25.078  1.00  0.00    -0.744 OA
ENDBRANCH  66  70
ENDBRANCH  49  63
BRANCH  50  74
ATOM     74  C   UNL A   1      39.561  33.909  37.036  1.00  0.00     0.023 A 
ATOM     75  C   UNL A   1      38.888  33.392  38.152  1.00  0.00     0.031 A 
ATOM     76  C   UNL A   1      39.994  35.247  37.085  1.00  0.00     0.131 A 
ATOM     77  C   UNL A   1      38.644  34.213  39.264  1.00  0.00     0.055 A 
ATOM     78  C   UNL A   1      39.786  36.049  38.210  1.00  0.00     0.041 A 
ATOM     79  F   UNL A   1      40.653  35.786  36.047  1.00  0.00    -0.206 F 
ATOM     80  C   UNL A   1      39.101  35.533  39.305  1.00  0.00     0.022 A 
BRANCH  77  81
ATOM     81  S   UNL A   1      37.688  33.542  40.652  1.00  0.00     0.124 S 
ATOM     82  O   UNL A   1      36.590  32.876  39.960  1.00  0.00    -0.237 OA
ATOM     83  O   UNL A   1      38.662  32.671  41.299  1.00  0.00    -0.237 OA
ATOM     84  O   UNL A   1      37.316  34.731  41.415  1.00  0.00    -0.744 OA
ENDBRANCH  77  81
ENDBRANCH  50  74
BRANCH  62  85
ATOM     85  C   UNL A   1      44.134  28.846  35.568  1.00  0.00     0.023 A 
ATOM     86  C   UNL A   1      43.952  27.754  36.435  1.00  0.00     0.031 A 
ATOM     87  C   UNL A   1      45.427  29.386  35.446  1.00  0.00     0.131 A 
ATOM     88  C   UNL A   1      45.036  27.266  37.181  1.00  0.00     0.055 A 
ATOM     89  C   UNL A   1      46.512  28.860  36.148  1.00  0.00     0.041 A 
ATOM     90  F   UNL A   1      45.656  30.431  34.635  1.00  0.00    -0.206 F 
ATOM     91  C   UNL A   1      46.318  27.801  37.029  1.00  0.00     0.022 A 
BRANCH  88  92
ATOM     92  S   UNL A   1      44.732  25.968  38.411  1.00  0.00     0.124 S 
ATOM     93  O   UNL A   1      43.759  25.123  37.726  1.00  0.00    -0.237 OA
ATOM     94  O   UNL A   1      46.061  25.391  38.593  1.00  0.00    -0.237 OA
ATOM     95  O   UNL A   1      44.215  26.702  39.564  1.00  0.00    -0.744 OA
ENDBRANCH  88  92
ENDBRANCH  62  85
ENDBRANCH  36  37
ENDBRANCH  28  31
ENDBRANCH  26  27
ENDBRANCH  25  26
ENDBRANCH   1  25
TORSDOF 17
ENDMDL
MODEL 2
REMARK VINA RESULT:     -12.2      1.877      2.657
REMARK SMILES CC1CCN(C(=O)N[C@@H]2C=C[C@H](C(=O)NCCCCCCNC(=O)c3ccc(-c4c5nc(c(-c6cc(S(=O)(=O)[O-])ccc6F)c6ccc([nH]6)c(-c6cc(S(=O)(=O)[O-])ccc6F)c6nc(c(-c7cc(S(=O)(=O)[O-])ccc7F)c7ccc4[nH]7)C=C6)C=C5)cc3)C2)CC1
REMARK SMILES IDX 19 1 18 2 17 3 16 4 15 5 13 6 14 7 12 9 9 10 10 11 88 12
REMARK SMILES IDX 11 13 8 14 1 15 2 16 3 17 90 18 4 19 89 20 5 21 6 22 7 23
REMARK SMILES IDX 20 25 21 26 22 27 23 28 24 30 25 31 26 32 87 33 27 34 86 35
REMARK SMILES IDX 28 36 29 37 30 38 80 39 31 40 85 41 79 42 81 43 32 44 84 45
REMARK SMILES IDX 78 46 77 47 33 49 65 50 45 51 64 52 46 53 49 54 63 55 82 56
REMARK SMILES IDX 47 57 48 58 62 60 83 61 50 62 34 63 35 64 43 65 36 66 42 67
REMARK SMILES IDX 44 68 41 69 37 70 38 71 39 72 40 73 66 74 67 75 75 76 68 77
REMARK SMILES IDX 74 78 76 79 73 80 69 81 70 82 71 83 72 84 51 85 52 86 60 87
REMARK SMILES IDX 53 88 59 89 61 90 58 91 54 92 55 93 56 94 57 95
REMARK H PARENT 15 8 8 24 22 29 81 48 49 59
REMARK Flexibility Score: inf
ROOT
ATOM      1  C   UNL A   1      31.717  30.502  26.304  1.00  0.00     0.002 C 
ENDROOT
BRANCH   1   2
ATOM      2  C   UNL A   1      32.502  29.578  27.235  1.00  0.00     0.002 C 
BRANCH   2   3
ATOM      3  C   UNL A   1      31.754  28.373  27.818  1.00  0.00     0.021 C 
BRANCH   3   4
ATOM      4  C   UNL A   1      31.260  27.330  26.817  1.00  0.00     0.116 C 
BRANCH   4   5
ATOM      5  N   UNL A   1      32.342  26.557  26.253  1.00  0.00    -0.356 N 
ATOM      6  C   UNL A   1      33.031  26.719  25.093  1.00  0.00     0.227 C 
ATOM      7  O   UNL A   1      34.050  26.040  24.968  1.00  0.00    -0.274 OA
ATOM      8  H   UNL A   1      32.626  25.788  26.796  1.00  0.00     0.163 HD
BRANCH   6   9
ATOM      9  C   UNL A   1      32.510  27.661  24.006  1.00  0.00     0.103 C 
ATOM     10  C   UNL A   1      32.610  26.420  21.881  1.00  0.00     0.107 C 
ATOM     11  C   UNL A   1      33.663  27.512  21.972  1.00  0.00    -0.006 C 
ATOM     12  C   UNL A   1      31.664  26.901  22.982  1.00  0.00     0.047 C 
ATOM     13  C   UNL A   1      33.619  28.167  23.141  1.00  0.00    -0.016 C 
BRANCH  10  14
ATOM     14  N   UNL A   1      33.358  25.174  21.943  1.00  0.00    -0.332 N 
ATOM     15  C   UNL A   1      30.989  22.961  27.143  1.00  0.00     0.008 C 
ATOM     16  C   UNL A   1      31.145  22.643  25.658  1.00  0.00    -0.011 C 
ATOM     17  C   UNL A   1      32.610  22.286  25.370  1.00  0.00     0.025 C 
ATOM     18  C   UNL A   1      30.672  23.813  24.772  1.00  0.00     0.025 C 
ATOM     19  C   UNL A   1      32.856  22.103  23.877  1.00  0.00     0.121 C 
ATOM     20  C   UNL A   1      31.038  23.602  23.294  1.00  0.00     0.121 C 
ATOM     21  N   UNL A   1      32.450  23.306  23.147  1.00  0.00    -0.325 N 
ATOM     22  C   UNL A   1      33.398  23.927  22.405  1.00  0.00     0.317 C 
ATOM     23  O   UNL A   1      34.443  23.333  22.096  1.00  0.00    -0.249 OA
ATOM     24  H   UNL A   1      34.183  25.312  21.424  1.00  0.00     0.165 HD
ENDBRANCH  10  14
ENDBRANCH   6   9
ENDBRANCH   4   5
ENDBRANCH   3   4
ENDBRANCH   2   3
ENDBRANCH   1   2
BRANCH   1  25
ATOM     25  C   UNL A   1      31.523  31.927  26.809  1.00  0.00     0.021 C 
BRANCH  25  26
ATOM     26  C   UNL A   1      32.808  32.716  26.995  1.00  0.00     0.116 C 
BRANCH  26  27
ATOM     27  N   UNL A   1      32.592  33.999  27.646  1.00  0.00    -0.352 N 
ATOM     28  C   UNL A   1      33.278  34.541  28.705  1.00  0.00     0.251 C 
ATOM     29  H   UNL A   1      31.862  34.548  27.279  1.00  0.00     0.163 HD
ATOM     30  O   UNL A   1      32.888  35.574  29.240  1.00  0.00    -0.269 OA
BRANCH  28  31
ATOM     31  C   UNL A   1      34.471  33.832  29.214  1.00  0.00     0.039 A 
ATOM     32  C   UNL A   1      35.739  34.292  28.856  1.00  0.00     0.014 A 
ATOM     33  C   UNL A   1      34.325  32.768  30.111  1.00  0.00     0.014 A 
ATOM     34  C   UNL A   1      36.867  33.731  29.458  1.00  0.00     0.010 A 
ATOM     35  C   UNL A   1      35.443  32.269  30.766  1.00  0.00     0.010 A 
ATOM     36  C   UNL A   1      36.725  32.746  30.448  1.00  0.00    -0.014 A 
BRANCH  36  37
ATOM     37  C   UNL A   1      37.901  32.197  31.170  1.00  0.00     0.031 A 
ATOM     38  C   UNL A   1      38.701  31.083  30.555  1.00  0.00     0.074 A 
ATOM     39  C   UNL A   1      38.185  32.631  32.414  1.00  0.00     0.049 A 
ATOM     40  N   UNL A   1      39.689  30.393  31.062  1.00  0.00    -0.248 NA
ATOM     41  C   UNL A   1      38.302  30.664  29.204  1.00  0.00     0.031 C 
ATOM     42  C   UNL A   1      37.440  33.662  33.140  1.00  0.00     0.029 A 
ATOM     43  N   UNL A   1      39.162  32.244  33.297  1.00  0.00    -0.354 N 
ATOM     44  C   UNL A   1      40.016  29.442  30.101  1.00  0.00     0.074 A 
ATOM     45  C   UNL A   1      39.075  29.605  29.014  1.00  0.00     0.031 C 
ATOM     46  C   UNL A   1      37.990  33.829  34.353  1.00  0.00     0.029 A 
ATOM     47  C   UNL A   1      39.098  32.891  34.509  1.00  0.00     0.049 A 
ATOM     48  H   UNL A   1      39.843  31.566  33.084  1.00  0.00     0.167 HD
ATOM     49  C   UNL A   1      41.023  28.532  30.117  1.00  0.00     0.034 A 
ATOM     50  C   UNL A   1      39.833  32.732  35.627  1.00  0.00     0.034 A 
ATOM     51  C   UNL A   1      41.961  28.402  31.204  1.00  0.00     0.049 A 
ATOM     52  C   UNL A   1      40.943  31.716  35.629  1.00  0.00     0.074 A 
ATOM     53  C   UNL A   1      43.082  27.596  31.285  1.00  0.00     0.029 A 
ATOM     54  N   UNL A   1      41.877  29.084  32.413  1.00  0.00    -0.354 N 
ATOM     55  N   UNL A   1      41.299  30.883  34.679  1.00  0.00    -0.248 NA
ATOM     56  C   UNL A   1      41.753  31.622  36.850  1.00  0.00     0.031 C 
ATOM     57  C   UNL A   1      43.630  27.734  32.568  1.00  0.00     0.029 A 
ATOM     58  C   UNL A   1      42.895  28.681  33.263  1.00  0.00     0.049 A 
ATOM     59  H   UNL A   1      41.192  29.756  32.634  1.00  0.00     0.167 HD
ATOM     60  C   UNL A   1      42.383  30.171  35.186  1.00  0.00     0.074 A 
ATOM     61  C   UNL A   1      42.632  30.689  36.518  1.00  0.00     0.031 C 
ATOM     62  C   UNL A   1      43.108  29.181  34.603  1.00  0.00     0.034 A 
BRANCH  49  63
ATOM     63  C   UNL A   1      41.128  27.599  28.933  1.00  0.00     0.023 A 
ATOM     64  C   UNL A   1      42.138  27.740  27.965  1.00  0.00     0.031 A 
ATOM     65  C   UNL A   1      40.167  26.591  28.734  1.00  0.00     0.131 A 
ATOM     66  C   UNL A   1      42.104  26.965  26.796  1.00  0.00     0.055 A 
ATOM     67  C   UNL A   1      40.193  25.759  27.612  1.00  0.00     0.041 A 
ATOM     68  F   UNL A   1      39.167  26.417  29.612  1.00  0.00    -0.206 F 
ATOM     69  C   UNL A   1      41.151  25.959  26.624  1.00  0.00     0.022 A 
BRANCH  66  70
ATOM     70  S   UNL A   1      43.202  27.422  25.426  1.00  0.00     0.124 S 
ATOM     71  O   UNL A   1      44.013  28.473  26.036  1.00  0.00    -0.237 OA
ATOM     72  O   UNL A   1      43.889  26.167  25.143  1.00  0.00    -0.237 OA
ATOM     73  O   UNL A   1      42.282  27.880  24.386  1.00  0.00    -0.744 OA
ENDBRANCH  66  70
ENDBRANCH  49  63
BRANCH  50  74
ATOM     74  C   UNL A   1      39.519  33.535  36.841  1.00  0.00     0.023 A 
ATOM     75  C   UNL A   1      38.828  32.977  37.926  1.00  0.00     0.031 A 
ATOM     76  C   UNL A   1      39.916  34.882  36.932  1.00  0.00     0.131 A 
ATOM     77  C   UNL A   1      38.532  33.767  39.048  1.00  0.00     0.055 A 
ATOM     78  C   UNL A   1      39.655  35.653  38.066  1.00  0.00     0.041 A 
ATOM     79  F   UNL A   1      40.590  35.460  35.925  1.00  0.00    -0.206 F 
ATOM     80  C   UNL A   1      38.953  35.097  39.130  1.00  0.00     0.022 A 
BRANCH  77  81
ATOM     81  S   UNL A   1      37.553  33.042  40.392  1.00  0.00     0.124 S 
ATOM     82  O   UNL A   1      37.454  34.160  41.323  1.00  0.00    -0.237 OA
ATOM     83  O   UNL A   1      36.323  32.668  39.704  1.00  0.00    -0.237 OA
ATOM     84  O   UNL A   1      38.375  31.922  40.845  1.00  0.00    -0.744 OA
ENDBRANCH  77  81
ENDBRANCH  50  74
BRANCH  62  85
ATOM     85  C   UNL A   1      44.244  28.602  35.408  1.00  0.00     0.023 A 
ATOM     86  C   UNL A   1      44.026  27.597  36.367  1.00  0.00     0.031 A 
ATOM     87  C   UNL A   1      45.559  29.060  35.215  1.00  0.00     0.131 A 
ATOM     88  C   UNL A   1      45.101  27.115  37.129  1.00  0.00     0.055 A 
ATOM     89  C   UNL A   1      46.633  28.537  35.936  1.00  0.00     0.041 A 
ATOM     90  F   UNL A   1      45.822  30.021  34.314  1.00  0.00    -0.206 F 
ATOM     91  C   UNL A   1      46.405  27.566  36.907  1.00  0.00     0.022 A 
BRANCH  88  92
ATOM     92  S   UNL A   1      44.762  25.942  38.470  1.00  0.00     0.124 S 
ATOM     93  O   UNL A   1      44.830  24.660  37.776  1.00  0.00    -0.237 OA
ATOM     94  O   UNL A   1      45.844  26.217  39.410  1.00  0.00    -0.237 OA
ATOM     95  O   UNL A   1      43.429  26.326  38.933  1.00  0.00    -0.744 OA
ENDBRANCH  88  92
ENDBRANCH  62  85
ENDBRANCH  36  37
ENDBRANCH  28  31
ENDBRANCH  26  27
ENDBRANCH  25  26
ENDBRANCH   1  25
TORSDOF 17
ENDMDL
MODEL 3
REMARK VINA RESULT:     -12.0      5.087      8.834
REMARK SMILES CC1CCN(C(=O)N[C@@H]2C=C[C@H](C(=O)NCCCCCCNC(=O)c3ccc(-c4c5nc(c(-c6cc(S(=O)(=O)[O-])ccc6F)c6ccc([nH]6)c(-c6cc(S(=O)(=O)[O-])ccc6F)c6nc(c(-c7cc(S(=O)(=O)[O-])ccc7F)c7ccc4[nH]7)C=C6)C=C5)cc3)C2)CC1
REMARK SMILES IDX 19 1 18 2 17 3 16 4 15 5 13 6 14 7 12 9 9 10 10 11 88 12
REMARK SMILES IDX 11 13 8 14 1 15 2 16 3 17 90 18 4 19 89 20 5 21 6 22 7 23
REMARK SMILES IDX 20 25 21 26 22 27 23 28 24 30 25 31 26 32 87 33 27 34 86 35
REMARK SMILES IDX 28 36 29 37 30 38 80 39 31 40 85 41 79 42 81 43 32 44 84 45
REMARK SMILES IDX 78 46 77 47 33 49 65 50 45 51 64 52 46 53 49 54 63 55 82 56
REMARK SMILES IDX 47 57 48 58 62 60 83 61 50 62 34 63 35 64 43 65 36 66 42 67
REMARK SMILES IDX 44 68 41 69 37 70 38 71 39 72 40 73 66 74 67 75 75 76 68 77
REMARK SMILES IDX 74 78 76 79 73 80 69 81 70 82 71 83 72 84 51 85 52 86 60 87
REMARK SMILES IDX 53 88 59 89 61 90 58 91 54 92 55 93 56 94 57 95
REMARK H PARENT 15 8 8 24 22 29 81 48 49 59
REMARK Flexibility Score: inf
ROOT
ATOM      1  C   UNL A   1      35.310  22.321  23.960  1.00  0.00     0.002 C 
ENDROOT
BRANCH   1   2
ATOM      2  C   UNL A   1      34.826  21.324  25.013  1.00  0.00     0.002 C 
BRANCH   2   3
ATOM      3  C   UNL A   1      33.379  21.466  25.497  1.00  0.00     0.021 C 
BRANCH   3   4
ATOM      4  C   UNL A   1      33.182  22.070  26.886  1.00  0.00     0.116 C 
BRANCH   4   5
ATOM      5  N   UNL A   1      31.934  22.790  26.999  1.00  0.00    -0.356 N 
ATOM      6  C   UNL A   1      31.593  24.037  26.581  1.00  0.00     0.227 C 
ATOM      7  O   UNL A   1      30.393  24.312  26.615  1.00  0.00    -0.274 OA
ATOM      8  H   UNL A   1      31.214  22.297  27.453  1.00  0.00     0.163 HD
BRANCH   6   9
ATOM      9  C   UNL A   1      32.672  25.032  26.149  1.00  0.00     0.103 C 
ATOM     10  C   UNL A   1      31.516  26.880  25.001  1.00  0.00     0.107 C 
ATOM     11  C   UNL A   1      32.301  25.997  24.046  1.00  0.00    -0.006 C 
ATOM     12  C   UNL A   1      32.184  26.474  26.316  1.00  0.00     0.047 C 
ATOM     13  C   UNL A   1      32.909  24.979  24.674  1.00  0.00    -0.016 C 
BRANCH  10  14
ATOM     14  N   UNL A   1      30.120  26.618  24.689  1.00  0.00    -0.332 N 
ATOM     15  C   UNL A   1      28.470  32.302  23.104  1.00  0.00     0.008 C 
ATOM     16  C   UNL A   1      28.557  30.877  22.563  1.00  0.00    -0.011 C 
ATOM     17  C   UNL A   1      27.478  30.016  23.234  1.00  0.00     0.025 C 
ATOM     18  C   UNL A   1      29.961  30.273  22.771  1.00  0.00     0.025 C 
ATOM     19  C   UNL A   1      27.612  28.549  22.844  1.00  0.00     0.121 C 
ATOM     20  C   UNL A   1      29.996  28.771  22.447  1.00  0.00     0.121 C 
ATOM     21  N   UNL A   1      28.956  28.062  23.165  1.00  0.00    -0.325 N 
ATOM     22  C   UNL A   1      29.043  27.008  24.012  1.00  0.00     0.317 C 
ATOM     23  O   UNL A   1      28.052  26.294  24.231  1.00  0.00    -0.249 OA
ATOM     24  H   UNL A   1      29.863  25.811  25.192  1.00  0.00     0.165 HD
ENDBRANCH  10  14
ENDBRANCH   6   9
ENDBRANCH   4   5
ENDBRANCH   3   4
ENDBRANCH   2   3
ENDBRANCH   1   2
BRANCH   1  25
ATOM     25  C   UNL A   1      36.533  23.143  24.352  1.00  0.00     0.021 C 
BRANCH  25  26
ATOM     26  C   UNL A   1      36.903  23.070  25.824  1.00  0.00     0.116 C 
BRANCH  26  27
ATOM     27  N   UNL A   1      38.066  22.233  26.071  1.00  0.00    -0.352 N 
ATOM     28  C   UNL A   1      39.311  22.614  26.509  1.00  0.00     0.251 C 
ATOM     29  H   UNL A   1      37.946  21.270  25.902  1.00  0.00     0.163 HD
ATOM     30  O   UNL A   1      40.239  21.812  26.534  1.00  0.00    -0.269 OA
BRANCH  28  31
ATOM     31  C   UNL A   1      39.519  24.021  26.911  1.00  0.00     0.039 A 
ATOM     32  C   UNL A   1      39.285  24.391  28.237  1.00  0.00     0.014 A 
ATOM     33  C   UNL A   1      40.028  24.945  25.992  1.00  0.00     0.014 A 
ATOM     34  C   UNL A   1      39.632  25.675  28.662  1.00  0.00     0.010 A 
ATOM     35  C   UNL A   1      40.445  26.193  26.437  1.00  0.00     0.010 A 
ATOM     36  C   UNL A   1      40.254  26.570  27.776  1.00  0.00    -0.014 A 
BRANCH  36  37
ATOM     37  C   UNL A   1      40.716  27.908  28.225  1.00  0.00     0.031 A 
ATOM     38  C   UNL A   1      42.188  28.191  28.335  1.00  0.00     0.074 A 
ATOM     39  C   UNL A   1      39.816  28.827  28.626  1.00  0.00     0.049 A 
ATOM     40  N   UNL A   1      42.797  29.248  28.806  1.00  0.00    -0.248 NA
ATOM     41  C   UNL A   1      43.092  27.120  27.893  1.00  0.00     0.031 C 
ATOM     42  C   UNL A   1      38.362  28.643  28.626  1.00  0.00     0.029 A 
ATOM     43  N   UNL A   1      39.989  30.091  29.132  1.00  0.00    -0.354 N 
ATOM     44  C   UNL A   1      44.156  28.959  28.741  1.00  0.00     0.074 A 
ATOM     45  C   UNL A   1      44.273  27.605  28.247  1.00  0.00     0.031 C 
ATOM     46  C   UNL A   1      37.779  29.753  29.104  1.00  0.00     0.029 A 
ATOM     47  C   UNL A   1      38.813  30.712  29.482  1.00  0.00     0.049 A 
ATOM     48  H   UNL A   1      40.873  30.512  29.238  1.00  0.00     0.167 HD
ATOM     49  C   UNL A   1      45.208  29.761  29.044  1.00  0.00     0.034 A 
ATOM     50  C   UNL A   1      38.593  31.908  30.062  1.00  0.00     0.034 A 
ATOM     51  C   UNL A   1      45.066  31.117  29.516  1.00  0.00     0.049 A 
ATOM     52  C   UNL A   1      39.770  32.783  30.396  1.00  0.00     0.074 A 
ATOM     53  C   UNL A   1      46.054  32.056  29.752  1.00  0.00     0.029 A 
ATOM     54  N   UNL A   1      43.858  31.721  29.846  1.00  0.00    -0.354 N 
ATOM     55  N   UNL A   1      41.051  32.534  30.245  1.00  0.00    -0.248 NA
ATOM     56  C   UNL A   1      39.475  34.100  30.972  1.00  0.00     0.031 C 
ATOM     57  C   UNL A   1      45.451  33.199  30.294  1.00  0.00     0.029 A 
ATOM     58  C   UNL A   1      44.079  33.001  30.329  1.00  0.00     0.049 A 
ATOM     59  H   UNL A   1      42.973  31.300  29.751  1.00  0.00     0.167 HD
ATOM     60  C   UNL A   1      41.714  33.670  30.701  1.00  0.00     0.074 A 
ATOM     61  C   UNL A   1      40.690  34.611  31.111  1.00  0.00     0.031 C 
ATOM     62  C   UNL A   1      43.048  33.914  30.770  1.00  0.00     0.034 A 
BRANCH  49  63
ATOM     63  C   UNL A   1      46.591  29.170  28.897  1.00  0.00     0.023 A 
ATOM     64  C   UNL A   1      47.251  29.127  27.656  1.00  0.00     0.031 A 
ATOM     65  C   UNL A   1      47.234  28.581  30.001  1.00  0.00     0.131 A 
ATOM     66  C   UNL A   1      48.457  28.421  27.526  1.00  0.00     0.055 A 
ATOM     67  C   UNL A   1      48.480  27.961  29.883  1.00  0.00     0.041 A 
ATOM     68  F   UNL A   1      46.648  28.573  31.209  1.00  0.00    -0.206 F 
ATOM     69  C   UNL A   1      49.088  27.858  28.636  1.00  0.00     0.022 A 
BRANCH  66  70
ATOM     70  S   UNL A   1      49.085  28.088  25.856  1.00  0.00     0.124 S 
ATOM     71  O   UNL A   1      50.126  29.104  25.725  1.00  0.00    -0.237 OA
ATOM     72  O   UNL A   1      49.547  26.709  25.965  1.00  0.00    -0.237 OA
ATOM     73  O   UNL A   1      47.917  28.291  25.002  1.00  0.00    -0.744 OA
ENDBRANCH  66  70
ENDBRANCH  49  63
BRANCH  50  74
ATOM     74  C   UNL A   1      37.202  32.328  30.388  1.00  0.00     0.023 A 
ATOM     75  C   UNL A   1      36.387  32.955  29.434  1.00  0.00     0.031 A 
ATOM     76  C   UNL A   1      36.666  32.101  31.669  1.00  0.00     0.131 A 
ATOM     77  C   UNL A   1      35.086  33.355  29.780  1.00  0.00     0.055 A 
ATOM     78  C   UNL A   1      35.359  32.464  31.997  1.00  0.00     0.041 A 
ATOM     79  F   UNL A   1      37.402  31.495  32.614  1.00  0.00    -0.206 F 
ATOM     80  C   UNL A   1      34.563  33.102  31.051  1.00  0.00     0.022 A 
BRANCH  77  81
ATOM     81  S   UNL A   1      34.092  34.249  28.553  1.00  0.00     0.124 S 
ATOM     82  O   UNL A   1      34.101  33.318  27.431  1.00  0.00    -0.237 OA
ATOM     83  O   UNL A   1      32.820  34.404  29.249  1.00  0.00    -0.237 OA
ATOM     84  O   UNL A   1      34.841  35.486  28.345  1.00  0.00    -0.744 OA
ENDBRANCH  77  81
ENDBRANCH  50  74
BRANCH  62  85
ATOM     85  C   UNL A   1      43.469  35.259  31.306  1.00  0.00     0.023 A 
ATOM     86  C   UNL A   1      43.735  35.453  32.673  1.00  0.00     0.031 A 
ATOM     87  C   UNL A   1      43.603  36.360  30.442  1.00  0.00     0.131 A 
ATOM     88  C   UNL A   1      44.080  36.730  33.143  1.00  0.00     0.055 A 
ATOM     89  C   UNL A   1      44.001  37.614  30.906  1.00  0.00     0.041 A 
ATOM     90  F   UNL A   1      43.357  36.230  29.128  1.00  0.00    -0.206 F 
ATOM     91  C   UNL A   1      44.231  37.807  32.265  1.00  0.00     0.022 A 
BRANCH  88  92
ATOM     92  S   UNL A   1      44.255  36.983  34.930  1.00  0.00     0.124 S 
ATOM     93  O   UNL A   1      44.169  35.618  35.439  1.00  0.00    -0.237 OA
ATOM     94  O   UNL A   1      45.565  37.620  35.030  1.00  0.00    -0.237 OA
ATOM     95  O   UNL A   1      43.123  37.844  35.267  1.00  0.00    -0.744 OA
ENDBRANCH  88  92
ENDBRANCH  62  85
ENDBRANCH  36  37
ENDBRANCH  28  31
ENDBRANCH  26  27
ENDBRANCH  25  26
ENDBRANCH   1  25
TORSDOF 17
ENDMDL
