MODEL 1
REMARK VINA RESULT:     -10.4      0.000      0.000
REMARK SMILES [NH3+][C@H]1C=C[C@@H](C(=O)NC2(CC(=O)NCCCCCCNC(=O)c3ccc(-c4c5nc(c(-c6cc(S(=O)(=O)[O-])ccc6F)c6ccc([nH]6)c(-c6cc(S(=O)(=O)[O-])ccc6F)c6nc(c(-c7cc(S(=O)(=O)[O-])ccc7F)c7ccc4[nH]7)C=C6)C=C5)cc3)CCC2)C1
REMARK SMILES IDX 16 1 15 2 14 3 13 4 11 5 12 6 10 8 9 9 86 10 88 11 87 12
REMARK SMILES IDX 8 13 6 14 7 15 5 17 2 18 3 19 89 20 4 21 1 22 17 26 18 27
REMARK SMILES IDX 19 28 20 29 21 30 22 32 23 33 24 34 85 35 25 36 84 37 26 38
REMARK SMILES IDX 27 39 28 40 78 41 29 42 83 43 77 44 79 45 30 46 82 47 76 48
REMARK SMILES IDX 75 49 31 51 63 52 43 53 62 54 44 55 47 56 61 57 80 58 45 59
REMARK SMILES IDX 46 60 60 62 81 63 48 64 32 65 33 66 41 67 34 68 40 69 42 70
REMARK SMILES IDX 39 71 35 72 36 73 37 74 38 75 64 76 65 77 73 78 66 79 72 80
REMARK SMILES IDX 74 81 71 82 67 83 68 84 69 85 70 86 49 87 50 88 58 89 51 90
REMARK SMILES IDX 57 91 59 92 56 93 52 94 53 95 54 96 55 97
REMARK H PARENT 13 7 8 16 1 23 1 24 1 25 20 31 79 50 47 61
REMARK Flexibility Score: inf
ROOT
ATOM      1  C   UNL A   1      38.418  22.552  25.784  1.00  0.00     0.002 C 
ENDROOT
BRANCH   1   2
ATOM      2  C   UNL A   1      37.420  23.664  26.094  1.00  0.00     0.021 C 
BRANCH   2   3
ATOM      3  C   UNL A   1      35.983  23.332  25.693  1.00  0.00     0.116 C 
BRANCH   3   4
ATOM      4  N   UNL A   1      35.311  22.692  26.803  1.00  0.00    -0.356 N 
ATOM      5  C   UNL A   1      34.380  21.702  26.761  1.00  0.00     0.222 C 
ATOM      6  O   UNL A   1      33.709  21.478  27.768  1.00  0.00    -0.275 OA
ATOM      7  H   UNL A   1      35.559  23.014  27.700  1.00  0.00     0.163 HD
BRANCH   5   8
ATOM      8  C   UNL A   1      34.238  20.865  25.515  1.00  0.00     0.128 C 
BRANCH   8   9
ATOM      9  C   UNL A   1      32.841  20.341  25.139  1.00  0.00     0.049 C 
ATOM     10  C   UNL A   1      32.799  18.839  25.511  1.00  0.00     0.029 C 
ATOM     11  C   UNL A   1      32.454  19.829  23.697  1.00  0.00     0.029 C 
ATOM     12  C   UNL A   1      33.114  18.491  24.048  1.00  0.00     0.005 C 
BRANCH   9  13
ATOM     13  N   UNL A   1      31.807  21.303  25.582  1.00  0.00    -0.350 N 
ATOM     14  C   UNL A   1      31.279  22.486  25.180  1.00  0.00     0.227 C 
ATOM     15  O   UNL A   1      30.448  22.983  25.954  1.00  0.00    -0.274 OA
ATOM     16  H   UNL A   1      31.376  20.994  26.412  1.00  0.00     0.164 HD
BRANCH  14  17
ATOM     17  C   UNL A   1      31.630  23.254  23.910  1.00  0.00     0.107 C 
ATOM     18  C   UNL A   1      31.326  25.375  22.742  1.00  0.00     0.205 C 
ATOM     19  C   UNL A   1      32.704  25.241  23.312  1.00  0.00     0.033 C 
ATOM     20  C   UNL A   1      30.550  24.222  23.411  1.00  0.00     0.087 C 
ATOM     21  C   UNL A   1      32.874  24.079  23.956  1.00  0.00    -0.012 C 
BRANCH  18  22
ATOM     22  N   UNL A   1      30.757  26.689  22.981  1.00  0.00    -0.352 N 
ATOM     23  H   UNL A   1      31.254  27.140  23.749  1.00  0.00     0.345 HD
ATOM     24  H   UNL A   1      29.771  26.594  23.224  1.00  0.00     0.345 HD
ATOM     25  H   UNL A   1      30.848  27.257  22.139  1.00  0.00     0.345 HD
ENDBRANCH  18  22
ENDBRANCH  14  17
ENDBRANCH   9  13
ENDBRANCH   8   9
ENDBRANCH   5   8
ENDBRANCH   3   4
ENDBRANCH   2   3
ENDBRANCH   1   2
BRANCH   1  26
ATOM     26  C   UNL A   1      37.867  21.462  24.862  1.00  0.00     0.002 C 
BRANCH  26  27
ATOM     27  C   UNL A   1      38.560  20.102  24.988  1.00  0.00     0.021 C 
BRANCH  27  28
ATOM     28  C   UNL A   1      39.245  19.867  26.332  1.00  0.00     0.116 C 
BRANCH  28  29
ATOM     29  N   UNL A   1      40.465  19.095  26.173  1.00  0.00    -0.352 N 
ATOM     30  C   UNL A   1      41.754  19.538  26.020  1.00  0.00     0.251 C 
ATOM     31  H   UNL A   1      40.351  18.117  26.177  1.00  0.00     0.163 HD
ATOM     32  O   UNL A   1      42.616  18.773  25.602  1.00  0.00    -0.269 OA
BRANCH  30  33
ATOM     33  C   UNL A   1      42.087  20.939  26.354  1.00  0.00     0.039 A 
ATOM     34  C   UNL A   1      42.409  21.265  27.673  1.00  0.00     0.014 A 
ATOM     35  C   UNL A   1      42.062  21.929  25.367  1.00  0.00     0.014 A 
ATOM     36  C   UNL A   1      42.755  22.579  27.992  1.00  0.00     0.010 A 
ATOM     37  C   UNL A   1      42.478  23.221  25.673  1.00  0.00     0.010 A 
ATOM     38  C   UNL A   1      42.821  23.562  26.990  1.00  0.00    -0.014 A 
BRANCH  38  39
ATOM     39  C   UNL A   1      43.230  24.955  27.305  1.00  0.00     0.031 A 
ATOM     40  C   UNL A   1      42.254  25.896  27.958  1.00  0.00     0.074 A 
ATOM     41  C   UNL A   1      44.459  25.385  26.956  1.00  0.00     0.049 A 
ATOM     42  N   UNL A   1      42.395  27.164  28.249  1.00  0.00    -0.248 NA
ATOM     43  C   UNL A   1      40.935  25.344  28.303  1.00  0.00     0.031 C 
ATOM     44  C   UNL A   1      45.479  24.573  26.287  1.00  0.00     0.029 A 
ATOM     45  N   UNL A   1      45.059  26.610  27.108  1.00  0.00    -0.354 N 
ATOM     46  C   UNL A   1      41.182  27.563  28.801  1.00  0.00     0.074 A 
ATOM     47  C   UNL A   1      40.298  26.419  28.742  1.00  0.00     0.031 C 
ATOM     48  C   UNL A   1      46.585  25.314  26.111  1.00  0.00     0.029 A 
ATOM     49  C   UNL A   1      46.340  26.665  26.605  1.00  0.00     0.049 A 
ATOM     50  H   UNL A   1      44.616  27.377  27.534  1.00  0.00     0.167 HD
ATOM     51  C   UNL A   1      40.846  28.765  29.331  1.00  0.00     0.034 A 
ATOM     52  C   UNL A   1      47.211  27.691  26.538  1.00  0.00     0.034 A 
ATOM     53  C   UNL A   1      41.745  29.891  29.392  1.00  0.00     0.049 A 
ATOM     54  C   UNL A   1      46.802  29.030  27.102  1.00  0.00     0.074 A 
ATOM     55  C   UNL A   1      41.528  31.139  29.952  1.00  0.00     0.029 A 
ATOM     56  N   UNL A   1      43.031  29.914  28.867  1.00  0.00    -0.354 N 
ATOM     57  N   UNL A   1      45.667  29.376  27.666  1.00  0.00    -0.248 NA
ATOM     58  C   UNL A   1      47.792  30.111  27.028  1.00  0.00     0.031 C 
ATOM     59  C   UNL A   1      42.650  31.935  29.701  1.00  0.00     0.029 A 
ATOM     60  C   UNL A   1      43.604  31.162  29.059  1.00  0.00     0.049 A 
ATOM     61  H   UNL A   1      43.473  29.153  28.423  1.00  0.00     0.167 HD
ATOM     62  C   UNL A   1      45.824  30.707  28.045  1.00  0.00     0.074 A 
ATOM     63  C   UNL A   1      47.165  31.093  27.658  1.00  0.00     0.031 C 
ATOM     64  C   UNL A   1      44.942  31.534  28.661  1.00  0.00     0.034 A 
BRANCH  51  65
ATOM     65  C   UNL A   1      39.441  28.926  29.861  1.00  0.00     0.023 A 
ATOM     66  C   UNL A   1      38.400  29.423  29.055  1.00  0.00     0.031 A 
ATOM     67  C   UNL A   1      39.139  28.595  31.193  1.00  0.00     0.131 A 
ATOM     68  C   UNL A   1      37.130  29.644  29.610  1.00  0.00     0.055 A 
ATOM     69  C   UNL A   1      37.851  28.737  31.715  1.00  0.00     0.041 A 
ATOM     70  F   UNL A   1      40.094  28.136  32.018  1.00  0.00    -0.206 F 
ATOM     71  C   UNL A   1      36.841  29.279  30.926  1.00  0.00     0.022 A 
BRANCH  68  72
ATOM     72  S   UNL A   1      35.904  30.551  28.627  1.00  0.00     0.124 S 
ATOM     73  O   UNL A   1      36.758  31.264  27.679  1.00  0.00    -0.237 OA
ATOM     74  O   UNL A   1      35.089  29.478  28.071  1.00  0.00    -0.237 OA
ATOM     75  O   UNL A   1      35.236  31.399  29.611  1.00  0.00    -0.744 OA
ENDBRANCH  68  72
ENDBRANCH  51  65
BRANCH  52  76
ATOM     76  C   UNL A   1      48.550  27.509  25.906  1.00  0.00     0.023 A 
ATOM     77  C   UNL A   1      48.724  27.657  24.521  1.00  0.00     0.031 A 
ATOM     78  C   UNL A   1      49.669  27.136  26.673  1.00  0.00     0.131 A 
ATOM     79  C   UNL A   1      49.969  27.379  23.937  1.00  0.00     0.055 A 
ATOM     80  C   UNL A   1      50.921  26.918  26.095  1.00  0.00     0.041 A 
ATOM     81  F   UNL A   1      49.562  26.983  28.002  1.00  0.00    -0.206 F 
ATOM     82  C   UNL A   1      51.072  27.025  24.716  1.00  0.00     0.022 A 
BRANCH  79  83
ATOM     83  S   UNL A   1      50.100  27.389  22.128  1.00  0.00     0.124 S 
ATOM     84  O   UNL A   1      50.107  28.819  21.840  1.00  0.00    -0.237 OA
ATOM     85  O   UNL A   1      51.359  26.684  21.913  1.00  0.00    -0.237 OA
ATOM     86  O   UNL A   1      48.903  26.670  21.697  1.00  0.00    -0.744 OA
ENDBRANCH  79  83
ENDBRANCH  52  76
BRANCH  64  87
ATOM     87  C   UNL A   1      45.422  32.924  28.999  1.00  0.00     0.023 A 
ATOM     88  C   UNL A   1      45.236  34.007  28.123  1.00  0.00     0.031 A 
ATOM     89  C   UNL A   1      46.075  33.167  30.221  1.00  0.00     0.131 A 
ATOM     90  C   UNL A   1      45.746  35.272  28.456  1.00  0.00     0.055 A 
ATOM     91  C   UNL A   1      46.523  34.441  30.575  1.00  0.00     0.041 A 
ATOM     92  F   UNL A   1      46.281  32.170  31.095  1.00  0.00    -0.206 F 
ATOM     93  C   UNL A   1      46.370  35.499  29.685  1.00  0.00     0.022 A 
BRANCH  90  94
ATOM     94  S   UNL A   1      45.659  36.599  27.223  1.00  0.00     0.124 S 
ATOM     95  O   UNL A   1      46.444  36.046  26.125  1.00  0.00    -0.237 OA
ATOM     96  O   UNL A   1      44.222  36.711  26.985  1.00  0.00    -0.237 OA
ATOM     97  O   UNL A   1      46.264  37.741  27.905  1.00  0.00    -0.744 OA
ENDBRANCH  90  94
ENDBRANCH  64  87
ENDBRANCH  38  39
ENDBRANCH  30  33
ENDBRANCH  28  29
ENDBRANCH  27  28
ENDBRANCH  26  27
ENDBRANCH   1  26
TORSDOF 20
ENDMDL
MODEL 2
REMARK VINA RESULT:     -10.2      1.921      7.716
REMARK SMILES [NH3+][C@H]1C=C[C@@H](C(=O)NC2(CC(=O)NCCCCCCNC(=O)c3ccc(-c4c5nc(c(-c6cc(S(=O)(=O)[O-])ccc6F)c6ccc([nH]6)c(-c6cc(S(=O)(=O)[O-])ccc6F)c6nc(c(-c7cc(S(=O)(=O)[O-])ccc7F)c7ccc4[nH]7)C=C6)C=C5)cc3)CCC2)C1
REMARK SMILES IDX 16 1 15 2 14 3 13 4 11 5 12 6 10 8 9 9 86 10 88 11 87 12
REMARK SMILES IDX 8 13 6 14 7 15 5 17 2 18 3 19 89 20 4 21 1 22 17 26 18 27
REMARK SMILES IDX 19 28 20 29 21 30 22 32 23 33 24 34 85 35 25 36 84 37 26 38
REMARK SMILES IDX 27 39 28 40 78 41 29 42 83 43 77 44 79 45 30 46 82 47 76 48
REMARK SMILES IDX 75 49 31 51 63 52 43 53 62 54 44 55 47 56 61 57 80 58 45 59
REMARK SMILES IDX 46 60 60 62 81 63 48 64 32 65 33 66 41 67 34 68 40 69 42 70
REMARK SMILES IDX 39 71 35 72 36 73 37 74 38 75 64 76 65 77 73 78 66 79 72 80
REMARK SMILES IDX 74 81 71 82 67 83 68 84 69 85 70 86 49 87 50 88 58 89 51 90
REMARK SMILES IDX 57 91 59 92 56 93 52 94 53 95 54 96 55 97
REMARK H PARENT 13 7 8 16 1 23 1 24 1 25 20 31 79 50 47 61
REMARK Flexibility Score: inf
ROOT
ATOM      1  C   UNL A   1      38.058  22.046  25.573  1.00  0.00     0.002 C 
ENDROOT
BRANCH   1   2
ATOM      2  C   UNL A   1      37.387  23.305  25.033  1.00  0.00     0.021 C 
BRANCH   2   3
ATOM      3  C   UNL A   1      36.310  23.874  25.957  1.00  0.00     0.116 C 
BRANCH   3   4
ATOM      4  N   UNL A   1      35.654  22.789  26.654  1.00  0.00    -0.356 N 
ATOM      5  C   UNL A   1      34.536  22.109  26.283  1.00  0.00     0.222 C 
ATOM      6  O   UNL A   1      33.957  21.421  27.123  1.00  0.00    -0.275 OA
ATOM      7  H   UNL A   1      36.069  22.508  27.501  1.00  0.00     0.163 HD
BRANCH   5   8
ATOM      8  C   UNL A   1      34.073  22.161  24.849  1.00  0.00     0.128 C 
BRANCH   8   9
ATOM      9  C   UNL A   1      32.561  22.216  24.568  1.00  0.00     0.049 C 
ATOM     10  C   UNL A   1      32.174  20.884  23.882  1.00  0.00     0.029 C 
ATOM     11  C   UNL A   1      31.931  22.877  23.281  1.00  0.00     0.029 C 
ATOM     12  C   UNL A   1      32.259  21.589  22.519  1.00  0.00     0.005 C 
BRANCH   9  13
ATOM     13  N   UNL A   1      31.848  22.741  25.755  1.00  0.00    -0.350 N 
ATOM     14  C   UNL A   1      31.561  23.939  26.322  1.00  0.00     0.227 C 
ATOM     15  O   UNL A   1      30.979  23.880  27.415  1.00  0.00    -0.274 OA
ATOM     16  H   UNL A   1      31.471  22.004  26.288  1.00  0.00     0.164 HD
BRANCH  14  17
ATOM     17  C   UNL A   1      31.910  25.316  25.766  1.00  0.00     0.107 C 
ATOM     18  C   UNL A   1      32.340  27.638  26.380  1.00  0.00     0.205 C 
ATOM     19  C   UNL A   1      33.596  26.917  25.997  1.00  0.00     0.033 C 
ATOM     20  C   UNL A   1      31.308  26.502  26.530  1.00  0.00     0.087 C 
ATOM     21  C   UNL A   1      33.364  25.641  25.662  1.00  0.00    -0.012 C 
BRANCH  18  22
ATOM     22  N   UNL A   1      32.512  28.445  27.574  1.00  0.00    -0.352 N 
ATOM     23  H   UNL A   1      32.980  29.318  27.330  1.00  0.00     0.345 HD
ATOM     24  H   UNL A   1      33.077  27.934  28.252  1.00  0.00     0.345 HD
ATOM     25  H   UNL A   1      31.598  28.652  27.979  1.00  0.00     0.345 HD
ENDBRANCH  18  22
ENDBRANCH  14  17
ENDBRANCH   9  13
ENDBRANCH   8   9
ENDBRANCH   5   8
ENDBRANCH   3   4
ENDBRANCH   2   3
ENDBRANCH   1   2
BRANCH   1  26
ATOM     26  C   UNL A   1      37.784  20.790  24.743  1.00  0.00     0.002 C 
BRANCH  26  27
ATOM     27  C   UNL A   1      38.694  19.599  25.057  1.00  0.00     0.021 C 
BRANCH  27  28
ATOM     28  C   UNL A   1      39.519  19.757  26.332  1.00  0.00     0.116 C 
BRANCH  28  29
ATOM     29  N   UNL A   1      40.802  19.085  26.216  1.00  0.00    -0.352 N 
ATOM     30  C   UNL A   1      42.055  19.629  26.102  1.00  0.00     0.251 C 
ATOM     31  H   UNL A   1      40.765  18.101  26.221  1.00  0.00     0.163 HD
ATOM     32  O   UNL A   1      42.988  18.934  25.715  1.00  0.00    -0.269 OA
BRANCH  30  33
ATOM     33  C   UNL A   1      42.264  21.052  26.439  1.00  0.00     0.039 A 
ATOM     34  C   UNL A   1      42.502  21.408  27.768  1.00  0.00     0.014 A 
ATOM     35  C   UNL A   1      42.208  22.034  25.444  1.00  0.00     0.014 A 
ATOM     36  C   UNL A   1      42.732  22.747  28.092  1.00  0.00     0.010 A 
ATOM     37  C   UNL A   1      42.509  23.355  25.758  1.00  0.00     0.010 A 
ATOM     38  C   UNL A   1      42.767  23.727  27.086  1.00  0.00    -0.014 A 
BRANCH  38  39
ATOM     39  C   UNL A   1      43.053  25.149  27.409  1.00  0.00     0.031 A 
ATOM     40  C   UNL A   1      44.434  25.707  27.188  1.00  0.00     0.074 A 
ATOM     41  C   UNL A   1      42.088  25.918  27.949  1.00  0.00     0.049 A 
ATOM     42  N   UNL A   1      44.901  26.895  27.472  1.00  0.00    -0.248 NA
ATOM     43  C   UNL A   1      45.427  24.796  26.598  1.00  0.00     0.031 C 
ATOM     44  C   UNL A   1      40.721  25.477  28.241  1.00  0.00     0.029 A 
ATOM     45  N   UNL A   1      42.105  27.229  28.355  1.00  0.00    -0.354 N 
ATOM     46  C   UNL A   1      46.242  26.874  27.103  1.00  0.00     0.074 A 
ATOM     47  C   UNL A   1      46.527  25.532  26.639  1.00  0.00     0.031 C 
ATOM     48  C   UNL A   1      40.027  26.506  28.753  1.00  0.00     0.029 A 
ATOM     49  C   UNL A   1      40.907  27.664  28.875  1.00  0.00     0.049 A 
ATOM     50  H   UNL A   1      42.899  27.805  28.282  1.00  0.00     0.167 HD
ATOM     51  C   UNL A   1      47.145  27.885  27.126  1.00  0.00     0.034 A 
ATOM     52  C   UNL A   1      40.561  28.855  29.402  1.00  0.00     0.034 A 
ATOM     53  C   UNL A   1      46.840  29.219  27.582  1.00  0.00     0.049 A 
ATOM     54  C   UNL A   1      41.593  29.955  29.451  1.00  0.00     0.074 A 
ATOM     55  C   UNL A   1      47.662  30.332  27.601  1.00  0.00     0.029 A 
ATOM     56  N   UNL A   1      45.618  29.621  28.108  1.00  0.00    -0.354 N 
ATOM     57  N   UNL A   1      42.845  29.931  29.052  1.00  0.00    -0.248 NA
ATOM     58  C   UNL A   1      41.165  31.242  30.012  1.00  0.00     0.031 C 
ATOM     59  C   UNL A   1      46.964  31.384  28.205  1.00  0.00     0.029 A 
ATOM     60  C   UNL A   1      45.677  30.954  28.486  1.00  0.00     0.049 A 
ATOM     61  H   UNL A   1      44.825  29.043  28.199  1.00  0.00     0.167 HD
ATOM     62  C   UNL A   1      43.340  31.212  29.282  1.00  0.00     0.074 A 
ATOM     63  C   UNL A   1      42.249  31.984  29.841  1.00  0.00     0.031 C 
ATOM     64  C   UNL A   1      44.581  31.708  29.049  1.00  0.00     0.034 A 
BRANCH  51  65
ATOM     65  C   UNL A   1      48.551  27.576  26.669  1.00  0.00     0.023 A 
ATOM     66  C   UNL A   1      49.573  27.264  27.584  1.00  0.00     0.031 A 
ATOM     67  C   UNL A   1      48.881  27.609  25.303  1.00  0.00     0.131 A 
ATOM     68  C   UNL A   1      50.887  27.073  27.128  1.00  0.00     0.055 A 
ATOM     69  C   UNL A   1      50.173  27.334  24.849  1.00  0.00     0.041 A 
ATOM     70  F   UNL A   1      47.954  27.922  24.383  1.00  0.00    -0.206 F 
ATOM     71  C   UNL A   1      51.188  27.079  25.765  1.00  0.00     0.022 A 
BRANCH  68  72
ATOM     72  S   UNL A   1      52.219  26.962  28.354  1.00  0.00     0.124 S 
ATOM     73  O   UNL A   1      53.127  26.012  27.716  1.00  0.00    -0.237 OA
ATOM     74  O   UNL A   1      52.689  28.340  28.435  1.00  0.00    -0.237 OA
ATOM     75  O   UNL A   1      51.544  26.461  29.549  1.00  0.00    -0.744 OA
ENDBRANCH  68  72
ENDBRANCH  51  65
BRANCH  52  76
ATOM     76  C   UNL A   1      39.188  29.077  29.940  1.00  0.00     0.023 A 
ATOM     77  C   UNL A   1      38.199  29.704  29.166  1.00  0.00     0.031 A 
ATOM     78  C   UNL A   1      38.856  28.710  31.257  1.00  0.00     0.131 A 
ATOM     79  C   UNL A   1      36.948  29.996  29.729  1.00  0.00     0.055 A 
ATOM     80  C   UNL A   1      37.590  28.949  31.794  1.00  0.00     0.041 A 
ATOM     81  F   UNL A   1      39.761  28.104  32.042  1.00  0.00    -0.206 F 
ATOM     82  C   UNL A   1      36.632  29.610  31.033  1.00  0.00     0.022 A 
BRANCH  79  83
ATOM     83  S   UNL A   1      35.770  30.981  28.764  1.00  0.00     0.124 S 
ATOM     84  O   UNL A   1      35.080  29.950  27.997  1.00  0.00    -0.237 OA
ATOM     85  O   UNL A   1      34.991  31.633  29.811  1.00  0.00    -0.237 OA
ATOM     86  O   UNL A   1      36.630  31.869  27.984  1.00  0.00    -0.744 OA
ENDBRANCH  79  83
ENDBRANCH  52  76
BRANCH  64  87
ATOM     87  C   UNL A   1      44.808  33.169  29.353  1.00  0.00     0.023 A 
ATOM     88  C   UNL A   1      44.549  34.174  28.405  1.00  0.00     0.031 A 
ATOM     89  C   UNL A   1      45.290  33.560  30.616  1.00  0.00     0.131 A 
ATOM     90  C   UNL A   1      44.825  35.514  28.714  1.00  0.00     0.055 A 
ATOM     91  C   UNL A   1      45.502  34.901  30.939  1.00  0.00     0.041 A 
ATOM     92  F   UNL A   1      45.557  32.643  31.559  1.00  0.00    -0.206 F 
ATOM     93  C   UNL A   1      45.281  35.886  29.982  1.00  0.00     0.022 A 
BRANCH  90  94
ATOM     94  S   UNL A   1      44.663  36.761  27.407  1.00  0.00     0.124 S 
ATOM     95  O   UNL A   1      45.863  36.526  26.611  1.00  0.00    -0.237 OA
ATOM     96  O   UNL A   1      43.398  36.391  26.778  1.00  0.00    -0.237 OA
ATOM     97  O   UNL A   1      44.642  38.026  28.140  1.00  0.00    -0.744 OA
ENDBRANCH  90  94
ENDBRANCH  64  87
ENDBRANCH  38  39
ENDBRANCH  30  33
ENDBRANCH  28  29
ENDBRANCH  27  28
ENDBRANCH  26  27
ENDBRANCH   1  26
TORSDOF 20
ENDMDL
MODEL 3
REMARK VINA RESULT:     -10.2      6.703     10.463
REMARK SMILES [NH3+][C@H]1C=C[C@@H](C(=O)NC2(CC(=O)NCCCCCCNC(=O)c3ccc(-c4c5nc(c(-c6cc(S(=O)(=O)[O-])ccc6F)c6ccc([nH]6)c(-c6cc(S(=O)(=O)[O-])ccc6F)c6nc(c(-c7cc(S(=O)(=O)[O-])ccc7F)c7ccc4[nH]7)C=C6)C=C5)cc3)CCC2)C1
REMARK SMILES IDX 16 1 15 2 14 3 13 4 11 5 12 6 10 8 9 9 86 10 88 11 87 12
REMARK SMILES IDX 8 13 6 14 7 15 5 17 2 18 3 19 89 20 4 21 1 22 17 26 18 27
REMARK SMILES IDX 19 28 20 29 21 30 22 32 23 33 24 34 85 35 25 36 84 37 26 38
REMARK SMILES IDX 27 39 28 40 78 41 29 42 83 43 77 44 79 45 30 46 82 47 76 48
REMARK SMILES IDX 75 49 31 51 63 52 43 53 62 54 44 55 47 56 61 57 80 58 45 59
REMARK SMILES IDX 46 60 60 62 81 63 48 64 32 65 33 66 41 67 34 68 40 69 42 70
REMARK SMILES IDX 39 71 35 72 36 73 37 74 38 75 64 76 65 77 73 78 66 79 72 80
REMARK SMILES IDX 74 81 71 82 67 83 68 84 69 85 70 86 49 87 50 88 58 89 51 90
REMARK SMILES IDX 57 91 59 92 56 93 52 94 53 95 54 96 55 97
REMARK H PARENT 13 7 8 16 1 23 1 24 1 25 20 31 79 50 47 61
REMARK Flexibility Score: inf
ROOT
ATOM      1  C   UNL A   1      34.619  31.647  28.714  1.00  0.00     0.002 C 
ENDROOT
BRANCH   1   2
ATOM      2  C   UNL A   1      35.091  30.563  27.749  1.00  0.00     0.021 C 
BRANCH   2   3
ATOM      3  C   UNL A   1      33.978  29.997  26.868  1.00  0.00     0.116 C 
BRANCH   3   4
ATOM      4  N   UNL A   1      33.023  29.291  27.695  1.00  0.00    -0.356 N 
ATOM      5  C   UNL A   1      32.329  28.161  27.396  1.00  0.00     0.222 C 
ATOM      6  O   UNL A   1      31.358  27.862  28.090  1.00  0.00    -0.275 OA
ATOM      7  H   UNL A   1      32.857  29.677  28.586  1.00  0.00     0.163 HD
BRANCH   5   8
ATOM      8  C   UNL A   1      32.799  27.273  26.271  1.00  0.00     0.128 C 
BRANCH   8   9
ATOM      9  C   UNL A   1      31.757  26.424  25.522  1.00  0.00     0.049 C 
ATOM     10  C   UNL A   1      32.314  26.162  24.102  1.00  0.00     0.029 C 
ATOM     11  C   UNL A   1      30.521  27.030  24.751  1.00  0.00     0.029 C 
ATOM     12  C   UNL A   1      31.460  27.328  23.578  1.00  0.00     0.005 C 
BRANCH   9  13
ATOM     13  N   UNL A   1      31.268  25.338  26.401  1.00  0.00    -0.350 N 
ATOM     14  C   UNL A   1      31.603  24.064  26.727  1.00  0.00     0.227 C 
ATOM     15  O   UNL A   1      30.811  23.488  27.487  1.00  0.00    -0.274 OA
ATOM     16  H   UNL A   1      30.465  25.623  26.894  1.00  0.00     0.164 HD
BRANCH  14  17
ATOM     17  C   UNL A   1      32.818  23.288  26.231  1.00  0.00     0.107 C 
ATOM     18  C   UNL A   1      34.210  22.845  24.277  1.00  0.00     0.205 C 
ATOM     19  C   UNL A   1      34.900  23.731  25.268  1.00  0.00     0.033 C 
ATOM     20  C   UNL A   1      32.750  22.829  24.768  1.00  0.00     0.087 C 
ATOM     21  C   UNL A   1      34.138  23.978  26.341  1.00  0.00    -0.012 C 
BRANCH  18  22
ATOM     22  N   UNL A   1      34.372  23.317  22.913  1.00  0.00    -0.352 N 
ATOM     23  H   UNL A   1      33.909  22.671  22.273  1.00  0.00     0.345 HD
ATOM     24  H   UNL A   1      35.365  23.368  22.686  1.00  0.00     0.345 HD
ATOM     25  H   UNL A   1      33.953  24.243  22.822  1.00  0.00     0.345 HD
ENDBRANCH  18  22
ENDBRANCH  14  17
ENDBRANCH   9  13
ENDBRANCH   8   9
ENDBRANCH   5   8
ENDBRANCH   3   4
ENDBRANCH   2   3
ENDBRANCH   1   2
BRANCH   1  26
ATOM     26  C   UNL A   1      34.834  33.073  28.201  1.00  0.00     0.002 C 
BRANCH  26  27
ATOM     27  C   UNL A   1      33.600  33.977  28.276  1.00  0.00     0.021 C 
BRANCH  27  28
ATOM     28  C   UNL A   1      33.893  35.404  28.736  1.00  0.00     0.116 C 
BRANCH  28  29
ATOM     29  N   UNL A   1      33.041  35.784  29.849  1.00  0.00    -0.352 N 
ATOM     30  C   UNL A   1      33.066  35.341  31.147  1.00  0.00     0.251 C 
ATOM     31  H   UNL A   1      32.349  36.453  29.644  1.00  0.00     0.163 HD
ATOM     32  O   UNL A   1      32.099  35.534  31.876  1.00  0.00    -0.269 OA
BRANCH  30  33
ATOM     33  C   UNL A   1      34.258  34.626  31.649  1.00  0.00     0.039 A 
ATOM     34  C   UNL A   1      34.140  33.283  32.015  1.00  0.00     0.014 A 
ATOM     35  C   UNL A   1      35.484  35.287  31.773  1.00  0.00     0.014 A 
ATOM     36  C   UNL A   1      35.268  32.590  32.461  1.00  0.00     0.010 A 
ATOM     37  C   UNL A   1      36.619  34.576  32.146  1.00  0.00     0.010 A 
ATOM     38  C   UNL A   1      36.522  33.222  32.502  1.00  0.00    -0.014 A 
BRANCH  38  39
ATOM     39  C   UNL A   1      37.739  32.485  32.932  1.00  0.00     0.031 A 
ATOM     40  C   UNL A   1      38.377  32.797  34.259  1.00  0.00     0.074 A 
ATOM     41  C   UNL A   1      38.297  31.579  32.105  1.00  0.00     0.049 A 
ATOM     42  N   UNL A   1      39.477  32.318  34.780  1.00  0.00    -0.248 NA
ATOM     43  C   UNL A   1      37.704  33.802  35.095  1.00  0.00     0.031 C 
ATOM     44  C   UNL A   1      37.787  31.219  30.780  1.00  0.00     0.029 A 
ATOM     45  N   UNL A   1      39.416  30.798  32.252  1.00  0.00    -0.354 N 
ATOM     46  C   UNL A   1      39.632  32.967  36.000  1.00  0.00     0.074 A 
ATOM     47  C   UNL A   1      38.550  33.922  36.107  1.00  0.00     0.031 C 
ATOM     48  C   UNL A   1      38.575  30.271  30.248  1.00  0.00     0.029 A 
ATOM     49  C   UNL A   1      39.674  29.990  31.167  1.00  0.00     0.049 A 
ATOM     50  H   UNL A   1      39.982  30.814  33.056  1.00  0.00     0.167 HD
ATOM     51  C   UNL A   1      40.576  32.769  36.954  1.00  0.00     0.034 A 
ATOM     52  C   UNL A   1      40.687  29.133  30.934  1.00  0.00     0.034 A 
ATOM     53  C   UNL A   1      41.642  31.805  36.835  1.00  0.00     0.049 A 
ATOM     54  C   UNL A   1      41.746  28.955  31.994  1.00  0.00     0.074 A 
ATOM     55  C   UNL A   1      42.621  31.483  37.759  1.00  0.00     0.029 A 
ATOM     56  N   UNL A   1      41.876  31.009  35.719  1.00  0.00    -0.354 N 
ATOM     57  N   UNL A   1      41.850  29.543  33.165  1.00  0.00    -0.248 NA
ATOM     58  C   UNL A   1      42.818  27.993  31.707  1.00  0.00     0.031 C 
ATOM     59  C   UNL A   1      43.488  30.553  37.176  1.00  0.00     0.029 A 
ATOM     60  C   UNL A   1      43.003  30.226  35.920  1.00  0.00     0.049 A 
ATOM     61  H   UNL A   1      41.322  31.002  34.905  1.00  0.00     0.167 HD
ATOM     62  C   UNL A   1      42.980  28.993  33.765  1.00  0.00     0.074 A 
ATOM     63  C   UNL A   1      43.512  28.020  32.834  1.00  0.00     0.031 C 
ATOM     64  C   UNL A   1      43.525  29.264  34.978  1.00  0.00     0.034 A 
BRANCH  51  65
ATOM     65  C   UNL A   1      40.509  33.630  38.193  1.00  0.00     0.023 A 
ATOM     66  C   UNL A   1      39.589  33.368  39.225  1.00  0.00     0.031 A 
ATOM     67  C   UNL A   1      41.361  34.738  38.339  1.00  0.00     0.131 A 
ATOM     68  C   UNL A   1      39.494  34.244  40.317  1.00  0.00     0.055 A 
ATOM     69  C   UNL A   1      41.319  35.557  39.470  1.00  0.00     0.041 A 
ATOM     70  F   UNL A   1      42.245  35.053  37.379  1.00  0.00    -0.206 F 
ATOM     71  C   UNL A   1      40.371  35.321  40.460  1.00  0.00     0.022 A 
BRANCH  68  72
ATOM     72  S   UNL A   1      38.111  34.038  41.472  1.00  0.00     0.124 S 
ATOM     73  O   UNL A   1      37.804  35.425  41.815  1.00  0.00    -0.237 OA
ATOM     74  O   UNL A   1      37.118  33.348  40.657  1.00  0.00    -0.237 OA
ATOM     75  O   UNL A   1      38.686  33.248  42.558  1.00  0.00    -0.744 OA
ENDBRANCH  68  72
ENDBRANCH  51  65
BRANCH  52  76
ATOM     76  C   UNL A   1      40.767  28.385  29.646  1.00  0.00     0.023 A 
ATOM     77  C   UNL A   1      41.704  28.736  28.661  1.00  0.00     0.031 A 
ATOM     78  C   UNL A   1      39.874  27.336  29.360  1.00  0.00     0.131 A 
ATOM     79  C   UNL A   1      41.691  28.086  27.418  1.00  0.00     0.055 A 
ATOM     80  C   UNL A   1      39.904  26.652  28.144  1.00  0.00     0.041 A 
ATOM     81  F   UNL A   1      38.960  26.955  30.266  1.00  0.00    -0.206 F 
ATOM     82  C   UNL A   1      40.807  27.037  27.158  1.00  0.00     0.022 A 
BRANCH  79  83
ATOM     83  S   UNL A   1      42.781  28.701  26.106  1.00  0.00     0.124 S 
ATOM     84  O   UNL A   1      41.948  28.522  24.921  1.00  0.00    -0.237 OA
ATOM     85  O   UNL A   1      43.013  30.078  26.526  1.00  0.00    -0.237 OA
ATOM     86  O   UNL A   1      43.944  27.820  26.190  1.00  0.00    -0.744 OA
ENDBRANCH  79  83
ENDBRANCH  52  76
BRANCH  64  87
ATOM     87  C   UNL A   1      44.735  28.458  35.385  1.00  0.00     0.023 A 
ATOM     88  C   UNL A   1      44.616  27.231  36.060  1.00  0.00     0.031 A 
ATOM     89  C   UNL A   1      46.028  28.927  35.089  1.00  0.00     0.131 A 
ATOM     90  C   UNL A   1      45.769  26.541  36.465  1.00  0.00     0.055 A 
ATOM     91  C   UNL A   1      47.170  28.205  35.439  1.00  0.00     0.041 A 
ATOM     92  F   UNL A   1      46.201  30.093  34.449  1.00  0.00    -0.206 F 
ATOM     93  C   UNL A   1      47.045  27.011  36.141  1.00  0.00     0.022 A 
BRANCH  90  94
ATOM     94  S   UNL A   1      45.582  25.063  37.499  1.00  0.00     0.124 S 
ATOM     95  O   UNL A   1      44.212  25.200  37.981  1.00  0.00    -0.237 OA
ATOM     96  O   UNL A   1      45.816  23.983  36.545  1.00  0.00    -0.237 OA
ATOM     97  O   UNL A   1      46.618  25.224  38.518  1.00  0.00    -0.744 OA
ENDBRANCH  90  94
ENDBRANCH  64  87
ENDBRANCH  38  39
ENDBRANCH  30  33
ENDBRANCH  28  29
ENDBRANCH  27  28
ENDBRANCH  26  27
ENDBRANCH   1  26
TORSDOF 20
ENDMDL
