MODEL 1
REMARK VINA RESULT:     -13.0      0.000      0.000
REMARK SMILES Cc1nn(C(C)C)c(C)c1S(=O)(=O)Nc1cccc(C(=O)NCCCCCCNC(=O)c2ccc(-c3c4nc(c(-c5cc(S(=O)(=O)[O-])ccc5F)c5ccc([nH]5)c(-c5cc(S(=O)(=O)[O-])ccc5F)c5nc(c(-c6cc(S(=O)(=O)[O-])ccc6F)c6ccc3[nH]6)C=C5)C=C4)cc2)c1C
REMARK SMILES IDX 25 1 24 2 23 3 22 4 20 5 21 6 19 8 15 9 16 10 95 11 17 12
REMARK SMILES IDX 96 13 18 14 14 15 11 17 12 18 13 19 10 20 1 21 2 22 3 23
REMARK SMILES IDX 4 24 8 25 9 26 5 27 6 28 7 29 26 30 27 31 28 32 29 33 30 34
REMARK SMILES IDX 31 36 32 37 33 38 94 39 34 40 93 41 35 42 36 43 37 44 87 45
REMARK SMILES IDX 38 46 92 47 86 48 88 49 39 50 91 51 85 52 84 53 40 55 72 56
REMARK SMILES IDX 52 57 71 58 53 59 56 60 70 61 89 62 54 63 55 64 69 66 90 67
REMARK SMILES IDX 57 68 41 69 42 70 50 71 43 72 49 73 51 74 48 75 44 76 45 77
REMARK SMILES IDX 46 78 47 79 73 80 74 81 82 82 75 83 81 84 83 85 80 86 76 87
REMARK SMILES IDX 77 88 78 89 79 90 58 91 59 92 67 93 60 94 66 95 68 96 65 97
REMARK SMILES IDX 61 98 62 99 63 100 64 101
REMARK H PARENT 22 7 14 16 29 35 88 54 56 65
REMARK Flexibility Score: inf
ROOT
ATOM      1  C   UNL A   1      36.497  21.183  24.787  1.00  0.00     0.002 C 
ENDROOT
BRANCH   1   2
ATOM      2  C   UNL A   1      35.529  22.127  25.518  1.00  0.00     0.021 C 
BRANCH   2   3
ATOM      3  C   UNL A   1      34.731  21.481  26.656  1.00  0.00     0.116 C 
BRANCH   3   4
ATOM      4  N   UNL A   1      33.825  20.456  26.156  1.00  0.00    -0.352 N 
ATOM      5  C   UNL A   1      32.614  20.466  25.507  1.00  0.00     0.251 C 
ATOM      6  O   UNL A   1      32.172  19.369  25.170  1.00  0.00    -0.269 OA
ATOM      7  H   UNL A   1      34.158  19.544  26.323  1.00  0.00     0.163 HD
BRANCH   5   8
ATOM      8  C   UNL A   1      31.866  21.725  25.161  1.00  0.00     0.044 A 
ATOM      9  C   UNL A   1      31.365  23.573  23.648  1.00  0.00     0.053 A 
ATOM     10  C   UNL A   1      30.670  24.222  24.672  1.00  0.00     0.027 A 
ATOM     11  C   UNL A   1      31.904  22.281  23.847  1.00  0.00    -0.014 A 
ATOM     12  C   UNL A   1      30.504  23.605  25.904  1.00  0.00     0.003 A 
ATOM     13  C   UNL A   1      32.511  21.524  22.691  1.00  0.00     0.047 C 
ATOM     14  C   UNL A   1      31.092  22.364  26.141  1.00  0.00     0.014 A 
BRANCH   9  15
ATOM     15  N   UNL A   1      31.413  24.287  22.412  1.00  0.00    -0.279 N 
ATOM     16  H   UNL A   1      30.776  24.055  21.698  1.00  0.00     0.180 HD
BRANCH  15  17
ATOM     17  S   UNL A   1      32.535  25.524  22.145  1.00  0.00     0.265 S 
ATOM     18  O   UNL A   1      32.032  26.226  20.992  1.00  0.00    -0.201 OA
ATOM     19  O   UNL A   1      33.877  24.965  22.114  1.00  0.00    -0.201 OA
BRANCH  17  20
ATOM     20  C   UNL A   1      32.609  26.701  23.412  1.00  0.00     0.131 A 
ATOM     21  C   UNL A   1      30.696  28.366  22.666  1.00  0.00     0.070 C 
ATOM     22  C   UNL A   1      31.804  27.864  23.513  1.00  0.00     0.080 A 
ATOM     23  N   UNL A   1      32.096  28.562  24.615  1.00  0.00    -0.176 NA
ATOM     24  N   UNL A   1      32.932  27.776  25.306  1.00  0.00    -0.266 N 
ATOM     25  C   UNL A   1      33.285  26.628  24.631  1.00  0.00     0.056 A 
ATOM     26  C   UNL A   1      34.143  25.586  25.257  1.00  0.00     0.068 C 
BRANCH  24  27
ATOM     27  C   UNL A   1      33.258  28.161  26.681  1.00  0.00     0.101 C 
ATOM     28  C   UNL A   1      34.377  29.199  26.716  1.00  0.00     0.033 C 
ATOM     29  C   UNL A   1      32.017  28.658  27.431  1.00  0.00     0.033 C 
ENDBRANCH  24  27
ENDBRANCH  17  20
ENDBRANCH  15  17
ENDBRANCH   9  15
ENDBRANCH   5   8
ENDBRANCH   3   4
ENDBRANCH   2   3
ENDBRANCH   1   2
BRANCH   1  30
ATOM     30  C   UNL A   1      37.983  21.305  25.161  1.00  0.00     0.002 C 
BRANCH  30  31
ATOM     31  C   UNL A   1      38.451  22.684  25.625  1.00  0.00     0.021 C 
BRANCH  31  32
ATOM     32  C   UNL A   1      39.385  22.655  26.834  1.00  0.00     0.116 C 
BRANCH  32  33
ATOM     33  N   UNL A   1      40.773  22.976  26.514  1.00  0.00    -0.352 N 
ATOM     34  C   UNL A   1      41.364  24.230  26.419  1.00  0.00     0.251 C 
ATOM     35  H   UNL A   1      41.365  22.208  26.344  1.00  0.00     0.163 HD
ATOM     36  O   UNL A   1      42.534  24.385  26.143  1.00  0.00    -0.269 OA
BRANCH  34  37
ATOM     37  C   UNL A   1      40.531  25.398  26.794  1.00  0.00     0.039 A 
ATOM     38  C   UNL A   1      40.805  26.606  26.147  1.00  0.00     0.014 A 
ATOM     39  C   UNL A   1      39.737  25.356  27.938  1.00  0.00     0.014 A 
ATOM     40  C   UNL A   1      40.485  27.800  26.784  1.00  0.00     0.010 A 
ATOM     41  C   UNL A   1      39.492  26.543  28.608  1.00  0.00     0.010 A 
ATOM     42  C   UNL A   1      39.937  27.758  28.069  1.00  0.00    -0.014 A 
BRANCH  42  43
ATOM     43  C   UNL A   1      40.004  28.905  28.976  1.00  0.00     0.031 A 
ATOM     44  C   UNL A   1      38.959  29.948  28.992  1.00  0.00     0.074 A 
ATOM     45  C   UNL A   1      41.043  29.016  29.835  1.00  0.00     0.049 A 
ATOM     46  N   UNL A   1      39.148  31.163  29.388  1.00  0.00    -0.248 NA
ATOM     47  C   UNL A   1      37.606  29.701  28.513  1.00  0.00     0.031 C 
ATOM     48  C   UNL A   1      41.178  29.948  30.950  1.00  0.00     0.029 A 
ATOM     49  N   UNL A   1      42.316  28.474  29.679  1.00  0.00    -0.354 N 
ATOM     50  C   UNL A   1      37.918  31.768  29.491  1.00  0.00     0.074 A 
ATOM     51  C   UNL A   1      37.000  30.837  28.871  1.00  0.00     0.031 C 
ATOM     52  C   UNL A   1      42.483  30.126  31.205  1.00  0.00     0.029 A 
ATOM     53  C   UNL A   1      43.232  29.415  30.184  1.00  0.00     0.049 A 
ATOM     54  H   UNL A   1      42.535  27.596  29.289  1.00  0.00     0.167 HD
ATOM     55  C   UNL A   1      37.788  32.925  30.206  1.00  0.00     0.034 A 
ATOM     56  C   UNL A   1      44.194  29.952  29.379  1.00  0.00     0.034 A 
ATOM     57  C   UNL A   1      39.075  33.437  30.683  1.00  0.00     0.049 A 
ATOM     58  C   UNL A   1      44.092  31.454  29.200  1.00  0.00     0.074 A 
ATOM     59  C   UNL A   1      39.722  33.450  31.908  1.00  0.00     0.029 A 
ATOM     60  N   UNL A   1      40.016  33.855  29.757  1.00  0.00    -0.354 N 
ATOM     61  N   UNL A   1      43.166  32.205  29.730  1.00  0.00    -0.248 NA
ATOM     62  C   UNL A   1      44.982  32.212  28.319  1.00  0.00     0.031 C 
ATOM     63  C   UNL A   1      41.073  33.854  31.696  1.00  0.00     0.029 A 
ATOM     64  C   UNL A   1      41.242  34.099  30.346  1.00  0.00     0.049 A 
ATOM     65  H   UNL A   1      39.833  33.965  28.795  1.00  0.00     0.167 HD
ATOM     66  C   UNL A   1      43.267  33.474  29.223  1.00  0.00     0.074 A 
ATOM     67  C   UNL A   1      44.426  33.434  28.350  1.00  0.00     0.031 C 
ATOM     68  C   UNL A   1      42.369  34.464  29.503  1.00  0.00     0.034 A 
BRANCH  55  69
ATOM     69  C   UNL A   1      36.457  33.448  30.702  1.00  0.00     0.023 A 
ATOM     70  C   UNL A   1      35.601  34.122  29.806  1.00  0.00     0.031 A 
ATOM     71  C   UNL A   1      35.992  33.368  32.028  1.00  0.00     0.131 A 
ATOM     72  C   UNL A   1      34.436  34.774  30.250  1.00  0.00     0.055 A 
ATOM     73  C   UNL A   1      34.872  34.075  32.487  1.00  0.00     0.041 A 
ATOM     74  F   UNL A   1      36.565  32.554  32.926  1.00  0.00    -0.206 F 
ATOM     75  C   UNL A   1      34.095  34.800  31.597  1.00  0.00     0.022 A 
BRANCH  72  76
ATOM     76  S   UNL A   1      33.363  35.585  29.033  1.00  0.00     0.124 S 
ATOM     77  O   UNL A   1      34.326  36.247  28.161  1.00  0.00    -0.237 OA
ATOM     78  O   UNL A   1      32.641  34.454  28.460  1.00  0.00    -0.237 OA
ATOM     79  O   UNL A   1      32.548  36.486  29.848  1.00  0.00    -0.744 OA
ENDBRANCH  72  76
ENDBRANCH  55  69
BRANCH  56  80
ATOM     80  C   UNL A   1      44.699  28.992  28.355  1.00  0.00     0.023 A 
ATOM     81  C   UNL A   1      45.560  27.964  28.799  1.00  0.00     0.031 A 
ATOM     82  C   UNL A   1      44.096  28.846  27.099  1.00  0.00     0.131 A 
ATOM     83  C   UNL A   1      45.671  26.773  28.068  1.00  0.00     0.055 A 
ATOM     84  C   UNL A   1      44.270  27.684  26.338  1.00  0.00     0.041 A 
ATOM     85  F   UNL A   1      43.234  29.765  26.640  1.00  0.00    -0.206 F 
ATOM     86  C   UNL A   1      45.024  26.624  26.842  1.00  0.00     0.022 A 
BRANCH  83  87
ATOM     87  S   UNL A   1      46.450  25.320  28.836  1.00  0.00     0.124 S 
ATOM     88  O   UNL A   1      46.152  25.524  30.248  1.00  0.00    -0.237 OA
ATOM     89  O   UNL A   1      45.768  24.197  28.197  1.00  0.00    -0.237 OA
ATOM     90  O   UNL A   1      47.853  25.466  28.454  1.00  0.00    -0.744 OA
ENDBRANCH  83  87
ENDBRANCH  56  80
BRANCH  68  91
ATOM     91  C   UNL A   1      42.503  35.858  28.956  1.00  0.00     0.023 A 
ATOM     92  C   UNL A   1      43.130  36.880  29.687  1.00  0.00     0.031 A 
ATOM     93  C   UNL A   1      41.950  36.222  27.710  1.00  0.00     0.131 A 
ATOM     94  C   UNL A   1      43.256  38.173  29.150  1.00  0.00     0.055 A 
ATOM     95  C   UNL A   1      42.002  37.529  27.217  1.00  0.00     0.041 A 
ATOM     96  F   UNL A   1      41.375  35.316  26.905  1.00  0.00    -0.206 F 
ATOM     97  C   UNL A   1      42.671  38.512  27.932  1.00  0.00     0.022 A 
BRANCH  94  98
ATOM     98  S   UNL A   1      44.275  39.382  30.034  1.00  0.00     0.124 S 
ATOM     99  O   UNL A   1      43.731  39.332  31.387  1.00  0.00    -0.237 OA
ATOM    100  O   UNL A   1      45.613  38.819  29.866  1.00  0.00    -0.237 OA
ATOM    101  O   UNL A   1      44.035  40.630  29.312  1.00  0.00    -0.744 OA
ENDBRANCH  94  98
ENDBRANCH  68  91
ENDBRANCH  42  43
ENDBRANCH  34  37
ENDBRANCH  32  33
ENDBRANCH  31  32
ENDBRANCH  30  31
ENDBRANCH   1  30
TORSDOF 20
ENDMDL
MODEL 2
REMARK VINA RESULT:     -12.4      3.847      9.564
REMARK SMILES Cc1nn(C(C)C)c(C)c1S(=O)(=O)Nc1cccc(C(=O)NCCCCCCNC(=O)c2ccc(-c3c4nc(c(-c5cc(S(=O)(=O)[O-])ccc5F)c5ccc([nH]5)c(-c5cc(S(=O)(=O)[O-])ccc5F)c5nc(c(-c6cc(S(=O)(=O)[O-])ccc6F)c6ccc3[nH]6)C=C5)C=C4)cc2)c1C
REMARK SMILES IDX 25 1 24 2 23 3 22 4 20 5 21 6 19 8 15 9 16 10 95 11 17 12
REMARK SMILES IDX 96 13 18 14 14 15 11 17 12 18 13 19 10 20 1 21 2 22 3 23
REMARK SMILES IDX 4 24 8 25 9 26 5 27 6 28 7 29 26 30 27 31 28 32 29 33 30 34
REMARK SMILES IDX 31 36 32 37 33 38 94 39 34 40 93 41 35 42 36 43 37 44 87 45
REMARK SMILES IDX 38 46 92 47 86 48 88 49 39 50 91 51 85 52 84 53 40 55 72 56
REMARK SMILES IDX 52 57 71 58 53 59 56 60 70 61 89 62 54 63 55 64 69 66 90 67
REMARK SMILES IDX 57 68 41 69 42 70 50 71 43 72 49 73 51 74 48 75 44 76 45 77
REMARK SMILES IDX 46 78 47 79 73 80 74 81 82 82 75 83 81 84 83 85 80 86 76 87
REMARK SMILES IDX 77 88 78 89 79 90 58 91 59 92 67 93 60 94 66 95 68 96 65 97
REMARK SMILES IDX 61 98 62 99 63 100 64 101
REMARK H PARENT 22 7 14 16 29 35 88 54 56 65
REMARK Flexibility Score: inf
ROOT
ATOM      1  C   UNL A   1      33.848  28.240  26.047  1.00  0.00     0.002 C 
ENDROOT
BRANCH   1   2
ATOM      2  C   UNL A   1      33.173  29.008  24.898  1.00  0.00     0.021 C 
BRANCH   2   3
ATOM      3  C   UNL A   1      31.678  29.283  25.094  1.00  0.00     0.116 C 
BRANCH   3   4
ATOM      4  N   UNL A   1      30.996  29.448  23.818  1.00  0.00    -0.352 N 
ATOM      5  C   UNL A   1      30.728  28.627  22.749  1.00  0.00     0.251 C 
ATOM      6  O   UNL A   1      30.044  29.114  21.850  1.00  0.00    -0.269 OA
ATOM      7  H   UNL A   1      30.646  30.360  23.691  1.00  0.00     0.163 HD
BRANCH   5   8
ATOM      8  C   UNL A   1      31.179  27.193  22.668  1.00  0.00     0.044 A 
ATOM      9  C   UNL A   1      31.100  24.875  23.427  1.00  0.00     0.053 A 
ATOM     10  C   UNL A   1      32.250  24.594  22.685  1.00  0.00     0.027 A 
ATOM     11  C   UNL A   1      30.497  26.153  23.369  1.00  0.00    -0.014 A 
ATOM     12  C   UNL A   1      32.820  25.571  21.881  1.00  0.00     0.003 A 
ATOM     13  C   UNL A   1      29.171  26.400  24.045  1.00  0.00     0.047 C 
ATOM     14  C   UNL A   1      32.283  26.857  21.870  1.00  0.00     0.014 A 
BRANCH   9  15
ATOM     15  N   UNL A   1      30.578  23.769  24.164  1.00  0.00    -0.279 N 
ATOM     16  H   UNL A   1      29.762  23.320  23.843  1.00  0.00     0.180 HD
BRANCH  15  17
ATOM     17  S   UNL A   1      31.327  23.208  25.572  1.00  0.00     0.265 S 
ATOM     18  O   UNL A   1      30.500  22.113  26.009  1.00  0.00    -0.201 OA
ATOM     19  O   UNL A   1      31.573  24.324  26.471  1.00  0.00    -0.201 OA
BRANCH  17  20
ATOM     20  C   UNL A   1      32.900  22.531  25.317  1.00  0.00     0.131 A 
ATOM     21  C   UNL A   1      32.275  20.139  24.380  1.00  0.00     0.070 C 
ATOM     22  C   UNL A   1      33.174  21.226  24.836  1.00  0.00     0.080 A 
ATOM     23  N   UNL A   1      34.490  21.011  24.738  1.00  0.00    -0.176 NA
ATOM     24  N   UNL A   1      35.049  22.207  24.968  1.00  0.00    -0.266 N 
ATOM     25  C   UNL A   1      34.138  23.176  25.326  1.00  0.00     0.056 A 
ATOM     26  C   UNL A   1      34.547  24.589  25.548  1.00  0.00     0.068 C 
BRANCH  24  27
ATOM     27  C   UNL A   1      36.482  22.357  24.706  1.00  0.00     0.101 C 
ATOM     28  C   UNL A   1      37.230  21.047  24.944  1.00  0.00     0.033 C 
ATOM     29  C   UNL A   1      36.739  22.892  23.293  1.00  0.00     0.033 C 
ENDBRANCH  24  27
ENDBRANCH  17  20
ENDBRANCH  15  17
ENDBRANCH   9  15
ENDBRANCH   5   8
ENDBRANCH   3   4
ENDBRANCH   2   3
ENDBRANCH   1   2
BRANCH   1  30
ATOM     30  C   UNL A   1      34.899  29.013  26.860  1.00  0.00     0.002 C 
BRANCH  30  31
ATOM     31  C   UNL A   1      34.360  30.034  27.862  1.00  0.00     0.021 C 
BRANCH  31  32
ATOM     32  C   UNL A   1      34.866  31.458  27.640  1.00  0.00     0.116 C 
BRANCH  32  33
ATOM     33  N   UNL A   1      33.956  32.490  28.130  1.00  0.00    -0.352 N 
ATOM     34  C   UNL A   1      34.163  33.399  29.161  1.00  0.00     0.251 C 
ATOM     35  H   UNL A   1      33.085  32.549  27.673  1.00  0.00     0.163 HD
ATOM     36  O   UNL A   1      33.334  34.218  29.490  1.00  0.00    -0.269 OA
BRANCH  34  37
ATOM     37  C   UNL A   1      35.511  33.418  29.780  1.00  0.00     0.039 A 
ATOM     38  C   UNL A   1      36.524  34.068  29.071  1.00  0.00     0.014 A 
ATOM     39  C   UNL A   1      35.805  32.574  30.848  1.00  0.00     0.014 A 
ATOM     40  C   UNL A   1      37.845  33.685  29.277  1.00  0.00     0.010 A 
ATOM     41  C   UNL A   1      37.111  32.135  30.995  1.00  0.00     0.010 A 
ATOM     42  C   UNL A   1      38.117  32.633  30.156  1.00  0.00    -0.014 A 
BRANCH  42  43
ATOM     43  C   UNL A   1      39.364  31.870  30.086  1.00  0.00     0.031 A 
ATOM     44  C   UNL A   1      39.406  30.491  29.561  1.00  0.00     0.074 A 
ATOM     45  C   UNL A   1      40.518  32.439  30.504  1.00  0.00     0.049 A 
ATOM     46  N   UNL A   1      40.305  29.619  29.875  1.00  0.00    -0.248 NA
ATOM     47  C   UNL A   1      38.391  29.973  28.654  1.00  0.00     0.031 C 
ATOM     48  C   UNL A   1      41.876  31.937  30.316  1.00  0.00     0.029 A 
ATOM     49  N   UNL A   1      40.653  33.464  31.437  1.00  0.00    -0.354 N 
ATOM     50  C   UNL A   1      40.168  28.548  29.024  1.00  0.00     0.074 A 
ATOM     51  C   UNL A   1      38.921  28.790  28.330  1.00  0.00     0.031 C 
ATOM     52  C   UNL A   1      42.658  32.444  31.280  1.00  0.00     0.029 A 
ATOM     53  C   UNL A   1      41.808  33.188  32.191  1.00  0.00     0.049 A 
ATOM     54  H   UNL A   1      40.053  34.238  31.547  1.00  0.00     0.167 HD
ATOM     55  C   UNL A   1      41.184  27.644  28.900  1.00  0.00     0.034 A 
ATOM     56  C   UNL A   1      41.729  33.003  33.541  1.00  0.00     0.034 A 
ATOM     57  C   UNL A   1      42.282  27.903  29.836  1.00  0.00     0.049 A 
ATOM     58  C   UNL A   1      42.159  31.626  34.010  1.00  0.00     0.074 A 
ATOM     59  C   UNL A   1      43.549  28.451  29.720  1.00  0.00     0.029 A 
ATOM     60  N   UNL A   1      42.046  27.785  31.195  1.00  0.00    -0.354 N 
ATOM     61  N   UNL A   1      42.551  30.662  33.223  1.00  0.00    -0.248 NA
ATOM     62  C   UNL A   1      42.080  31.202  35.409  1.00  0.00     0.031 C 
ATOM     63  C   UNL A   1      44.055  28.687  31.032  1.00  0.00     0.029 A 
ATOM     64  C   UNL A   1      43.103  28.269  31.943  1.00  0.00     0.049 A 
ATOM     65  H   UNL A   1      41.225  27.402  31.582  1.00  0.00     0.167 HD
ATOM     66  C   UNL A   1      42.691  29.511  33.953  1.00  0.00     0.074 A 
ATOM     67  C   UNL A   1      42.395  29.900  35.320  1.00  0.00     0.031 C 
ATOM     68  C   UNL A   1      42.986  28.302  33.391  1.00  0.00     0.034 A 
BRANCH  55  69
ATOM     69  C   UNL A   1      41.302  26.680  27.739  1.00  0.00     0.023 A 
ATOM     70  C   UNL A   1      41.304  25.292  27.990  1.00  0.00     0.031 A 
ATOM     71  C   UNL A   1      41.461  27.045  26.389  1.00  0.00     0.131 A 
ATOM     72  C   UNL A   1      41.580  24.360  26.972  1.00  0.00     0.055 A 
ATOM     73  C   UNL A   1      41.806  26.126  25.387  1.00  0.00     0.041 A 
ATOM     74  F   UNL A   1      41.231  28.296  25.967  1.00  0.00    -0.206 F 
ATOM     75  C   UNL A   1      41.884  24.775  25.680  1.00  0.00     0.022 A 
BRANCH  72  76
ATOM     76  S   UNL A   1      41.526  22.590  27.361  1.00  0.00     0.124 S 
ATOM     77  O   UNL A   1      42.438  22.026  26.372  1.00  0.00    -0.237 OA
ATOM     78  O   UNL A   1      41.979  22.567  28.747  1.00  0.00    -0.237 OA
ATOM     79  O   UNL A   1      40.118  22.244  27.168  1.00  0.00    -0.744 OA
ENDBRANCH  72  76
ENDBRANCH  55  69
BRANCH  56  80
ATOM     80  C   UNL A   1      40.681  33.847  34.184  1.00  0.00     0.023 A 
ATOM     81  C   UNL A   1      39.578  33.181  34.763  1.00  0.00     0.031 A 
ATOM     82  C   UNL A   1      40.907  35.180  34.549  1.00  0.00     0.131 A 
ATOM     83  C   UNL A   1      38.841  33.794  35.786  1.00  0.00     0.055 A 
ATOM     84  C   UNL A   1      40.121  35.813  35.519  1.00  0.00     0.041 A 
ATOM     85  F   UNL A   1      41.963  35.854  34.069  1.00  0.00    -0.206 F 
ATOM     86  C   UNL A   1      39.112  35.106  36.173  1.00  0.00     0.022 A 
BRANCH  83  87
ATOM     87  S   UNL A   1      37.700  32.797  36.790  1.00  0.00     0.124 S 
ATOM     88  O   UNL A   1      36.445  33.525  36.639  1.00  0.00    -0.237 OA
ATOM     89  O   UNL A   1      37.753  31.483  36.155  1.00  0.00    -0.237 OA
ATOM     90  O   UNL A   1      38.308  32.847  38.118  1.00  0.00    -0.744 OA
ENDBRANCH  83  87
ENDBRANCH  56  80
BRANCH  68  91
ATOM     91  C   UNL A   1      43.156  27.050  34.207  1.00  0.00     0.023 A 
ATOM     92  C   UNL A   1      44.423  26.497  34.452  1.00  0.00     0.031 A 
ATOM     93  C   UNL A   1      42.048  26.336  34.710  1.00  0.00     0.131 A 
ATOM     94  C   UNL A   1      44.560  25.333  35.229  1.00  0.00     0.055 A 
ATOM     95  C   UNL A   1      42.182  25.133  35.408  1.00  0.00     0.041 A 
ATOM     96  F   UNL A   1      40.796  26.799  34.579  1.00  0.00    -0.206 F 
ATOM     97  C   UNL A   1      43.446  24.631  35.685  1.00  0.00     0.022 A 
BRANCH  94  98
ATOM     98  S   UNL A   1      46.225  24.801  35.706  1.00  0.00     0.124 S 
ATOM     99  O   UNL A   1      47.078  25.591  34.825  1.00  0.00    -0.237 OA
ATOM    100  O   UNL A   1      46.257  25.169  37.120  1.00  0.00    -0.237 OA
ATOM    101  O   UNL A   1      46.217  23.363  35.441  1.00  0.00    -0.744 OA
ENDBRANCH  94  98
ENDBRANCH  68  91
ENDBRANCH  42  43
ENDBRANCH  34  37
ENDBRANCH  32  33
ENDBRANCH  31  32
ENDBRANCH  30  31
ENDBRANCH   1  30
TORSDOF 20
ENDMDL
MODEL 3
REMARK VINA RESULT:     -12.1      2.302      3.294
REMARK SMILES Cc1nn(C(C)C)c(C)c1S(=O)(=O)Nc1cccc(C(=O)NCCCCCCNC(=O)c2ccc(-c3c4nc(c(-c5cc(S(=O)(=O)[O-])ccc5F)c5ccc([nH]5)c(-c5cc(S(=O)(=O)[O-])ccc5F)c5nc(c(-c6cc(S(=O)(=O)[O-])ccc6F)c6ccc3[nH]6)C=C5)C=C4)cc2)c1C
REMARK SMILES IDX 25 1 24 2 23 3 22 4 20 5 21 6 19 8 15 9 16 10 95 11 17 12
REMARK SMILES IDX 96 13 18 14 14 15 11 17 12 18 13 19 10 20 1 21 2 22 3 23
REMARK SMILES IDX 4 24 8 25 9 26 5 27 6 28 7 29 26 30 27 31 28 32 29 33 30 34
REMARK SMILES IDX 31 36 32 37 33 38 94 39 34 40 93 41 35 42 36 43 37 44 87 45
REMARK SMILES IDX 38 46 92 47 86 48 88 49 39 50 91 51 85 52 84 53 40 55 72 56
REMARK SMILES IDX 52 57 71 58 53 59 56 60 70 61 89 62 54 63 55 64 69 66 90 67
REMARK SMILES IDX 57 68 41 69 42 70 50 71 43 72 49 73 51 74 48 75 44 76 45 77
REMARK SMILES IDX 46 78 47 79 73 80 74 81 82 82 75 83 81 84 83 85 80 86 76 87
REMARK SMILES IDX 77 88 78 89 79 90 58 91 59 92 67 93 60 94 66 95 68 96 65 97
REMARK SMILES IDX 61 98 62 99 63 100 64 101
REMARK H PARENT 22 7 14 16 29 35 88 54 56 65
REMARK Flexibility Score: inf
ROOT
ATOM      1  C   UNL A   1      36.959  22.392  24.259  1.00  0.00     0.002 C 
ENDROOT
BRANCH   1   2
ATOM      2  C   UNL A   1      35.487  21.957  24.342  1.00  0.00     0.021 C 
BRANCH   2   3
ATOM      3  C   UNL A   1      35.075  21.311  25.670  1.00  0.00     0.116 C 
BRANCH   3   4
ATOM      4  N   UNL A   1      34.040  20.306  25.475  1.00  0.00    -0.352 N 
ATOM      5  C   UNL A   1      32.702  20.341  25.163  1.00  0.00     0.251 C 
ATOM      6  O   UNL A   1      32.153  19.251  25.008  1.00  0.00    -0.269 OA
ATOM      7  H   UNL A   1      34.377  19.388  25.593  1.00  0.00     0.163 HD
BRANCH   5   8
ATOM      8  C   UNL A   1      31.928  21.616  24.962  1.00  0.00     0.044 A 
ATOM      9  C   UNL A   1      31.285  23.543  23.609  1.00  0.00     0.053 A 
ATOM     10  C   UNL A   1      30.699  24.134  24.730  1.00  0.00     0.027 A 
ATOM     11  C   UNL A   1      31.837  22.243  23.683  1.00  0.00    -0.014 A 
ATOM     12  C   UNL A   1      30.654  23.451  25.938  1.00  0.00     0.003 A 
ATOM     13  C   UNL A   1      32.322  21.550  22.433  1.00  0.00     0.047 C 
ATOM     14  C   UNL A   1      31.258  22.200  26.047  1.00  0.00     0.014 A 
BRANCH   9  15
ATOM     15  N   UNL A   1      31.212  24.322  22.415  1.00  0.00    -0.279 N 
ATOM     16  H   UNL A   1      30.506  24.129  21.757  1.00  0.00     0.180 HD
BRANCH  15  17
ATOM     17  S   UNL A   1      32.308  25.572  22.102  1.00  0.00     0.265 S 
ATOM     18  O   UNL A   1      31.751  26.266  20.970  1.00  0.00    -0.201 OA
ATOM     19  O   UNL A   1      33.654  25.030  22.020  1.00  0.00    -0.201 OA
BRANCH  17  20
ATOM     20  C   UNL A   1      32.417  26.751  23.364  1.00  0.00     0.131 A 
ATOM     21  C   UNL A   1      30.463  28.399  22.686  1.00  0.00     0.070 C 
ATOM     22  C   UNL A   1      31.605  27.907  23.493  1.00  0.00     0.080 A 
ATOM     23  N   UNL A   1      31.930  28.610  24.583  1.00  0.00    -0.176 NA
ATOM     24  N   UNL A   1      32.798  27.832  25.245  1.00  0.00    -0.266 N 
ATOM     25  C   UNL A   1      33.136  26.687  24.559  1.00  0.00     0.056 A 
ATOM     26  C   UNL A   1      34.026  25.654  25.155  1.00  0.00     0.068 C 
BRANCH  24  27
ATOM     27  C   UNL A   1      33.170  28.222  26.606  1.00  0.00     0.101 C 
ATOM     28  C   UNL A   1      34.480  29.006  26.621  1.00  0.00     0.033 C 
ATOM     29  C   UNL A   1      32.045  29.009  27.289  1.00  0.00     0.033 C 
ENDBRANCH  24  27
ENDBRANCH  17  20
ENDBRANCH  15  17
ENDBRANCH   9  15
ENDBRANCH   5   8
ENDBRANCH   3   4
ENDBRANCH   2   3
ENDBRANCH   1   2
BRANCH   1  30
ATOM     30  C   UNL A   1      37.387  23.538  25.189  1.00  0.00     0.002 C 
BRANCH  30  31
ATOM     31  C   UNL A   1      38.098  23.130  26.479  1.00  0.00     0.021 C 
BRANCH  31  32
ATOM     32  C   UNL A   1      39.619  23.263  26.425  1.00  0.00     0.116 C 
BRANCH  32  33
ATOM     33  N   UNL A   1      40.303  22.042  26.004  1.00  0.00    -0.352 N 
ATOM     34  C   UNL A   1      41.648  21.721  26.140  1.00  0.00     0.251 C 
ATOM     35  H   UNL A   1      39.740  21.361  25.569  1.00  0.00     0.163 HD
ATOM     36  O   UNL A   1      42.115  20.673  25.750  1.00  0.00    -0.269 OA
BRANCH  34  37
ATOM     37  C   UNL A   1      42.493  22.671  26.904  1.00  0.00     0.039 A 
ATOM     38  C   UNL A   1      42.491  22.541  28.295  1.00  0.00     0.014 A 
ATOM     39  C   UNL A   1      43.007  23.808  26.287  1.00  0.00     0.014 A 
ATOM     40  C   UNL A   1      42.783  23.654  29.077  1.00  0.00     0.010 A 
ATOM     41  C   UNL A   1      43.217  24.936  27.062  1.00  0.00     0.010 A 
ATOM     42  C   UNL A   1      43.027  24.878  28.450  1.00  0.00    -0.014 A 
BRANCH  42  43
ATOM     43  C   UNL A   1      42.879  26.152  29.156  1.00  0.00     0.031 A 
ATOM     44  C   UNL A   1      41.653  26.967  29.042  1.00  0.00     0.074 A 
ATOM     45  C   UNL A   1      43.883  26.598  29.944  1.00  0.00     0.049 A 
ATOM     46  N   UNL A   1      41.608  28.244  29.228  1.00  0.00    -0.248 NA
ATOM     47  C   UNL A   1      40.370  26.394  28.663  1.00  0.00     0.031 C 
ATOM     48  C   UNL A   1      43.844  27.712  30.888  1.00  0.00     0.029 A 
ATOM     49  N   UNL A   1      45.236  26.287  29.829  1.00  0.00    -0.354 N 
ATOM     50  C   UNL A   1      40.285  28.616  29.279  1.00  0.00     0.074 A 
ATOM     51  C   UNL A   1      39.559  27.439  28.854  1.00  0.00     0.031 C 
ATOM     52  C   UNL A   1      45.092  28.172  31.059  1.00  0.00     0.029 A 
ATOM     53  C   UNL A   1      45.957  27.454  30.140  1.00  0.00     0.049 A 
ATOM     54  H   UNL A   1      45.616  25.414  29.579  1.00  0.00     0.167 HD
ATOM     55  C   UNL A   1      39.940  29.830  29.800  1.00  0.00     0.034 A 
ATOM     56  C   UNL A   1      46.792  28.021  29.222  1.00  0.00     0.034 A 
ATOM     57  C   UNL A   1      41.109  30.648  30.138  1.00  0.00     0.049 A 
ATOM     58  C   UNL A   1      46.402  29.426  28.805  1.00  0.00     0.074 A 
ATOM     59  C   UNL A   1      41.749  30.987  31.319  1.00  0.00     0.029 A 
ATOM     60  N   UNL A   1      41.945  31.075  29.121  1.00  0.00    -0.354 N 
ATOM     61  N   UNL A   1      45.353  30.067  29.241  1.00  0.00    -0.248 NA
ATOM     62  C   UNL A   1      47.125  30.180  27.778  1.00  0.00     0.031 C 
ATOM     63  C   UNL A   1      42.995  31.597  30.992  1.00  0.00     0.029 A 
ATOM     64  C   UNL A   1      43.105  31.641  29.614  1.00  0.00     0.049 A 
ATOM     65  H   UNL A   1      41.738  30.986  28.162  1.00  0.00     0.167 HD
ATOM     66  C   UNL A   1      45.205  31.229  28.531  1.00  0.00     0.074 A 
ATOM     67  C   UNL A   1      46.344  31.263  27.632  1.00  0.00     0.031 C 
ATOM     68  C   UNL A   1      44.135  32.065  28.681  1.00  0.00     0.034 A 
BRANCH  55  69
ATOM     69  C   UNL A   1      38.537  30.169  30.256  1.00  0.00     0.023 A 
ATOM     70  C   UNL A   1      37.828  31.199  29.603  1.00  0.00     0.031 A 
ATOM     71  C   UNL A   1      37.862  29.569  31.336  1.00  0.00     0.131 A 
ATOM     72  C   UNL A   1      36.595  31.668  30.092  1.00  0.00     0.055 A 
ATOM     73  C   UNL A   1      36.670  30.079  31.868  1.00  0.00     0.041 A 
ATOM     74  F   UNL A   1      38.295  28.426  31.886  1.00  0.00    -0.206 F 
ATOM     75  C   UNL A   1      36.036  31.148  31.255  1.00  0.00     0.022 A 
BRANCH  72  76
ATOM     76  S   UNL A   1      35.722  32.968  29.177  1.00  0.00     0.124 S 
ATOM     77  O   UNL A   1      35.087  32.217  28.099  1.00  0.00    -0.237 OA
ATOM     78  O   UNL A   1      34.832  33.514  30.196  1.00  0.00    -0.237 OA
ATOM     79  O   UNL A   1      36.797  33.865  28.754  1.00  0.00    -0.744 OA
ENDBRANCH  72  76
ENDBRANCH  55  69
BRANCH  56  80
ATOM     80  C   UNL A   1      47.465  27.016  28.349  1.00  0.00     0.023 A 
ATOM     81  C   UNL A   1      47.080  26.976  26.990  1.00  0.00     0.031 A 
ATOM     82  C   UNL A   1      48.666  26.391  28.709  1.00  0.00     0.131 A 
ATOM     83  C   UNL A   1      47.957  26.465  26.024  1.00  0.00     0.055 A 
ATOM     84  C   UNL A   1      49.505  25.816  27.746  1.00  0.00     0.041 A 
ATOM     85  F   UNL A   1      49.109  26.432  29.974  1.00  0.00    -0.206 F 
ATOM     86  C   UNL A   1      49.172  25.891  26.394  1.00  0.00     0.022 A 
BRANCH  83  87
ATOM     87  S   UNL A   1      47.632  26.780  24.262  1.00  0.00     0.124 S 
ATOM     88  O   UNL A   1      47.901  25.477  23.665  1.00  0.00    -0.237 OA
ATOM     89  O   UNL A   1      46.235  27.208  24.250  1.00  0.00    -0.237 OA
ATOM     90  O   UNL A   1      48.587  27.838  23.941  1.00  0.00    -0.744 OA
ENDBRANCH  83  87
ENDBRANCH  56  80
BRANCH  68  91
ATOM     91  C   UNL A   1      43.996  33.348  27.909  1.00  0.00     0.023 A 
ATOM     92  C   UNL A   1      44.012  34.599  28.549  1.00  0.00     0.031 A 
ATOM     93  C   UNL A   1      43.777  33.356  26.515  1.00  0.00     0.131 A 
ATOM     94  C   UNL A   1      43.893  35.786  27.806  1.00  0.00     0.055 A 
ATOM     95  C   UNL A   1      43.574  34.534  25.792  1.00  0.00     0.041 A 
ATOM     96  F   UNL A   1      43.795  32.224  25.796  1.00  0.00    -0.206 F 
ATOM     97  C   UNL A   1      43.646  35.762  26.435  1.00  0.00     0.022 A 
BRANCH  94  98
ATOM     98  S   UNL A   1      44.155  37.367  28.652  1.00  0.00     0.124 S 
ATOM     99  O   UNL A   1      45.141  38.025  27.802  1.00  0.00    -0.237 OA
ATOM    100  O   UNL A   1      42.811  37.940  28.627  1.00  0.00    -0.237 OA
ATOM    101  O   UNL A   1      44.635  36.974  29.976  1.00  0.00    -0.744 OA
ENDBRANCH  94  98
ENDBRANCH  68  91
ENDBRANCH  42  43
ENDBRANCH  34  37
ENDBRANCH  32  33
ENDBRANCH  31  32
ENDBRANCH  30  31
ENDBRANCH   1  30
TORSDOF 20
ENDMDL
