MODEL 1
REMARK VINA RESULT:     -11.8      0.000      0.000
REMARK SMILES Cc1ccc(-n2cnnn2)cc1OCC(=O)NCCCCCCNC(=O)c1ccc(-c2c3nc(c(-c4cc(S(=O)(=O)[O-])ccc4F)c4ccc([nH]4)c(-c4cc(S(=O)(=O)[O-])ccc4F)c4nc(c(-c5cc(S(=O)(=O)[O-])ccc5F)c5ccc2[nH]5)C=C4)C=C3)cc1
REMARK SMILES IDX 20 1 19 2 18 3 17 4 15 5 16 6 14 8 13 9 12 10 1 11 2 12 3 13
REMARK SMILES IDX 4 14 11 15 5 16 6 17 7 18 10 19 8 20 9 21 21 22 22 23 23 24
REMARK SMILES IDX 24 25 25 26 26 28 27 29 28 30 89 31 29 32 88 33 30 34 31 35
REMARK SMILES IDX 32 36 82 37 33 38 87 39 81 40 83 41 34 42 86 43 80 44 79 45
REMARK SMILES IDX 35 47 67 48 47 49 66 50 48 51 51 52 65 53 84 54 49 55 50 56
REMARK SMILES IDX 64 58 85 59 52 60 36 61 37 62 45 63 38 64 44 65 46 66 43 67
REMARK SMILES IDX 39 68 40 69 41 70 42 71 68 72 69 73 77 74 70 75 76 76 78 77
REMARK SMILES IDX 75 78 71 79 72 80 73 81 74 82 53 83 54 84 62 85 55 86 61 87
REMARK SMILES IDX 63 88 60 89 56 90 57 91 58 92 59 93
REMARK H PARENT 17 7 24 27 83 46 51 57
REMARK Flexibility Score: inf
ROOT
ATOM      1  C   UNL A   1      32.522  28.539  27.012  1.00  0.00     0.002 C 
ENDROOT
BRANCH   1   2
ATOM      2  C   UNL A   1      33.187  27.776  25.858  1.00  0.00     0.021 C 
BRANCH   2   3
ATOM      3  C   UNL A   1      32.627  28.020  24.459  1.00  0.00     0.116 C 
BRANCH   3   4
ATOM      4  N   UNL A   1      33.402  27.392  23.411  1.00  0.00    -0.353 N 
ATOM      5  C   UNL A   1      32.965  26.602  22.392  1.00  0.00     0.257 C 
ATOM      6  O   UNL A   1      33.709  26.413  21.426  1.00  0.00    -0.271 OA
ATOM      7  H   UNL A   1      34.373  27.556  23.439  1.00  0.00     0.163 HD
BRANCH   5   8
ATOM      8  C   UNL A   1      31.543  26.026  22.415  1.00  0.00     0.329 C 
BRANCH   8   9
ATOM      9  O   UNL A   1      31.237  24.788  23.017  1.00  0.00    -0.483 OA
BRANCH   9  10
ATOM     10  C   UNL A   1      31.717  24.403  24.233  1.00  0.00     0.125 A 
ATOM     11  C   UNL A   1      30.143  25.628  25.890  1.00  0.00     0.048 C 
ATOM     12  C   UNL A   1      31.258  24.694  25.525  1.00  0.00    -0.009 A 
ATOM     13  C   UNL A   1      31.894  24.066  26.620  1.00  0.00     0.009 A 
ATOM     14  C   UNL A   1      33.024  23.267  26.460  1.00  0.00     0.029 A 
ATOM     15  C   UNL A   1      32.887  23.629  24.083  1.00  0.00     0.075 A 
ATOM     16  C   UNL A   1      33.558  23.086  25.187  1.00  0.00     0.072 A 
BRANCH  16  17
ATOM     17  N   UNL A   1      34.781  22.393  25.037  1.00  0.00    -0.200 N 
ATOM     18  C   UNL A   1      35.762  22.554  24.092  1.00  0.00     0.252 A 
ATOM     19  N   UNL A   1      35.214  21.478  25.932  1.00  0.00    -0.040 NA
ATOM     20  N   UNL A   1      36.770  21.762  24.373  1.00  0.00    -0.117 NA
ATOM     21  N   UNL A   1      36.408  21.088  25.508  1.00  0.00    -0.024 NA
ENDBRANCH  16  17
ENDBRANCH   9  10
ENDBRANCH   8   9
ENDBRANCH   5   8
ENDBRANCH   3   4
ENDBRANCH   2   3
ENDBRANCH   1   2
BRANCH   1  22
ATOM     22  C   UNL A   1      32.159  30.013  26.780  1.00  0.00     0.002 C 
BRANCH  22  23
ATOM     23  C   UNL A   1      33.119  31.063  27.338  1.00  0.00     0.021 C 
BRANCH  23  24
ATOM     24  C   UNL A   1      34.458  30.514  27.819  1.00  0.00     0.116 C 
BRANCH  24  25
ATOM     25  N   UNL A   1      35.100  31.316  28.853  1.00  0.00    -0.352 N 
ATOM     26  C   UNL A   1      36.220  31.015  29.617  1.00  0.00     0.251 C 
ATOM     27  H   UNL A   1      34.683  32.189  29.034  1.00  0.00     0.163 HD
ATOM     28  O   UNL A   1      36.623  31.768  30.483  1.00  0.00    -0.269 OA
BRANCH  26  29
ATOM     29  C   UNL A   1      37.014  29.811  29.259  1.00  0.00     0.039 A 
ATOM     30  C   UNL A   1      37.344  28.936  30.299  1.00  0.00     0.014 A 
ATOM     31  C   UNL A   1      37.618  29.679  28.012  1.00  0.00     0.014 A 
ATOM     32  C   UNL A   1      38.448  28.098  30.165  1.00  0.00     0.010 A 
ATOM     33  C   UNL A   1      38.767  28.918  27.905  1.00  0.00     0.010 A 
ATOM     34  C   UNL A   1      39.220  28.181  29.004  1.00  0.00    -0.014 A 
BRANCH  34  35
ATOM     35  C   UNL A   1      40.590  27.681  28.939  1.00  0.00     0.031 A 
ATOM     36  C   UNL A   1      40.891  26.313  28.479  1.00  0.00     0.074 A 
ATOM     37  C   UNL A   1      41.611  28.485  29.313  1.00  0.00     0.049 A 
ATOM     38  N   UNL A   1      41.876  25.605  28.924  1.00  0.00    -0.248 NA
ATOM     39  C   UNL A   1      40.079  25.621  27.487  1.00  0.00     0.031 C 
ATOM     40  C   UNL A   1      43.041  28.237  29.158  1.00  0.00     0.029 A 
ATOM     41  N   UNL A   1      41.540  29.602  30.138  1.00  0.00    -0.354 N 
ATOM     42  C   UNL A   1      42.001  24.513  28.099  1.00  0.00     0.074 A 
ATOM     43  C   UNL A   1      40.821  24.531  27.263  1.00  0.00     0.031 C 
ATOM     44  C   UNL A   1      43.707  28.987  30.048  1.00  0.00     0.029 A 
ATOM     45  C   UNL A   1      42.726  29.652  30.887  1.00  0.00     0.049 A 
ATOM     46  H   UNL A   1      40.794  30.242  30.188  1.00  0.00     0.167 HD
ATOM     47  C   UNL A   1      43.151  23.782  28.093  1.00  0.00     0.034 A 
ATOM     48  C   UNL A   1      42.690  29.616  32.251  1.00  0.00     0.034 A 
ATOM     49  C   UNL A   1      44.143  24.302  29.029  1.00  0.00     0.049 A 
ATOM     50  C   UNL A   1      43.389  28.408  32.840  1.00  0.00     0.074 A 
ATOM     51  C   UNL A   1      45.251  25.117  28.860  1.00  0.00     0.029 A 
ATOM     52  N   UNL A   1      43.902  24.244  30.396  1.00  0.00    -0.354 N 
ATOM     53  N   UNL A   1      43.770  27.370  32.147  1.00  0.00    -0.248 NA
ATOM     54  C   UNL A   1      43.686  28.263  34.263  1.00  0.00     0.031 C 
ATOM     55  C   UNL A   1      45.629  25.611  30.135  1.00  0.00     0.029 A 
ATOM     56  C   UNL A   1      44.776  25.069  31.080  1.00  0.00     0.049 A 
ATOM     57  H   UNL A   1      43.206  23.691  30.819  1.00  0.00     0.167 HD
ATOM     58  C   UNL A   1      44.297  26.422  32.986  1.00  0.00     0.074 A 
ATOM     59  C   UNL A   1      44.259  27.047  34.296  1.00  0.00     0.031 C 
ATOM     60  C   UNL A   1      44.699  25.196  32.530  1.00  0.00     0.034 A 
BRANCH  47  61
ATOM     61  C   UNL A   1      43.463  22.796  26.997  1.00  0.00     0.023 A 
ATOM     62  C   UNL A   1      42.906  21.502  27.030  1.00  0.00     0.031 A 
ATOM     63  C   UNL A   1      44.328  23.066  25.921  1.00  0.00     0.131 A 
ATOM     64  C   UNL A   1      43.287  20.520  26.097  1.00  0.00     0.055 A 
ATOM     65  C   UNL A   1      44.757  22.074  25.029  1.00  0.00     0.041 A 
ATOM     66  F   UNL A   1      44.777  24.309  25.686  1.00  0.00    -0.206 F 
ATOM     67  C   UNL A   1      44.247  20.786  25.124  1.00  0.00     0.022 A 
BRANCH  64  68
ATOM     68  S   UNL A   1      42.499  18.886  26.162  1.00  0.00     0.124 S 
ATOM     69  O   UNL A   1      41.139  19.177  25.724  1.00  0.00    -0.237 OA
ATOM     70  O   UNL A   1      43.323  18.112  25.239  1.00  0.00    -0.237 OA
ATOM     71  O   UNL A   1      42.627  18.504  27.568  1.00  0.00    -0.744 OA
ENDBRANCH  64  68
ENDBRANCH  47  61
BRANCH  48  72
ATOM     72  C   UNL A   1      41.494  30.301  32.822  1.00  0.00     0.023 A 
ATOM     73  C   UNL A   1      41.467  31.713  32.754  1.00  0.00     0.031 A 
ATOM     74  C   UNL A   1      40.282  29.635  33.045  1.00  0.00     0.131 A 
ATOM     75  C   UNL A   1      40.247  32.402  32.733  1.00  0.00     0.055 A 
ATOM     76  C   UNL A   1      39.068  30.336  33.099  1.00  0.00     0.041 A 
ATOM     77  F   UNL A   1      40.234  28.297  33.088  1.00  0.00    -0.206 F 
ATOM     78  C   UNL A   1      39.042  31.718  32.896  1.00  0.00     0.022 A 
BRANCH  75  79
ATOM     79  S   UNL A   1      40.230  34.145  32.212  1.00  0.00     0.124 S 
ATOM     80  O   UNL A   1      38.824  34.498  32.374  1.00  0.00    -0.237 OA
ATOM     81  O   UNL A   1      41.154  34.777  33.151  1.00  0.00    -0.237 OA
ATOM     82  O   UNL A   1      40.716  34.096  30.835  1.00  0.00    -0.744 OA
ENDBRANCH  75  79
ENDBRANCH  48  72
BRANCH  60  83
ATOM     83  C   UNL A   1      45.134  24.028  33.393  1.00  0.00     0.023 A 
ATOM     84  C   UNL A   1      46.407  23.926  33.973  1.00  0.00     0.031 A 
ATOM     85  C   UNL A   1      44.226  22.992  33.724  1.00  0.00     0.131 A 
ATOM     86  C   UNL A   1      46.767  22.808  34.749  1.00  0.00     0.055 A 
ATOM     87  C   UNL A   1      44.558  21.925  34.564  1.00  0.00     0.041 A 
ATOM     88  F   UNL A   1      42.973  22.971  33.245  1.00  0.00    -0.206 F 
ATOM     89  C   UNL A   1      45.843  21.817  35.070  1.00  0.00     0.022 A 
BRANCH  86  90
ATOM     90  S   UNL A   1      48.495  22.643  35.269  1.00  0.00     0.124 S 
ATOM     91  O   UNL A   1      49.208  23.150  34.100  1.00  0.00    -0.237 OA
ATOM     92  O   UNL A   1      48.547  23.487  36.458  1.00  0.00    -0.237 OA
ATOM     93  O   UNL A   1      48.648  21.211  35.514  1.00  0.00    -0.744 OA
ENDBRANCH  86  90
ENDBRANCH  60  83
ENDBRANCH  34  35
ENDBRANCH  26  29
ENDBRANCH  24  25
ENDBRANCH  23  24
ENDBRANCH  22  23
ENDBRANCH   1  22
TORSDOF 19
ENDMDL
MODEL 2
REMARK VINA RESULT:     -11.2      2.794      4.032
REMARK SMILES Cc1ccc(-n2cnnn2)cc1OCC(=O)NCCCCCCNC(=O)c1ccc(-c2c3nc(c(-c4cc(S(=O)(=O)[O-])ccc4F)c4ccc([nH]4)c(-c4cc(S(=O)(=O)[O-])ccc4F)c4nc(c(-c5cc(S(=O)(=O)[O-])ccc5F)c5ccc2[nH]5)C=C4)C=C3)cc1
REMARK SMILES IDX 20 1 19 2 18 3 17 4 15 5 16 6 14 8 13 9 12 10 1 11 2 12 3 13
REMARK SMILES IDX 4 14 11 15 5 16 6 17 7 18 10 19 8 20 9 21 21 22 22 23 23 24
REMARK SMILES IDX 24 25 25 26 26 28 27 29 28 30 89 31 29 32 88 33 30 34 31 35
REMARK SMILES IDX 32 36 82 37 33 38 87 39 81 40 83 41 34 42 86 43 80 44 79 45
REMARK SMILES IDX 35 47 67 48 47 49 66 50 48 51 51 52 65 53 84 54 49 55 50 56
REMARK SMILES IDX 64 58 85 59 52 60 36 61 37 62 45 63 38 64 44 65 46 66 43 67
REMARK SMILES IDX 39 68 40 69 41 70 42 71 68 72 69 73 77 74 70 75 76 76 78 77
REMARK SMILES IDX 75 78 71 79 72 80 73 81 74 82 53 83 54 84 62 85 55 86 61 87
REMARK SMILES IDX 63 88 60 89 56 90 57 91 58 92 59 93
REMARK H PARENT 17 7 24 27 83 46 51 57
REMARK Flexibility Score: inf
ROOT
ATOM      1  C   UNL A   1      32.051  29.817  25.839  1.00  0.00     0.002 C 
ENDROOT
BRANCH   1   2
ATOM      2  C   UNL A   1      31.398  28.431  25.759  1.00  0.00     0.021 C 
BRANCH   2   3
ATOM      3  C   UNL A   1      32.240  27.245  26.222  1.00  0.00     0.116 C 
BRANCH   3   4
ATOM      4  N   UNL A   1      31.455  26.077  26.559  1.00  0.00    -0.353 N 
ATOM      5  C   UNL A   1      31.863  24.782  26.654  1.00  0.00     0.257 C 
ATOM      6  O   UNL A   1      31.142  23.975  27.249  1.00  0.00    -0.271 OA
ATOM      7  H   UNL A   1      30.501  26.241  26.743  1.00  0.00     0.163 HD
BRANCH   5   8
ATOM      8  C   UNL A   1      33.230  24.358  26.100  1.00  0.00     0.329 C 
BRANCH   8   9
ATOM      9  O   UNL A   1      34.080  23.466  26.783  1.00  0.00    -0.483 OA
BRANCH   9  10
ATOM     10  C   UNL A   1      34.846  22.527  26.158  1.00  0.00     0.125 A 
ATOM     11  C   UNL A   1      37.098  23.762  25.801  1.00  0.00     0.048 C 
ATOM     12  C   UNL A   1      36.184  22.575  25.745  1.00  0.00    -0.009 A 
ATOM     13  C   UNL A   1      36.762  21.403  25.208  1.00  0.00     0.009 A 
ATOM     14  C   UNL A   1      36.016  20.250  24.973  1.00  0.00     0.029 A 
ATOM     15  C   UNL A   1      34.086  21.372  25.877  1.00  0.00     0.075 A 
ATOM     16  C   UNL A   1      34.654  20.249  25.262  1.00  0.00     0.072 A 
BRANCH  16  17
ATOM     17  N   UNL A   1      33.866  19.133  24.896  1.00  0.00    -0.200 N 
ATOM     18  C   UNL A   1      34.256  17.920  24.389  1.00  0.00     0.252 A 
ATOM     19  N   UNL A   1      32.531  19.085  25.106  1.00  0.00    -0.040 NA
ATOM     20  N   UNL A   1      33.207  17.140  24.272  1.00  0.00    -0.117 NA
ATOM     21  N   UNL A   1      32.142  17.883  24.705  1.00  0.00    -0.024 NA
ENDBRANCH  16  17
ENDBRANCH   9  10
ENDBRANCH   8   9
ENDBRANCH   5   8
ENDBRANCH   3   4
ENDBRANCH   2   3
ENDBRANCH   1   2
BRANCH   1  22
ATOM     22  C   UNL A   1      32.783  30.189  27.137  1.00  0.00     0.002 C 
BRANCH  22  23
ATOM     23  C   UNL A   1      34.303  30.029  27.150  1.00  0.00     0.021 C 
BRANCH  23  24
ATOM     24  C   UNL A   1      35.021  30.836  28.226  1.00  0.00     0.116 C 
BRANCH  24  25
ATOM     25  N   UNL A   1      34.275  31.991  28.709  1.00  0.00    -0.352 N 
ATOM     26  C   UNL A   1      34.666  32.958  29.626  1.00  0.00     0.251 C 
ATOM     27  H   UNL A   1      33.371  32.101  28.334  1.00  0.00     0.163 HD
ATOM     28  O   UNL A   1      33.916  33.851  29.972  1.00  0.00    -0.269 OA
BRANCH  26  29
ATOM     29  C   UNL A   1      36.082  32.970  30.077  1.00  0.00     0.039 A 
ATOM     30  C   UNL A   1      37.020  33.541  29.211  1.00  0.00     0.014 A 
ATOM     31  C   UNL A   1      36.502  32.232  31.181  1.00  0.00     0.014 A 
ATOM     32  C   UNL A   1      38.358  33.166  29.308  1.00  0.00     0.010 A 
ATOM     33  C   UNL A   1      37.810  31.787  31.226  1.00  0.00     0.010 A 
ATOM     34  C   UNL A   1      38.721  32.199  30.249  1.00  0.00    -0.014 A 
BRANCH  34  35
ATOM     35  C   UNL A   1      39.968  31.447  30.153  1.00  0.00     0.031 A 
ATOM     36  C   UNL A   1      40.016  30.108  29.538  1.00  0.00     0.074 A 
ATOM     37  C   UNL A   1      41.108  31.983  30.642  1.00  0.00     0.049 A 
ATOM     38  N   UNL A   1      40.823  29.172  29.914  1.00  0.00    -0.248 NA
ATOM     39  C   UNL A   1      39.129  29.710  28.452  1.00  0.00     0.031 C 
ATOM     40  C   UNL A   1      42.468  31.474  30.489  1.00  0.00     0.029 A 
ATOM     41  N   UNL A   1      41.221  32.990  31.595  1.00  0.00    -0.354 N 
ATOM     42  C   UNL A   1      40.769  28.178  28.966  1.00  0.00     0.074 A 
ATOM     43  C   UNL A   1      39.653  28.527  28.114  1.00  0.00     0.031 C 
ATOM     44  C   UNL A   1      43.228  31.970  31.477  1.00  0.00     0.029 A 
ATOM     45  C   UNL A   1      42.359  32.716  32.369  1.00  0.00     0.049 A 
ATOM     46  H   UNL A   1      40.613  33.756  31.706  1.00  0.00     0.167 HD
ATOM     47  C   UNL A   1      41.753  27.238  28.896  1.00  0.00     0.034 A 
ATOM     48  C   UNL A   1      42.257  32.533  33.718  1.00  0.00     0.034 A 
ATOM     49  C   UNL A   1      42.785  27.440  29.908  1.00  0.00     0.049 A 
ATOM     50  C   UNL A   1      42.679  31.151  34.171  1.00  0.00     0.074 A 
ATOM     51  C   UNL A   1      44.037  28.031  29.862  1.00  0.00     0.029 A 
ATOM     52  N   UNL A   1      42.477  27.275  31.253  1.00  0.00    -0.354 N 
ATOM     53  N   UNL A   1      42.880  30.144  33.366  1.00  0.00    -0.248 NA
ATOM     54  C   UNL A   1      42.878  30.787  35.571  1.00  0.00     0.031 C 
ATOM     55  C   UNL A   1      44.447  28.291  31.195  1.00  0.00     0.029 A 
ATOM     56  C   UNL A   1      43.463  27.826  32.050  1.00  0.00     0.049 A 
ATOM     57  H   UNL A   1      41.668  26.827  31.592  1.00  0.00     0.167 HD
ATOM     58  C   UNL A   1      43.174  29.020  34.095  1.00  0.00     0.074 A 
ATOM     59  C   UNL A   1      43.200  29.486  35.470  1.00  0.00     0.031 C 
ATOM     60  C   UNL A   1      43.349  27.799  33.503  1.00  0.00     0.034 A 
BRANCH  47  61
ATOM     61  C   UNL A   1      41.914  26.342  27.695  1.00  0.00     0.023 A 
ATOM     62  C   UNL A   1      41.656  24.961  27.804  1.00  0.00     0.031 A 
ATOM     63  C   UNL A   1      42.353  26.789  26.435  1.00  0.00     0.131 A 
ATOM     64  C   UNL A   1      41.930  24.082  26.739  1.00  0.00     0.055 A 
ATOM     65  C   UNL A   1      42.686  25.910  25.395  1.00  0.00     0.041 A 
ATOM     66  F   UNL A   1      42.460  28.099  26.162  1.00  0.00    -0.206 F 
ATOM     67  C   UNL A   1      42.489  24.545  25.550  1.00  0.00     0.022 A 
BRANCH  64  68
ATOM     68  S   UNL A   1      41.532  22.321  26.922  1.00  0.00     0.124 S 
ATOM     69  O   UNL A   1      41.653  21.829  25.555  1.00  0.00    -0.237 OA
ATOM     70  O   UNL A   1      42.554  21.872  27.863  1.00  0.00    -0.237 OA
ATOM     71  O   UNL A   1      40.170  22.335  27.455  1.00  0.00    -0.744 OA
ENDBRANCH  64  68
ENDBRANCH  47  61
BRANCH  48  72
ATOM     72  C   UNL A   1      41.193  33.373  34.342  1.00  0.00     0.023 A 
ATOM     73  C   UNL A   1      39.913  32.790  34.484  1.00  0.00     0.031 A 
ATOM     74  C   UNL A   1      41.486  34.502  35.117  1.00  0.00     0.131 A 
ATOM     75  C   UNL A   1      39.041  33.224  35.491  1.00  0.00     0.055 A 
ATOM     76  C   UNL A   1      40.579  34.980  36.075  1.00  0.00     0.041 A 
ATOM     77  F   UNL A   1      42.692  35.082  35.054  1.00  0.00    -0.206 F 
ATOM     78  C   UNL A   1      39.372  34.313  36.298  1.00  0.00     0.022 A 
BRANCH  75  79
ATOM     79  S   UNL A   1      37.611  32.185  35.924  1.00  0.00     0.124 S 
ATOM     80  O   UNL A   1      37.140  32.811  37.154  1.00  0.00    -0.237 OA
ATOM     81  O   UNL A   1      36.736  32.330  34.762  1.00  0.00    -0.237 OA
ATOM     82  O   UNL A   1      38.189  30.851  36.073  1.00  0.00    -0.744 OA
ENDBRANCH  75  79
ENDBRANCH  48  72
BRANCH  60  83
ATOM     83  C   UNL A   1      43.508  26.477  34.227  1.00  0.00     0.023 A 
ATOM     84  C   UNL A   1      44.742  25.835  34.403  1.00  0.00     0.031 A 
ATOM     85  C   UNL A   1      42.396  25.846  34.841  1.00  0.00     0.131 A 
ATOM     86  C   UNL A   1      44.831  24.596  35.066  1.00  0.00     0.055 A 
ATOM     87  C   UNL A   1      42.500  24.659  35.571  1.00  0.00     0.041 A 
ATOM     88  F   UNL A   1      41.160  26.359  34.758  1.00  0.00    -0.206 F 
ATOM     89  C   UNL A   1      43.722  24.014  35.673  1.00  0.00     0.022 A 
BRANCH  86  90
ATOM     90  S   UNL A   1      46.421  23.726  35.050  1.00  0.00     0.124 S 
ATOM     91  O   UNL A   1      46.991  24.121  36.335  1.00  0.00    -0.237 OA
ATOM     92  O   UNL A   1      46.013  22.329  34.940  1.00  0.00    -0.237 OA
ATOM     93  O   UNL A   1      47.102  24.270  33.877  1.00  0.00    -0.744 OA
ENDBRANCH  86  90
ENDBRANCH  60  83
ENDBRANCH  34  35
ENDBRANCH  26  29
ENDBRANCH  24  25
ENDBRANCH  23  24
ENDBRANCH  22  23
ENDBRANCH   1  22
TORSDOF 19
ENDMDL
MODEL 3
REMARK VINA RESULT:     -11.2      2.920      4.320
REMARK SMILES Cc1ccc(-n2cnnn2)cc1OCC(=O)NCCCCCCNC(=O)c1ccc(-c2c3nc(c(-c4cc(S(=O)(=O)[O-])ccc4F)c4ccc([nH]4)c(-c4cc(S(=O)(=O)[O-])ccc4F)c4nc(c(-c5cc(S(=O)(=O)[O-])ccc5F)c5ccc2[nH]5)C=C4)C=C3)cc1
REMARK SMILES IDX 20 1 19 2 18 3 17 4 15 5 16 6 14 8 13 9 12 10 1 11 2 12 3 13
REMARK SMILES IDX 4 14 11 15 5 16 6 17 7 18 10 19 8 20 9 21 21 22 22 23 23 24
REMARK SMILES IDX 24 25 25 26 26 28 27 29 28 30 89 31 29 32 88 33 30 34 31 35
REMARK SMILES IDX 32 36 82 37 33 38 87 39 81 40 83 41 34 42 86 43 80 44 79 45
REMARK SMILES IDX 35 47 67 48 47 49 66 50 48 51 51 52 65 53 84 54 49 55 50 56
REMARK SMILES IDX 64 58 85 59 52 60 36 61 37 62 45 63 38 64 44 65 46 66 43 67
REMARK SMILES IDX 39 68 40 69 41 70 42 71 68 72 69 73 77 74 70 75 76 76 78 77
REMARK SMILES IDX 75 78 71 79 72 80 73 81 74 82 53 83 54 84 62 85 55 86 61 87
REMARK SMILES IDX 63 88 60 89 56 90 57 91 58 92 59 93
REMARK H PARENT 17 7 24 27 83 46 51 57
REMARK Flexibility Score: inf
ROOT
ATOM      1  C   UNL A   1      33.362  28.099  25.632  1.00  0.00     0.002 C 
ENDROOT
BRANCH   1   2
ATOM      2  C   UNL A   1      32.444  27.261  26.533  1.00  0.00     0.021 C 
BRANCH   2   3
ATOM      3  C   UNL A   1      32.333  25.774  26.207  1.00  0.00     0.116 C 
BRANCH   3   4
ATOM      4  N   UNL A   1      31.009  25.233  26.428  1.00  0.00    -0.353 N 
ATOM      5  C   UNL A   1      30.664  23.999  26.886  1.00  0.00     0.257 C 
ATOM      6  O   UNL A   1      29.516  23.820  27.305  1.00  0.00    -0.271 OA
ATOM      7  H   UNL A   1      30.259  25.838  26.220  1.00  0.00     0.163 HD
BRANCH   5   8
ATOM      8  C   UNL A   1      31.709  22.877  26.951  1.00  0.00     0.329 C 
BRANCH   8   9
ATOM      9  O   UNL A   1      32.058  22.101  25.828  1.00  0.00    -0.483 OA
BRANCH   9  10
ATOM     10  C   UNL A   1      33.144  22.355  25.044  1.00  0.00     0.125 A 
ATOM     11  C   UNL A   1      35.087  21.277  26.381  1.00  0.00     0.048 C 
ATOM     12  C   UNL A   1      34.486  21.984  25.203  1.00  0.00    -0.009 A 
ATOM     13  C   UNL A   1      35.396  22.298  24.168  1.00  0.00     0.009 A 
ATOM     14  C   UNL A   1      35.024  23.060  23.063  1.00  0.00     0.029 A 
ATOM     15  C   UNL A   1      32.786  23.164  23.945  1.00  0.00     0.075 A 
ATOM     16  C   UNL A   1      33.721  23.542  22.972  1.00  0.00     0.072 A 
BRANCH  16  17
ATOM     17  N   UNL A   1      33.378  24.429  21.927  1.00  0.00    -0.200 N 
ATOM     18  C   UNL A   1      33.226  25.793  21.956  1.00  0.00     0.252 A 
ATOM     19  N   UNL A   1      33.236  24.024  20.645  1.00  0.00    -0.040 NA
ATOM     20  N   UNL A   1      32.986  26.230  20.742  1.00  0.00    -0.117 NA
ATOM     21  N   UNL A   1      32.979  25.118  19.942  1.00  0.00    -0.024 NA
ENDBRANCH  16  17
ENDBRANCH   9  10
ENDBRANCH   8   9
ENDBRANCH   5   8
ENDBRANCH   3   4
ENDBRANCH   2   3
ENDBRANCH   1   2
BRANCH   1  22
ATOM     22  C   UNL A   1      34.428  28.971  26.311  1.00  0.00     0.002 C 
BRANCH  22  23
ATOM     23  C   UNL A   1      33.991  29.783  27.530  1.00  0.00     0.021 C 
BRANCH  23  24
ATOM     24  C   UNL A   1      34.795  31.057  27.771  1.00  0.00     0.116 C 
BRANCH  24  25
ATOM     25  N   UNL A   1      34.007  32.180  28.264  1.00  0.00    -0.352 N 
ATOM     26  C   UNL A   1      34.320  33.087  29.267  1.00  0.00     0.251 C 
ATOM     27  H   UNL A   1      33.136  32.313  27.826  1.00  0.00     0.163 HD
ATOM     28  O   UNL A   1      33.541  33.957  29.608  1.00  0.00    -0.269 OA
BRANCH  26  29
ATOM     29  C   UNL A   1      35.696  33.070  29.830  1.00  0.00     0.039 A 
ATOM     30  C   UNL A   1      36.683  33.758  29.116  1.00  0.00     0.014 A 
ATOM     31  C   UNL A   1      36.049  32.212  30.868  1.00  0.00     0.014 A 
ATOM     32  C   UNL A   1      38.018  33.398  29.275  1.00  0.00     0.010 A 
ATOM     33  C   UNL A   1      37.361  31.789  30.965  1.00  0.00     0.010 A 
ATOM     34  C   UNL A   1      38.334  32.332  30.121  1.00  0.00    -0.014 A 
BRANCH  34  35
ATOM     35  C   UNL A   1      39.605  31.619  30.037  1.00  0.00     0.031 A 
ATOM     36  C   UNL A   1      39.705  30.293  29.401  1.00  0.00     0.074 A 
ATOM     37  C   UNL A   1      40.719  32.182  30.557  1.00  0.00     0.049 A 
ATOM     38  N   UNL A   1      40.533  29.376  29.777  1.00  0.00    -0.248 NA
ATOM     39  C   UNL A   1      38.852  29.887  28.291  1.00  0.00     0.031 C 
ATOM     40  C   UNL A   1      42.096  31.717  30.421  1.00  0.00     0.029 A 
ATOM     41  N   UNL A   1      40.783  33.175  31.528  1.00  0.00    -0.354 N 
ATOM     42  C   UNL A   1      40.527  28.397  28.812  1.00  0.00     0.074 A 
ATOM     43  C   UNL A   1      39.418  28.727  27.944  1.00  0.00     0.031 C 
ATOM     44  C   UNL A   1      42.822  32.218  31.432  1.00  0.00     0.029 A 
ATOM     45  C   UNL A   1      41.914  32.923  32.320  1.00  0.00     0.049 A 
ATOM     46  H   UNL A   1      40.149  33.921  31.640  1.00  0.00     0.167 HD
ATOM     47  C   UNL A   1      41.541  27.489  28.745  1.00  0.00     0.034 A 
ATOM     48  C   UNL A   1      41.791  32.713  33.663  1.00  0.00     0.034 A 
ATOM     49  C   UNL A   1      42.547  27.705  29.781  1.00  0.00     0.049 A 
ATOM     50  C   UNL A   1      42.247  31.337  34.102  1.00  0.00     0.074 A 
ATOM     51  C   UNL A   1      43.781  28.334  29.769  1.00  0.00     0.029 A 
ATOM     52  N   UNL A   1      42.218  27.508  31.117  1.00  0.00    -0.354 N 
ATOM     53  N   UNL A   1      42.494  30.351  33.284  1.00  0.00    -0.248 NA
ATOM     54  C   UNL A   1      42.430  30.956  35.499  1.00  0.00     0.031 C 
ATOM     55  C   UNL A   1      44.158  28.584  31.114  1.00  0.00     0.029 A 
ATOM     56  C   UNL A   1      43.172  28.074  31.942  1.00  0.00     0.049 A 
ATOM     57  H   UNL A   1      41.417  27.029  31.432  1.00  0.00     0.167 HD
ATOM     58  C   UNL A   1      42.808  29.224  34.000  1.00  0.00     0.074 A 
ATOM     59  C   UNL A   1      42.794  29.667  35.383  1.00  0.00     0.031 C 
ATOM     60  C   UNL A   1      43.031  28.019  33.391  1.00  0.00     0.034 A 
BRANCH  47  61
ATOM     61  C   UNL A   1      41.752  26.618  27.534  1.00  0.00     0.023 A 
ATOM     62  C   UNL A   1      41.545  25.227  27.618  1.00  0.00     0.031 A 
ATOM     63  C   UNL A   1      42.191  27.102  26.287  1.00  0.00     0.131 A 
ATOM     64  C   UNL A   1      41.867  24.376  26.544  1.00  0.00     0.055 A 
ATOM     65  C   UNL A   1      42.571  26.252  25.239  1.00  0.00     0.041 A 
ATOM     66  F   UNL A   1      42.252  28.419  26.036  1.00  0.00    -0.206 F 
ATOM     67  C   UNL A   1      42.423  24.878  25.370  1.00  0.00     0.022 A 
BRANCH  64  68
ATOM     68  S   UNL A   1      41.533  22.599  26.694  1.00  0.00     0.124 S 
ATOM     69  O   UNL A   1      42.271  22.242  27.901  1.00  0.00    -0.237 OA
ATOM     70  O   UNL A   1      40.078  22.567  26.794  1.00  0.00    -0.237 OA
ATOM     71  O   UNL A   1      42.076  22.046  25.453  1.00  0.00    -0.744 OA
ENDBRANCH  64  68
ENDBRANCH  47  61
BRANCH  48  72
ATOM     72  C   UNL A   1      40.691  33.510  34.280  1.00  0.00     0.023 A 
ATOM     73  C   UNL A   1      39.677  32.793  34.955  1.00  0.00     0.031 A 
ATOM     74  C   UNL A   1      40.817  34.878  34.555  1.00  0.00     0.131 A 
ATOM     75  C   UNL A   1      38.947  33.395  35.989  1.00  0.00     0.055 A 
ATOM     76  C   UNL A   1      40.032  35.495  35.540  1.00  0.00     0.041 A 
ATOM     77  F   UNL A   1      41.778  35.608  33.973  1.00  0.00    -0.206 F 
ATOM     78  C   UNL A   1      39.127  34.744  36.293  1.00  0.00     0.022 A 
BRANCH  75  79
ATOM     79  S   UNL A   1      37.978  32.340  37.110  1.00  0.00     0.124 S 
ATOM     80  O   UNL A   1      36.747  33.107  37.264  1.00  0.00    -0.237 OA
ATOM     81  O   UNL A   1      37.857  31.090  36.362  1.00  0.00    -0.237 OA
ATOM     82  O   UNL A   1      38.818  32.244  38.302  1.00  0.00    -0.744 OA
ENDBRANCH  75  79
ENDBRANCH  48  72
BRANCH  60  83
ATOM     83  C   UNL A   1      43.217  26.690  34.097  1.00  0.00     0.023 A 
ATOM     84  C   UNL A   1      44.438  26.003  34.143  1.00  0.00     0.031 A 
ATOM     85  C   UNL A   1      42.154  26.099  34.824  1.00  0.00     0.131 A 
ATOM     86  C   UNL A   1      44.551  24.760  34.794  1.00  0.00     0.055 A 
ATOM     87  C   UNL A   1      42.290  24.907  35.541  1.00  0.00     0.041 A 
ATOM     88  F   UNL A   1      40.935  26.657  34.872  1.00  0.00    -0.206 F 
ATOM     89  C   UNL A   1      43.491  24.217  35.515  1.00  0.00     0.022 A 
BRANCH  86  90
ATOM     90  S   UNL A   1      46.097  23.832  34.613  1.00  0.00     0.124 S 
ATOM     91  O   UNL A   1      46.615  23.844  35.979  1.00  0.00    -0.237 OA
ATOM     92  O   UNL A   1      45.632  22.539  34.124  1.00  0.00    -0.237 OA
ATOM     93  O   UNL A   1      46.865  24.623  33.653  1.00  0.00    -0.744 OA
ENDBRANCH  86  90
ENDBRANCH  60  83
ENDBRANCH  34  35
ENDBRANCH  26  29
ENDBRANCH  24  25
ENDBRANCH  23  24
ENDBRANCH  22  23
ENDBRANCH   1  22
TORSDOF 19
ENDMDL
