MODEL 1
REMARK VINA RESULT:     -11.6      0.000      0.000
REMARK SMILES C[NH+](C)Cc1ccccc1[C@H]1[NH2+][C@@H](C(=O)NCCCCCCNC(=O)c2ccc(-c3c4nc(c(-c5cc(S(=O)(=O)[O-])ccc5F)c5ccc([nH]5)c(-c5cc(S(=O)(=O)[O-])ccc5F)c5nc(c(-c6cc(S(=O)(=O)[O-])ccc6F)c6ccc3[nH]6)C=C5)C=C4)cc2)C(C)(C)S1
REMARK SMILES IDX 19 1 18 2 17 3 16 4 14 5 15 6 13 8 11 9 12 10 92 11 89 14
REMARK SMILES IDX 90 15 91 16 10 17 5 18 6 19 7 20 9 21 8 22 4 23 2 24 1 25
REMARK SMILES IDX 3 26 20 28 21 29 22 30 23 31 24 32 25 34 26 35 27 36 88 37
REMARK SMILES IDX 28 38 87 39 29 40 30 41 31 42 81 43 32 44 86 45 80 46 82 47
REMARK SMILES IDX 33 48 85 49 79 50 78 51 34 53 66 54 46 55 65 56 47 57 50 58
REMARK SMILES IDX 64 59 83 60 48 61 49 62 63 64 84 65 51 66 35 67 36 68 44 69
REMARK SMILES IDX 37 70 43 71 45 72 42 73 38 74 39 75 40 76 41 77 67 78 68 79
REMARK SMILES IDX 76 80 69 81 75 82 77 83 74 84 70 85 71 86 72 87 73 88 52 89
REMARK SMILES IDX 53 90 61 91 54 92 60 93 62 94 59 95 55 96 56 97 57 98 58 99
REMARK H PARENT 16 7 12 12 12 13 2 27 23 33 82 52 50 63
REMARK Flexibility Score: inf
ROOT
ATOM      1  C   UNL A   1      32.766  29.836  27.207  1.00  0.00     0.002 C 
ENDROOT
BRANCH   1   2
ATOM      2  C   UNL A   1      33.451  29.108  26.046  1.00  0.00     0.021 C 
BRANCH   2   3
ATOM      3  C   UNL A   1      32.871  29.397  24.664  1.00  0.00     0.116 C 
BRANCH   3   4
ATOM      4  N   UNL A   1      33.678  29.091  23.514  1.00  0.00    -0.351 N 
ATOM      5  C   UNL A   1      33.676  27.931  22.784  1.00  0.00     0.279 C 
ATOM      6  O   UNL A   1      34.117  28.023  21.628  1.00  0.00    -0.268 OA
ATOM      7  H   UNL A   1      34.302  29.793  23.217  1.00  0.00     0.163 HD
BRANCH   5   8
ATOM      8  C   UNL A   1      33.268  26.519  23.321  1.00  0.00     0.289 C 
ATOM      9  C   UNL A   1      33.783  24.279  24.015  1.00  0.00     0.275 C 
ATOM     10  N   UNL A   1      34.402  25.559  23.582  1.00  0.00    -0.320 N 
ATOM     11  S   UNL A   1      32.239  24.059  23.063  1.00  0.00    -0.081 SA
ATOM     12  H   UNL A   1      34.946  25.417  22.732  1.00  0.00     0.348 HD
ATOM     13  H   UNL A   1      35.033  25.922  24.297  1.00  0.00     0.348 HD
ATOM     14  C   UNL A   1      32.108  25.844  22.537  1.00  0.00     0.077 C 
ATOM     15  C   UNL A   1      32.121  25.940  21.002  1.00  0.00     0.030 C 
ATOM     16  C   UNL A   1      30.756  26.440  22.977  1.00  0.00     0.030 C 
BRANCH   9  17
ATOM     17  C   UNL A   1      34.649  23.002  24.322  1.00  0.00     0.029 A 
ATOM     18  C   UNL A   1      34.378  21.729  24.930  1.00  0.00     0.016 A 
ATOM     19  C   UNL A   1      35.449  20.787  25.113  1.00  0.00     0.010 A 
ATOM     20  C   UNL A   1      36.740  21.001  24.680  1.00  0.00     0.001 A 
ATOM     21  C   UNL A   1      36.015  23.167  23.912  1.00  0.00     0.011 A 
ATOM     22  C   UNL A   1      37.022  22.197  24.067  1.00  0.00     0.001 A 
BRANCH  18  23
ATOM     23  C   UNL A   1      33.129  21.049  25.484  1.00  0.00     0.299 C 
BRANCH  23  24
ATOM     24  N   UNL A   1      32.400  21.633  26.574  1.00  0.00    -0.336 N 
ATOM     25  C   UNL A   1      33.337  22.189  27.514  1.00  0.00     0.332 C 
ATOM     26  C   UNL A   1      31.250  22.375  26.082  1.00  0.00     0.332 C 
ATOM     27  H   UNL A   1      31.905  20.972  27.173  1.00  0.00     0.347 HD
ENDBRANCH  23  24
ENDBRANCH  18  23
ENDBRANCH   9  17
ENDBRANCH   5   8
ENDBRANCH   3   4
ENDBRANCH   2   3
ENDBRANCH   1   2
BRANCH   1  28
ATOM     28  C   UNL A   1      31.421  30.515  26.903  1.00  0.00     0.002 C 
BRANCH  28  29
ATOM     29  C   UNL A   1      31.404  32.045  26.842  1.00  0.00     0.021 C 
BRANCH  29  30
ATOM     30  C   UNL A   1      32.727  32.751  27.124  1.00  0.00     0.116 C 
BRANCH  30  31
ATOM     31  N   UNL A   1      32.542  34.103  27.628  1.00  0.00    -0.352 N 
ATOM     32  C   UNL A   1      33.134  34.742  28.684  1.00  0.00     0.251 C 
ATOM     33  H   UNL A   1      31.886  34.645  27.130  1.00  0.00     0.163 HD
ATOM     34  O   UNL A   1      32.687  35.840  29.046  1.00  0.00    -0.269 OA
BRANCH  32  35
ATOM     35  C   UNL A   1      34.279  34.143  29.401  1.00  0.00     0.039 A 
ATOM     36  C   UNL A   1      34.029  33.244  30.443  1.00  0.00     0.014 A 
ATOM     37  C   UNL A   1      35.596  34.494  29.089  1.00  0.00     0.014 A 
ATOM     38  C   UNL A   1      35.095  32.667  31.139  1.00  0.00     0.010 A 
ATOM     39  C   UNL A   1      36.658  33.861  29.733  1.00  0.00     0.010 A 
ATOM     40  C   UNL A   1      36.421  32.951  30.775  1.00  0.00    -0.014 A 
BRANCH  40  41
ATOM     41  C   UNL A   1      37.569  32.338  31.495  1.00  0.00     0.031 A 
ATOM     42  C   UNL A   1      38.324  31.196  30.866  1.00  0.00     0.074 A 
ATOM     43  C   UNL A   1      37.903  32.774  32.726  1.00  0.00     0.049 A 
ATOM     44  N   UNL A   1      39.299  30.475  31.359  1.00  0.00    -0.248 NA
ATOM     45  C   UNL A   1      37.907  30.796  29.514  1.00  0.00     0.031 C 
ATOM     46  C   UNL A   1      37.230  33.855  33.449  1.00  0.00     0.029 A 
ATOM     47  N   UNL A   1      38.885  32.359  33.591  1.00  0.00    -0.354 N 
ATOM     48  C   UNL A   1      39.603  29.529  30.384  1.00  0.00     0.074 A 
ATOM     49  C   UNL A   1      38.663  29.729  29.301  1.00  0.00     0.031 C 
ATOM     50  C   UNL A   1      37.837  34.036  34.634  1.00  0.00     0.029 A 
ATOM     51  C   UNL A   1      38.906  33.052  34.780  1.00  0.00     0.049 A 
ATOM     52  H   UNL A   1      39.516  31.634  33.381  1.00  0.00     0.167 HD
ATOM     53  C   UNL A   1      40.590  28.598  30.380  1.00  0.00     0.034 A 
ATOM     54  C   UNL A   1      39.687  32.903  35.869  1.00  0.00     0.034 A 
ATOM     55  C   UNL A   1      41.525  28.420  31.463  1.00  0.00     0.049 A 
ATOM     56  C   UNL A   1      40.754  31.834  35.857  1.00  0.00     0.074 A 
ATOM     57  C   UNL A   1      42.586  27.535  31.550  1.00  0.00     0.029 A 
ATOM     58  N   UNL A   1      41.512  29.139  32.653  1.00  0.00    -0.354 N 
ATOM     59  N   UNL A   1      41.051  30.972  34.911  1.00  0.00    -0.248 NA
ATOM     60  C   UNL A   1      41.599  31.728  37.052  1.00  0.00     0.031 C 
ATOM     61  C   UNL A   1      43.166  27.668  32.816  1.00  0.00     0.029 A 
ATOM     62  C   UNL A   1      42.527  28.696  33.487  1.00  0.00     0.049 A 
ATOM     63  H   UNL A   1      40.875  29.857  32.871  1.00  0.00     0.167 HD
ATOM     64  C   UNL A   1      42.146  30.252  35.383  1.00  0.00     0.074 A 
ATOM     65  C   UNL A   1      42.462  30.790  36.690  1.00  0.00     0.031 C 
ATOM     66  C   UNL A   1      42.833  29.243  34.789  1.00  0.00     0.034 A 
BRANCH  53  67
ATOM     67  C   UNL A   1      40.686  27.690  29.176  1.00  0.00     0.023 A 
ATOM     68  C   UNL A   1      41.611  27.928  28.143  1.00  0.00     0.031 A 
ATOM     69  C   UNL A   1      39.831  26.581  29.047  1.00  0.00     0.131 A 
ATOM     70  C   UNL A   1      41.607  27.118  26.996  1.00  0.00     0.055 A 
ATOM     71  C   UNL A   1      39.892  25.727  27.943  1.00  0.00     0.041 A 
ATOM     72  F   UNL A   1      38.913  26.313  29.988  1.00  0.00    -0.206 F 
ATOM     73  C   UNL A   1      40.772  26.002  26.902  1.00  0.00     0.022 A 
BRANCH  70  74
ATOM     74  S   UNL A   1      42.603  27.631  25.571  1.00  0.00     0.124 S 
ATOM     75  O   UNL A   1      43.937  27.716  26.159  1.00  0.00    -0.237 OA
ATOM     76  O   UNL A   1      42.389  26.540  24.626  1.00  0.00    -0.237 OA
ATOM     77  O   UNL A   1      42.016  28.914  25.187  1.00  0.00    -0.744 OA
ENDBRANCH  70  74
ENDBRANCH  53  67
BRANCH  54  78
ATOM     78  C   UNL A   1      39.497  33.771  37.068  1.00  0.00     0.023 A 
ATOM     79  C   UNL A   1      38.877  33.278  38.227  1.00  0.00     0.031 A 
ATOM     80  C   UNL A   1      39.876  35.126  37.052  1.00  0.00     0.131 A 
ATOM     81  C   UNL A   1      38.599  34.144  39.297  1.00  0.00     0.055 A 
ATOM     82  C   UNL A   1      39.655  35.968  38.144  1.00  0.00     0.041 A 
ATOM     83  F   UNL A   1      40.474  35.653  35.972  1.00  0.00    -0.206 F 
ATOM     84  C   UNL A   1      38.997  35.481  39.269  1.00  0.00     0.022 A 
BRANCH  81  85
ATOM     85  S   UNL A   1      37.606  33.521  40.681  1.00  0.00     0.124 S 
ATOM     86  O   UNL A   1      38.470  32.475  41.217  1.00  0.00    -0.237 OA
ATOM     87  O   UNL A   1      37.454  34.714  41.506  1.00  0.00    -0.237 OA
ATOM     88  O   UNL A   1      36.382  33.050  40.036  1.00  0.00    -0.744 OA
ENDBRANCH  81  85
ENDBRANCH  54  78
BRANCH  66  89
ATOM     89  C   UNL A   1      44.036  28.702  35.524  1.00  0.00     0.023 A 
ATOM     90  C   UNL A   1      43.941  27.622  36.419  1.00  0.00     0.031 A 
ATOM     91  C   UNL A   1      45.301  29.287  35.327  1.00  0.00     0.131 A 
ATOM     92  C   UNL A   1      45.075  27.201  37.129  1.00  0.00     0.055 A 
ATOM     93  C   UNL A   1      46.438  28.820  35.986  1.00  0.00     0.041 A 
ATOM     94  F   UNL A   1      45.451  30.324  34.487  1.00  0.00    -0.206 F 
ATOM     95  C   UNL A   1      46.327  27.780  36.903  1.00  0.00     0.022 A 
BRANCH  92  96
ATOM     96  S   UNL A   1      44.876  25.952  38.429  1.00  0.00     0.124 S 
ATOM     97  O   UNL A   1      44.003  24.977  37.783  1.00  0.00    -0.237 OA
ATOM     98  O   UNL A   1      46.250  25.521  38.661  1.00  0.00    -0.237 OA
ATOM     99  O   UNL A   1      44.266  26.697  39.530  1.00  0.00    -0.744 OA
ENDBRANCH  92  96
ENDBRANCH  66  89
ENDBRANCH  40  41
ENDBRANCH  32  35
ENDBRANCH  30  31
ENDBRANCH  29  30
ENDBRANCH  28  29
ENDBRANCH   1  28
TORSDOF 19
ENDMDL
MODEL 2
REMARK VINA RESULT:     -11.5      0.917      1.526
REMARK SMILES C[NH+](C)Cc1ccccc1[C@H]1[NH2+][C@@H](C(=O)NCCCCCCNC(=O)c2ccc(-c3c4nc(c(-c5cc(S(=O)(=O)[O-])ccc5F)c5ccc([nH]5)c(-c5cc(S(=O)(=O)[O-])ccc5F)c5nc(c(-c6cc(S(=O)(=O)[O-])ccc6F)c6ccc3[nH]6)C=C5)C=C4)cc2)C(C)(C)S1
REMARK SMILES IDX 19 1 18 2 17 3 16 4 14 5 15 6 13 8 11 9 12 10 92 11 89 14
REMARK SMILES IDX 90 15 91 16 10 17 5 18 6 19 7 20 9 21 8 22 4 23 2 24 1 25
REMARK SMILES IDX 3 26 20 28 21 29 22 30 23 31 24 32 25 34 26 35 27 36 88 37
REMARK SMILES IDX 28 38 87 39 29 40 30 41 31 42 81 43 32 44 86 45 80 46 82 47
REMARK SMILES IDX 33 48 85 49 79 50 78 51 34 53 66 54 46 55 65 56 47 57 50 58
REMARK SMILES IDX 64 59 83 60 48 61 49 62 63 64 84 65 51 66 35 67 36 68 44 69
REMARK SMILES IDX 37 70 43 71 45 72 42 73 38 74 39 75 40 76 41 77 67 78 68 79
REMARK SMILES IDX 76 80 69 81 75 82 77 83 74 84 70 85 71 86 72 87 73 88 52 89
REMARK SMILES IDX 53 90 61 91 54 92 60 93 62 94 59 95 55 96 56 97 57 98 58 99
REMARK H PARENT 16 7 12 12 12 13 2 27 23 33 82 52 50 63
REMARK Flexibility Score: inf
ROOT
ATOM      1  C   UNL A   1      33.292  29.543  27.132  1.00  0.00     0.002 C 
ENDROOT
BRANCH   1   2
ATOM      2  C   UNL A   1      33.942  28.814  25.951  1.00  0.00     0.021 C 
BRANCH   2   3
ATOM      3  C   UNL A   1      33.246  29.006  24.605  1.00  0.00     0.116 C 
BRANCH   3   4
ATOM      4  N   UNL A   1      33.797  28.338  23.457  1.00  0.00    -0.351 N 
ATOM      5  C   UNL A   1      33.527  27.064  23.029  1.00  0.00     0.279 C 
ATOM      6  O   UNL A   1      33.768  26.837  21.834  1.00  0.00    -0.268 OA
ATOM      7  H   UNL A   1      34.441  28.853  22.918  1.00  0.00     0.163 HD
BRANCH   5   8
ATOM      8  C   UNL A   1      33.050  25.882  23.937  1.00  0.00     0.289 C 
ATOM      9  C   UNL A   1      33.085  23.581  24.623  1.00  0.00     0.275 C 
ATOM     10  N   UNL A   1      33.737  24.558  23.712  1.00  0.00    -0.320 N 
ATOM     11  S   UNL A   1      31.307  23.997  24.702  1.00  0.00    -0.081 SA
ATOM     12  H   UNL A   1      33.624  24.263  22.742  1.00  0.00     0.348 HD
ATOM     13  H   UNL A   1      34.737  24.626  23.900  1.00  0.00     0.348 HD
ATOM     14  C   UNL A   1      31.507  25.725  24.028  1.00  0.00     0.077 C 
ATOM     15  C   UNL A   1      30.686  25.881  22.737  1.00  0.00     0.030 C 
ATOM     16  C   UNL A   1      30.927  26.760  25.013  1.00  0.00     0.030 C 
BRANCH   9  17
ATOM     17  C   UNL A   1      33.489  22.061  24.634  1.00  0.00     0.029 A 
ATOM     18  C   UNL A   1      34.638  21.332  25.094  1.00  0.00     0.016 A 
ATOM     19  C   UNL A   1      34.707  19.911  24.886  1.00  0.00     0.010 A 
ATOM     20  C   UNL A   1      33.695  19.170  24.315  1.00  0.00     0.001 A 
ATOM     21  C   UNL A   1      32.482  21.233  24.033  1.00  0.00     0.011 A 
ATOM     22  C   UNL A   1      32.570  19.836  23.894  1.00  0.00     0.001 A 
BRANCH  18  23
ATOM     23  C   UNL A   1      35.928  21.708  25.818  1.00  0.00     0.299 C 
BRANCH  23  24
ATOM     24  N   UNL A   1      37.008  22.336  25.110  1.00  0.00    -0.336 N 
ATOM     25  C   UNL A   1      38.253  21.796  25.587  1.00  0.00     0.332 C 
ATOM     26  C   UNL A   1      36.694  22.450  23.694  1.00  0.00     0.332 C 
ATOM     27  H   UNL A   1      37.144  23.327  25.312  1.00  0.00     0.347 HD
ENDBRANCH  23  24
ENDBRANCH  18  23
ENDBRANCH   9  17
ENDBRANCH   5   8
ENDBRANCH   3   4
ENDBRANCH   2   3
ENDBRANCH   1   2
BRANCH   1  28
ATOM     28  C   UNL A   1      31.865  30.075  26.919  1.00  0.00     0.002 C 
BRANCH  28  29
ATOM     29  C   UNL A   1      31.682  31.594  26.863  1.00  0.00     0.021 C 
BRANCH  29  30
ATOM     30  C   UNL A   1      32.950  32.436  26.972  1.00  0.00     0.116 C 
BRANCH  30  31
ATOM     31  N   UNL A   1      32.698  33.756  27.529  1.00  0.00    -0.352 N 
ATOM     32  C   UNL A   1      33.253  34.377  28.615  1.00  0.00     0.251 C 
ATOM     33  H   UNL A   1      32.022  34.286  27.048  1.00  0.00     0.163 HD
ATOM     34  O   UNL A   1      32.751  35.437  29.018  1.00  0.00    -0.269 OA
BRANCH  32  35
ATOM     35  C   UNL A   1      34.418  33.802  29.318  1.00  0.00     0.039 A 
ATOM     36  C   UNL A   1      34.203  32.855  30.325  1.00  0.00     0.014 A 
ATOM     37  C   UNL A   1      35.720  34.222  29.028  1.00  0.00     0.014 A 
ATOM     38  C   UNL A   1      35.289  32.300  31.007  1.00  0.00     0.010 A 
ATOM     39  C   UNL A   1      36.806  33.613  29.656  1.00  0.00     0.010 A 
ATOM     40  C   UNL A   1      36.603  32.656  30.662  1.00  0.00    -0.014 A 
BRANCH  40  41
ATOM     41  C   UNL A   1      37.773  32.067  31.368  1.00  0.00     0.031 A 
ATOM     42  C   UNL A   1      38.555  30.953  30.721  1.00  0.00     0.074 A 
ATOM     43  C   UNL A   1      38.104  32.499  32.601  1.00  0.00     0.049 A 
ATOM     44  N   UNL A   1      39.553  30.254  31.199  1.00  0.00    -0.248 NA
ATOM     45  C   UNL A   1      38.139  30.556  29.368  1.00  0.00     0.031 C 
ATOM     46  C   UNL A   1      37.408  33.554  33.340  1.00  0.00     0.029 A 
ATOM     47  N   UNL A   1      39.104  32.103  33.454  1.00  0.00    -0.354 N 
ATOM     48  C   UNL A   1      39.876  29.328  30.212  1.00  0.00     0.074 A 
ATOM     49  C   UNL A   1      38.922  29.512  29.138  1.00  0.00     0.031 C 
ATOM     50  C   UNL A   1      38.018  33.739  34.523  1.00  0.00     0.029 A 
ATOM     51  C   UNL A   1      39.115  32.784  34.651  1.00  0.00     0.049 A 
ATOM     52  H   UNL A   1      39.754  31.398  33.232  1.00  0.00     0.167 HD
ATOM     53  C   UNL A   1      40.888  28.425  30.191  1.00  0.00     0.034 A 
ATOM     54  C   UNL A   1      39.908  32.645  35.732  1.00  0.00     0.034 A 
ATOM     55  C   UNL A   1      41.836  28.262  31.265  1.00  0.00     0.049 A 
ATOM     56  C   UNL A   1      41.004  31.606  35.700  1.00  0.00     0.074 A 
ATOM     57  C   UNL A   1      42.922  27.405  31.335  1.00  0.00     0.029 A 
ATOM     58  N   UNL A   1      41.812  28.967  32.463  1.00  0.00    -0.354 N 
ATOM     59  N   UNL A   1      41.318  30.763  34.743  1.00  0.00    -0.248 NA
ATOM     60  C   UNL A   1      41.861  31.512  36.889  1.00  0.00     0.031 C 
ATOM     61  C   UNL A   1      43.508  27.541  32.598  1.00  0.00     0.029 A 
ATOM     62  C   UNL A   1      42.846  28.544  33.285  1.00  0.00     0.049 A 
ATOM     63  H   UNL A   1      41.157  29.665  32.693  1.00  0.00     0.167 HD
ATOM     64  C   UNL A   1      42.436  30.069  35.200  1.00  0.00     0.074 A 
ATOM     65  C   UNL A   1      42.746  30.602  36.511  1.00  0.00     0.031 C 
ATOM     66  C   UNL A   1      43.145  29.086  34.590  1.00  0.00     0.034 A 
BRANCH  53  67
ATOM     67  C   UNL A   1      41.001  27.532  28.977  1.00  0.00     0.023 A 
ATOM     68  C   UNL A   1      42.007  27.720  28.012  1.00  0.00     0.031 A 
ATOM     69  C   UNL A   1      40.080  26.489  28.768  1.00  0.00     0.131 A 
ATOM     70  C   UNL A   1      42.023  26.932  26.851  1.00  0.00     0.055 A 
ATOM     71  C   UNL A   1      40.154  25.652  27.653  1.00  0.00     0.041 A 
ATOM     72  F   UNL A   1      39.084  26.272  29.642  1.00  0.00    -0.206 F 
ATOM     73  C   UNL A   1      41.120  25.881  26.678  1.00  0.00     0.022 A 
BRANCH  70  74
ATOM     74  S   UNL A   1      43.146  27.396  25.504  1.00  0.00     0.124 S 
ATOM     75  O   UNL A   1      44.186  28.124  26.226  1.00  0.00    -0.237 OA
ATOM     76  O   UNL A   1      43.534  26.102  24.956  1.00  0.00    -0.237 OA
ATOM     77  O   UNL A   1      42.311  28.220  24.631  1.00  0.00    -0.744 OA
ENDBRANCH  70  74
ENDBRANCH  53  67
BRANCH  54  78
ATOM     78  C   UNL A   1      39.703  33.495  36.942  1.00  0.00     0.023 A 
ATOM     79  C   UNL A   1      39.089  32.978  38.093  1.00  0.00     0.031 A 
ATOM     80  C   UNL A   1      40.061  34.855  36.943  1.00  0.00     0.131 A 
ATOM     81  C   UNL A   1      38.796  33.826  39.173  1.00  0.00     0.055 A 
ATOM     82  C   UNL A   1      39.826  35.681  38.045  1.00  0.00     0.041 A 
ATOM     83  F   UNL A   1      40.653  35.405  35.871  1.00  0.00    -0.206 F 
ATOM     84  C   UNL A   1      39.174  35.170  39.163  1.00  0.00     0.022 A 
BRANCH  81  85
ATOM     85  S   UNL A   1      37.811  33.171  40.548  1.00  0.00     0.124 S 
ATOM     86  O   UNL A   1      38.582  31.992  40.929  1.00  0.00    -0.237 OA
ATOM     87  O   UNL A   1      37.830  34.283  41.491  1.00  0.00    -0.237 OA
ATOM     88  O   UNL A   1      36.513  32.897  39.935  1.00  0.00    -0.744 OA
ENDBRANCH  81  85
ENDBRANCH  54  78
BRANCH  66  89
ATOM     89  C   UNL A   1      44.369  28.570  35.311  1.00  0.00     0.023 A 
ATOM     90  C   UNL A   1      44.288  27.584  36.309  1.00  0.00     0.031 A 
ATOM     91  C   UNL A   1      45.639  29.085  34.994  1.00  0.00     0.131 A 
ATOM     92  C   UNL A   1      45.445  27.188  36.997  1.00  0.00     0.055 A 
ATOM     93  C   UNL A   1      46.795  28.639  35.634  1.00  0.00     0.041 A 
ATOM     94  F   UNL A   1      45.778  30.032  34.051  1.00  0.00    -0.206 F 
ATOM     95  C   UNL A   1      46.701  27.696  36.652  1.00  0.00     0.022 A 
BRANCH  92  96
ATOM     96  S   UNL A   1      45.276  26.076  38.420  1.00  0.00     0.124 S 
ATOM     97  O   UNL A   1      46.532  26.297  39.128  1.00  0.00    -0.237 OA
ATOM     98  O   UNL A   1      44.077  26.589  39.075  1.00  0.00    -0.237 OA
ATOM     99  O   UNL A   1      45.131  24.756  37.808  1.00  0.00    -0.744 OA
ENDBRANCH  92  96
ENDBRANCH  66  89
ENDBRANCH  40  41
ENDBRANCH  32  35
ENDBRANCH  30  31
ENDBRANCH  29  30
ENDBRANCH  28  29
ENDBRANCH   1  28
TORSDOF 19
ENDMDL
MODEL 3
REMARK VINA RESULT:     -11.4      3.252      8.466
REMARK SMILES C[NH+](C)Cc1ccccc1[C@H]1[NH2+][C@@H](C(=O)NCCCCCCNC(=O)c2ccc(-c3c4nc(c(-c5cc(S(=O)(=O)[O-])ccc5F)c5ccc([nH]5)c(-c5cc(S(=O)(=O)[O-])ccc5F)c5nc(c(-c6cc(S(=O)(=O)[O-])ccc6F)c6ccc3[nH]6)C=C5)C=C4)cc2)C(C)(C)S1
REMARK SMILES IDX 19 1 18 2 17 3 16 4 14 5 15 6 13 8 11 9 12 10 92 11 89 14
REMARK SMILES IDX 90 15 91 16 10 17 5 18 6 19 7 20 9 21 8 22 4 23 2 24 1 25
REMARK SMILES IDX 3 26 20 28 21 29 22 30 23 31 24 32 25 34 26 35 27 36 88 37
REMARK SMILES IDX 28 38 87 39 29 40 30 41 31 42 81 43 32 44 86 45 80 46 82 47
REMARK SMILES IDX 33 48 85 49 79 50 78 51 34 53 66 54 46 55 65 56 47 57 50 58
REMARK SMILES IDX 64 59 83 60 48 61 49 62 63 64 84 65 51 66 35 67 36 68 44 69
REMARK SMILES IDX 37 70 43 71 45 72 42 73 38 74 39 75 40 76 41 77 67 78 68 79
REMARK SMILES IDX 76 80 69 81 75 82 77 83 74 84 70 85 71 86 72 87 73 88 52 89
REMARK SMILES IDX 53 90 61 91 54 92 60 93 62 94 59 95 55 96 56 97 57 98 58 99
REMARK H PARENT 16 7 12 12 12 13 2 27 23 33 82 52 50 63
REMARK Flexibility Score: inf
ROOT
ATOM      1  C   UNL A   1      30.416  29.804  24.104  1.00  0.00     0.002 C 
ENDROOT
BRANCH   1   2
ATOM      2  C   UNL A   1      30.791  28.784  23.025  1.00  0.00     0.021 C 
BRANCH   2   3
ATOM      3  C   UNL A   1      30.096  27.428  23.141  1.00  0.00     0.116 C 
BRANCH   3   4
ATOM      4  N   UNL A   1      30.074  26.788  24.429  1.00  0.00    -0.351 N 
ATOM      5  C   UNL A   1      30.931  25.823  24.891  1.00  0.00     0.279 C 
ATOM      6  O   UNL A   1      31.002  25.714  26.124  1.00  0.00    -0.268 OA
ATOM      7  H   UNL A   1      29.364  27.075  25.048  1.00  0.00     0.163 HD
BRANCH   5   8
ATOM      8  C   UNL A   1      31.724  24.810  24.000  1.00  0.00     0.289 C 
ATOM      9  C   UNL A   1      32.427  22.588  23.420  1.00  0.00     0.275 C 
ATOM     10  N   UNL A   1      31.540  23.351  24.336  1.00  0.00    -0.320 N 
ATOM     11  S   UNL A   1      33.953  23.568  23.182  1.00  0.00    -0.081 SA
ATOM     12  H   UNL A   1      31.803  23.177  25.306  1.00  0.00     0.348 HD
ATOM     13  H   UNL A   1      30.566  23.068  24.225  1.00  0.00     0.348 HD
ATOM     14  C   UNL A   1      33.221  25.171  23.794  1.00  0.00     0.077 C 
ATOM     15  C   UNL A   1      34.017  25.679  25.009  1.00  0.00     0.030 C 
ATOM     16  C   UNL A   1      33.358  26.271  22.722  1.00  0.00     0.030 C 
BRANCH   9  17
ATOM     17  C   UNL A   1      32.561  21.024  23.507  1.00  0.00     0.029 A 
ATOM     18  C   UNL A   1      33.053  20.113  24.503  1.00  0.00     0.016 A 
ATOM     19  C   UNL A   1      33.086  18.704  24.222  1.00  0.00     0.010 A 
ATOM     20  C   UNL A   1      32.610  18.143  23.056  1.00  0.00     0.001 A 
ATOM     21  C   UNL A   1      32.099  20.377  22.311  1.00  0.00     0.011 A 
ATOM     22  C   UNL A   1      32.105  18.986  22.098  1.00  0.00     0.001 A 
BRANCH  18  23
ATOM     23  C   UNL A   1      33.600  20.266  25.920  1.00  0.00     0.299 C 
BRANCH  23  24
ATOM     24  N   UNL A   1      34.169  21.511  26.354  1.00  0.00    -0.336 N 
ATOM     25  C   UNL A   1      33.614  21.855  27.635  1.00  0.00     0.332 C 
ATOM     26  C   UNL A   1      35.599  21.541  26.086  1.00  0.00     0.332 C 
ATOM     27  H   UNL A   1      33.899  22.328  25.808  1.00  0.00     0.347 HD
ENDBRANCH  23  24
ENDBRANCH  18  23
ENDBRANCH   9  17
ENDBRANCH   5   8
ENDBRANCH   3   4
ENDBRANCH   2   3
ENDBRANCH   1   2
BRANCH   1  28
ATOM     28  C   UNL A   1      31.423  30.006  25.248  1.00  0.00     0.002 C 
BRANCH  28  29
ATOM     29  C   UNL A   1      32.737  29.223  25.174  1.00  0.00     0.021 C 
BRANCH  29  30
ATOM     30  C   UNL A   1      33.739  29.472  26.298  1.00  0.00     0.116 C 
BRANCH  30  31
ATOM     31  N   UNL A   1      33.627  30.809  26.860  1.00  0.00    -0.352 N 
ATOM     32  C   UNL A   1      34.379  31.430  27.820  1.00  0.00     0.251 C 
ATOM     33  H   UNL A   1      32.895  31.354  26.490  1.00  0.00     0.163 HD
ATOM     34  O   UNL A   1      33.988  32.513  28.279  1.00  0.00    -0.269 OA
BRANCH  32  35
ATOM     35  C   UNL A   1      35.631  30.828  28.325  1.00  0.00     0.039 A 
ATOM     36  C   UNL A   1      36.855  31.356  27.902  1.00  0.00     0.014 A 
ATOM     37  C   UNL A   1      35.611  29.717  29.174  1.00  0.00     0.014 A 
ATOM     38  C   UNL A   1      38.052  30.801  28.363  1.00  0.00     0.010 A 
ATOM     39  C   UNL A   1      36.804  29.213  29.691  1.00  0.00     0.010 A 
ATOM     40  C   UNL A   1      38.038  29.739  29.281  1.00  0.00    -0.014 A 
BRANCH  40  41
ATOM     41  C   UNL A   1      39.302  29.143  29.793  1.00  0.00     0.031 A 
ATOM     42  C   UNL A   1      39.992  29.757  30.983  1.00  0.00     0.074 A 
ATOM     43  C   UNL A   1      39.850  28.083  29.165  1.00  0.00     0.049 A 
ATOM     44  N   UNL A   1      41.137  29.440  31.532  1.00  0.00    -0.248 NA
ATOM     45  C   UNL A   1      39.317  30.898  31.619  1.00  0.00     0.031 C 
ATOM     46  C   UNL A   1      39.287  27.417  27.988  1.00  0.00     0.029 A 
ATOM     47  N   UNL A   1      41.003  27.384  29.421  1.00  0.00    -0.354 N 
ATOM     48  C   UNL A   1      41.325  30.348  32.570  1.00  0.00     0.074 A 
ATOM     49  C   UNL A   1      40.207  31.269  32.528  1.00  0.00     0.031 C 
ATOM     50  C   UNL A   1      40.082  26.390  27.642  1.00  0.00     0.029 A 
ATOM     51  C   UNL A   1      41.236  26.355  28.537  1.00  0.00     0.049 A 
ATOM     52  H   UNL A   1      41.607  27.598  30.168  1.00  0.00     0.167 HD
ATOM     53  C   UNL A   1      42.321  30.396  33.489  1.00  0.00     0.034 A 
ATOM     54  C   UNL A   1      42.267  25.491  28.448  1.00  0.00     0.034 A 
ATOM     55  C   UNL A   1      43.421  29.464  33.524  1.00  0.00     0.049 A 
ATOM     56  C   UNL A   1      43.385  25.588  29.459  1.00  0.00     0.074 A 
ATOM     57  C   UNL A   1      44.466  29.395  34.431  1.00  0.00     0.029 A 
ATOM     58  N   UNL A   1      43.625  28.437  32.609  1.00  0.00    -0.354 N 
ATOM     59  N   UNL A   1      43.528  26.431  30.457  1.00  0.00    -0.248 NA
ATOM     60  C   UNL A   1      44.472  24.608  29.341  1.00  0.00     0.031 C 
ATOM     61  C   UNL A   1      45.335  28.378  34.023  1.00  0.00     0.029 A 
ATOM     62  C   UNL A   1      44.791  27.751  32.915  1.00  0.00     0.049 A 
ATOM     63  H   UNL A   1      43.029  28.228  31.855  1.00  0.00     0.167 HD
ATOM     64  C   UNL A   1      44.699  26.051  31.109  1.00  0.00     0.074 A 
ATOM     65  C   UNL A   1      45.214  24.900  30.398  1.00  0.00     0.031 C 
ATOM     66  C   UNL A   1      45.292  26.602  32.199  1.00  0.00     0.034 A 
BRANCH  53  67
ATOM     67  C   UNL A   1      42.274  31.506  34.513  1.00  0.00     0.023 A 
ATOM     68  C   UNL A   1      41.340  31.502  35.565  1.00  0.00     0.031 A 
ATOM     69  C   UNL A   1      43.160  32.595  34.428  1.00  0.00     0.131 A 
ATOM     70  C   UNL A   1      41.264  32.597  36.441  1.00  0.00     0.055 A 
ATOM     71  C   UNL A   1      43.136  33.640  35.354  1.00  0.00     0.041 A 
ATOM     72  F   UNL A   1      44.059  32.668  33.434  1.00  0.00    -0.206 F 
ATOM     73  C   UNL A   1      42.174  33.653  36.359  1.00  0.00     0.022 A 
BRANCH  70  74
ATOM     74  S   UNL A   1      39.865  32.689  37.591  1.00  0.00     0.124 S 
ATOM     75  O   UNL A   1      40.533  32.535  38.880  1.00  0.00    -0.237 OA
ATOM     76  O   UNL A   1      39.312  34.010  37.312  1.00  0.00    -0.237 OA
ATOM     77  O   UNL A   1      39.022  31.562  37.195  1.00  0.00    -0.744 OA
ENDBRANCH  70  74
ENDBRANCH  53  67
BRANCH  54  78
ATOM     78  C   UNL A   1      42.310  24.463  27.366  1.00  0.00     0.023 A 
ATOM     79  C   UNL A   1      41.638  23.239  27.505  1.00  0.00     0.031 A 
ATOM     80  C   UNL A   1      43.076  24.663  26.204  1.00  0.00     0.131 A 
ATOM     81  C   UNL A   1      41.792  22.240  26.530  1.00  0.00     0.055 A 
ATOM     82  C   UNL A   1      43.175  23.691  25.207  1.00  0.00     0.041 A 
ATOM     83  F   UNL A   1      43.740  25.815  26.016  1.00  0.00    -0.206 F 
ATOM     84  C   UNL A   1      42.543  22.463  25.375  1.00  0.00     0.022 A 
BRANCH  81  85
ATOM     85  S   UNL A   1      41.084  20.600  26.850  1.00  0.00     0.124 S 
ATOM     86  O   UNL A   1      40.838  20.660  28.288  1.00  0.00    -0.237 OA
ATOM     87  O   UNL A   1      39.903  20.608  25.995  1.00  0.00    -0.237 OA
ATOM     88  O   UNL A   1      42.147  19.686  26.436  1.00  0.00    -0.744 OA
ENDBRANCH  81  85
ENDBRANCH  54  78
BRANCH  66  89
ATOM     89  C   UNL A   1      46.531  25.919  32.727  1.00  0.00     0.023 A 
ATOM     90  C   UNL A   1      46.465  24.875  33.667  1.00  0.00     0.031 A 
ATOM     91  C   UNL A   1      47.802  26.328  32.285  1.00  0.00     0.131 A 
ATOM     92  C   UNL A   1      47.647  24.319  34.178  1.00  0.00     0.055 A 
ATOM     93  C   UNL A   1      48.972  25.726  32.747  1.00  0.00     0.041 A 
ATOM     94  F   UNL A   1      47.927  27.323  31.391  1.00  0.00    -0.206 F 
ATOM     95  C   UNL A   1      48.900  24.725  33.709  1.00  0.00     0.022 A 
BRANCH  92  96
ATOM     96  S   UNL A   1      47.532  23.129  35.542  1.00  0.00     0.124 S 
ATOM     97  O   UNL A   1      48.797  23.339  36.237  1.00  0.00    -0.237 OA
ATOM     98  O   UNL A   1      46.336  23.578  36.247  1.00  0.00    -0.237 OA
ATOM     99  O   UNL A   1      47.404  21.840  34.862  1.00  0.00    -0.744 OA
ENDBRANCH  92  96
ENDBRANCH  66  89
ENDBRANCH  40  41
ENDBRANCH  32  35
ENDBRANCH  30  31
ENDBRANCH  29  30
ENDBRANCH  28  29
ENDBRANCH   1  28
TORSDOF 19
ENDMDL
