MODEL 1
REMARK VINA RESULT:     -11.2      0.000      0.000
REMARK SMILES Cc1cccc(C(=O)Nc2ccc(C(=O)NNC(=O)c3ccccc3C(=O)NCCCCCCNC(=O)c3ccc(-c4c5nc(c(-c6cc(S(=O)(=O)[O-])ccc6F)c6ccc([nH]6)c(-c6cc(S(=O)(=O)[O-])ccc6F)c6nc(c(-c7cc(S(=O)(=O)[O-])ccc7F)c7ccc4[nH]7)C=C6)C=C5)cc3)cc2)c1
REMARK SMILES IDX 30 1 29 2 28 3 26 4 27 5 25 7 20 8 21 9 22 10 24 11 23 12
REMARK SMILES IDX 18 13 17 14 19 16 16 17 14 18 15 19 13 21 10 22 11 23 102 24
REMARK SMILES IDX 12 25 101 26 9 27 7 28 8 29 6 31 1 32 2 33 3 34 103 35 4 36
REMARK SMILES IDX 5 37 31 38 32 39 33 40 34 41 35 42 36 43 37 45 38 46 39 47
REMARK SMILES IDX 100 48 40 49 99 50 41 51 42 52 43 53 93 54 44 55 98 56 92 57
REMARK SMILES IDX 94 58 45 59 97 60 91 61 90 62 46 64 78 65 58 66 77 67 59 68
REMARK SMILES IDX 62 69 76 70 95 71 60 72 61 73 75 75 96 76 63 77 47 78 48 79
REMARK SMILES IDX 56 80 49 81 55 82 57 83 54 84 50 85 51 86 52 87 53 88 79 89
REMARK SMILES IDX 80 90 88 91 81 92 87 93 89 94 86 95 82 96 83 97 84 98 85 99
REMARK SMILES IDX 64 100 65 101 73 102 66 103 72 104 74 105 71 106 67 107
REMARK SMILES IDX 68 108 69 109 70 110
REMARK H PARENT 28 6 17 15 16 20 9 30 35 44 94 63 62 74
REMARK Flexibility Score: inf
ROOT
ATOM      1  C   UNL A   1      43.781  23.166  30.375  1.00  0.00     0.021 C 
ENDROOT
BRANCH   1   2
ATOM      2  C   UNL A   1      44.212  23.782  29.044  1.00  0.00     0.116 C 
BRANCH   2   3
ATOM      3  N   UNL A   1      43.770  23.112  27.825  1.00  0.00    -0.352 N 
ATOM      4  C   UNL A   1      42.665  23.407  27.047  1.00  0.00     0.252 C 
ATOM      5  O   UNL A   1      42.516  22.960  25.916  1.00  0.00    -0.269 OA
ATOM      6  H   UNL A   1      44.325  22.359  27.520  1.00  0.00     0.163 HD
BRANCH   4   7
ATOM      7  C   UNL A   1      41.576  24.227  27.608  1.00  0.00     0.052 A 
ATOM      8  C   UNL A   1      40.229  23.928  27.398  1.00  0.00     0.054 A 
ATOM      9  C   UNL A   1      39.282  24.941  27.592  1.00  0.00     0.015 A 
ATOM     10  C   UNL A   1      39.670  26.160  28.165  1.00  0.00     0.001 A 
ATOM     11  C   UNL A   1      41.953  25.400  28.278  1.00  0.00     0.014 A 
ATOM     12  C   UNL A   1      40.991  26.361  28.573  1.00  0.00     0.001 A 
BRANCH   8  13
ATOM     13  C   UNL A   1      39.815  22.578  26.929  1.00  0.00     0.270 C 
ATOM     14  N   UNL A   1      39.127  22.559  25.724  1.00  0.00    -0.263 N 
ATOM     15  H   UNL A   1      39.338  23.218  25.024  1.00  0.00     0.191 HD
ATOM     16  O   UNL A   1      40.042  21.594  27.624  1.00  0.00    -0.267 OA
BRANCH  14  17
ATOM     17  N   UNL A   1      38.117  21.585  25.507  1.00  0.00    -0.263 N 
ATOM     18  C   UNL A   1      36.972  22.044  24.849  1.00  0.00     0.269 C 
ATOM     19  O   UNL A   1      37.028  22.700  23.813  1.00  0.00    -0.267 OA
ATOM     20  H   UNL A   1      38.217  20.651  25.801  1.00  0.00     0.191 HD
BRANCH  18  21
ATOM     21  C   UNL A   1      35.667  21.879  25.561  1.00  0.00     0.041 A 
ATOM     22  C   UNL A   1      33.041  22.059  26.594  1.00  0.00     0.041 A 
ATOM     23  C   UNL A   1      34.052  22.852  27.093  1.00  0.00     0.027 A 
ATOM     24  C   UNL A   1      33.372  21.073  25.660  1.00  0.00     0.027 A 
ATOM     25  C   UNL A   1      35.336  22.779  26.563  1.00  0.00     0.016 A 
ATOM     26  C   UNL A   1      34.675  21.000  25.123  1.00  0.00     0.016 A 
BRANCH  22  27
ATOM     27  N   UNL A   1      31.711  22.226  27.005  1.00  0.00    -0.322 N 
ATOM     28  C   UNL A   1      30.787  23.215  26.731  1.00  0.00     0.255 C 
ATOM     29  O   UNL A   1      29.726  23.238  27.360  1.00  0.00    -0.269 OA
ATOM     30  H   UNL A   1      31.377  21.511  27.594  1.00  0.00     0.170 HD
BRANCH  28  31
ATOM     31  C   UNL A   1      30.954  24.237  25.649  1.00  0.00     0.040 A 
ATOM     32  C   UNL A   1      31.598  27.929  24.916  1.00  0.00     0.044 C 
ATOM     33  C   UNL A   1      31.372  26.459  24.742  1.00  0.00    -0.050 A 
ATOM     34  C   UNL A   1      31.407  25.934  23.443  1.00  0.00     0.003 A 
ATOM     35  C   UNL A   1      31.160  25.605  25.848  1.00  0.00     0.017 A 
ATOM     36  C   UNL A   1      31.224  24.576  23.244  1.00  0.00     0.001 A 
ATOM     37  C   UNL A   1      30.995  23.751  24.343  1.00  0.00     0.014 A 
ENDBRANCH  28  31
ENDBRANCH  22  27
ENDBRANCH  18  21
ENDBRANCH  14  17
ENDBRANCH   8  13
ENDBRANCH   4   7
ENDBRANCH   2   3
ENDBRANCH   1   2
BRANCH   1  38
ATOM     38  C   UNL A   1      44.147  23.906  31.669  1.00  0.00     0.002 C 
BRANCH  38  39
ATOM     39  C   UNL A   1      44.247  23.124  33.003  1.00  0.00     0.002 C 
BRANCH  39  40
ATOM     40  C   UNL A   1      43.409  23.564  34.206  1.00  0.00     0.021 C 
BRANCH  40  41
ATOM     41  C   UNL A   1      44.143  24.555  35.088  1.00  0.00     0.116 C 
BRANCH  41  42
ATOM     42  N   UNL A   1      43.605  24.878  36.401  1.00  0.00    -0.352 N 
ATOM     43  C   UNL A   1      42.946  26.053  36.776  1.00  0.00     0.251 C 
ATOM     44  H   UNL A   1      43.718  24.196  37.101  1.00  0.00     0.163 HD
ATOM     45  O   UNL A   1      42.609  26.242  37.931  1.00  0.00    -0.269 OA
BRANCH  43  46
ATOM     46  C   UNL A   1      42.550  27.033  35.719  1.00  0.00     0.039 A 
ATOM     47  C   UNL A   1      41.531  26.680  34.824  1.00  0.00     0.014 A 
ATOM     48  C   UNL A   1      43.346  28.137  35.448  1.00  0.00     0.014 A 
ATOM     49  C   UNL A   1      41.504  27.260  33.556  1.00  0.00     0.010 A 
ATOM     50  C   UNL A   1      43.469  28.543  34.145  1.00  0.00     0.010 A 
ATOM     51  C   UNL A   1      42.558  28.090  33.193  1.00  0.00    -0.014 A 
BRANCH  51  52
ATOM     52  C   UNL A   1      42.801  28.599  31.859  1.00  0.00     0.031 A 
ATOM     53  C   UNL A   1      44.092  28.293  31.221  1.00  0.00     0.074 A 
ATOM     54  C   UNL A   1      41.800  29.179  31.169  1.00  0.00     0.049 A 
ATOM     55  N   UNL A   1      44.540  28.871  30.167  1.00  0.00    -0.248 NA
ATOM     56  C   UNL A   1      45.004  27.284  31.748  1.00  0.00     0.031 C 
ATOM     57  C   UNL A   1      41.768  29.495  29.747  1.00  0.00     0.029 A 
ATOM     58  N   UNL A   1      40.700  29.834  31.695  1.00  0.00    -0.354 N 
ATOM     59  C   UNL A   1      45.599  28.130  29.701  1.00  0.00     0.074 A 
ATOM     60  C   UNL A   1      45.888  27.190  30.756  1.00  0.00     0.031 C 
ATOM     61  C   UNL A   1      40.894  30.492  29.544  1.00  0.00     0.029 A 
ATOM     62  C   UNL A   1      40.418  30.915  30.853  1.00  0.00     0.049 A 
ATOM     63  H   UNL A   1      40.208  29.586  32.510  1.00  0.00     0.167 HD
ATOM     64  C   UNL A   1      46.003  28.313  28.413  1.00  0.00     0.034 A 
ATOM     65  C   UNL A   1      40.475  32.195  31.315  1.00  0.00     0.034 A 
ATOM     66  C   UNL A   1      45.225  29.385  27.774  1.00  0.00     0.049 A 
ATOM     67  C   UNL A   1      41.526  32.946  30.529  1.00  0.00     0.074 A 
ATOM     68  C   UNL A   1      44.188  29.383  26.857  1.00  0.00     0.029 A 
ATOM     69  N   UNL A   1      45.256  30.670  28.323  1.00  0.00    -0.354 N 
ATOM     70  N   UNL A   1      42.615  32.396  30.045  1.00  0.00    -0.248 NA
ATOM     71  C   UNL A   1      41.304  34.301  30.042  1.00  0.00     0.031 C 
ATOM     72  C   UNL A   1      43.546  30.654  26.918  1.00  0.00     0.029 A 
ATOM     73  C   UNL A   1      44.213  31.442  27.847  1.00  0.00     0.049 A 
ATOM     74  H   UNL A   1      45.933  30.986  28.964  1.00  0.00     0.167 HD
ATOM     75  C   UNL A   1      43.129  33.223  29.076  1.00  0.00     0.074 A 
ATOM     76  C   UNL A   1      42.307  34.424  29.155  1.00  0.00     0.031 C 
ATOM     77  C   UNL A   1      44.103  32.857  28.183  1.00  0.00     0.034 A 
BRANCH  64  78
ATOM     78  C   UNL A   1      46.869  27.318  27.667  1.00  0.00     0.023 A 
ATOM     79  C   UNL A   1      46.268  26.388  26.794  1.00  0.00     0.031 A 
ATOM     80  C   UNL A   1      48.269  27.201  27.792  1.00  0.00     0.131 A 
ATOM     81  C   UNL A   1      47.016  25.355  26.193  1.00  0.00     0.055 A 
ATOM     82  C   UNL A   1      49.002  26.135  27.253  1.00  0.00     0.041 A 
ATOM     83  F   UNL A   1      49.006  28.149  28.385  1.00  0.00    -0.206 F 
ATOM     84  C   UNL A   1      48.374  25.196  26.453  1.00  0.00     0.022 A 
BRANCH  81  85
ATOM     85  S   UNL A   1      46.196  24.233  25.027  1.00  0.00     0.124 S 
ATOM     86  O   UNL A   1      47.140  24.201  23.915  1.00  0.00    -0.237 OA
ATOM     87  O   UNL A   1      46.075  23.008  25.809  1.00  0.00    -0.237 OA
ATOM     88  O   UNL A   1      44.929  24.908  24.742  1.00  0.00    -0.744 OA
ENDBRANCH  81  85
ENDBRANCH  64  78
BRANCH  65  89
ATOM     89  C   UNL A   1      40.107  32.286  32.760  1.00  0.00     0.023 A 
ATOM     90  C   UNL A   1      41.114  32.779  33.632  1.00  0.00     0.031 A 
ATOM     91  C   UNL A   1      38.775  32.389  33.183  1.00  0.00     0.131 A 
ATOM     92  C   UNL A   1      40.765  33.535  34.761  1.00  0.00     0.055 A 
ATOM     93  C   UNL A   1      38.439  33.064  34.368  1.00  0.00     0.041 A 
ATOM     94  F   UNL A   1      37.772  31.977  32.395  1.00  0.00    -0.206 F 
ATOM     95  C   UNL A   1      39.429  33.684  35.135  1.00  0.00     0.022 A 
BRANCH  92  96
ATOM     96  S   UNL A   1      42.046  34.517  35.603  1.00  0.00     0.124 S 
ATOM     97  O   UNL A   1      41.502  35.873  35.598  1.00  0.00    -0.237 OA
ATOM     98  O   UNL A   1      42.101  33.867  36.912  1.00  0.00    -0.237 OA
ATOM     99  O   UNL A   1      43.223  34.326  34.759  1.00  0.00    -0.744 OA
ENDBRANCH  92  96
ENDBRANCH  65  89
BRANCH  77 100
ATOM    100  C   UNL A   1      44.984  33.834  27.429  1.00  0.00     0.023 A 
ATOM    101  C   UNL A   1      46.163  34.363  27.967  1.00  0.00     0.031 A 
ATOM    102  C   UNL A   1      44.743  34.149  26.066  1.00  0.00     0.131 A 
ATOM    103  C   UNL A   1      46.995  35.208  27.217  1.00  0.00     0.055 A 
ATOM    104  C   UNL A   1      45.617  34.917  25.295  1.00  0.00     0.041 A 
ATOM    105  F   UNL A   1      43.667  33.697  25.406  1.00  0.00    -0.206 F 
ATOM    106  C   UNL A   1      46.750  35.464  25.872  1.00  0.00     0.022 A 
BRANCH 103 107
ATOM    107  S   UNL A   1      48.390  35.987  28.063  1.00  0.00     0.124 S 
ATOM    108  O   UNL A   1      49.032  36.711  26.969  1.00  0.00    -0.237 OA
ATOM    109  O   UNL A   1      47.731  36.815  29.067  1.00  0.00    -0.237 OA
ATOM    110  O   UNL A   1      49.148  34.854  28.591  1.00  0.00    -0.744 OA
ENDBRANCH 103 107
ENDBRANCH  77 100
ENDBRANCH  51  52
ENDBRANCH  43  46
ENDBRANCH  41  42
ENDBRANCH  40  41
ENDBRANCH  39  40
ENDBRANCH  38  39
ENDBRANCH   1  38
TORSDOF 21
ENDMDL
MODEL 2
REMARK VINA RESULT:     -11.2      4.282      9.733
REMARK SMILES Cc1cccc(C(=O)Nc2ccc(C(=O)NNC(=O)c3ccccc3C(=O)NCCCCCCNC(=O)c3ccc(-c4c5nc(c(-c6cc(S(=O)(=O)[O-])ccc6F)c6ccc([nH]6)c(-c6cc(S(=O)(=O)[O-])ccc6F)c6nc(c(-c7cc(S(=O)(=O)[O-])ccc7F)c7ccc4[nH]7)C=C6)C=C5)cc3)cc2)c1
REMARK SMILES IDX 30 1 29 2 28 3 26 4 27 5 25 7 20 8 21 9 22 10 24 11 23 12
REMARK SMILES IDX 18 13 17 14 19 16 16 17 14 18 15 19 13 21 10 22 11 23 102 24
REMARK SMILES IDX 12 25 101 26 9 27 7 28 8 29 6 31 1 32 2 33 3 34 103 35 4 36
REMARK SMILES IDX 5 37 31 38 32 39 33 40 34 41 35 42 36 43 37 45 38 46 39 47
REMARK SMILES IDX 100 48 40 49 99 50 41 51 42 52 43 53 93 54 44 55 98 56 92 57
REMARK SMILES IDX 94 58 45 59 97 60 91 61 90 62 46 64 78 65 58 66 77 67 59 68
REMARK SMILES IDX 62 69 76 70 95 71 60 72 61 73 75 75 96 76 63 77 47 78 48 79
REMARK SMILES IDX 56 80 49 81 55 82 57 83 54 84 50 85 51 86 52 87 53 88 79 89
REMARK SMILES IDX 80 90 88 91 81 92 87 93 89 94 86 95 82 96 83 97 84 98 85 99
REMARK SMILES IDX 64 100 65 101 73 102 66 103 72 104 74 105 71 106 67 107
REMARK SMILES IDX 68 108 69 109 70 110
REMARK H PARENT 28 6 17 15 16 20 9 30 35 44 94 63 62 74
REMARK Flexibility Score: inf
ROOT
ATOM      1  C   UNL A   1      42.376  27.312  29.116  1.00  0.00     0.021 C 
ENDROOT
BRANCH   1   2
ATOM      2  C   UNL A   1      41.745  25.953  28.819  1.00  0.00     0.116 C 
BRANCH   2   3
ATOM      3  N   UNL A   1      40.615  25.930  27.895  1.00  0.00    -0.352 N 
ATOM      4  C   UNL A   1      40.482  25.189  26.734  1.00  0.00     0.252 C 
ATOM      5  O   UNL A   1      39.407  25.043  26.164  1.00  0.00    -0.269 OA
ATOM      6  H   UNL A   1      39.855  26.511  28.127  1.00  0.00     0.163 HD
BRANCH   4   7
ATOM      7  C   UNL A   1      41.678  24.609  26.099  1.00  0.00     0.052 A 
ATOM      8  C   UNL A   1      42.000  23.255  26.205  1.00  0.00     0.054 A 
ATOM      9  C   UNL A   1      43.318  22.859  25.947  1.00  0.00     0.015 A 
ATOM     10  C   UNL A   1      44.231  23.779  25.412  1.00  0.00     0.001 A 
ATOM     11  C   UNL A   1      42.552  25.505  25.466  1.00  0.00     0.014 A 
ATOM     12  C   UNL A   1      43.828  25.080  25.107  1.00  0.00     0.001 A 
BRANCH   8  13
ATOM     13  C   UNL A   1      40.977  22.262  26.633  1.00  0.00     0.270 C 
ATOM     14  N   UNL A   1      39.863  22.176  25.811  1.00  0.00    -0.263 N 
ATOM     15  H   UNL A   1      39.950  22.322  24.842  1.00  0.00     0.191 HD
ATOM     16  O   UNL A   1      41.134  21.632  27.673  1.00  0.00    -0.267 OA
BRANCH  14  17
ATOM     17  N   UNL A   1      38.595  21.876  26.376  1.00  0.00    -0.263 N 
ATOM     18  C   UNL A   1      37.656  21.337  25.492  1.00  0.00     0.269 C 
ATOM     19  O   UNL A   1      37.919  20.396  24.748  1.00  0.00    -0.267 OA
ATOM     20  H   UNL A   1      38.392  22.038  27.326  1.00  0.00     0.191 HD
BRANCH  18  21
ATOM     21  C   UNL A   1      36.366  22.077  25.335  1.00  0.00     0.041 A 
ATOM     22  C   UNL A   1      33.726  23.084  25.448  1.00  0.00     0.041 A 
ATOM     23  C   UNL A   1      34.024  21.964  24.702  1.00  0.00     0.027 A 
ATOM     24  C   UNL A   1      34.781  23.785  26.039  1.00  0.00     0.027 A 
ATOM     25  C   UNL A   1      35.318  21.457  24.671  1.00  0.00     0.016 A 
ATOM     26  C   UNL A   1      36.095  23.270  26.007  1.00  0.00     0.016 A 
BRANCH  22  27
ATOM     27  N   UNL A   1      32.405  23.520  25.618  1.00  0.00    -0.322 N 
ATOM     28  C   UNL A   1      31.721  24.593  25.081  1.00  0.00     0.255 C 
ATOM     29  O   UNL A   1      30.606  24.878  25.526  1.00  0.00    -0.269 OA
ATOM     30  H   UNL A   1      31.871  22.964  26.231  1.00  0.00     0.170 HD
BRANCH  28  31
ATOM     31  C   UNL A   1      32.214  25.402  23.921  1.00  0.00     0.040 A 
ATOM     32  C   UNL A   1      33.937  28.650  22.890  1.00  0.00     0.044 C 
ATOM     33  C   UNL A   1      33.295  27.298  22.840  1.00  0.00    -0.050 A 
ATOM     34  C   UNL A   1      33.214  26.650  21.600  1.00  0.00     0.003 A 
ATOM     35  C   UNL A   1      32.807  26.664  24.004  1.00  0.00     0.017 A 
ATOM     36  C   UNL A   1      32.646  25.390  21.516  1.00  0.00     0.001 A 
ATOM     37  C   UNL A   1      32.151  24.788  22.670  1.00  0.00     0.014 A 
ENDBRANCH  28  31
ENDBRANCH  22  27
ENDBRANCH  18  21
ENDBRANCH  14  17
ENDBRANCH   8  13
ENDBRANCH   4   7
ENDBRANCH   2   3
ENDBRANCH   1   2
BRANCH   1  38
ATOM     38  C   UNL A   1      42.752  28.212  27.931  1.00  0.00     0.002 C 
BRANCH  38  39
ATOM     39  C   UNL A   1      44.242  28.411  27.556  1.00  0.00     0.002 C 
BRANCH  39  40
ATOM     40  C   UNL A   1      45.205  29.027  28.574  1.00  0.00     0.021 C 
BRANCH  40  41
ATOM     41  C   UNL A   1      46.559  28.345  28.574  1.00  0.00     0.116 C 
BRANCH  41  42
ATOM     42  N   UNL A   1      46.864  27.363  27.544  1.00  0.00    -0.352 N 
ATOM     43  C   UNL A   1      47.009  25.982  27.714  1.00  0.00     0.251 C 
ATOM     44  H   UNL A   1      46.981  27.707  26.630  1.00  0.00     0.163 HD
ATOM     45  O   UNL A   1      47.343  25.268  26.785  1.00  0.00    -0.269 OA
BRANCH  43  46
ATOM     46  C   UNL A   1      46.633  25.368  29.024  1.00  0.00     0.039 A 
ATOM     47  C   UNL A   1      45.396  24.718  29.131  1.00  0.00     0.014 A 
ATOM     48  C   UNL A   1      47.350  25.668  30.173  1.00  0.00     0.014 A 
ATOM     49  C   UNL A   1      44.776  24.630  30.376  1.00  0.00     0.010 A 
ATOM     50  C   UNL A   1      46.661  25.791  31.352  1.00  0.00     0.010 A 
ATOM     51  C   UNL A   1      45.365  25.287  31.449  1.00  0.00    -0.014 A 
BRANCH  51  52
ATOM     52  C   UNL A   1      44.757  25.481  32.749  1.00  0.00     0.031 A 
ATOM     53  C   UNL A   1      44.153  26.789  33.048  1.00  0.00     0.074 A 
ATOM     54  C   UNL A   1      44.599  24.432  33.579  1.00  0.00     0.049 A 
ATOM     55  N   UNL A   1      43.805  27.182  34.219  1.00  0.00    -0.248 NA
ATOM     56  C   UNL A   1      43.894  27.785  32.014  1.00  0.00     0.031 C 
ATOM     57  C   UNL A   1      43.779  24.366  34.782  1.00  0.00     0.029 A 
ATOM     58  N   UNL A   1      45.371  23.283  33.623  1.00  0.00    -0.354 N 
ATOM     59  C   UNL A   1      43.016  28.297  34.071  1.00  0.00     0.074 A 
ATOM     60  C   UNL A   1      43.155  28.669  32.684  1.00  0.00     0.031 C 
ATOM     61  C   UNL A   1      44.268  23.411  35.588  1.00  0.00     0.029 A 
ATOM     62  C   UNL A   1      45.483  22.908  34.965  1.00  0.00     0.049 A 
ATOM     63  H   UNL A   1      45.767  22.818  32.851  1.00  0.00     0.167 HD
ATOM     64  C   UNL A   1      42.226  28.678  35.113  1.00  0.00     0.034 A 
ATOM     65  C   UNL A   1      46.699  22.861  35.579  1.00  0.00     0.034 A 
ATOM     66  C   UNL A   1      42.454  27.810  36.278  1.00  0.00     0.049 A 
ATOM     67  C   UNL A   1      46.698  23.841  36.729  1.00  0.00     0.074 A 
ATOM     68  C   UNL A   1      41.730  26.772  36.840  1.00  0.00     0.029 A 
ATOM     69  N   UNL A   1      43.734  27.737  36.835  1.00  0.00    -0.354 N 
ATOM     70  N   UNL A   1      46.027  24.970  36.733  1.00  0.00    -0.248 NA
ATOM     71  C   UNL A   1      47.259  23.506  38.031  1.00  0.00     0.031 C 
ATOM     72  C   UNL A   1      42.611  26.027  37.678  1.00  0.00     0.029 A 
ATOM     73  C   UNL A   1      43.861  26.631  37.653  1.00  0.00     0.049 A 
ATOM     74  H   UNL A   1      44.453  28.388  36.666  1.00  0.00     0.167 HD
ATOM     75  C   UNL A   1      45.916  25.409  38.030  1.00  0.00     0.074 A 
ATOM     76  C   UNL A   1      46.751  24.490  38.793  1.00  0.00     0.031 C 
ATOM     77  C   UNL A   1      45.068  26.405  38.441  1.00  0.00     0.034 A 
BRANCH  64  78
ATOM     78  C   UNL A   1      41.049  29.620  34.960  1.00  0.00     0.023 A 
ATOM     79  C   UNL A   1      40.032  29.319  34.032  1.00  0.00     0.031 A 
ATOM     80  C   UNL A   1      40.882  30.835  35.656  1.00  0.00     0.131 A 
ATOM     81  C   UNL A   1      38.996  30.235  33.755  1.00  0.00     0.055 A 
ATOM     82  C   UNL A   1      39.896  31.777  35.332  1.00  0.00     0.041 A 
ATOM     83  F   UNL A   1      41.624  31.142  36.727  1.00  0.00    -0.206 F 
ATOM     84  C   UNL A   1      38.948  31.483  34.367  1.00  0.00     0.022 A 
BRANCH  81  85
ATOM     85  S   UNL A   1      37.681  29.758  32.599  1.00  0.00     0.124 S 
ATOM     86  O   UNL A   1      37.363  28.403  33.038  1.00  0.00    -0.237 OA
ATOM     87  O   UNL A   1      36.666  30.774  32.848  1.00  0.00    -0.237 OA
ATOM     88  O   UNL A   1      38.331  29.846  31.291  1.00  0.00    -0.744 OA
ENDBRANCH  81  85
ENDBRANCH  64  78
BRANCH  65  89
ATOM     89  C   UNL A   1      47.791  22.494  34.629  1.00  0.00     0.023 A 
ATOM     90  C   UNL A   1      48.777  23.490  34.394  1.00  0.00     0.031 A 
ATOM     91  C   UNL A   1      48.145  21.161  34.381  1.00  0.00     0.131 A 
ATOM     92  C   UNL A   1      50.107  23.124  34.142  1.00  0.00     0.055 A 
ATOM     93  C   UNL A   1      49.460  20.811  34.031  1.00  0.00     0.041 A 
ATOM     94  F   UNL A   1      47.276  20.167  34.615  1.00  0.00    -0.206 F 
ATOM     95  C   UNL A   1      50.458  21.786  33.960  1.00  0.00     0.022 A 
BRANCH  92  96
ATOM     96  S   UNL A   1      51.416  24.382  34.284  1.00  0.00     0.124 S 
ATOM     97  O   UNL A   1      52.617  23.600  34.566  1.00  0.00    -0.237 OA
ATOM     98  O   UNL A   1      51.369  25.005  32.962  1.00  0.00    -0.237 OA
ATOM     99  O   UNL A   1      50.956  25.221  35.388  1.00  0.00    -0.744 OA
ENDBRANCH  92  96
ENDBRANCH  65  89
BRANCH  77 100
ATOM    100  C   UNL A   1      45.235  27.198  39.722  1.00  0.00     0.023 A 
ATOM    101  C   UNL A   1      45.784  28.486  39.751  1.00  0.00     0.031 A 
ATOM    102  C   UNL A   1      44.700  26.738  40.953  1.00  0.00     0.131 A 
ATOM    103  C   UNL A   1      45.859  29.223  40.943  1.00  0.00     0.055 A 
ATOM    104  C   UNL A   1      44.694  27.507  42.118  1.00  0.00     0.041 A 
ATOM    105  F   UNL A   1      44.121  25.535  41.078  1.00  0.00    -0.206 F 
ATOM    106  C   UNL A   1      45.288  28.758  42.122  1.00  0.00     0.022 A 
BRANCH 103 107
ATOM    107  S   UNL A   1      46.752  30.794  40.909  1.00  0.00     0.124 S 
ATOM    108  O   UNL A   1      47.192  30.854  39.517  1.00  0.00    -0.237 OA
ATOM    109  O   UNL A   1      45.720  31.754  41.285  1.00  0.00    -0.237 OA
ATOM    110  O   UNL A   1      47.816  30.606  41.892  1.00  0.00    -0.744 OA
ENDBRANCH 103 107
ENDBRANCH  77 100
ENDBRANCH  51  52
ENDBRANCH  43  46
ENDBRANCH  41  42
ENDBRANCH  40  41
ENDBRANCH  39  40
ENDBRANCH  38  39
ENDBRANCH   1  38
TORSDOF 21
ENDMDL
MODEL 3
REMARK VINA RESULT:     -11.1      6.653     11.884
REMARK SMILES Cc1cccc(C(=O)Nc2ccc(C(=O)NNC(=O)c3ccccc3C(=O)NCCCCCCNC(=O)c3ccc(-c4c5nc(c(-c6cc(S(=O)(=O)[O-])ccc6F)c6ccc([nH]6)c(-c6cc(S(=O)(=O)[O-])ccc6F)c6nc(c(-c7cc(S(=O)(=O)[O-])ccc7F)c7ccc4[nH]7)C=C6)C=C5)cc3)cc2)c1
REMARK SMILES IDX 30 1 29 2 28 3 26 4 27 5 25 7 20 8 21 9 22 10 24 11 23 12
REMARK SMILES IDX 18 13 17 14 19 16 16 17 14 18 15 19 13 21 10 22 11 23 102 24
REMARK SMILES IDX 12 25 101 26 9 27 7 28 8 29 6 31 1 32 2 33 3 34 103 35 4 36
REMARK SMILES IDX 5 37 31 38 32 39 33 40 34 41 35 42 36 43 37 45 38 46 39 47
REMARK SMILES IDX 100 48 40 49 99 50 41 51 42 52 43 53 93 54 44 55 98 56 92 57
REMARK SMILES IDX 94 58 45 59 97 60 91 61 90 62 46 64 78 65 58 66 77 67 59 68
REMARK SMILES IDX 62 69 76 70 95 71 60 72 61 73 75 75 96 76 63 77 47 78 48 79
REMARK SMILES IDX 56 80 49 81 55 82 57 83 54 84 50 85 51 86 52 87 53 88 79 89
REMARK SMILES IDX 80 90 88 91 81 92 87 93 89 94 86 95 82 96 83 97 84 98 85 99
REMARK SMILES IDX 64 100 65 101 73 102 66 103 72 104 74 105 71 106 67 107
REMARK SMILES IDX 68 108 69 109 70 110
REMARK H PARENT 28 6 17 15 16 20 9 30 35 44 94 63 62 74
REMARK Flexibility Score: inf
ROOT
ATOM      1  C   UNL A   1      48.590  23.544  35.725  1.00  0.00     0.021 C 
ENDROOT
BRANCH   1   2
ATOM      2  C   UNL A   1      48.569  22.945  37.130  1.00  0.00     0.116 C 
BRANCH   2   3
ATOM      3  N   UNL A   1      49.357  21.737  37.352  1.00  0.00    -0.352 N 
ATOM      4  C   UNL A   1      49.110  20.462  36.874  1.00  0.00     0.252 C 
ATOM      5  O   UNL A   1      49.953  19.573  36.899  1.00  0.00    -0.269 OA
ATOM      6  H   UNL A   1      50.162  21.842  37.908  1.00  0.00     0.163 HD
BRANCH   4   7
ATOM      7  C   UNL A   1      47.765  20.116  36.381  1.00  0.00     0.052 A 
ATOM      8  C   UNL A   1      46.749  19.669  37.227  1.00  0.00     0.054 A 
ATOM      9  C   UNL A   1      45.668  18.980  36.667  1.00  0.00     0.015 A 
ATOM     10  C   UNL A   1      45.527  18.915  35.273  1.00  0.00     0.001 A 
ATOM     11  C   UNL A   1      47.577  20.148  34.991  1.00  0.00     0.014 A 
ATOM     12  C   UNL A   1      46.443  19.559  34.439  1.00  0.00     0.001 A 
BRANCH   8  13
ATOM     13  C   UNL A   1      46.839  19.877  38.698  1.00  0.00     0.270 C 
ATOM     14  N   UNL A   1      47.094  18.732  39.439  1.00  0.00    -0.263 N 
ATOM     15  H   UNL A   1      47.655  18.015  39.065  1.00  0.00     0.191 HD
ATOM     16  O   UNL A   1      46.641  20.990  39.171  1.00  0.00    -0.267 OA
BRANCH  14  17
ATOM     17  N   UNL A   1      46.540  18.600  40.740  1.00  0.00    -0.263 N 
ATOM     18  C   UNL A   1      46.788  17.380  41.376  1.00  0.00     0.269 C 
ATOM     19  O   UNL A   1      47.911  16.888  41.442  1.00  0.00    -0.267 OA
ATOM     20  H   UNL A   1      46.018  19.318  41.164  1.00  0.00     0.191 HD
BRANCH  18  21
ATOM     21  C   UNL A   1      45.597  16.584  41.807  1.00  0.00     0.041 A 
ATOM     22  C   UNL A   1      43.201  15.580  42.924  1.00  0.00     0.041 A 
ATOM     23  C   UNL A   1      44.364  15.617  43.663  1.00  0.00     0.027 A 
ATOM     24  C   UNL A   1      43.265  15.926  41.571  1.00  0.00     0.027 A 
ATOM     25  C   UNL A   1      45.533  16.137  43.118  1.00  0.00     0.016 A 
ATOM     26  C   UNL A   1      44.453  16.453  41.018  1.00  0.00     0.016 A 
BRANCH  22  27
ATOM     27  N   UNL A   1      41.979  15.206  43.500  1.00  0.00    -0.322 N 
ATOM     28  C   UNL A   1      41.443  13.964  43.782  1.00  0.00     0.255 C 
ATOM     29  O   UNL A   1      40.262  13.884  44.127  1.00  0.00    -0.269 OA
ATOM     30  H   UNL A   1      41.399  15.963  43.746  1.00  0.00     0.170 HD
BRANCH  28  31
ATOM     31  C   UNL A   1      42.233  12.692  43.771  1.00  0.00     0.040 A 
ATOM     32  C   UNL A   1      44.716  10.544  45.720  1.00  0.00     0.044 C 
ATOM     33  C   UNL A   1      43.758  11.020  44.673  1.00  0.00    -0.050 A 
ATOM     34  C   UNL A   1      43.475  10.167  43.598  1.00  0.00     0.003 A 
ATOM     35  C   UNL A   1      43.123  12.279  44.766  1.00  0.00     0.017 A 
ATOM     36  C   UNL A   1      42.578  10.563  42.621  1.00  0.00     0.001 A 
ATOM     37  C   UNL A   1      41.977  11.816  42.716  1.00  0.00     0.014 A 
ENDBRANCH  28  31
ENDBRANCH  22  27
ENDBRANCH  18  21
ENDBRANCH  14  17
ENDBRANCH   8  13
ENDBRANCH   4   7
ENDBRANCH   2   3
ENDBRANCH   1   2
BRANCH   1  38
ATOM     38  C   UNL A   1      47.248  23.887  35.062  1.00  0.00     0.002 C 
BRANCH  38  39
ATOM     39  C   UNL A   1      45.952  23.178  35.532  1.00  0.00     0.002 C 
BRANCH  39  40
ATOM     40  C   UNL A   1      44.849  22.863  34.518  1.00  0.00     0.021 C 
BRANCH  40  41
ATOM     41  C   UNL A   1      43.476  23.273  35.014  1.00  0.00     0.116 C 
BRANCH  41  42
ATOM     42  N   UNL A   1      43.363  24.072  36.225  1.00  0.00    -0.352 N 
ATOM     43  C   UNL A   1      43.526  25.457  36.340  1.00  0.00     0.251 C 
ATOM     44  H   UNL A   1      43.150  23.585  37.053  1.00  0.00     0.163 HD
ATOM     45  O   UNL A   1      43.484  26.005  37.426  1.00  0.00    -0.269 OA
BRANCH  43  46
ATOM     46  C   UNL A   1      43.636  26.280  35.097  1.00  0.00     0.039 A 
ATOM     47  C   UNL A   1      42.467  26.581  34.384  1.00  0.00     0.014 A 
ATOM     48  C   UNL A   1      44.873  26.506  34.510  1.00  0.00     0.014 A 
ATOM     49  C   UNL A   1      42.548  26.835  33.016  1.00  0.00     0.010 A 
ATOM     50  C   UNL A   1      44.945  26.530  33.141  1.00  0.00     0.010 A 
ATOM     51  C   UNL A   1      43.779  26.676  32.392  1.00  0.00    -0.014 A 
BRANCH  51  52
ATOM     52  C   UNL A   1      44.000  26.688  30.960  1.00  0.00     0.031 A 
ATOM     53  C   UNL A   1      44.264  25.408  30.285  1.00  0.00     0.074 A 
ATOM     54  C   UNL A   1      43.788  27.818  30.259  1.00  0.00     0.049 A 
ATOM     55  N   UNL A   1      44.715  25.292  29.089  1.00  0.00    -0.248 NA
ATOM     56  C   UNL A   1      44.038  24.121  30.934  1.00  0.00     0.031 C 
ATOM     57  C   UNL A   1      43.686  27.959  28.811  1.00  0.00     0.029 A 
ATOM     58  N   UNL A   1      43.881  29.117  30.728  1.00  0.00    -0.354 N 
ATOM     59  C   UNL A   1      44.545  23.986  28.701  1.00  0.00     0.074 A 
ATOM     60  C   UNL A   1      44.180  23.284  29.906  1.00  0.00     0.031 C 
ATOM     61  C   UNL A   1      44.000  29.220  28.476  1.00  0.00     0.029 A 
ATOM     62  C   UNL A   1      44.417  29.895  29.696  1.00  0.00     0.049 A 
ATOM     63  H   UNL A   1      43.620  29.434  31.622  1.00  0.00     0.167 HD
ATOM     64  C   UNL A   1      44.592  23.691  27.371  1.00  0.00     0.034 A 
ATOM     65  C   UNL A   1      45.608  30.538  29.851  1.00  0.00     0.034 A 
ATOM     66  C   UNL A   1      44.912  24.893  26.587  1.00  0.00     0.049 A 
ATOM     67  C   UNL A   1      46.578  30.013  28.817  1.00  0.00     0.074 A 
ATOM     68  C   UNL A   1      44.149  25.739  25.799  1.00  0.00     0.029 A 
ATOM     69  N   UNL A   1      46.114  25.565  26.826  1.00  0.00    -0.354 N 
ATOM     70  N   UNL A   1      46.576  28.780  28.366  1.00  0.00    -0.248 NA
ATOM     71  C   UNL A   1      47.456  30.897  28.062  1.00  0.00     0.031 C 
ATOM     72  C   UNL A   1      44.873  26.956  25.635  1.00  0.00     0.029 A 
ATOM     73  C   UNL A   1      46.090  26.839  26.293  1.00  0.00     0.049 A 
ATOM     74  H   UNL A   1      46.880  25.180  27.311  1.00  0.00     0.167 HD
ATOM     75  C   UNL A   1      47.286  28.743  27.190  1.00  0.00     0.074 A 
ATOM     76  C   UNL A   1      47.862  30.077  27.077  1.00  0.00     0.031 C 
ATOM     77  C   UNL A   1      47.275  27.691  26.311  1.00  0.00     0.034 A 
BRANCH  64  78
ATOM     78  C   UNL A   1      44.045  22.404  26.787  1.00  0.00     0.023 A 
ATOM     79  C   UNL A   1      44.920  21.504  26.146  1.00  0.00     0.031 A 
ATOM     80  C   UNL A   1      42.689  22.021  26.788  1.00  0.00     0.131 A 
ATOM     81  C   UNL A   1      44.435  20.368  25.465  1.00  0.00     0.055 A 
ATOM     82  C   UNL A   1      42.197  20.933  26.053  1.00  0.00     0.041 A 
ATOM     83  F   UNL A   1      41.781  22.639  27.554  1.00  0.00    -0.206 F 
ATOM     84  C   UNL A   1      43.073  20.102  25.376  1.00  0.00     0.022 A 
BRANCH  81  85
ATOM     85  S   UNL A   1      45.619  19.213  24.718  1.00  0.00     0.124 S 
ATOM     86  O   UNL A   1      45.583  18.092  25.651  1.00  0.00    -0.237 OA
ATOM     87  O   UNL A   1      45.036  18.979  23.403  1.00  0.00    -0.237 OA
ATOM     88  O   UNL A   1      46.871  19.970  24.711  1.00  0.00    -0.744 OA
ENDBRANCH  81  85
ENDBRANCH  64  78
BRANCH  65  89
ATOM     89  C   UNL A   1      45.841  30.952  31.267  1.00  0.00     0.023 A 
ATOM     90  C   UNL A   1      45.029  32.013  31.749  1.00  0.00     0.031 A 
ATOM     91  C   UNL A   1      46.406  30.086  32.212  1.00  0.00     0.131 A 
ATOM     92  C   UNL A   1      44.635  32.047  33.095  1.00  0.00     0.055 A 
ATOM     93  C   UNL A   1      46.083  30.187  33.576  1.00  0.00     0.041 A 
ATOM     94  F   UNL A   1      47.153  29.042  31.825  1.00  0.00    -0.206 F 
ATOM     95  C   UNL A   1      45.156  31.137  34.015  1.00  0.00     0.022 A 
BRANCH  92  96
ATOM     96  S   UNL A   1      43.262  33.135  33.592  1.00  0.00     0.124 S 
ATOM     97  O   UNL A   1      42.402  32.265  34.388  1.00  0.00    -0.237 OA
ATOM     98  O   UNL A   1      43.968  34.175  34.339  1.00  0.00    -0.237 OA
ATOM     99  O   UNL A   1      42.693  33.560  32.315  1.00  0.00    -0.744 OA
ENDBRANCH  92  96
ENDBRANCH  65  89
BRANCH  77 100
ATOM    100  C   UNL A   1      48.349  27.429  25.275  1.00  0.00     0.023 A 
ATOM    101  C   UNL A   1      49.631  26.975  25.609  1.00  0.00     0.031 A 
ATOM    102  C   UNL A   1      48.067  27.483  23.886  1.00  0.00     0.131 A 
ATOM    103  C   UNL A   1      50.581  26.672  24.622  1.00  0.00     0.055 A 
ATOM    104  C   UNL A   1      48.984  27.097  22.905  1.00  0.00     0.041 A 
ATOM    105  F   UNL A   1      46.877  27.877  23.411  1.00  0.00    -0.206 F 
ATOM    106  C   UNL A   1      50.258  26.698  23.270  1.00  0.00     0.022 A 
BRANCH 103 107
ATOM    107  S   UNL A   1      52.261  26.275  25.160  1.00  0.00     0.124 S 
ATOM    108  O   UNL A   1      52.801  25.613  23.975  1.00  0.00    -0.237 OA
ATOM    109  O   UNL A   1      52.818  27.590  25.458  1.00  0.00    -0.237 OA
ATOM    110  O   UNL A   1      52.054  25.409  26.318  1.00  0.00    -0.744 OA
ENDBRANCH 103 107
ENDBRANCH  77 100
ENDBRANCH  51  52
ENDBRANCH  43  46
ENDBRANCH  41  42
ENDBRANCH  40  41
ENDBRANCH  39  40
ENDBRANCH  38  39
ENDBRANCH   1  38
TORSDOF 21
ENDMDL
