MODEL 1
REMARK VINA RESULT:     -12.2      0.000      0.000
REMARK SMILES O=C(NCCCCCCNC(=O)[C@@H]1C=C[C@@H](Nc2ccc3ccccc3n2)C1)c1ccc(-c2c3nc(c(-c4cc(S(=O)(=O)[O-])ccc4F)c4ccc([nH]4)c(-c4cc(S(=O)(=O)[O-])ccc4F)c4nc(c(-c5cc(S(=O)(=O)[O-])ccc5F)c5ccc2[nH]5)C=C4)C=C3)cc1
REMARK SMILES IDX 6 1 5 2 4 3 3 4 1 5 2 6 29 8 30 9 91 10 31 11 90 12 32 13
REMARK SMILES IDX 33 14 34 15 84 16 35 17 89 18 83 19 85 20 36 21 88 22 82 23
REMARK SMILES IDX 81 24 37 26 69 27 49 28 68 29 50 30 53 31 67 32 86 33 51 34
REMARK SMILES IDX 52 35 66 37 87 38 54 39 38 40 39 41 47 42 40 43 46 44 48 45
REMARK SMILES IDX 45 46 41 47 42 48 43 49 44 50 70 51 71 52 79 53 72 54 78 55
REMARK SMILES IDX 80 56 77 57 73 58 74 59 75 60 76 61 55 62 56 63 64 64 57 65
REMARK SMILES IDX 63 66 65 67 62 68 58 69 59 70 60 71 61 72 7 73 8 74 9 75
REMARK SMILES IDX 10 76 11 77 12 79 13 80 14 81 28 82 15 83 16 84 17 85 18 87
REMARK SMILES IDX 19 88 27 89 20 90 26 91 21 92 25 93 22 94 24 95 23 96
REMARK H PARENT 3 7 85 25 53 36 10 78 17 86
REMARK Flexibility Score: inf
ROOT
ATOM      1  C   UNL A   1      34.940  22.766  26.584  1.00  0.00     0.002 C 
ENDROOT
BRANCH   1   2
ATOM      2  C   UNL A   1      35.570  21.801  25.578  1.00  0.00     0.021 C 
BRANCH   2   3
ATOM      3  C   UNL A   1      37.035  22.059  25.256  1.00  0.00     0.116 C 
BRANCH   3   4
ATOM      4  N   UNL A   1      37.895  20.938  25.594  1.00  0.00    -0.352 N 
ATOM      5  O   UNL A   1      39.805  19.915  26.225  1.00  0.00    -0.269 OA
ATOM      6  C   UNL A   1      39.162  20.956  26.129  1.00  0.00     0.251 C 
ATOM      7  H   UNL A   1      37.521  20.045  25.416  1.00  0.00     0.163 HD
BRANCH   6   8
ATOM      8  C   UNL A   1      39.755  22.242  26.567  1.00  0.00     0.039 A 
ATOM      9  C   UNL A   1      39.361  23.443  25.976  1.00  0.00     0.014 A 
ATOM     10  C   UNL A   1      40.719  22.244  27.581  1.00  0.00     0.014 A 
ATOM     11  C   UNL A   1      40.029  24.621  26.293  1.00  0.00     0.010 A 
ATOM     12  C   UNL A   1      41.327  23.445  27.963  1.00  0.00     0.010 A 
ATOM     13  C   UNL A   1      41.007  24.641  27.301  1.00  0.00    -0.014 A 
BRANCH  13  14
ATOM     14  C   UNL A   1      41.619  25.943  27.679  1.00  0.00     0.031 A 
ATOM     15  C   UNL A   1      42.988  26.336  27.199  1.00  0.00     0.074 A 
ATOM     16  C   UNL A   1      40.887  26.801  28.419  1.00  0.00     0.049 A 
ATOM     17  N   UNL A   1      43.639  27.457  27.392  1.00  0.00    -0.248 NA
ATOM     18  C   UNL A   1      43.730  25.341  26.411  1.00  0.00     0.031 C 
ATOM     19  C   UNL A   1      39.552  26.516  28.955  1.00  0.00     0.029 A 
ATOM     20  N   UNL A   1      41.138  28.085  28.826  1.00  0.00    -0.354 N 
ATOM     21  C   UNL A   1      44.865  27.305  26.752  1.00  0.00     0.074 A 
ATOM     22  C   UNL A   1      44.882  25.965  26.202  1.00  0.00     0.031 C 
ATOM     23  C   UNL A   1      39.081  27.611  29.569  1.00  0.00     0.029 A 
ATOM     24  C   UNL A   1      40.101  28.651  29.531  1.00  0.00     0.049 A 
ATOM     25  H   UNL A   1      41.979  28.558  28.631  1.00  0.00     0.167 HD
ATOM     26  C   UNL A   1      45.874  28.204  26.628  1.00  0.00     0.034 A 
ATOM     27  C   UNL A   1      39.986  29.866  30.100  1.00  0.00     0.034 A 
ATOM     28  C   UNL A   1      45.843  29.534  27.192  1.00  0.00     0.049 A 
ATOM     29  C   UNL A   1      41.125  30.837  29.958  1.00  0.00     0.074 A 
ATOM     30  C   UNL A   1      46.810  30.523  27.133  1.00  0.00     0.029 A 
ATOM     31  N   UNL A   1      44.786  30.064  27.925  1.00  0.00    -0.354 N 
ATOM     32  N   UNL A   1      42.275  30.675  29.345  1.00  0.00    -0.248 NA
ATOM     33  C   UNL A   1      40.948  32.156  30.576  1.00  0.00     0.031 C 
ATOM     34  C   UNL A   1      46.365  31.626  27.871  1.00  0.00     0.029 A 
ATOM     35  C   UNL A   1      45.087  31.356  28.335  1.00  0.00     0.049 A 
ATOM     36  H   UNL A   1      43.945  29.593  28.123  1.00  0.00     0.167 HD
ATOM     37  C   UNL A   1      42.956  31.877  29.498  1.00  0.00     0.074 A 
ATOM     38  C   UNL A   1      42.071  32.765  30.226  1.00  0.00     0.031 C 
ATOM     39  C   UNL A   1      44.203  32.217  29.084  1.00  0.00     0.034 A 
BRANCH  26  40
ATOM     40  C   UNL A   1      47.111  27.762  25.881  1.00  0.00     0.023 A 
ATOM     41  C   UNL A   1      47.271  28.012  24.506  1.00  0.00     0.031 A 
ATOM     42  C   UNL A   1      48.141  27.076  26.549  1.00  0.00     0.131 A 
ATOM     43  C   UNL A   1      48.404  27.528  23.833  1.00  0.00     0.055 A 
ATOM     44  C   UNL A   1      49.299  26.659  25.887  1.00  0.00     0.041 A 
ATOM     45  F   UNL A   1      48.038  26.792  27.857  1.00  0.00    -0.206 F 
ATOM     46  C   UNL A   1      49.430  26.873  24.518  1.00  0.00     0.022 A 
BRANCH  43  47
ATOM     47  S   UNL A   1      48.462  27.659  22.025  1.00  0.00     0.124 S 
ATOM     48  O   UNL A   1      48.700  26.272  21.634  1.00  0.00    -0.237 OA
ATOM     49  O   UNL A   1      47.144  28.195  21.704  1.00  0.00    -0.237 OA
ATOM     50  O   UNL A   1      49.581  28.568  21.782  1.00  0.00    -0.744 OA
ENDBRANCH  43  47
ENDBRANCH  26  40
BRANCH  27  51
ATOM     51  C   UNL A   1      38.765  30.216  30.880  1.00  0.00     0.023 A 
ATOM     52  C   UNL A   1      37.717  30.953  30.307  1.00  0.00     0.031 A 
ATOM     53  C   UNL A   1      38.644  29.837  32.230  1.00  0.00     0.131 A 
ATOM     54  C   UNL A   1      36.615  31.324  31.092  1.00  0.00     0.055 A 
ATOM     55  C   UNL A   1      37.521  30.160  32.990  1.00  0.00     0.041 A 
ATOM     56  F   UNL A   1      39.616  29.126  32.825  1.00  0.00    -0.206 F 
ATOM     57  C   UNL A   1      36.503  30.921  32.425  1.00  0.00     0.022 A 
BRANCH  54  58
ATOM     58  S   UNL A   1      35.366  32.422  30.370  1.00  0.00     0.124 S 
ATOM     59  O   UNL A   1      34.353  32.454  31.418  1.00  0.00    -0.237 OA
ATOM     60  O   UNL A   1      36.124  33.654  30.173  1.00  0.00    -0.237 OA
ATOM     61  O   UNL A   1      34.973  31.731  29.143  1.00  0.00    -0.744 OA
ENDBRANCH  54  58
ENDBRANCH  27  51
BRANCH  39  62
ATOM     62  C   UNL A   1      44.658  33.620  29.404  1.00  0.00     0.023 A 
ATOM     63  C   UNL A   1      44.346  34.702  28.562  1.00  0.00     0.031 A 
ATOM     64  C   UNL A   1      45.455  33.868  30.535  1.00  0.00     0.131 A 
ATOM     65  C   UNL A   1      44.887  35.969  28.823  1.00  0.00     0.055 A 
ATOM     66  C   UNL A   1      45.940  35.144  30.823  1.00  0.00     0.041 A 
ATOM     67  F   UNL A   1      45.786  32.871  31.370  1.00  0.00    -0.206 F 
ATOM     68  C   UNL A   1      45.671  36.200  29.956  1.00  0.00     0.022 A 
BRANCH  65  69
ATOM     69  S   UNL A   1      44.644  37.286  27.599  1.00  0.00     0.124 S 
ATOM     70  O   UNL A   1      45.941  37.322  26.930  1.00  0.00    -0.237 OA
ATOM     71  O   UNL A   1      43.532  36.774  26.807  1.00  0.00    -0.237 OA
ATOM     72  O   UNL A   1      44.336  38.459  28.416  1.00  0.00    -0.744 OA
ENDBRANCH  65  69
ENDBRANCH  39  62
ENDBRANCH  13  14
ENDBRANCH   6   8
ENDBRANCH   3   4
ENDBRANCH   2   3
ENDBRANCH   1   2
BRANCH   1  73
ATOM     73  C   UNL A   1      33.848  22.180  27.485  1.00  0.00     0.002 C 
BRANCH  73  74
ATOM     74  C   UNL A   1      32.456  22.811  27.362  1.00  0.00     0.021 C 
BRANCH  74  75
ATOM     75  C   UNL A   1      32.095  23.332  25.975  1.00  0.00     0.116 C 
BRANCH  75  76
ATOM     76  N   UNL A   1      31.971  22.269  24.999  1.00  0.00    -0.356 N 
ATOM     77  C   UNL A   1      32.309  22.200  23.686  1.00  0.00     0.227 C 
ATOM     78  H   UNL A   1      31.568  21.444  25.353  1.00  0.00     0.163 HD
ATOM     79  O   UNL A   1      32.164  21.099  23.138  1.00  0.00    -0.274 OA
BRANCH  77  80
ATOM     80  C   UNL A   1      32.741  23.406  22.843  1.00  0.00     0.103 C 
ATOM     81  C   UNL A   1      33.957  24.188  23.221  1.00  0.00    -0.016 C 
ATOM     82  C   UNL A   1      31.634  24.462  22.769  1.00  0.00     0.046 C 
ATOM     83  C   UNL A   1      33.665  25.470  23.474  1.00  0.00    -0.006 C 
ATOM     84  C   UNL A   1      32.199  25.749  23.391  1.00  0.00     0.104 C 
BRANCH  84  85
ATOM     85  N   UNL A   1      31.964  26.845  22.490  1.00  0.00    -0.364 N 
ATOM     86  H   UNL A   1      32.343  26.814  21.582  1.00  0.00     0.162 HD
BRANCH  85  87
ATOM     87  C   UNL A   1      31.216  27.939  22.876  1.00  0.00     0.127 A 
ATOM     88  C   UNL A   1      31.562  28.586  24.054  1.00  0.00     0.047 A 
ATOM     89  N   UNL A   1      30.215  28.384  22.092  1.00  0.00    -0.231 NA
ATOM     90  C   UNL A   1      30.866  29.726  24.440  1.00  0.00     0.014 A 
ATOM     91  C   UNL A   1      29.497  29.455  22.487  1.00  0.00     0.073 A 
ATOM     92  C   UNL A   1      29.803  30.178  23.659  1.00  0.00     0.000 A 
ATOM     93  C   UNL A   1      28.407  29.877  21.734  1.00  0.00     0.029 A 
ATOM     94  C   UNL A   1      29.048  31.307  24.024  1.00  0.00     0.010 A 
ATOM     95  C   UNL A   1      27.638  30.986  22.104  1.00  0.00     0.002 A 
ATOM     96  C   UNL A   1      27.965  31.708  23.246  1.00  0.00     0.001 A 
ENDBRANCH  85  87
ENDBRANCH  84  85
ENDBRANCH  77  80
ENDBRANCH  75  76
ENDBRANCH  74  75
ENDBRANCH  73  74
ENDBRANCH   1  73
TORSDOF 18
ENDMDL
MODEL 2
REMARK VINA RESULT:     -12.1      5.704      9.388
REMARK SMILES O=C(NCCCCCCNC(=O)[C@@H]1C=C[C@@H](Nc2ccc3ccccc3n2)C1)c1ccc(-c2c3nc(c(-c4cc(S(=O)(=O)[O-])ccc4F)c4ccc([nH]4)c(-c4cc(S(=O)(=O)[O-])ccc4F)c4nc(c(-c5cc(S(=O)(=O)[O-])ccc5F)c5ccc2[nH]5)C=C4)C=C3)cc1
REMARK SMILES IDX 6 1 5 2 4 3 3 4 1 5 2 6 29 8 30 9 91 10 31 11 90 12 32 13
REMARK SMILES IDX 33 14 34 15 84 16 35 17 89 18 83 19 85 20 36 21 88 22 82 23
REMARK SMILES IDX 81 24 37 26 69 27 49 28 68 29 50 30 53 31 67 32 86 33 51 34
REMARK SMILES IDX 52 35 66 37 87 38 54 39 38 40 39 41 47 42 40 43 46 44 48 45
REMARK SMILES IDX 45 46 41 47 42 48 43 49 44 50 70 51 71 52 79 53 72 54 78 55
REMARK SMILES IDX 80 56 77 57 73 58 74 59 75 60 76 61 55 62 56 63 64 64 57 65
REMARK SMILES IDX 63 66 65 67 62 68 58 69 59 70 60 71 61 72 7 73 8 74 9 75
REMARK SMILES IDX 10 76 11 77 12 79 13 80 14 81 28 82 15 83 16 84 17 85 18 87
REMARK SMILES IDX 19 88 27 89 20 90 26 91 21 92 25 93 22 94 24 95 23 96
REMARK H PARENT 3 7 85 25 53 36 10 78 17 86
REMARK Flexibility Score: inf
ROOT
ATOM      1  C   UNL A   1      31.571  30.862  26.206  1.00  0.00     0.002 C 
ENDROOT
BRANCH   1   2
ATOM      2  C   UNL A   1      31.430  32.304  26.693  1.00  0.00     0.021 C 
BRANCH   2   3
ATOM      3  C   UNL A   1      32.726  32.978  27.121  1.00  0.00     0.116 C 
BRANCH   3   4
ATOM      4  N   UNL A   1      32.513  34.285  27.720  1.00  0.00    -0.352 N 
ATOM      5  O   UNL A   1      32.736  35.909  29.271  1.00  0.00    -0.269 OA
ATOM      6  C   UNL A   1      33.135  34.842  28.813  1.00  0.00     0.251 C 
ATOM      7  H   UNL A   1      31.834  34.848  27.284  1.00  0.00     0.163 HD
BRANCH   6   8
ATOM      8  C   UNL A   1      34.272  34.137  29.450  1.00  0.00     0.039 A 
ATOM      9  C   UNL A   1      34.047  33.162  30.423  1.00  0.00     0.014 A 
ATOM     10  C   UNL A   1      35.579  34.457  29.069  1.00  0.00     0.014 A 
ATOM     11  C   UNL A   1      35.123  32.614  31.115  1.00  0.00     0.010 A 
ATOM     12  C   UNL A   1      36.662  33.837  29.704  1.00  0.00     0.010 A 
ATOM     13  C   UNL A   1      36.443  32.930  30.753  1.00  0.00    -0.014 A 
BRANCH  13  14
ATOM     14  C   UNL A   1      37.561  32.240  31.450  1.00  0.00     0.031 A 
ATOM     15  C   UNL A   1      38.314  31.112  30.801  1.00  0.00     0.074 A 
ATOM     16  C   UNL A   1      37.929  32.692  32.666  1.00  0.00     0.049 A 
ATOM     17  N   UNL A   1      39.348  30.446  31.251  1.00  0.00    -0.248 NA
ATOM     18  C   UNL A   1      37.842  30.666  29.482  1.00  0.00     0.031 C 
ATOM     19  C   UNL A   1      37.256  33.769  33.398  1.00  0.00     0.029 A 
ATOM     20  N   UNL A   1      38.965  32.332  33.488  1.00  0.00    -0.354 N 
ATOM     21  C   UNL A   1      39.652  29.502  30.276  1.00  0.00     0.074 A 
ATOM     22  C   UNL A   1      38.663  29.656  29.228  1.00  0.00     0.031 C 
ATOM     23  C   UNL A   1      37.928  34.019  34.531  1.00  0.00     0.029 A 
ATOM     24  C   UNL A   1      39.038  33.080  34.640  1.00  0.00     0.049 A 
ATOM     25  H   UNL A   1      39.597  31.608  33.274  1.00  0.00     0.167 HD
ATOM     26  C   UNL A   1      40.666  28.600  30.254  1.00  0.00     0.034 A 
ATOM     27  C   UNL A   1      39.891  33.011  35.679  1.00  0.00     0.034 A 
ATOM     28  C   UNL A   1      41.638  28.455  31.314  1.00  0.00     0.049 A 
ATOM     29  C   UNL A   1      40.997  31.994  35.635  1.00  0.00     0.074 A 
ATOM     30  C   UNL A   1      42.702  27.572  31.398  1.00  0.00     0.029 A 
ATOM     31  N   UNL A   1      41.665  29.212  32.480  1.00  0.00    -0.354 N 
ATOM     32  N   UNL A   1      41.270  31.112  34.700  1.00  0.00    -0.248 NA
ATOM     33  C   UNL A   1      41.916  31.968  36.779  1.00  0.00     0.031 C 
ATOM     34  C   UNL A   1      43.336  27.757  32.633  1.00  0.00     0.029 A 
ATOM     35  C   UNL A   1      42.713  28.804  33.294  1.00  0.00     0.049 A 
ATOM     36  H   UNL A   1      41.033  29.935  32.698  1.00  0.00     0.167 HD
ATOM     37  C   UNL A   1      42.398  30.431  35.143  1.00  0.00     0.074 A 
ATOM     38  C   UNL A   1      42.775  31.032  36.407  1.00  0.00     0.031 C 
ATOM     39  C   UNL A   1      43.059  29.396  34.564  1.00  0.00     0.034 A 
BRANCH  26  40
ATOM     40  C   UNL A   1      40.753  27.678  29.060  1.00  0.00     0.023 A 
ATOM     41  C   UNL A   1      41.700  27.880  28.040  1.00  0.00     0.031 A 
ATOM     42  C   UNL A   1      39.873  26.589  28.934  1.00  0.00     0.131 A 
ATOM     43  C   UNL A   1      41.706  27.042  26.913  1.00  0.00     0.055 A 
ATOM     44  C   UNL A   1      39.931  25.717  27.844  1.00  0.00     0.041 A 
ATOM     45  F   UNL A   1      38.935  26.357  29.865  1.00  0.00    -0.206 F 
ATOM     46  C   UNL A   1      40.844  25.948  26.819  1.00  0.00     0.022 A 
BRANCH  43  47
ATOM     47  S   UNL A   1      42.778  27.475  25.515  1.00  0.00     0.124 S 
ATOM     48  O   UNL A   1      43.991  27.920  26.198  1.00  0.00    -0.237 OA
ATOM     49  O   UNL A   1      42.880  26.213  24.791  1.00  0.00    -0.237 OA
ATOM     50  O   UNL A   1      42.036  28.530  24.827  1.00  0.00    -0.744 OA
ENDBRANCH  43  47
ENDBRANCH  26  40
BRANCH  27  51
ATOM     51  C   UNL A   1      39.711  33.905  36.859  1.00  0.00     0.023 A 
ATOM     52  C   UNL A   1      39.147  33.434  38.054  1.00  0.00     0.031 A 
ATOM     53  C   UNL A   1      40.080  35.261  36.792  1.00  0.00     0.131 A 
ATOM     54  C   UNL A   1      38.929  34.322  39.118  1.00  0.00     0.055 A 
ATOM     55  C   UNL A   1      39.913  36.126  37.872  1.00  0.00     0.041 A 
ATOM     56  F   UNL A   1      40.630  35.762  35.673  1.00  0.00    -0.206 F 
ATOM     57  C   UNL A   1      39.320  35.660  39.042  1.00  0.00     0.022 A 
BRANCH  54  58
ATOM     58  S   UNL A   1      38.039  33.721  40.580  1.00  0.00     0.124 S 
ATOM     59  O   UNL A   1      39.011  32.806  41.167  1.00  0.00    -0.237 OA
ATOM     60  O   UNL A   1      37.796  34.958  41.315  1.00  0.00    -0.237 OA
ATOM     61  O   UNL A   1      36.847  33.088  40.017  1.00  0.00    -0.744 OA
ENDBRANCH  54  58
ENDBRANCH  27  51
BRANCH  39  62
ATOM     62  C   UNL A   1      44.267  28.875  35.301  1.00  0.00     0.023 A 
ATOM     63  C   UNL A   1      44.138  28.095  36.464  1.00  0.00     0.031 A 
ATOM     64  C   UNL A   1      45.563  29.206  34.866  1.00  0.00     0.131 A 
ATOM     65  C   UNL A   1      45.280  27.731  37.192  1.00  0.00     0.055 A 
ATOM     66  C   UNL A   1      46.698  28.789  35.562  1.00  0.00     0.041 A 
ATOM     67  F   UNL A   1      45.744  29.951  33.764  1.00  0.00    -0.206 F 
ATOM     68  C   UNL A   1      46.560  28.062  36.741  1.00  0.00     0.022 A 
BRANCH  65  69
ATOM     69  S   UNL A   1      45.062  26.918  38.799  1.00  0.00     0.124 S 
ATOM     70  O   UNL A   1      45.193  28.037  39.727  1.00  0.00    -0.237 OA
ATOM     71  O   UNL A   1      43.728  26.342  38.679  1.00  0.00    -0.237 OA
ATOM     72  O   UNL A   1      46.154  25.946  38.841  1.00  0.00    -0.744 OA
ENDBRANCH  65  69
ENDBRANCH  39  62
ENDBRANCH  13  14
ENDBRANCH   6   8
ENDBRANCH   3   4
ENDBRANCH   2   3
ENDBRANCH   1   2
BRANCH   1  73
ATOM     73  C   UNL A   1      32.182  29.871  27.203  1.00  0.00     0.002 C 
BRANCH  73  74
ATOM     74  C   UNL A   1      33.710  29.737  27.178  1.00  0.00     0.021 C 
BRANCH  74  75
ATOM     75  C   UNL A   1      34.243  28.425  26.612  1.00  0.00     0.116 C 
BRANCH  75  76
ATOM     76  N   UNL A   1      33.687  28.118  25.310  1.00  0.00    -0.356 N 
ATOM     77  C   UNL A   1      33.069  27.011  24.826  1.00  0.00     0.227 C 
ATOM     78  H   UNL A   1      33.774  28.848  24.654  1.00  0.00     0.163 HD
ATOM     79  O   UNL A   1      32.613  27.093  23.678  1.00  0.00    -0.274 OA
BRANCH  77  80
ATOM     80  C   UNL A   1      33.009  25.667  25.563  1.00  0.00     0.103 C 
ATOM     81  C   UNL A   1      34.199  24.764  25.573  1.00  0.00    -0.016 C 
ATOM     82  C   UNL A   1      31.881  24.783  25.022  1.00  0.00     0.046 C 
ATOM     83  C   UNL A   1      33.925  23.575  25.021  1.00  0.00    -0.006 C 
ATOM     84  C   UNL A   1      32.536  23.506  24.473  1.00  0.00     0.104 C 
BRANCH  84  85
ATOM     85  N   UNL A   1      31.856  22.362  25.017  1.00  0.00    -0.364 N 
ATOM     86  H   UNL A   1      31.180  22.491  25.720  1.00  0.00     0.162 HD
BRANCH  85  87
ATOM     87  C   UNL A   1      32.136  21.086  24.571  1.00  0.00     0.127 A 
ATOM     88  C   UNL A   1      32.198  20.870  23.201  1.00  0.00     0.047 A 
ATOM     89  N   UNL A   1      32.392  20.101  25.454  1.00  0.00    -0.231 NA
ATOM     90  C   UNL A   1      32.536  19.609  22.721  1.00  0.00     0.014 A 
ATOM     91  C   UNL A   1      32.664  18.862  24.998  1.00  0.00     0.073 A 
ATOM     92  C   UNL A   1      32.767  18.571  23.622  1.00  0.00     0.000 A 
ATOM     93  C   UNL A   1      32.847  17.816  25.895  1.00  0.00     0.029 A 
ATOM     94  C   UNL A   1      33.080  17.272  23.184  1.00  0.00     0.010 A 
ATOM     95  C   UNL A   1      33.136  16.516  25.465  1.00  0.00     0.002 A 
ATOM     96  C   UNL A   1      33.262  16.245  24.107  1.00  0.00     0.001 A 
ENDBRANCH  85  87
ENDBRANCH  84  85
ENDBRANCH  77  80
ENDBRANCH  75  76
ENDBRANCH  74  75
ENDBRANCH  73  74
ENDBRANCH   1  73
TORSDOF 18
ENDMDL
MODEL 3
REMARK VINA RESULT:     -12.0      4.675     10.093
REMARK SMILES O=C(NCCCCCCNC(=O)[C@@H]1C=C[C@@H](Nc2ccc3ccccc3n2)C1)c1ccc(-c2c3nc(c(-c4cc(S(=O)(=O)[O-])ccc4F)c4ccc([nH]4)c(-c4cc(S(=O)(=O)[O-])ccc4F)c4nc(c(-c5cc(S(=O)(=O)[O-])ccc5F)c5ccc2[nH]5)C=C4)C=C3)cc1
REMARK SMILES IDX 6 1 5 2 4 3 3 4 1 5 2 6 29 8 30 9 91 10 31 11 90 12 32 13
REMARK SMILES IDX 33 14 34 15 84 16 35 17 89 18 83 19 85 20 36 21 88 22 82 23
REMARK SMILES IDX 81 24 37 26 69 27 49 28 68 29 50 30 53 31 67 32 86 33 51 34
REMARK SMILES IDX 52 35 66 37 87 38 54 39 38 40 39 41 47 42 40 43 46 44 48 45
REMARK SMILES IDX 45 46 41 47 42 48 43 49 44 50 70 51 71 52 79 53 72 54 78 55
REMARK SMILES IDX 80 56 77 57 73 58 74 59 75 60 76 61 55 62 56 63 64 64 57 65
REMARK SMILES IDX 63 66 65 67 62 68 58 69 59 70 60 71 61 72 7 73 8 74 9 75
REMARK SMILES IDX 10 76 11 77 12 79 13 80 14 81 28 82 15 83 16 84 17 85 18 87
REMARK SMILES IDX 19 88 27 89 20 90 26 91 21 92 25 93 22 94 24 95 23 96
REMARK H PARENT 3 7 85 25 53 36 10 78 17 86
REMARK Flexibility Score: inf
ROOT
ATOM      1  C   UNL A   1      31.501  28.861  25.787  1.00  0.00     0.002 C 
ENDROOT
BRANCH   1   2
ATOM      2  C   UNL A   1      32.768  28.335  26.461  1.00  0.00     0.021 C 
BRANCH   2   3
ATOM      3  C   UNL A   1      33.962  29.279  26.433  1.00  0.00     0.116 C 
BRANCH   3   4
ATOM      4  N   UNL A   1      33.677  30.570  27.036  1.00  0.00    -0.352 N 
ATOM      5  O   UNL A   1      33.943  32.278  28.488  1.00  0.00    -0.269 OA
ATOM      6  C   UNL A   1      34.400  31.256  27.984  1.00  0.00     0.251 C 
ATOM      7  H   UNL A   1      32.856  31.015  26.723  1.00  0.00     0.163 HD
BRANCH   6   8
ATOM      8  C   UNL A   1      35.723  30.742  28.412  1.00  0.00     0.039 A 
ATOM      9  C   UNL A   1      35.814  29.696  29.332  1.00  0.00     0.014 A 
ATOM     10  C   UNL A   1      36.886  31.315  27.887  1.00  0.00     0.014 A 
ATOM     11  C   UNL A   1      37.057  29.324  29.833  1.00  0.00     0.010 A 
ATOM     12  C   UNL A   1      38.140  30.876  28.326  1.00  0.00     0.010 A 
ATOM     13  C   UNL A   1      38.235  29.894  29.325  1.00  0.00    -0.014 A 
BRANCH  13  14
ATOM     14  C   UNL A   1      39.545  29.389  29.816  1.00  0.00     0.031 A 
ATOM     15  C   UNL A   1      40.222  29.995  31.014  1.00  0.00     0.074 A 
ATOM     16  C   UNL A   1      40.091  28.324  29.194  1.00  0.00     0.049 A 
ATOM     17  N   UNL A   1      41.335  29.634  31.601  1.00  0.00    -0.248 NA
ATOM     18  C   UNL A   1      39.573  31.164  31.626  1.00  0.00     0.031 C 
ATOM     19  C   UNL A   1      39.529  27.667  28.010  1.00  0.00     0.029 A 
ATOM     20  N   UNL A   1      41.212  27.589  29.478  1.00  0.00    -0.354 N 
ATOM     21  C   UNL A   1      41.525  30.527  32.651  1.00  0.00     0.074 A 
ATOM     22  C   UNL A   1      40.430  31.475  32.590  1.00  0.00     0.031 C 
ATOM     23  C   UNL A   1      40.275  26.596  27.704  1.00  0.00     0.029 A 
ATOM     24  C   UNL A   1      41.404  26.527  28.625  1.00  0.00     0.049 A 
ATOM     25  H   UNL A   1      41.822  27.800  30.222  1.00  0.00     0.167 HD
ATOM     26  C   UNL A   1      42.513  30.547  33.581  1.00  0.00     0.034 A 
ATOM     27  C   UNL A   1      42.385  25.606  28.576  1.00  0.00     0.034 A 
ATOM     28  C   UNL A   1      43.602  29.599  33.619  1.00  0.00     0.049 A 
ATOM     29  C   UNL A   1      43.474  25.660  29.611  1.00  0.00     0.074 A 
ATOM     30  C   UNL A   1      44.659  29.530  34.512  1.00  0.00     0.029 A 
ATOM     31  N   UNL A   1      43.780  28.552  32.721  1.00  0.00    -0.354 N 
ATOM     32  N   UNL A   1      43.632  26.511  30.598  1.00  0.00    -0.248 NA
ATOM     33  C   UNL A   1      44.511  24.625  29.531  1.00  0.00     0.031 C 
ATOM     34  C   UNL A   1      45.500  28.480  34.124  1.00  0.00     0.029 A 
ATOM     35  C   UNL A   1      44.934  27.845  33.030  1.00  0.00     0.049 A 
ATOM     36  H   UNL A   1      43.173  28.340  31.976  1.00  0.00     0.167 HD
ATOM     37  C   UNL A   1      44.785  26.108  31.262  1.00  0.00     0.074 A 
ATOM     38  C   UNL A   1      45.257  24.916  30.585  1.00  0.00     0.031 C 
ATOM     39  C   UNL A   1      45.405  26.675  32.328  1.00  0.00     0.034 A 
BRANCH  26  40
ATOM     40  C   UNL A   1      42.476  31.651  34.612  1.00  0.00     0.023 A 
ATOM     41  C   UNL A   1      41.567  31.629  35.685  1.00  0.00     0.031 A 
ATOM     42  C   UNL A   1      43.354  32.746  34.517  1.00  0.00     0.131 A 
ATOM     43  C   UNL A   1      41.518  32.705  36.585  1.00  0.00     0.055 A 
ATOM     44  C   UNL A   1      43.348  33.779  35.457  1.00  0.00     0.041 A 
ATOM     45  F   UNL A   1      44.231  32.833  33.505  1.00  0.00    -0.206 F 
ATOM     46  C   UNL A   1      42.418  33.769  36.493  1.00  0.00     0.022 A 
BRANCH  43  47
ATOM     47  S   UNL A   1      40.180  32.753  37.809  1.00  0.00     0.124 S 
ATOM     48  O   UNL A   1      40.877  32.343  39.027  1.00  0.00    -0.237 OA
ATOM     49  O   UNL A   1      39.753  34.147  37.758  1.00  0.00    -0.237 OA
ATOM     50  O   UNL A   1      39.212  31.785  37.298  1.00  0.00    -0.744 OA
ENDBRANCH  43  47
ENDBRANCH  26  40
BRANCH  27  51
ATOM     51  C   UNL A   1      42.399  24.582  27.492  1.00  0.00     0.023 A 
ATOM     52  C   UNL A   1      41.686  23.380  27.613  1.00  0.00     0.031 A 
ATOM     53  C   UNL A   1      43.155  24.786  26.324  1.00  0.00     0.131 A 
ATOM     54  C   UNL A   1      41.778  22.409  26.604  1.00  0.00     0.055 A 
ATOM     55  C   UNL A   1      43.198  23.843  25.298  1.00  0.00     0.041 A 
ATOM     56  F   UNL A   1      43.851  25.922  26.154  1.00  0.00    -0.206 F 
ATOM     57  C   UNL A   1      42.518  22.638  25.441  1.00  0.00     0.022 A 
BRANCH  54  58
ATOM     58  S   UNL A   1      40.987  20.800  26.873  1.00  0.00     0.124 S 
ATOM     59  O   UNL A   1      42.016  19.878  26.405  1.00  0.00    -0.237 OA
ATOM     60  O   UNL A   1      40.748  20.818  28.312  1.00  0.00    -0.237 OA
ATOM     61  O   UNL A   1      39.786  20.868  26.042  1.00  0.00    -0.744 OA
ENDBRANCH  54  58
ENDBRANCH  27  51
BRANCH  39  62
ATOM     62  C   UNL A   1      46.651  25.985  32.825  1.00  0.00     0.023 A 
ATOM     63  C   UNL A   1      47.905  26.216  32.231  1.00  0.00     0.031 A 
ATOM     64  C   UNL A   1      46.575  25.046  33.869  1.00  0.00     0.131 A 
ATOM     65  C   UNL A   1      49.019  25.466  32.636  1.00  0.00     0.055 A 
ATOM     66  C   UNL A   1      47.700  24.348  34.309  1.00  0.00     0.041 A 
ATOM     67  F   UNL A   1      45.404  24.785  34.469  1.00  0.00    -0.206 F 
ATOM     68  C   UNL A   1      48.927  24.543  33.681  1.00  0.00     0.022 A 
BRANCH  65  69
ATOM     69  S   UNL A   1      50.563  25.633  31.701  1.00  0.00     0.124 S 
ATOM     70  O   UNL A   1      51.549  25.784  32.766  1.00  0.00    -0.237 OA
ATOM     71  O   UNL A   1      50.615  24.379  30.957  1.00  0.00    -0.237 OA
ATOM     72  O   UNL A   1      50.343  26.827  30.886  1.00  0.00    -0.744 OA
ENDBRANCH  65  69
ENDBRANCH  39  62
ENDBRANCH  13  14
ENDBRANCH   6   8
ENDBRANCH   3   4
ENDBRANCH   2   3
ENDBRANCH   1   2
BRANCH   1  73
ATOM     73  C   UNL A   1      31.590  29.094  24.274  1.00  0.00     0.002 C 
BRANCH  73  74
ATOM     74  C   UNL A   1      30.257  29.261  23.534  1.00  0.00     0.021 C 
BRANCH  74  75
ATOM     75  C   UNL A   1      29.848  28.086  22.651  1.00  0.00     0.116 C 
BRANCH  75  76
ATOM     76  N   UNL A   1      30.988  27.358  22.135  1.00  0.00    -0.356 N 
ATOM     77  C   UNL A   1      31.389  26.071  22.292  1.00  0.00     0.227 C 
ATOM     78  H   UNL A   1      31.584  27.896  21.565  1.00  0.00     0.163 HD
ATOM     79  O   UNL A   1      32.375  25.717  21.632  1.00  0.00    -0.274 OA
BRANCH  77  80
ATOM     80  C   UNL A   1      30.771  25.094  23.300  1.00  0.00     0.103 C 
ATOM     81  C   UNL A   1      30.568  25.512  24.721  1.00  0.00    -0.016 C 
ATOM     82  C   UNL A   1      31.596  23.808  23.411  1.00  0.00     0.046 C 
ATOM     83  C   UNL A   1      31.243  24.727  25.571  1.00  0.00    -0.006 C 
ATOM     84  C   UNL A   1      32.076  23.706  24.867  1.00  0.00     0.104 C 
BRANCH  84  85
ATOM     85  N   UNL A   1      31.765  22.395  25.370  1.00  0.00    -0.364 N 
ATOM     86  H   UNL A   1      30.953  22.265  25.911  1.00  0.00     0.162 HD
BRANCH  85  87
ATOM     87  C   UNL A   1      32.584  21.316  25.107  1.00  0.00     0.127 A 
ATOM     88  C   UNL A   1      33.958  21.506  25.172  1.00  0.00     0.047 A 
ATOM     89  N   UNL A   1      32.049  20.107  24.848  1.00  0.00    -0.231 NA
ATOM     90  C   UNL A   1      34.809  20.425  24.970  1.00  0.00     0.014 A 
ATOM     91  C   UNL A   1      32.867  19.066  24.594  1.00  0.00     0.073 A 
ATOM     92  C   UNL A   1      34.271  19.176  24.664  1.00  0.00     0.000 A 
ATOM     93  C   UNL A   1      32.332  17.832  24.243  1.00  0.00     0.029 A 
ATOM     94  C   UNL A   1      35.092  18.060  24.420  1.00  0.00     0.010 A 
ATOM     95  C   UNL A   1      33.144  16.724  23.975  1.00  0.00     0.002 A 
ATOM     96  C   UNL A   1      34.527  16.835  24.074  1.00  0.00     0.001 A 
ENDBRANCH  85  87
ENDBRANCH  84  85
ENDBRANCH  77  80
ENDBRANCH  75  76
ENDBRANCH  74  75
ENDBRANCH  73  74
ENDBRANCH   1  73
TORSDOF 18
ENDMDL
