MODEL 1
REMARK VINA RESULT:     -10.9      0.000      0.000
REMARK SMILES CC(C)C[NH2+][C@@H](CC(=O)Nc1cccc(Cl)c1)C(=O)NCCCCCCNC(=O)c1ccc(-c2c3nc(c(-c4cc(S(=O)(=O)[O-])ccc4F)c4ccc([nH]4)c(-c4cc(S(=O)(=O)[O-])ccc4F)c4nc(c(-c5cc(S(=O)(=O)[O-])ccc5F)c5ccc2[nH]5)C=C4)C=C3)cc1
REMARK SMILES IDX 23 1 22 2 21 3 20 4 18 5 19 6 6 8 5 9 4 12 2 13 1 14 3 15
REMARK SMILES IDX 7 16 8 17 9 18 10 19 11 21 12 22 17 23 13 24 15 25 14 26
REMARK SMILES IDX 16 27 24 28 25 29 26 30 27 31 28 32 29 34 30 35 31 36 92 37
REMARK SMILES IDX 32 38 91 39 33 40 34 41 35 42 85 43 36 44 90 45 84 46 86 47
REMARK SMILES IDX 37 48 89 49 83 50 82 51 38 53 70 54 50 55 69 56 51 57 54 58
REMARK SMILES IDX 68 59 87 60 52 61 53 62 67 64 88 65 55 66 39 67 40 68 48 69
REMARK SMILES IDX 41 70 47 71 49 72 46 73 42 74 43 75 44 76 45 77 71 78 72 79
REMARK SMILES IDX 80 80 73 81 79 82 81 83 78 84 74 85 75 86 76 87 77 88 56 89
REMARK SMILES IDX 57 90 65 91 58 92 64 93 66 94 63 95 59 96 60 97 61 98 62 99
REMARK H PARENT 20 7 5 10 5 11 10 20 27 33 86 52 54 63
REMARK Flexibility Score: inf
ROOT
ATOM      1  C   UNL A   1      37.559  23.167  25.757  1.00  0.00     0.002 C 
ENDROOT
BRANCH   1   2
ATOM      2  C   UNL A   1      36.498  22.112  25.486  1.00  0.00     0.021 C 
BRANCH   2   3
ATOM      3  C   UNL A   1      35.327  22.115  26.461  1.00  0.00     0.116 C 
BRANCH   3   4
ATOM      4  N   UNL A   1      34.264  21.181  26.185  1.00  0.00    -0.351 N 
ATOM      5  C   UNL A   1      33.021  21.411  25.663  1.00  0.00     0.278 C 
ATOM      6  O   UNL A   1      32.335  20.406  25.431  1.00  0.00    -0.268 OA
ATOM      7  H   UNL A   1      34.463  20.241  26.402  1.00  0.00     0.163 HD
BRANCH   5   8
ATOM      8  C   UNL A   1      32.402  22.836  25.434  1.00  0.00     0.281 C 
BRANCH   8   9
ATOM      9  N   UNL A   1      31.698  22.871  24.161  1.00  0.00    -0.335 N 
ATOM     10  H   UNL A   1      31.624  21.905  23.843  1.00  0.00     0.346 HD
ATOM     11  H   UNL A   1      30.838  23.369  24.392  1.00  0.00     0.346 HD
BRANCH   9  12
ATOM     12  C   UNL A   1      32.223  23.640  23.035  1.00  0.00     0.264 C 
BRANCH  12  13
ATOM     13  C   UNL A   1      32.494  25.434  23.193  1.00  0.00     0.038 C 
ATOM     14  C   UNL A   1      34.084  26.516  24.251  1.00  0.00     0.013 C 
ATOM     15  C   UNL A   1      31.847  25.717  21.604  1.00  0.00     0.013 C 
ENDBRANCH  12  13
ENDBRANCH   9  12
ENDBRANCH   8   9
BRANCH   8  16
ATOM     16  C   UNL A   1      31.761  23.486  26.650  1.00  0.00     0.175 C 
BRANCH  16  17
ATOM     17  C   UNL A   1      30.270  23.719  26.818  1.00  0.00     0.230 C 
ATOM     18  O   UNL A   1      29.624  22.881  27.466  1.00  0.00    -0.274 OA
ATOM     19  N   UNL A   1      29.594  24.843  26.462  1.00  0.00    -0.326 N 
ATOM     20  H   UNL A   1      28.715  24.910  26.902  1.00  0.00     0.169 HD
BRANCH  19  21
ATOM     21  C   UNL A   1      29.853  25.933  25.613  1.00  0.00     0.042 A 
ATOM     22  C   UNL A   1      28.965  26.341  24.072  1.00  0.00     0.026 A 
ATOM     23  C   UNL A   1      31.088  27.073  26.250  1.00  0.00     0.046 A 
ATOM     24  C   UNL A   1      29.316  27.877  23.190  1.00  0.00     0.004 A 
ATOM     25  C   UNL A   1      31.394  28.617  25.387  1.00  0.00     0.043 A 
ATOM     26  C   UNL A   1      30.576  28.989  23.827  1.00  0.00     0.020 A 
ATOM     27  Cl  UNL A   1      32.378  29.815  26.138  1.00  0.00    -0.084 Cl
ENDBRANCH  19  21
ENDBRANCH  16  17
ENDBRANCH   8  16
ENDBRANCH   5   8
ENDBRANCH   3   4
ENDBRANCH   2   3
ENDBRANCH   1   2
BRANCH   1  28
ATOM     28  C   UNL A   1      38.972  22.620  25.981  1.00  0.00     0.002 C 
BRANCH  28  29
ATOM     29  C   UNL A   1      39.056  21.174  26.481  1.00  0.00     0.021 C 
BRANCH  29  30
ATOM     30  C   UNL A   1      39.429  20.143  25.418  1.00  0.00     0.116 C 
BRANCH  30  31
ATOM     31  N   UNL A   1      40.460  19.230  25.883  1.00  0.00    -0.352 N 
ATOM     32  C   UNL A   1      41.736  19.487  26.317  1.00  0.00     0.251 C 
ATOM     33  H   UNL A   1      40.204  18.279  25.888  1.00  0.00     0.163 HD
ATOM     34  O   UNL A   1      42.532  18.560  26.442  1.00  0.00    -0.269 OA
BRANCH  32  35
ATOM     35  C   UNL A   1      42.153  20.874  26.617  1.00  0.00     0.039 A 
ATOM     36  C   UNL A   1      42.447  21.735  25.558  1.00  0.00     0.014 A 
ATOM     37  C   UNL A   1      42.271  21.319  27.937  1.00  0.00     0.014 A 
ATOM     38  C   UNL A   1      42.803  23.060  25.823  1.00  0.00     0.010 A 
ATOM     39  C   UNL A   1      42.544  22.660  28.195  1.00  0.00     0.010 A 
ATOM     40  C   UNL A   1      42.815  23.545  27.142  1.00  0.00    -0.014 A 
BRANCH  40  41
ATOM     41  C   UNL A   1      43.107  24.974  27.430  1.00  0.00     0.031 A 
ATOM     42  C   UNL A   1      44.481  25.534  27.174  1.00  0.00     0.074 A 
ATOM     43  C   UNL A   1      42.148  25.754  27.967  1.00  0.00     0.049 A 
ATOM     44  N   UNL A   1      44.941  26.736  27.413  1.00  0.00    -0.248 NA
ATOM     45  C   UNL A   1      45.473  24.617  26.594  1.00  0.00     0.031 C 
ATOM     46  C   UNL A   1      40.787  25.316  28.288  1.00  0.00     0.029 A 
ATOM     47  N   UNL A   1      42.164  27.076  28.338  1.00  0.00    -0.354 N 
ATOM     48  C   UNL A   1      46.275  26.717  27.021  1.00  0.00     0.074 A 
ATOM     49  C   UNL A   1      46.565  25.365  26.590  1.00  0.00     0.031 C 
ATOM     50  C   UNL A   1      40.093  26.357  28.774  1.00  0.00     0.029 A 
ATOM     51  C   UNL A   1      40.969  27.519  28.860  1.00  0.00     0.049 A 
ATOM     52  H   UNL A   1      42.956  27.652  28.242  1.00  0.00     0.167 HD
ATOM     53  C   UNL A   1      47.168  27.738  27.000  1.00  0.00     0.034 A 
ATOM     54  C   UNL A   1      40.624  28.721  29.366  1.00  0.00     0.034 A 
ATOM     55  C   UNL A   1      46.860  29.080  27.434  1.00  0.00     0.049 A 
ATOM     56  C   UNL A   1      41.653  29.823  29.387  1.00  0.00     0.074 A 
ATOM     57  C   UNL A   1      47.676  30.197  27.412  1.00  0.00     0.029 A 
ATOM     58  N   UNL A   1      45.649  29.485  27.980  1.00  0.00    -0.354 N 
ATOM     59  N   UNL A   1      42.897  29.801  28.967  1.00  0.00    -0.248 NA
ATOM     60  C   UNL A   1      41.228  31.116  29.939  1.00  0.00     0.031 C 
ATOM     61  C   UNL A   1      46.993  31.249  28.029  1.00  0.00     0.029 A 
ATOM     62  C   UNL A   1      45.713  30.822  28.340  1.00  0.00     0.049 A 
ATOM     63  H   UNL A   1      44.860  28.906  28.095  1.00  0.00     0.167 HD
ATOM     64  C   UNL A   1      43.391  31.087  29.172  1.00  0.00     0.074 A 
ATOM     65  C   UNL A   1      42.305  31.862  29.737  1.00  0.00     0.031 C 
ATOM     66  C   UNL A   1      44.627  31.585  28.912  1.00  0.00     0.034 A 
BRANCH  53  67
ATOM     67  C   UNL A   1      48.570  27.433  26.524  1.00  0.00     0.023 A 
ATOM     68  C   UNL A   1      48.986  27.721  25.212  1.00  0.00     0.031 A 
ATOM     69  C   UNL A   1      49.502  26.837  27.393  1.00  0.00     0.131 A 
ATOM     70  C   UNL A   1      50.270  27.345  24.787  1.00  0.00     0.055 A 
ATOM     71  C   UNL A   1      50.807  26.549  26.989  1.00  0.00     0.041 A 
ATOM     72  F   UNL A   1      49.158  26.514  28.649  1.00  0.00    -0.206 F 
ATOM     73  C   UNL A   1      51.193  26.790  25.674  1.00  0.00     0.022 A 
BRANCH  70  74
ATOM     74  S   UNL A   1      50.659  27.451  23.018  1.00  0.00     0.124 S 
ATOM     75  O   UNL A   1      49.497  26.796  22.421  1.00  0.00    -0.237 OA
ATOM     76  O   UNL A   1      50.763  28.889  22.803  1.00  0.00    -0.237 OA
ATOM     77  O   UNL A   1      51.911  26.708  22.898  1.00  0.00    -0.744 OA
ENDBRANCH  70  74
ENDBRANCH  53  67
BRANCH  54  78
ATOM     78  C   UNL A   1      39.255  28.945  29.919  1.00  0.00     0.023 A 
ATOM     79  C   UNL A   1      38.280  29.638  29.184  1.00  0.00     0.031 A 
ATOM     80  C   UNL A   1      38.919  28.520  31.217  1.00  0.00     0.131 A 
ATOM     81  C   UNL A   1      37.040  29.935  29.771  1.00  0.00     0.055 A 
ATOM     82  C   UNL A   1      37.660  28.757  31.771  1.00  0.00     0.041 A 
ATOM     83  F   UNL A   1      39.813  27.857  31.969  1.00  0.00    -0.206 F 
ATOM     84  C   UNL A   1      36.717  29.484  31.052  1.00  0.00     0.022 A 
BRANCH  81  85
ATOM     85  S   UNL A   1      35.899  31.028  28.879  1.00  0.00     0.124 S 
ATOM     86  O   UNL A   1      35.107  31.582  29.971  1.00  0.00    -0.237 OA
ATOM     87  O   UNL A   1      36.816  31.950  28.218  1.00  0.00    -0.237 OA
ATOM     88  O   UNL A   1      35.183  30.117  27.988  1.00  0.00    -0.744 OA
ENDBRANCH  81  85
ENDBRANCH  54  78
BRANCH  66  89
ATOM     89  C   UNL A   1      44.854  33.053  29.185  1.00  0.00     0.023 A 
ATOM     90  C   UNL A   1      44.415  34.054  28.300  1.00  0.00     0.031 A 
ATOM     91  C   UNL A   1      45.528  33.458  30.352  1.00  0.00     0.131 A 
ATOM     92  C   UNL A   1      44.710  35.400  28.564  1.00  0.00     0.055 A 
ATOM     93  C   UNL A   1      45.751  34.802  30.648  1.00  0.00     0.041 A 
ATOM     94  F   UNL A   1      45.979  32.547  31.232  1.00  0.00    -0.206 F 
ATOM     95  C   UNL A   1      45.355  35.782  29.743  1.00  0.00     0.022 A 
BRANCH  92  96
ATOM     96  S   UNL A   1      44.343  36.637  27.289  1.00  0.00     0.124 S 
ATOM     97  O   UNL A   1      43.430  35.907  26.415  1.00  0.00    -0.237 OA
ATOM     98  O   UNL A   1      43.752  37.720  28.067  1.00  0.00    -0.237 OA
ATOM     99  O   UNL A   1      45.652  36.932  26.711  1.00  0.00    -0.744 OA
ENDBRANCH  92  96
ENDBRANCH  66  89
ENDBRANCH  40  41
ENDBRANCH  32  35
ENDBRANCH  30  31
ENDBRANCH  29  30
ENDBRANCH  28  29
ENDBRANCH   1  28
TORSDOF 22
ENDMDL
MODEL 2
REMARK VINA RESULT:     -10.8      1.319      7.552
REMARK SMILES CC(C)C[NH2+][C@@H](CC(=O)Nc1cccc(Cl)c1)C(=O)NCCCCCCNC(=O)c1ccc(-c2c3nc(c(-c4cc(S(=O)(=O)[O-])ccc4F)c4ccc([nH]4)c(-c4cc(S(=O)(=O)[O-])ccc4F)c4nc(c(-c5cc(S(=O)(=O)[O-])ccc5F)c5ccc2[nH]5)C=C4)C=C3)cc1
REMARK SMILES IDX 23 1 22 2 21 3 20 4 18 5 19 6 6 8 5 9 4 12 2 13 1 14 3 15
REMARK SMILES IDX 7 16 8 17 9 18 10 19 11 21 12 22 17 23 13 24 15 25 14 26
REMARK SMILES IDX 16 27 24 28 25 29 26 30 27 31 28 32 29 34 30 35 31 36 92 37
REMARK SMILES IDX 32 38 91 39 33 40 34 41 35 42 85 43 36 44 90 45 84 46 86 47
REMARK SMILES IDX 37 48 89 49 83 50 82 51 38 53 70 54 50 55 69 56 51 57 54 58
REMARK SMILES IDX 68 59 87 60 52 61 53 62 67 64 88 65 55 66 39 67 40 68 48 69
REMARK SMILES IDX 41 70 47 71 49 72 46 73 42 74 43 75 44 76 45 77 71 78 72 79
REMARK SMILES IDX 80 80 73 81 79 82 81 83 78 84 74 85 75 86 76 87 77 88 56 89
REMARK SMILES IDX 57 90 65 91 58 92 64 93 66 94 63 95 59 96 60 97 61 98 62 99
REMARK H PARENT 20 7 5 10 5 11 10 20 27 33 86 52 54 63
REMARK Flexibility Score: inf
ROOT
ATOM      1  C   UNL A   1      37.010  22.860  25.618  1.00  0.00     0.002 C 
ENDROOT
BRANCH   1   2
ATOM      2  C   UNL A   1      36.099  21.662  25.401  1.00  0.00     0.021 C 
BRANCH   2   3
ATOM      3  C   UNL A   1      35.017  21.479  26.460  1.00  0.00     0.116 C 
BRANCH   3   4
ATOM      4  N   UNL A   1      33.876  20.688  26.075  1.00  0.00    -0.351 N 
ATOM      5  C   UNL A   1      32.688  21.088  25.529  1.00  0.00     0.278 C 
ATOM      6  O   UNL A   1      31.910  20.183  25.197  1.00  0.00    -0.268 OA
ATOM      7  H   UNL A   1      33.965  19.719  26.227  1.00  0.00     0.163 HD
BRANCH   5   8
ATOM      8  C   UNL A   1      32.232  22.584  25.388  1.00  0.00     0.281 C 
BRANCH   8   9
ATOM      9  N   UNL A   1      31.512  22.766  24.137  1.00  0.00    -0.335 N 
ATOM     10  H   UNL A   1      31.459  21.849  23.695  1.00  0.00     0.346 HD
ATOM     11  H   UNL A   1      30.642  23.205  24.439  1.00  0.00     0.346 HD
BRANCH   9  12
ATOM     12  C   UNL A   1      32.002  23.691  23.117  1.00  0.00     0.264 C 
BRANCH  12  13
ATOM     13  C   UNL A   1      32.933  25.182  23.598  1.00  0.00     0.038 C 
ATOM     14  C   UNL A   1      34.375  25.457  25.229  1.00  0.00     0.013 C 
ATOM     15  C   UNL A   1      33.037  25.705  21.943  1.00  0.00     0.013 C 
ENDBRANCH  12  13
ENDBRANCH   9  12
ENDBRANCH   8   9
BRANCH   8  16
ATOM     16  C   UNL A   1      31.694  23.238  26.651  1.00  0.00     0.175 C 
BRANCH  16  17
ATOM     17  C   UNL A   1      30.245  23.637  26.865  1.00  0.00     0.230 C 
ATOM     18  O   UNL A   1      29.531  22.879  27.539  1.00  0.00    -0.274 OA
ATOM     19  N   UNL A   1      29.688  24.830  26.524  1.00  0.00    -0.326 N 
ATOM     20  H   UNL A   1      28.837  24.996  26.993  1.00  0.00     0.169 HD
BRANCH  19  21
ATOM     21  C   UNL A   1      30.039  25.881  25.661  1.00  0.00     0.042 A 
ATOM     22  C   UNL A   1      29.315  26.226  24.022  1.00  0.00     0.026 A 
ATOM     23  C   UNL A   1      31.212  27.044  26.371  1.00  0.00     0.046 A 
ATOM     24  C   UNL A   1      29.765  27.722  23.116  1.00  0.00     0.004 A 
ATOM     25  C   UNL A   1      31.614  28.549  25.479  1.00  0.00     0.043 A 
ATOM     26  C   UNL A   1      30.962  28.856  23.829  1.00  0.00     0.020 A 
ATOM     27  Cl  UNL A   1      32.526  29.775  26.275  1.00  0.00    -0.084 Cl
ENDBRANCH  19  21
ENDBRANCH  16  17
ENDBRANCH   8  16
ENDBRANCH   5   8
ENDBRANCH   3   4
ENDBRANCH   2   3
ENDBRANCH   1   2
BRANCH   1  28
ATOM     28  C   UNL A   1      38.498  22.524  25.750  1.00  0.00     0.002 C 
BRANCH  28  29
ATOM     29  C   UNL A   1      38.822  21.133  26.306  1.00  0.00     0.021 C 
BRANCH  29  30
ATOM     30  C   UNL A   1      39.464  20.171  25.308  1.00  0.00     0.116 C 
BRANCH  30  31
ATOM     31  N   UNL A   1      40.485  19.344  25.930  1.00  0.00    -0.352 N 
ATOM     32  C   UNL A   1      41.698  19.694  26.469  1.00  0.00     0.251 C 
ATOM     33  H   UNL A   1      40.275  18.383  25.971  1.00  0.00     0.163 HD
ATOM     34  O   UNL A   1      42.520  18.820  26.730  1.00  0.00    -0.269 OA
BRANCH  32  35
ATOM     35  C   UNL A   1      42.016  21.117  26.717  1.00  0.00     0.039 A 
ATOM     36  C   UNL A   1      42.053  21.581  28.033  1.00  0.00     0.014 A 
ATOM     37  C   UNL A   1      42.261  21.994  25.656  1.00  0.00     0.014 A 
ATOM     38  C   UNL A   1      42.394  22.912  28.287  1.00  0.00     0.010 A 
ATOM     39  C   UNL A   1      42.681  23.296  25.915  1.00  0.00     0.010 A 
ATOM     40  C   UNL A   1      42.749  23.771  27.233  1.00  0.00    -0.014 A 
BRANCH  40  41
ATOM     41  C   UNL A   1      43.197  25.165  27.498  1.00  0.00     0.031 A 
ATOM     42  C   UNL A   1      42.246  26.165  28.099  1.00  0.00     0.074 A 
ATOM     43  C   UNL A   1      44.444  25.539  27.151  1.00  0.00     0.049 A 
ATOM     44  N   UNL A   1      42.434  27.435  28.350  1.00  0.00    -0.248 NA
ATOM     45  C   UNL A   1      40.901  25.679  28.441  1.00  0.00     0.031 C 
ATOM     46  C   UNL A   1      45.446  24.667  26.534  1.00  0.00     0.029 A 
ATOM     47  N   UNL A   1      45.086  26.748  27.267  1.00  0.00    -0.354 N 
ATOM     48  C   UNL A   1      41.232  27.901  28.872  1.00  0.00     0.074 A 
ATOM     49  C   UNL A   1      40.304  26.791  28.839  1.00  0.00     0.031 C 
ATOM     50  C   UNL A   1      46.583  25.358  26.358  1.00  0.00     0.029 A 
ATOM     51  C   UNL A   1      46.378  26.736  26.790  1.00  0.00     0.049 A 
ATOM     52  H   UNL A   1      44.663  27.548  27.654  1.00  0.00     0.167 HD
ATOM     53  C   UNL A   1      40.938  29.134  29.356  1.00  0.00     0.034 A 
ATOM     54  C   UNL A   1      47.288  27.727  26.694  1.00  0.00     0.034 A 
ATOM     55  C   UNL A   1      41.878  30.229  29.381  1.00  0.00     0.049 A 
ATOM     56  C   UNL A   1      46.917  29.104  27.184  1.00  0.00     0.074 A 
ATOM     57  C   UNL A   1      41.698  31.504  29.890  1.00  0.00     0.029 A 
ATOM     58  N   UNL A   1      43.167  30.188  28.866  1.00  0.00    -0.354 N 
ATOM     59  N   UNL A   1      45.790  29.515  27.720  1.00  0.00    -0.248 NA
ATOM     60  C   UNL A   1      47.943  30.148  27.067  1.00  0.00     0.031 C 
ATOM     61  C   UNL A   1      42.839  32.257  29.598  1.00  0.00     0.029 A 
ATOM     62  C   UNL A   1      43.775  31.427  29.003  1.00  0.00     0.049 A 
ATOM     63  H   UNL A   1      43.588  29.395  28.461  1.00  0.00     0.167 HD
ATOM     64  C   UNL A   1      45.988  30.857  28.036  1.00  0.00     0.074 A 
ATOM     65  C   UNL A   1      47.345  31.179  27.647  1.00  0.00     0.031 C 
ATOM     66  C   UNL A   1      45.127  31.741  28.603  1.00  0.00     0.034 A 
BRANCH  53  67
ATOM     67  C   UNL A   1      39.535  29.371  29.865  1.00  0.00     0.023 A 
ATOM     68  C   UNL A   1      38.584  30.084  29.113  1.00  0.00     0.031 A 
ATOM     69  C   UNL A   1      39.143  28.883  31.124  1.00  0.00     0.131 A 
ATOM     70  C   UNL A   1      37.319  30.352  29.657  1.00  0.00     0.055 A 
ATOM     71  C   UNL A   1      37.853  29.076  31.621  1.00  0.00     0.041 A 
ATOM     72  F   UNL A   1      40.012  28.217  31.900  1.00  0.00    -0.206 F 
ATOM     73  C   UNL A   1      36.936  29.827  30.893  1.00  0.00     0.022 A 
BRANCH  70  74
ATOM     74  S   UNL A   1      36.239  31.527  28.796  1.00  0.00     0.124 S 
ATOM     75  O   UNL A   1      36.019  30.846  27.521  1.00  0.00    -0.237 OA
ATOM     76  O   UNL A   1      35.086  31.608  29.684  1.00  0.00    -0.237 OA
ATOM     77  O   UNL A   1      37.050  32.740  28.711  1.00  0.00    -0.744 OA
ENDBRANCH  70  74
ENDBRANCH  53  67
BRANCH  54  78
ATOM     78  C   UNL A   1      48.629  27.468  26.089  1.00  0.00     0.023 A 
ATOM     79  C   UNL A   1      49.764  27.279  26.895  1.00  0.00     0.031 A 
ATOM     80  C   UNL A   1      48.807  27.465  24.694  1.00  0.00     0.131 A 
ATOM     81  C   UNL A   1      51.030  27.153  26.303  1.00  0.00     0.055 A 
ATOM     82  C   UNL A   1      50.058  27.269  24.108  1.00  0.00     0.041 A 
ATOM     83  F   UNL A   1      47.759  27.646  23.874  1.00  0.00    -0.206 F 
ATOM     84  C   UNL A   1      51.182  27.128  24.915  1.00  0.00     0.022 A 
BRANCH  81  85
ATOM     85  S   UNL A   1      52.492  27.144  27.376  1.00  0.00     0.124 S 
ATOM     86  O   UNL A   1      53.506  27.714  26.498  1.00  0.00    -0.237 OA
ATOM     87  O   UNL A   1      52.058  27.984  28.488  1.00  0.00    -0.237 OA
ATOM     88  O   UNL A   1      52.668  25.729  27.698  1.00  0.00    -0.744 OA
ENDBRANCH  81  85
ENDBRANCH  54  78
BRANCH  66  89
ATOM     89  C   UNL A   1      45.649  33.130  28.887  1.00  0.00     0.023 A 
ATOM     90  C   UNL A   1      45.476  34.193  27.982  1.00  0.00     0.031 A 
ATOM     91  C   UNL A   1      46.341  33.393  30.084  1.00  0.00     0.131 A 
ATOM     92  C   UNL A   1      46.039  35.447  28.260  1.00  0.00     0.055 A 
ATOM     93  C   UNL A   1      46.832  34.662  30.390  1.00  0.00     0.041 A 
ATOM     94  F   UNL A   1      46.546  32.416  30.984  1.00  0.00    -0.206 F 
ATOM     95  C   UNL A   1      46.696  35.695  29.468  1.00  0.00     0.022 A 
BRANCH  92  96
ATOM     96  S   UNL A   1      46.004  36.722  26.969  1.00  0.00     0.124 S 
ATOM     97  O   UNL A   1      46.821  37.775  27.564  1.00  0.00    -0.237 OA
ATOM     98  O   UNL A   1      46.591  36.027  25.828  1.00  0.00    -0.237 OA
ATOM     99  O   UNL A   1      44.583  37.037  26.839  1.00  0.00    -0.744 OA
ENDBRANCH  92  96
ENDBRANCH  66  89
ENDBRANCH  40  41
ENDBRANCH  32  35
ENDBRANCH  30  31
ENDBRANCH  29  30
ENDBRANCH  28  29
ENDBRANCH   1  28
TORSDOF 22
ENDMDL
MODEL 3
REMARK VINA RESULT:     -10.8      1.786      2.023
REMARK SMILES CC(C)C[NH2+][C@@H](CC(=O)Nc1cccc(Cl)c1)C(=O)NCCCCCCNC(=O)c1ccc(-c2c3nc(c(-c4cc(S(=O)(=O)[O-])ccc4F)c4ccc([nH]4)c(-c4cc(S(=O)(=O)[O-])ccc4F)c4nc(c(-c5cc(S(=O)(=O)[O-])ccc5F)c5ccc2[nH]5)C=C4)C=C3)cc1
REMARK SMILES IDX 23 1 22 2 21 3 20 4 18 5 19 6 6 8 5 9 4 12 2 13 1 14 3 15
REMARK SMILES IDX 7 16 8 17 9 18 10 19 11 21 12 22 17 23 13 24 15 25 14 26
REMARK SMILES IDX 16 27 24 28 25 29 26 30 27 31 28 32 29 34 30 35 31 36 92 37
REMARK SMILES IDX 32 38 91 39 33 40 34 41 35 42 85 43 36 44 90 45 84 46 86 47
REMARK SMILES IDX 37 48 89 49 83 50 82 51 38 53 70 54 50 55 69 56 51 57 54 58
REMARK SMILES IDX 68 59 87 60 52 61 53 62 67 64 88 65 55 66 39 67 40 68 48 69
REMARK SMILES IDX 41 70 47 71 49 72 46 73 42 74 43 75 44 76 45 77 71 78 72 79
REMARK SMILES IDX 80 80 73 81 79 82 81 83 78 84 74 85 75 86 76 87 77 88 56 89
REMARK SMILES IDX 57 90 65 91 58 92 64 93 66 94 63 95 59 96 60 97 61 98 62 99
REMARK H PARENT 20 7 5 10 5 11 10 20 27 33 86 52 54 63
REMARK Flexibility Score: inf
ROOT
ATOM      1  C   UNL A   1      36.890  22.772  25.922  1.00  0.00     0.002 C 
ENDROOT
BRANCH   1   2
ATOM      2  C   UNL A   1      36.045  21.524  25.714  1.00  0.00     0.021 C 
BRANCH   2   3
ATOM      3  C   UNL A   1      34.824  21.420  26.621  1.00  0.00     0.116 C 
BRANCH   3   4
ATOM      4  N   UNL A   1      33.706  20.672  26.101  1.00  0.00    -0.351 N 
ATOM      5  C   UNL A   1      32.563  21.125  25.503  1.00  0.00     0.278 C 
ATOM      6  O   UNL A   1      31.804  20.255  25.052  1.00  0.00    -0.268 OA
ATOM      7  H   UNL A   1      33.778  19.694  26.188  1.00  0.00     0.163 HD
BRANCH   5   8
ATOM      8  C   UNL A   1      32.129  22.633  25.438  1.00  0.00     0.281 C 
BRANCH   8   9
ATOM      9  N   UNL A   1      31.454  22.900  24.178  1.00  0.00    -0.335 N 
ATOM     10  H   UNL A   1      31.253  21.993  23.757  1.00  0.00     0.346 HD
ATOM     11  H   UNL A   1      30.667  23.483  24.462  1.00  0.00     0.346 HD
BRANCH   9  12
ATOM     12  C   UNL A   1      32.094  23.707  23.141  1.00  0.00     0.264 C 
BRANCH  12  13
ATOM     13  C   UNL A   1      32.899  25.284  23.568  1.00  0.00     0.038 C 
ATOM     14  C   UNL A   1      34.333  25.727  25.170  1.00  0.00     0.013 C 
ATOM     15  C   UNL A   1      32.937  25.769  21.899  1.00  0.00     0.013 C 
ENDBRANCH  12  13
ENDBRANCH   9  12
ENDBRANCH   8   9
BRANCH   8  16
ATOM     16  C   UNL A   1      31.556  23.215  26.721  1.00  0.00     0.175 C 
BRANCH  16  17
ATOM     17  C   UNL A   1      30.112  23.645  26.903  1.00  0.00     0.230 C 
ATOM     18  O   UNL A   1      29.371  22.909  27.572  1.00  0.00    -0.274 OA
ATOM     19  N   UNL A   1      29.584  24.844  26.536  1.00  0.00    -0.326 N 
ATOM     20  H   UNL A   1      28.728  25.032  26.986  1.00  0.00     0.169 HD
BRANCH  19  21
ATOM     21  C   UNL A   1      29.971  25.877  25.666  1.00  0.00     0.042 A 
ATOM     22  C   UNL A   1      29.340  26.167  23.979  1.00  0.00     0.026 A 
ATOM     23  C   UNL A   1      31.085  27.075  26.411  1.00  0.00     0.046 A 
ATOM     24  C   UNL A   1      29.822  27.645  23.061  1.00  0.00     0.004 A 
ATOM     25  C   UNL A   1      31.520  28.561  25.504  1.00  0.00     0.043 A 
ATOM     26  C   UNL A   1      30.961  28.816  23.811  1.00  0.00     0.020 A 
ATOM     27  Cl  UNL A   1      32.368  29.821  26.317  1.00  0.00    -0.084 Cl
ENDBRANCH  19  21
ENDBRANCH  16  17
ENDBRANCH   8  16
ENDBRANCH   5   8
ENDBRANCH   3   4
ENDBRANCH   2   3
ENDBRANCH   1   2
BRANCH   1  28
ATOM     28  C   UNL A   1      38.382  22.598  25.625  1.00  0.00     0.002 C 
BRANCH  28  29
ATOM     29  C   UNL A   1      39.060  21.393  26.289  1.00  0.00     0.021 C 
BRANCH  29  30
ATOM     30  C   UNL A   1      39.343  20.217  25.357  1.00  0.00     0.116 C 
BRANCH  30  31
ATOM     31  N   UNL A   1      40.312  19.293  25.925  1.00  0.00    -0.352 N 
ATOM     32  C   UNL A   1      41.565  19.530  26.430  1.00  0.00     0.251 C 
ATOM     33  H   UNL A   1      40.024  18.352  25.951  1.00  0.00     0.163 HD
ATOM     34  O   UNL A   1      42.320  18.586  26.645  1.00  0.00    -0.269 OA
BRANCH  32  35
ATOM     35  C   UNL A   1      42.007  20.915  26.700  1.00  0.00     0.039 A 
ATOM     36  C   UNL A   1      42.266  21.764  25.623  1.00  0.00     0.014 A 
ATOM     37  C   UNL A   1      42.184  21.370  28.010  1.00  0.00     0.014 A 
ATOM     38  C   UNL A   1      42.645  23.088  25.861  1.00  0.00     0.010 A 
ATOM     39  C   UNL A   1      42.480  22.711  28.245  1.00  0.00     0.010 A 
ATOM     40  C   UNL A   1      42.717  23.584  27.173  1.00  0.00    -0.014 A 
BRANCH  40  41
ATOM     41  C   UNL A   1      43.035  25.013  27.436  1.00  0.00     0.031 A 
ATOM     42  C   UNL A   1      44.407  25.552  27.136  1.00  0.00     0.074 A 
ATOM     43  C   UNL A   1      42.100  25.811  27.990  1.00  0.00     0.049 A 
ATOM     44  N   UNL A   1      44.888  26.750  27.348  1.00  0.00    -0.248 NA
ATOM     45  C   UNL A   1      45.371  24.615  26.540  1.00  0.00     0.031 C 
ATOM     46  C   UNL A   1      40.743  25.394  28.354  1.00  0.00     0.029 A 
ATOM     47  N   UNL A   1      42.143  27.136  28.346  1.00  0.00    -0.354 N 
ATOM     48  C   UNL A   1      46.211  26.710  26.919  1.00  0.00     0.074 A 
ATOM     49  C   UNL A   1      46.472  25.350  26.497  1.00  0.00     0.031 C 
ATOM     50  C   UNL A   1      40.076  26.449  28.847  1.00  0.00     0.029 A 
ATOM     51  C   UNL A   1      40.969  27.601  28.895  1.00  0.00     0.049 A 
ATOM     52  H   UNL A   1      42.939  27.702  28.220  1.00  0.00     0.167 HD
ATOM     53  C   UNL A   1      47.116  27.719  26.862  1.00  0.00     0.034 A 
ATOM     54  C   UNL A   1      40.653  28.813  29.396  1.00  0.00     0.034 A 
ATOM     55  C   UNL A   1      46.836  29.070  27.287  1.00  0.00     0.049 A 
ATOM     56  C   UNL A   1      41.695  29.902  29.375  1.00  0.00     0.074 A 
ATOM     57  C   UNL A   1      47.666  30.177  27.230  1.00  0.00     0.029 A 
ATOM     58  N   UNL A   1      45.646  29.496  27.862  1.00  0.00    -0.354 N 
ATOM     59  N   UNL A   1      42.927  29.859  28.921  1.00  0.00    -0.248 NA
ATOM     60  C   UNL A   1      41.302  31.206  29.923  1.00  0.00     0.031 C 
ATOM     61  C   UNL A   1      47.013  31.244  27.853  1.00  0.00     0.029 A 
ATOM     62  C   UNL A   1      45.737  30.837  28.204  1.00  0.00     0.049 A 
ATOM     63  H   UNL A   1      44.853  28.930  28.006  1.00  0.00     0.167 HD
ATOM     64  C   UNL A   1      43.442  31.141  29.097  1.00  0.00     0.074 A 
ATOM     65  C   UNL A   1      42.382  31.936  29.683  1.00  0.00     0.031 C 
ATOM     66  C   UNL A   1      44.677  31.620  28.797  1.00  0.00     0.034 A 
BRANCH  53  67
ATOM     67  C   UNL A   1      48.500  27.391  26.351  1.00  0.00     0.023 A 
ATOM     68  C   UNL A   1      49.535  26.994  27.216  1.00  0.00     0.031 A 
ATOM     69  C   UNL A   1      48.792  27.483  24.978  1.00  0.00     0.131 A 
ATOM     70  C   UNL A   1      50.826  26.779  26.711  1.00  0.00     0.055 A 
ATOM     71  C   UNL A   1      50.056  27.179  24.471  1.00  0.00     0.041 A 
ATOM     72  F   UNL A   1      47.854  27.881  24.104  1.00  0.00    -0.206 F 
ATOM     73  C   UNL A   1      51.087  26.838  25.341  1.00  0.00     0.022 A 
BRANCH  70  74
ATOM     74  S   UNL A   1      52.191  26.574  27.888  1.00  0.00     0.124 S 
ATOM     75  O   UNL A   1      53.068  25.654  27.165  1.00  0.00    -0.237 OA
ATOM     76  O   UNL A   1      52.683  27.937  28.043  1.00  0.00    -0.237 OA
ATOM     77  O   UNL A   1      51.544  26.004  29.067  1.00  0.00    -0.744 OA
ENDBRANCH  70  74
ENDBRANCH  53  67
BRANCH  54  78
ATOM     78  C   UNL A   1      39.302  29.061  29.984  1.00  0.00     0.023 A 
ATOM     79  C   UNL A   1      38.324  29.780  29.278  1.00  0.00     0.031 A 
ATOM     80  C   UNL A   1      38.989  28.631  31.286  1.00  0.00     0.131 A 
ATOM     81  C   UNL A   1      37.106  30.098  29.897  1.00  0.00     0.055 A 
ATOM     82  C   UNL A   1      37.749  28.890  31.873  1.00  0.00     0.041 A 
ATOM     83  F   UNL A   1      39.887  27.944  32.011  1.00  0.00    -0.206 F 
ATOM     84  C   UNL A   1      36.805  29.643  31.182  1.00  0.00     0.022 A 
BRANCH  81  85
ATOM     85  S   UNL A   1      35.966  31.222  29.043  1.00  0.00     0.124 S 
ATOM     86  O   UNL A   1      35.159  31.720  30.149  1.00  0.00    -0.237 OA
ATOM     87  O   UNL A   1      36.885  32.179  28.434  1.00  0.00    -0.237 OA
ATOM     88  O   UNL A   1      35.268  30.347  28.103  1.00  0.00    -0.744 OA
ENDBRANCH  81  85
ENDBRANCH  54  78
BRANCH  66  89
ATOM     89  C   UNL A   1      44.929  33.088  29.046  1.00  0.00     0.023 A 
ATOM     90  C   UNL A   1      45.481  33.557  30.251  1.00  0.00     0.031 A 
ATOM     91  C   UNL A   1      44.603  34.038  28.059  1.00  0.00     0.131 A 
ATOM     92  C   UNL A   1      45.632  34.936  30.463  1.00  0.00     0.055 A 
ATOM     93  C   UNL A   1      44.828  35.401  28.245  1.00  0.00     0.041 A 
ATOM     94  F   UNL A   1      44.065  33.651  26.890  1.00  0.00    -0.206 F 
ATOM     95  C   UNL A   1      45.331  35.860  29.458  1.00  0.00     0.022 A 
BRANCH  92  96
ATOM     96  S   UNL A   1      46.119  35.515  32.111  1.00  0.00     0.124 S 
ATOM     97  O   UNL A   1      45.972  36.961  31.977  1.00  0.00    -0.237 OA
ATOM     98  O   UNL A   1      45.147  34.853  32.975  1.00  0.00    -0.237 OA
ATOM     99  O   UNL A   1      47.494  35.041  32.248  1.00  0.00    -0.744 OA
ENDBRANCH  92  96
ENDBRANCH  66  89
ENDBRANCH  40  41
ENDBRANCH  32  35
ENDBRANCH  30  31
ENDBRANCH  29  30
ENDBRANCH  28  29
ENDBRANCH   1  28
TORSDOF 22
ENDMDL
